#------------------------------------------------------------------------------
#$Date: 2024-02-04 14:32:31 +0200 (Sun, 04 Feb 2024) $
#$Revision: 289645 $
#$URL: file:///home/coder/svn-repositories/cod/cif/1/57/04/1570477.cif $
#------------------------------------------------------------------------------
#
# This file is available in the Crystallography Open Database (COD),
# http://www.crystallography.net/
#
# All data on this site have been placed in the public domain by the
# contributors.
#
data_1570477
loop_
_publ_author_name
'Liu, Yue'
'Yang, Gang'
'Li, Chao'
'Tan, Chen'
'Chen, Min'
_publ_section_title
;
 Ligand pre-inserted \a-diimine palladium catalysts and mechanism studies
 in olefin polymerization
;
_journal_issue                   1
_journal_name_full               'Polymer Chemistry'
_journal_page_first              40
_journal_page_last               45
_journal_paper_doi               10.1039/D3PY01011B
_journal_volume                  15
_journal_year                    2024
_chemical_formula_moiety         'C49 H48 N3 Pd, C32 H12 B F24'
_chemical_formula_sum            'C81 H60 B F24 N3 Pd'
_chemical_formula_weight         1648.53
_space_group_crystal_system      triclinic
_space_group_IT_number           2
_space_group_name_Hall           '-P 1'
_space_group_name_H-M_alt        'P -1'
_atom_sites_solution_hydrogens   geom
_atom_sites_solution_primary     dual
_audit_creation_date             2023-05-29
_audit_creation_method
;
Olex2 1.2
(compiled 2018.05.29 svn.r3508 for OlexSys, GUI svn.r5506)
;
_audit_update_record
;
2023-05-29 deposited with the CCDC.	2023-11-29 downloaded from the CCDC.
;
_cell_angle_alpha                100.5850(10)
_cell_angle_beta                 95.0430(10)
_cell_angle_gamma                104.5800(10)
_cell_formula_units_Z            2
_cell_length_a                   10.0340(3)
_cell_length_b                   19.1514(7)
_cell_length_c                   20.3631(6)
_cell_measurement_reflns_used    9080
_cell_measurement_temperature    150
_cell_measurement_theta_max      26.367
_cell_measurement_theta_min      2.321
_cell_volume                     3685.4(2)
_computing_cell_refinement       'SAINT V8.40A (?, 2016)'
_computing_data_reduction        'SAINT V8.40A (?, 2016)'
_computing_molecular_graphics    'Olex2 (Dolomanov et al., 2009)'
_computing_publication_material  'Olex2 (Dolomanov et al., 2009)'
_computing_structure_refinement  'ShelXL (Sheldrick, 2015)'
_computing_structure_solution    'ShelXT (Sheldrick, 2015)'
_diffrn_ambient_temperature      150
_diffrn_measured_fraction_theta_full 0.996
_diffrn_measured_fraction_theta_max 0.993
_diffrn_measurement_device_type  'D8 VENTURE'
_diffrn_measurement_method       '\f and \w scans'
_diffrn_radiation_type           MoK\a
_diffrn_radiation_wavelength     0.71073
_diffrn_reflns_av_R_equivalents  0.0508
_diffrn_reflns_av_unetI/netI     0.0592
_diffrn_reflns_Laue_measured_fraction_full 0.996
_diffrn_reflns_Laue_measured_fraction_max 0.993
_diffrn_reflns_limit_h_max       12
_diffrn_reflns_limit_h_min       -12
_diffrn_reflns_limit_k_max       23
_diffrn_reflns_limit_k_min       -23
_diffrn_reflns_limit_l_max       25
_diffrn_reflns_limit_l_min       -24
_diffrn_reflns_number            43578
_diffrn_reflns_point_group_measured_fraction_full 0.996
_diffrn_reflns_point_group_measured_fraction_max 0.993
_diffrn_reflns_theta_full        25.242
_diffrn_reflns_theta_max         26.381
_diffrn_reflns_theta_min         2.118
_diffrn_standards_number         0
_exptl_absorpt_coefficient_mu    0.360
_exptl_absorpt_correction_T_max  0.7454
_exptl_absorpt_correction_T_min  0.5480
_exptl_absorpt_correction_type   multi-scan
_exptl_absorpt_process_details
'SADABS-2016/2 (Bruker,2016/2) was used for absorption correction. wR2(int) was 0.1046 before and 0.0625 after correction. The Ratio of minimum to maximum transmission is 0.7352. The \l/2 correction factor is Not present.'
_exptl_crystal_colour            red
_exptl_crystal_colour_primary    red
_exptl_crystal_density_diffrn    1.486
_exptl_crystal_description       block
_exptl_crystal_F_000             1668
_exptl_crystal_size_max          0.15
_exptl_crystal_size_mid          0.06
_exptl_crystal_size_min          0.03
_refine_diff_density_max         1.917
_refine_diff_density_min         -1.096
_refine_diff_density_rms         0.081
_refine_ls_extinction_method     none
_refine_ls_goodness_of_fit_ref   1.050
_refine_ls_hydrogen_treatment    constr
_refine_ls_matrix_type           full
_refine_ls_number_parameters     1023
_refine_ls_number_reflns         14994
_refine_ls_number_restraints     1116
_refine_ls_restrained_S_all      1.225
_refine_ls_R_factor_all          0.0679
_refine_ls_R_factor_gt           0.0553
_refine_ls_shift/su_max          0.003
_refine_ls_shift/su_mean         0.000
_refine_ls_structure_factor_coef Fsqd
_refine_ls_weighting_details
'w=1/[\s^2^(Fo^2^)+(0.0621P)^2^+5.8445P] where P=(Fo^2^+2Fc^2^)/3'
_refine_ls_weighting_scheme      calc
_refine_ls_wR_factor_gt          0.1375
_refine_ls_wR_factor_ref         0.1478
_reflns_Friedel_coverage         0.000
_reflns_number_gt                12599
_reflns_number_total             14994
_reflns_threshold_expression     'I > 2\s(I)'
_iucr_refine_instructions_details
;
TITL 52lypd2cn_0m_a.res in P-1
    52lypd2cn_0m.res
    created by SHELXL-2018/3 at 12:32:30 on 29-May-2023
REM Old TITL 52LYPd2CN_0m in P-1
REM SHELXT solution in P-1
REM R1 0.173, Rweak 0.012, Alpha 0.075, Orientation as input
REM Formula found by SHELXT: C96 N4 O9 Br
CELL 0.71073 10.034 19.1514 20.3631 100.585 95.043 104.58
ZERR 2 0.0003 0.0007 0.0006 0.001 0.001 0.001
LATT 1
SFAC C H B F N Pd
UNIT 162 120 2 48 6 2
DELU
DELU 0.005 0.005 F15 C72
SIMU
SIMU 0.005 0.01 2 C72 F15
ISOR 0.001 0.002 F2 F15 F13 F25 F26 F27 F24 F23

L.S. 30 0 10
PLAN  20
SIZE 0.15 0.06 0.03
TEMP -123.15
BOND $H
list 4
fmap 2
ACTA
REM <olex2.extras>
REM <HklSrc "%.\\52LYPd2CN_0m.hkl">
REM </olex2.extras>

WGHT    0.062100    5.844501
FVAR       0.55435
PD1   6    0.197634    0.799607    0.793614    11.00000    0.03421    0.02352 =
         0.01844    0.00564    0.00476    0.01185
F21   4    0.704033   -0.027418    0.825389    11.00000    0.05638    0.03798 =
         0.07575    0.02128    0.01630    0.02016
F6    4    0.606741    0.455317    0.655292    11.00000    0.08122    0.06495 =
         0.03708    0.02484    0.02244    0.03617
F5    4    0.429598    0.366825    0.655666    11.00000    0.06829    0.05666 =
         0.05645    0.01383   -0.02182    0.01979
F20   4    0.483766   -0.062718    0.817088    11.00000    0.05632    0.03292 =
         0.08731   -0.00674    0.00311   -0.00389
F4    4    0.455329    0.474090    0.717913    11.00000    0.08915    0.07670 =
         0.04279    0.02064    0.02102    0.06488
F22   4    0.605909   -0.035110    0.913998    11.00000    0.12677    0.04276 =
         0.05688    0.02950    0.02086    0.03179
N2    5    0.259194    0.709457    0.736679    11.00000    0.02888    0.02337 =
         0.02011    0.00508    0.00583    0.00782
N1    5    0.203201    0.865293    0.727177    11.00000    0.04793    0.02947 =
         0.02452    0.00628    0.00829    0.02049
N3    5    0.196896    0.731456    0.859541    11.00000    0.03185    0.02445 =
         0.01699    0.00298    0.00415    0.00874
F18   4    1.189045    0.436261    0.901066    11.00000    0.06869    0.04979 =
         0.07921   -0.01787    0.01562   -0.01196
F7    4    0.277881    0.118463    0.613595    11.00000    0.05720    0.09730 =
         0.07262    0.03608   -0.02506   -0.01074
F16   4    1.282651    0.130471    0.774802    11.00000    0.04290    0.08378 =
         0.10538   -0.02148    0.00281    0.03107
F17   4    1.287222    0.426403    0.813893    11.00000    0.07670    0.06258 =
         0.06564    0.02955    0.00960   -0.01711
F9    4    0.324212    0.043550    0.533642    11.00000    0.11498    0.06198 =
         0.05981    0.01472   -0.03600   -0.03839
F19   4    1.359675    0.389574    0.898420    11.00000    0.06611    0.05771 =
         0.11474    0.02137   -0.05121   -0.01148
F1    4    0.702011    0.534842    0.942268    11.00000    0.14620    0.05570 =
         0.04652   -0.01475   -0.00488    0.04624
F8    4    0.337300    0.154836    0.524198    11.00000    0.08247    0.08898 =
         0.08733    0.06124   -0.04164   -0.01995
C16   1    0.166155    0.659643    0.618067    11.00000    0.02789    0.02375 =
         0.02308    0.00715    0.00425    0.01094
C36   1    0.252123    0.677760    0.843146    11.00000    0.03413    0.02759 =
         0.02072    0.00632    0.00230    0.00710
C7    1    0.522325    0.786673    0.703822    11.00000    0.03402    0.02379 =
         0.02310    0.00216    0.00199    0.00887
AFIX  13
H7    2    0.475805    0.812108    0.738505    11.00000   -1.20000
AFIX   0
C15   1    0.278946    0.700725    0.666592    11.00000    0.03116    0.02265 =
         0.01915    0.00415    0.00491    0.01291

PART 1
F26   4    0.519215    0.216206    1.032887    10.75000    0.06340    0.07516 =
         0.05301   -0.00069    0.00695    0.02347

PART 0
C14   1    0.405826    0.737332    0.648968    11.00000    0.03077    0.02235 =
         0.02100    0.00408    0.00371    0.01117
C1    1    0.598681    0.742003    0.739984    11.00000    0.02760    0.02781 =
         0.02808    0.00509    0.00111    0.00345
C17   1    0.185198    0.651948    0.550242    11.00000    0.03063    0.02867 =
         0.01885    0.00488    0.00230    0.01141
AFIX  43
H17   2    0.109834    0.623757    0.516488    11.00000   -1.20000
AFIX   0
C35   1    0.285577    0.664428    0.772250    11.00000    0.02847    0.02422 =
         0.02300    0.00628    0.00215    0.00684
C18   1    0.311193    0.684379    0.530928    11.00000    0.03547    0.02859 =
         0.01847    0.00631    0.00498    0.01375

C55   1    0.633796    0.336827    0.739183    11.00000    0.03298    0.02780 =
         0.02504    0.00646    0.00625    0.00890
AFIX  43
H55   2    0.609402    0.306916    0.694885    11.00000   -1.20000
AFIX   0

C19   1    0.419981    0.727883    0.580519    11.00000    0.02988    0.02568 =
         0.02533    0.00779    0.00757    0.00883
AFIX  43
H19   2    0.505560    0.751603    0.567464    11.00000   -1.20000
AFIX   0
C20   1    0.329412    0.672820    0.457332    11.00000    0.03994    0.03853 =
         0.02061    0.00556    0.00811    0.00882
AFIX 137
H20A  2    0.329798    0.621504    0.440706    11.00000   -1.50000
H20B  2    0.417747    0.706043    0.452019    11.00000   -1.50000
H20C  2    0.252527    0.683403    0.431454    11.00000   -1.50000
AFIX   0

C63   1    0.579232    0.207047    0.875165    11.00000    0.03219    0.03050 =
         0.02947    0.00791   -0.00006    0.00970
AFIX  43
H63   2    0.574022    0.256586    0.880606    11.00000   -1.20000
AFIX   0
C58   1    0.651134    0.180376    0.824685    11.00000    0.02660    0.02915 =
         0.02637    0.00691   -0.00434    0.00554

C44   1    0.237270    0.879757    0.931594    11.00000    0.04182    0.02904 =
         0.02337   -0.00052    0.00172    0.00896
AFIX  23
H44A  2    0.332686    0.875624    0.927420    11.00000   -1.20000
H44B  2    0.244410    0.925864    0.964692    11.00000   -1.20000
AFIX   0
C28   1    0.027769    0.549641    0.657173    11.00000    0.02639    0.03195 =
         0.02674    0.01036    0.00013    0.00487

C54   1    0.598633    0.403053    0.751875    11.00000    0.03963    0.03404 =
         0.02784    0.01050    0.00907    0.01480
C59   1    0.650508    0.106053    0.818756    11.00000    0.03026    0.02807 =
         0.02869    0.00438    0.00022    0.00496
AFIX  43
H59   2    0.693215    0.084111    0.783756    11.00000   -1.20000
AFIX   0

C29   1   -0.022961    0.531904    0.715194    11.00000    0.03090    0.04580 =
         0.03523    0.01752    0.00847    0.01146
AFIX  43
H29   2   -0.054856    0.566928    0.744473    11.00000   -1.20000
AFIX   0

C80   1    0.553570    0.163557    0.667866    11.00000    0.04977    0.02606 =
         0.03344    0.01119   -0.00659    0.00257
AFIX  43
H80   2    0.483988    0.162292    0.696735    11.00000   -1.20000
AFIX   0
F10   4    0.814208    0.164065    0.472973    11.00000    0.16869    0.12786 =
         0.03791    0.02555    0.03528    0.05797

C45   1    0.166533    0.883676    0.862668    11.00000    0.04964    0.02914 =
         0.02381    0.00415    0.00759    0.01814
AFIX  13
H45   2    0.216400    0.931294    0.851511    11.00000   -1.20000
AFIX   0

C66   1    0.906957    0.241589    0.795797    11.00000    0.03220    0.03234 =
         0.02077    0.00796    0.00529    0.00595
C21   1    0.028514    0.623633    0.639890    11.00000    0.02851    0.03359 =
         0.02398    0.00998    0.00631    0.01079
AFIX  13
H21   2    0.020791    0.656753    0.682643    11.00000   -1.20000
AFIX   0

C67   1    1.005798    0.309712    0.821268    11.00000    0.03707    0.02968 =
         0.02692    0.01131    0.00231    0.00547
AFIX  43
H67   2    0.975035    0.353128    0.829863    11.00000   -1.20000
AFIX   0
C50   1    0.703711    0.312209    0.788895    11.00000    0.03125    0.02781 =
         0.02653    0.00618    0.00403    0.00534

C38   1    0.136553    0.742559    0.920893    11.00000    0.03595    0.03500 =
         0.01688    0.00765    0.00255    0.00997
C34   1    0.339635    0.599872    0.748308    11.00000    0.03269    0.02393 =
         0.02964    0.00744    0.00408    0.01121
AFIX 137
H34A  2    0.349414    0.595863    0.700399    11.00000   -1.50000
H34B  2    0.274521    0.554670    0.754386    11.00000   -1.50000
H34C  2    0.430502    0.606650    0.774403    11.00000   -1.50000
AFIX   0

PART 1
F28   4    0.397966    0.250920    0.960350    10.75000    0.13770    0.13631 =
         0.07093    0.05804    0.05629    0.11758
PART 0
C71   1    0.961234    0.180756    0.783593    11.00000    0.03444    0.03221 =
         0.02946   -0.00041    0.00421    0.00695
AFIX  43
H71   2    0.898863    0.133220    0.766039    11.00000   -1.20000
AFIX   0
C53   1    0.634656    0.449603    0.814930    11.00000    0.04566    0.02860 =
         0.03273    0.00462    0.00700    0.01311
AFIX  43
H53   2    0.611397    0.495231    0.823609    11.00000   -1.20000
AFIX   0

C37   1    0.285912    0.629147    0.888079    11.00000    0.06629    0.04232 =
         0.02753    0.01685    0.01094    0.02671
AFIX 137
H37A  2    0.284359    0.651880    0.935126    11.00000   -1.50000
H37B  2    0.378635    0.622871    0.882848    11.00000   -1.50000
H37C  2    0.216887    0.580831    0.875709    11.00000   -1.50000
AFIX   0

F11   4    0.908707    0.106157    0.532572    11.00000    0.14473    0.10070 =
         0.10595    0.05269    0.06923    0.06971
F12   4    0.964385    0.223811    0.553997    11.00000    0.14090    0.09568 =
         0.08077   -0.01292    0.06879   -0.02482
C22   1   -0.096915    0.619620    0.588803    11.00000    0.02788    0.04866 =
         0.02426    0.01551    0.00823    0.01395
C39   1    0.049246    0.683206    0.940048    11.00000    0.04785    0.03436 =
         0.02492    0.00609    0.00692    0.00678
AFIX  43
H39   2    0.034854    0.634511    0.914460    11.00000   -1.20000
AFIX   0

C51   1    0.739750    0.360918    0.852522    11.00000    0.03742    0.02787 =
         0.02683    0.00564   -0.00091    0.00377
AFIX  43
H51   2    0.789074    0.347674    0.888124    11.00000   -1.20000
AFIX   0
C68   1    1.147430    0.316135    0.834449    11.00000    0.03507    0.03895 =
         0.02341    0.01042    0.00339    0.00065
F2    4    0.698588    0.440780    0.980460    11.00000    0.17145    0.07621 =
         0.04035    0.01123    0.01294    0.01687
C60   1    0.589797    0.063520    0.862148    11.00000    0.03065    0.02863 =
         0.03045    0.00868   -0.00341    0.00263
C62   1    0.514840    0.163839    0.917860    11.00000    0.03115    0.03806 =
         0.03071    0.00887   -0.00063    0.00944

C43   1    0.157193    0.814920    0.956782    11.00000    0.03227    0.03454 =
         0.02048    0.00439    0.00094    0.01226
C2    1    0.643010    0.684810    0.704504    11.00000    0.03074    0.03598 =
         0.02922    0.00812    0.00451    0.00867
AFIX  43
H2    2    0.625017    0.672776    0.656607    11.00000   -1.20000
AFIX   0
C6    1    0.626983    0.758768    0.810454    11.00000    0.04562    0.03149 =
         0.02786    0.00494   -0.00026    0.00670
AFIX  43
H6    2    0.598478    0.798110    0.835495    11.00000   -1.20000
AFIX   0

C61   1    0.520825    0.091509    0.912375    11.00000    0.03095    0.03393 =
         0.03197    0.01273   -0.00083    0.00032
AFIX  43
H61   2    0.479200    0.062194    0.941942    11.00000   -1.20000
AFIX   0
C69   1    1.198614    0.255178    0.821848    11.00000    0.02985    0.05134 =
         0.02703    0.00520    0.00496    0.00617
AFIX  43
H69   2    1.295335    0.259657    0.830423    11.00000   -1.20000
AFIX   0
C75   1    0.789217    0.190251    0.650659    11.00000    0.05430    0.02746 =
         0.02818    0.00444    0.00501    0.00897
AFIX  43
H75   2    0.885543    0.208955    0.667513    11.00000   -1.20000
AFIX   0
C74   1    0.692830    0.191196    0.696362    11.00000    0.04476    0.02153 =
         0.02934    0.00571   -0.00197    0.00624

C30   1   -0.027757    0.464051    0.730996    11.00000    0.04083    0.05522 =
         0.04365    0.03219    0.00988    0.01256
AFIX  43
H30   2   -0.062519    0.452846    0.770853    11.00000   -1.20000
AFIX   0

C52   1    0.705890    0.427331    0.865011    11.00000    0.04272    0.02719 =
         0.02857    0.00185    0.00415    0.00402
C33   1    0.074902    0.497508    0.615169    11.00000    0.04078    0.03279 =
         0.02922    0.00949    0.00573    0.00759
AFIX  43
H33   2    0.110261    0.508549    0.575388    11.00000   -1.20000
AFIX   0

F3    4    0.880680    0.500323    0.950967    11.00000    0.08735    0.13792 =
         0.10205   -0.07227   -0.04161    0.03375
C70   1    1.102502    0.186810    0.796029    11.00000    0.03517    0.04498 =
         0.03133   -0.00008    0.00543    0.01169
C8    1    0.620320    0.847979    0.678456    11.00000    0.04024    0.02680 =
         0.02233    0.00345   -0.00121    0.00095
C27   1   -0.115763    0.684332    0.574048    11.00000    0.04321    0.06573 =
         0.04641    0.02878    0.01278    0.02509
AFIX  43
H27   2   -0.050498    0.730101    0.594857    11.00000   -1.20000
AFIX   0

C79   1    0.512339    0.137587    0.598312    11.00000    0.06554    0.02815 =
         0.04008    0.01208   -0.01633   -0.00644
C41   1    0.006211    0.766124    1.033441    11.00000    0.05382    0.05273 =
         0.02305    0.00841    0.01371    0.01446
AFIX  43
H41   2   -0.037238    0.774503    1.072646    11.00000   -1.20000
AFIX   0
C42   1    0.091307    0.824766    1.014051    11.00000    0.04953    0.04257 =
         0.01875    0.00450    0.00402    0.01787
AFIX  43
H42   2    0.105700    0.873194    1.040223    11.00000   -1.20000
AFIX   0

C64   1    0.440522    0.195416    0.971423    11.00000    0.04311    0.04949 =
         0.04465    0.01764    0.01330    0.01490
F13   4    1.081459    0.071557    0.728975    11.00000    0.08198    0.10882 =
         0.15101   -0.06533   -0.02151    0.04810
C73   1    1.246452    0.391300    0.862190    11.00000    0.03969    0.04428 =
         0.04322    0.01319   -0.00046   -0.00336
C48   1    0.221298    0.909096    0.695543    11.00000    0.05514    0.03407 =
         0.02965    0.01070    0.00999    0.02190
C46   1    0.014832    0.880709    0.859422    11.00000    0.05577    0.06105 =
         0.03379    0.00986    0.00830    0.03524
AFIX  23
H46A  2   -0.036812    0.832634    0.867910    11.00000   -1.20000
H46B  2   -0.020768    0.883339    0.813288    11.00000   -1.20000
AFIX   0

PART 1
F24   4    0.330843    0.145290    0.983336    10.75000    0.08527    0.09003 =
         0.09211    0.01368    0.04928    0.01309

PART 0
C32   1    0.070467    0.429787    0.631097    11.00000    0.05184    0.03153 =
         0.04163    0.00789    0.00153    0.00979
AFIX  43
H32   2    0.103566    0.394886    0.602322    11.00000   -1.20000
AFIX   0
C3    1    0.713118    0.645159    0.738182    11.00000    0.03180    0.03893 =
         0.04621    0.01150    0.00493    0.01257
AFIX  43
H3    2    0.743062    0.606261    0.713314    11.00000   -1.20000
AFIX   0
C4    1    0.739766    0.662042    0.808089    11.00000    0.03745    0.04722 =
         0.04929    0.02004   -0.00399    0.01018
AFIX  43
H4    2    0.787859    0.634832    0.831191    11.00000   -1.20000
AFIX   0
C31   1    0.018358    0.412492    0.688443    11.00000    0.04726    0.03633 =
         0.05536    0.02248   -0.00054    0.00610
AFIX  43
H31   2    0.014123    0.365611    0.698680    11.00000   -1.20000
AFIX   0

C65   1    0.597473   -0.014445    0.854677    11.00000    0.04840    0.03057 =
         0.04390    0.01108    0.00545    0.00581
C23   1   -0.193319    0.553588    0.558183    11.00000    0.02955    0.06350 =
         0.03636    0.00927    0.00063    0.01085
AFIX  43
H23   2   -0.181851    0.508584    0.567804    11.00000   -1.20000
AFIX   0

C56   1    0.521812    0.424595    0.696196    11.00000    0.05282    0.04123 =
         0.03228    0.00887    0.00777    0.02627
C78   1    0.612169    0.137284    0.554858    11.00000    0.09105    0.03263 =
         0.02641    0.00560   -0.00336    0.00058
AFIX  43
H78   2    0.584933    0.119509    0.507620    11.00000   -1.20000
AFIX   0

C5    1    0.695789    0.718865    0.844038    11.00000    0.04749    0.04506 =
         0.03289    0.01148   -0.00777    0.00447
AFIX  43
H5    2    0.713079    0.730369    0.891949    11.00000   -1.20000
AFIX   0
C40   1   -0.016795    0.694944    0.996377    11.00000    0.05291    0.04732 =
         0.02899    0.01265    0.01437    0.00277
AFIX  43
H40   2   -0.077174    0.654589    1.009401    11.00000   -1.20000
AFIX   0

C76   1    0.749340    0.162849    0.581126    11.00000    0.08042    0.02816 =
         0.02777    0.00588    0.00541    0.00922
B02N  3    0.738364    0.231688    0.776958    11.00000    0.03336    0.02507 =
         0.02476    0.00472   -0.00021    0.00540
C13   1    0.570014    0.902571    0.659193    11.00000    0.07234    0.04777 =
         0.07054    0.03180    0.03335    0.02850
AFIX  43
H13   2    0.474656    0.900246    0.660669    11.00000   -1.20000
AFIX   0

F15   4    1.140181    0.084481    0.833072    11.00000    0.13887    0.11749 =
         0.15036    0.04039    0.03762    0.05972
C72   1    1.150906    0.118892    0.782124    11.00000    0.05121    0.07423 =
         0.07776   -0.01221    0.00580    0.03371
C11   1    0.789302    0.964776    0.633666    11.00000    0.06052    0.06159 =
         0.07803    0.04449   -0.02007   -0.02335
AFIX  43
H11   2    0.847917    1.004490    0.619009    11.00000   -1.20000
AFIX   0

C81   1    0.364814    0.114378    0.568164    11.00000    0.07514    0.05892 =
         0.04811    0.02753   -0.02299   -0.01913
C57   1    0.744847    0.475029    0.934499    11.00000    0.07146    0.03527 =
         0.03455   -0.00168   -0.00640    0.01078
C49   1    0.250823    0.966993    0.656893    11.00000    0.08655    0.04851 =
         0.05548    0.03147    0.02714    0.03259
AFIX 137
H49A  2    0.290973    0.949872    0.616861    11.00000   -1.50000
H49B  2    0.316954    1.011358    0.684993    11.00000   -1.50000
H49C  2    0.164354    0.978602    0.642892    11.00000   -1.50000
AFIX   0
C47   1   -0.014679    0.942950    0.910175    11.00000    0.09758    0.09646 =
         0.04672    0.01103    0.02004    0.07275
AFIX 137
H47A  2    0.042719    0.990725    0.905028    11.00000   -1.50000
H47B  2    0.007610    0.936556    0.956146    11.00000   -1.50000
H47C  2   -0.113210    0.941310    0.901759    11.00000   -1.50000
AFIX   0
C26   1   -0.229670    0.683222    0.528890    11.00000    0.05802    0.10531 =
         0.06217    0.05447    0.02507    0.05073
AFIX  43
H26   2   -0.241374    0.727904    0.518573    11.00000   -1.20000
AFIX   0
C24   1   -0.306822    0.552678    0.513442    11.00000    0.03608    0.10478 =
         0.03987    0.01127   -0.00317    0.01753
AFIX  43
H24   2   -0.372262    0.507020    0.492479    11.00000   -1.20000
AFIX   0
C12   1    0.653996    0.961191    0.637578    11.00000    0.08921    0.04000 =
         0.05967    0.02423    0.01882    0.01692
AFIX  43
H12   2    0.616335    0.998670    0.625577    11.00000   -1.20000
AFIX   0

C77   1    0.859356    0.164161    0.536355    11.00000    0.10447    0.04751 =
         0.03185    0.00512    0.02078    0.01467
C9    1    0.756317    0.852270    0.674526    11.00000    0.03695    0.07208 =
         0.12139    0.06503    0.00108    0.00248
AFIX  43
H9    2    0.795229    0.815718    0.687691    11.00000   -1.20000
AFIX   0
C25   1   -0.324944    0.616888    0.499409    11.00000    0.04168    0.13674 =
         0.04059    0.03426    0.00636    0.03943
AFIX  43
H25   2   -0.403517    0.615848    0.469210    11.00000   -1.20000
AFIX   0
C10   1    0.839171    0.910178    0.651217    11.00000    0.03818    0.11980 =
         0.18730    0.11179   -0.00409   -0.00916
AFIX  43
H10   2    0.933427    0.911433    0.647514    11.00000   -1.20000
AFIX   0

PART 2
F23   4    0.301306    0.169531    0.954010    10.25000    0.04373    0.05366 =
         0.05054    0.00925    0.01036    0.01526

F27   4    0.463172    0.268710    0.978166    10.25000    0.05526    0.05106 =
         0.05322    0.00927    0.01251    0.01648
F25   4    0.467044    0.183757    1.028606    10.25000    0.05170    0.04992 =
         0.04595    0.01322    0.00931    0.01518
HKLF 4




REM  52lypd2cn_0m_a.res in P-1
REM wR2 = 0.1478, GooF = S = 1.050, Restrained GooF = 1.225 for all data
REM R1 = 0.0553 for 12599 Fo > 4sig(Fo) and 0.0679 for all 14994 data
REM 1023 parameters refined using 1116 restraints

END  
     
WGHT      0.0638      6.1326 

REM Highest difference peak  1.917,  deepest hole -1.096,  1-sigma level  0.081
Q1    1   1.0747  0.0611  0.7908  11.00000  0.05    1.92
Q2    1   0.7928  0.4430  0.9813  11.00000  0.05    1.59
Q3    1   1.0970  0.0906  0.6989  11.00000  0.05    1.37
Q4    1   1.1816  0.1019  0.8579  11.00000  0.05    1.23
Q5    1   0.3992  0.1465  1.0132  11.00000  0.05    0.95
Q6    1   0.5420  0.2563  1.0171  11.00000  0.05    0.85
Q7    1   0.6335  0.4457  0.9778  11.00000  0.05    0.82
Q8    1   0.8225  0.5383  0.9383  11.00000  0.05    0.61
Q9    1   0.9312  0.5039  0.9309  11.00000  0.05    0.49
Q10   1   0.0948  0.7846  0.7943  11.00000  0.05    0.47
Q11   1   0.9970  0.1864  0.5710  11.00000  0.05    0.47
Q12   1   0.3025  0.1461  0.9571  11.00000  0.05    0.46
Q13   1   0.2691  0.1829  0.5644  11.00000  0.05    0.42
Q14   1   1.2479  0.4022  0.9212  11.00000  0.05    0.42
Q15   1   0.2959  0.8133  0.7908  11.00000  0.05    0.41
Q16   1   0.2418  0.0744  0.5580  11.00000  0.05    0.41
Q17   1   0.8422  0.1181  0.4768  11.00000  0.05    0.40
Q18   1   1.3662  0.3836  0.8413  11.00000  0.05    0.40
Q19   1   0.3776  0.3662  0.6895  11.00000  0.05    0.40
Q20   1   0.3059  0.1941  0.9289  11.00000  0.05    0.40

  REM The information below was added by Olex2.
  REM
  REM R1 = 0.0553 for 12599 Fo > 4sig(Fo) and 0.0679 for all 43578 data
  REM n/a parameters refined using n/a restraints
  REM Highest difference peak 1.92, deepest hole -1.10
  REM Mean Shift 0, Max Shift -0.003.

  REM +++ Tabular Listing of Refinement Information +++
  REM R1_all = 0.0679
  REM R1_gt = 0.0553
  REM wR_ref = 0.1478
  REM GOOF = 1.050
  REM Shift_max = -0.003
  REM Shift_mean = 0
  REM Reflections_all = 43578
  REM Reflections_gt = 12599
  REM Parameters = n/a
  REM Hole = -1.10
  REM Peak = 1.92
  REM Flack = n/a

  
;
_cod_data_source_file            d3py01011b2.cif
_cod_data_source_block           52lypd2cn_0m
_cod_depositor_comments
'Adding full bibliography for 1570475--1570477.cif.'
_cod_database_code               1570477
_shelx_shelxl_version_number     2018/3
_shelx_space_group_comment
;
The symmetry employed for this shelxl refinement is uniquely defined
by the following loop, which should always be used as a source of
symmetry information in preference to the above space-group names.
They are only intended as comments.
;
_shelx_estimated_absorpt_t_max   0.989
_shelx_estimated_absorpt_t_min   0.948
_olex2_refinement_description
;
1. Fixed Uiso
 At 1.2 times of:
  All C(H) groups, All C(H,H) groups
 At 1.5 times of:
  All C(H,H,H) groups
2. Rigid bond restraints
 All non-hydrogen atoms
 with sigma for 1-2 distances of 0.01 and sigma for 1-3 distances of 0.01
 F15, C72
 with sigma for 1-2 distances of 0.005 and sigma for 1-3 distances of 0.005
3. Uiso/Uaniso restraints and constraints
All non-hydrogen atoms have similar U: within 2A with sigma of 0.04 and sigma
for terminal atoms of 0.08
C72 \\sim F15: within 2A with sigma of 0.005 and sigma for terminal atoms of
0.01
Uanis(F2) \\sim Ueq, Uanis(F15) \\sim Ueq, Uanis(F13) \\sim Ueq, Uanis(F25)
\\sim Ueq, Uanis(F26) \\sim Ueq, Uanis(F27) \\sim Ueq, Uanis(F24) \\sim Ueq,
Uanis(F23) \\sim Ueq: with sigma of 0.001 and sigma for terminal atoms of 0.002
4. Others
 Fixed Sof: F26(0.75) F28(0.75) F24(0.75) F23(0.25) F27(0.25) F25(0.25)
5.a Ternary CH refined with riding coordinates:
 C7(H7), C45(H45), C21(H21)
5.b Secondary CH2 refined with riding coordinates:
 C44(H44A,H44B), C46(H46A,H46B)
5.c Aromatic/amide H refined with riding coordinates:
 C17(H17), C55(H55), C19(H19), C63(H63), C59(H59), C29(H29), C80(H80),
 C67(H67), C71(H71), C53(H53), C39(H39), C51(H51), C2(H2), C6(H6), C61(H61),
 C69(H69), C75(H75), C30(H30), C33(H33), C27(H27), C41(H41), C42(H42), C32(H32),
  C3(H3), C4(H4), C31(H31), C23(H23), C78(H78), C5(H5), C40(H40), C13(H13),
 C11(H11), C26(H26), C24(H24), C12(H12), C9(H9), C25(H25), C10(H10)
5.d Idealised Me refined as rotating group:
 C20(H20A,H20B,H20C), C34(H34A,H34B,H34C), C37(H37A,H37B,H37C), C49(H49A,H49B,
 H49C), C47(H47A,H47B,H47C)
;
_olex2_submission_special_instructions 'No special instructions were received'
loop_
_space_group_symop_operation_xyz
'x, y, z'
'-x, -y, -z'
loop_
_atom_site_label
_atom_site_type_symbol
_atom_site_fract_x
_atom_site_fract_y
_atom_site_fract_z
_atom_site_U_iso_or_equiv
_atom_site_adp_type
_atom_site_occupancy
_atom_site_site_symmetry_order
_atom_site_calc_flag
_atom_site_refinement_flags_posn
_atom_site_refinement_flags_adp
_atom_site_refinement_flags_occupancy
_atom_site_disorder_assembly
_atom_site_disorder_group
Pd1 Pd 0.19763(3) 0.79961(2) 0.79361(2) 0.02444(8) Uani 1 1 d . U . . .
F21 F 0.7040(3) -0.02742(12) 0.82539(14) 0.0537(6) Uani 1 1 d . U . . .
F6 F 0.6067(3) 0.45532(14) 0.65529(11) 0.0553(6) Uani 1 1 d . U . . .
F5 F 0.4296(3) 0.36683(14) 0.65567(13) 0.0617(7) Uani 1 1 d . U . . .
F20 F 0.4838(3) -0.06272(13) 0.81709(15) 0.0649(7) Uani 1 1 d . U . . .
F4 F 0.4553(3) 0.47409(15) 0.71791(12) 0.0599(7) Uani 1 1 d . U . . .
F22 F 0.6059(4) -0.03511(14) 0.91400(14) 0.0709(8) Uani 1 1 d . U . . .
N2 N 0.2592(3) 0.70946(14) 0.73668(12) 0.0238(5) Uani 1 1 d . U . . .
N1 N 0.2032(3) 0.86529(15) 0.72718(14) 0.0319(6) Uani 1 1 d . U . . .
N3 N 0.1969(3) 0.73146(14) 0.85954(12) 0.0244(5) Uani 1 1 d . U . . .
F18 F 1.1890(3) 0.43626(15) 0.90107(15) 0.0750(9) Uani 1 1 d . U . . .
F7 F 0.2779(3) 0.11846(18) 0.61360(16) 0.0814(9) Uani 1 1 d . U . . .
F16 F 1.2827(3) 0.13047(17) 0.77480(17) 0.0808(10) Uani 1 1 d . U . . .
F17 F 1.2872(3) 0.42640(15) 0.81389(14) 0.0729(8) Uani 1 1 d . U . . .
F9 F 0.3242(4) 0.04355(16) 0.53364(15) 0.0933(12) Uani 1 1 d . U . . .
F19 F 1.3597(3) 0.38957(16) 0.89842(18) 0.0884(11) Uani 1 1 d . U . . .
F1 F 0.7020(4) 0.53484(16) 0.94227(14) 0.0839(10) Uani 1 1 d . U . . .
F8 F 0.3373(3) 0.15484(18) 0.52420(16) 0.0920(12) Uani 1 1 d . U . . .
C16 C 0.1662(3) 0.65964(16) 0.61807(15) 0.0239(6) Uani 1 1 d . U . . .
C36 C 0.2521(3) 0.67776(17) 0.84315(15) 0.0277(7) Uani 1 1 d . U . . .
C7 C 0.5223(3) 0.78667(17) 0.70382(15) 0.0273(6) Uani 1 1 d . U . . .
H7 H 0.475805 0.812108 0.738505 0.033 Uiso 1 1 calc R . . . .
C15 C 0.2789(3) 0.70072(16) 0.66659(15) 0.0232(6) Uani 1 1 d . U . . .
F26 F 0.5192(4) 0.2162(3) 1.03289(19) 0.0650(10) Uani 0.75 1 d . U P A 1
C14 C 0.4058(3) 0.73733(16) 0.64897(15) 0.0241(6) Uani 1 1 d . U . . .
C1 C 0.5987(3) 0.74200(18) 0.73998(16) 0.0289(7) Uani 1 1 d . U . . .
C17 C 0.1852(3) 0.65195(17) 0.55024(15) 0.0255(6) Uani 1 1 d . U . . .
H17 H 0.109834 0.623757 0.516488 0.031 Uiso 1 1 calc R . . . .
C35 C 0.2856(3) 0.66443(17) 0.77225(15) 0.0252(6) Uani 1 1 d . U . . .
C18 C 0.3112(3) 0.68438(17) 0.53093(15) 0.0263(6) Uani 1 1 d . U . . .
C55 C 0.6338(3) 0.33683(18) 0.73918(16) 0.0283(7) Uani 1 1 d . U . . .
H55 H 0.609402 0.306916 0.694885 0.034 Uiso 1 1 calc R . . . .
C19 C 0.4200(3) 0.72788(17) 0.58052(15) 0.0262(6) Uani 1 1 d . U . . .
H19 H 0.505560 0.751603 0.567464 0.031 Uiso 1 1 calc R . . . .
C20 C 0.3294(4) 0.6728(2) 0.45733(16) 0.0332(7) Uani 1 1 d . U . . .
H20A H 0.329798 0.621504 0.440706 0.050 Uiso 1 1 calc GR . . . .
H20B H 0.417747 0.706043 0.452019 0.050 Uiso 1 1 calc GR . . . .
H20C H 0.252527 0.683403 0.431454 0.050 Uiso 1 1 calc GR . . . .
C63 C 0.5792(3) 0.20705(19) 0.87516(16) 0.0306(7) Uani 1 1 d . U . . .
H63 H 0.574022 0.256586 0.880606 0.037 Uiso 1 1 calc R . . . .
C58 C 0.6511(3) 0.18038(18) 0.82468(16) 0.0281(7) Uani 1 1 d . U . . .
C44 C 0.2373(4) 0.87976(18) 0.93159(16) 0.0325(7) Uani 1 1 d . U . . .
H44A H 0.332686 0.875624 0.927420 0.039 Uiso 1 1 calc R . . . .
H44B H 0.244410 0.925864 0.964692 0.039 Uiso 1 1 calc R . . . .
C28 C 0.0278(3) 0.54964(18) 0.65717(16) 0.0286(7) Uani 1 1 d . U . . .
C54 C 0.5986(4) 0.40305(19) 0.75188(17) 0.0322(7) Uani 1 1 d . U . . .
C59 C 0.6505(3) 0.10605(18) 0.81876(17) 0.0300(7) Uani 1 1 d . U . . .
H59 H 0.693215 0.084111 0.783756 0.036 Uiso 1 1 calc R . . . .
C29 C -0.0230(4) 0.5319(2) 0.71519(18) 0.0357(8) Uani 1 1 d . U . . .
H29 H -0.054856 0.566928 0.744473 0.043 Uiso 1 1 calc R . . . .
C80 C 0.5536(4) 0.16356(18) 0.66787(18) 0.0380(8) Uani 1 1 d . U . . .
H80 H 0.483988 0.162292 0.696735 0.046 Uiso 1 1 calc R . . . .
F10 F 0.8142(5) 0.1641(2) 0.47297(15) 0.1059(13) Uani 1 1 d . U . . .
C45 C 0.1665(4) 0.88368(19) 0.86267(16) 0.0329(7) Uani 1 1 d . U . . .
H45 H 0.216400 0.931294 0.851511 0.039 Uiso 1 1 calc R . . . .
C66 C 0.9070(3) 0.24159(18) 0.79580(15) 0.0286(7) Uani 1 1 d . U . . .
C21 C 0.0285(3) 0.62363(18) 0.63989(16) 0.0276(7) Uani 1 1 d . U . . .
H21 H 0.020791 0.656753 0.682643 0.033 Uiso 1 1 calc R . . . .
C67 C 1.0058(4) 0.30971(19) 0.82127(16) 0.0313(7) Uani 1 1 d . U . . .
H67 H 0.975035 0.353128 0.829863 0.038 Uiso 1 1 calc R . . . .
C50 C 0.7037(3) 0.31221(18) 0.78890(16) 0.0290(7) Uani 1 1 d . U . . .
C38 C 0.1366(3) 0.74256(18) 0.92089(15) 0.0290(7) Uani 1 1 d . U . . .
C34 C 0.3396(3) 0.59987(17) 0.74831(16) 0.0279(7) Uani 1 1 d . U . . .
H34A H 0.349414 0.595863 0.700399 0.042 Uiso 1 1 calc GR . . . .
H34B H 0.274521 0.554670 0.754386 0.042 Uiso 1 1 calc GR . . . .
H34C H 0.430502 0.606650 0.774403 0.042 Uiso 1 1 calc GR . . . .
F28 F 0.3980(7) 0.2509(4) 0.9603(3) 0.093(2) Uani 0.75 1 d . U P A 1
C71 C 0.9612(4) 0.18076(19) 0.78359(17) 0.0334(7) Uani 1 1 d . U . . .
H71 H 0.898863 0.133220 0.766039 0.040 Uiso 1 1 calc R . . . .
C53 C 0.6347(4) 0.44960(19) 0.81493(17) 0.0353(8) Uani 1 1 d . U . . .
H53 H 0.611397 0.495231 0.823609 0.042 Uiso 1 1 calc R . . . .
C37 C 0.2859(5) 0.6291(2) 0.88808(18) 0.0417(9) Uani 1 1 d . U . . .
H37A H 0.284359 0.651880 0.935126 0.062 Uiso 1 1 calc GR . . . .
H37B H 0.378635 0.622871 0.882848 0.062 Uiso 1 1 calc GR . . . .
H37C H 0.216887 0.580831 0.875709 0.062 Uiso 1 1 calc GR . . . .
F11 F 0.9087(4) 0.1062(2) 0.5326(2) 0.1031(12) Uani 1 1 d . U . . .
F12 F 0.9644(5) 0.2238(2) 0.55400(18) 0.1173(16) Uani 1 1 d . U . . .
C22 C -0.0969(3) 0.6196(2) 0.58880(16) 0.0316(7) Uani 1 1 d . U . . .
C39 C 0.0492(4) 0.6832(2) 0.94005(17) 0.0365(8) Uani 1 1 d . U . . .
H39 H 0.034854 0.634511 0.914460 0.044 Uiso 1 1 calc R . . . .
C51 C 0.7397(4) 0.36092(18) 0.85252(17) 0.0320(7) Uani 1 1 d . U . . .
H51 H 0.789074 0.347674 0.888124 0.038 Uiso 1 1 calc R . . . .
C68 C 1.1474(4) 0.3161(2) 0.83445(16) 0.0338(7) Uani 1 1 d . U . . .
F2 F 0.6986(5) 0.44078(18) 0.98046(15) 0.0994(10) Uani 1 1 d . U . . .
C60 C 0.5898(3) 0.06352(18) 0.86215(17) 0.0311(7) Uani 1 1 d . U . . .
C62 C 0.5148(4) 0.1638(2) 0.91786(17) 0.0334(7) Uani 1 1 d . U . . .
C43 C 0.1572(3) 0.81492(18) 0.95678(15) 0.0289(7) Uani 1 1 d . U . . .
C2 C 0.6430(3) 0.68481(19) 0.70450(17) 0.0319(7) Uani 1 1 d . U . . .
H2 H 0.625017 0.672776 0.656607 0.038 Uiso 1 1 calc R . . . .
C6 C 0.6270(4) 0.7588(2) 0.81045(17) 0.0362(8) Uani 1 1 d . U . . .
H6 H 0.598478 0.798110 0.835495 0.043 Uiso 1 1 calc R . . . .
C61 C 0.5208(3) 0.09151(19) 0.91237(17) 0.0334(7) Uani 1 1 d . U . . .
H61 H 0.479200 0.062194 0.941942 0.040 Uiso 1 1 calc R . . . .
C69 C 1.1986(4) 0.2552(2) 0.82185(17) 0.0373(8) Uani 1 1 d . U . . .
H69 H 1.295335 0.259657 0.830423 0.045 Uiso 1 1 calc R . . . .
C75 C 0.7892(4) 0.19025(19) 0.65066(17) 0.0373(8) Uani 1 1 d . U . . .
H75 H 0.885543 0.208955 0.667513 0.045 Uiso 1 1 calc R . . . .
C74 C 0.6928(4) 0.19120(17) 0.69636(17) 0.0328(7) Uani 1 1 d . U . . .
C30 C -0.0278(4) 0.4641(2) 0.7310(2) 0.0435(9) Uani 1 1 d . U . . .
H30 H -0.062519 0.452846 0.770853 0.052 Uiso 1 1 calc R . . . .
C52 C 0.7059(4) 0.42733(18) 0.86501(17) 0.0345(7) Uani 1 1 d . U . . .
C33 C 0.0749(4) 0.49751(19) 0.61517(17) 0.0343(7) Uani 1 1 d . U . . .
H33 H 0.110261 0.508549 0.575388 0.041 Uiso 1 1 calc R . . . .
F3 F 0.8807(4) 0.5003(2) 0.9510(2) 0.1250(17) Uani 1 1 d . U . . .
C70 C 1.1025(4) 0.1868(2) 0.79603(18) 0.0381(8) Uani 1 1 d . U . . .
C8 C 0.6203(4) 0.84798(18) 0.67846(16) 0.0319(7) Uani 1 1 d . U . . .
C27 C -0.1158(4) 0.6843(3) 0.5740(2) 0.0473(9) Uani 1 1 d . U . . .
H27 H -0.050498 0.730101 0.594857 0.057 Uiso 1 1 calc R . . . .
C79 C 0.5123(5) 0.1376(2) 0.5983(2) 0.0490(10) Uani 1 1 d . U . . .
C41 C 0.0062(4) 0.7661(2) 1.03344(18) 0.0427(9) Uani 1 1 d . U . . .
H41 H -0.037238 0.774503 1.072646 0.051 Uiso 1 1 calc R . . . .
C42 C 0.0913(4) 0.8248(2) 1.01405(16) 0.0363(8) Uani 1 1 d . U . . .
H42 H 0.105700 0.873194 1.040223 0.044 Uiso 1 1 calc R . . . .
C64 C 0.4405(4) 0.1954(2) 0.9714(2) 0.0439(9) Uani 1 1 d . U . . .
F13 F 1.0815(4) 0.0716(2) 0.7290(2) 0.1246(12) Uani 1 1 d . U . . .
C73 C 1.2465(4) 0.3913(2) 0.8622(2) 0.0450(9) Uani 1 1 d . U . . .
C48 C 0.2213(4) 0.9091(2) 0.69554(18) 0.0371(8) Uani 1 1 d . U . . .
C46 C 0.0148(4) 0.8807(2) 0.85942(19) 0.0465(10) Uani 1 1 d . U . . .
H46A H -0.036812 0.832634 0.867910 0.056 Uiso 1 1 calc R . . . .
H46B H -0.020768 0.883339 0.813288 0.056 Uiso 1 1 calc R . . . .
F24 F 0.3308(5) 0.1453(3) 0.9833(3) 0.0896(13) Uani 0.75 1 d . U P A 1
C32 C 0.0705(4) 0.4298(2) 0.6311(2) 0.0423(9) Uani 1 1 d . U . . .
H32 H 0.103566 0.394886 0.602322 0.051 Uiso 1 1 calc R . . . .
C3 C 0.7131(4) 0.6452(2) 0.73818(19) 0.0382(8) Uani 1 1 d . U . . .
H3 H 0.743062 0.606261 0.713314 0.046 Uiso 1 1 calc R . . . .
C4 C 0.7398(4) 0.6620(2) 0.8081(2) 0.0443(9) Uani 1 1 d . U . . .
H4 H 0.787859 0.634832 0.831191 0.053 Uiso 1 1 calc R . . . .
C31 C 0.0184(4) 0.4125(2) 0.6884(2) 0.0461(9) Uani 1 1 d . U . . .
H31 H 0.014123 0.365611 0.698680 0.055 Uiso 1 1 calc R . . . .
C65 C 0.5975(4) -0.0144(2) 0.8547(2) 0.0415(8) Uani 1 1 d . U . . .
C23 C -0.1933(4) 0.5536(2) 0.55818(19) 0.0439(9) Uani 1 1 d . U . . .
H23 H -0.181851 0.508584 0.567804 0.053 Uiso 1 1 calc R . . . .
C56 C 0.5218(4) 0.4246(2) 0.69620(18) 0.0394(8) Uani 1 1 d . U . . .
C78 C 0.6122(5) 0.1373(2) 0.5549(2) 0.0539(11) Uani 1 1 d . U . . .
H78 H 0.584933 0.119509 0.507620 0.065 Uiso 1 1 calc R . . . .
C5 C 0.6958(4) 0.7189(2) 0.84404(19) 0.0438(9) Uani 1 1 d . U . . .
H5 H 0.713079 0.730369 0.891949 0.053 Uiso 1 1 calc R . . . .
C40 C -0.0168(4) 0.6949(2) 0.99638(18) 0.0440(9) Uani 1 1 d . U . . .
H40 H -0.077174 0.654589 1.009401 0.053 Uiso 1 1 calc R . . . .
C76 C 0.7493(5) 0.1628(2) 0.58113(19) 0.0466(9) Uani 1 1 d . U . . .
B02N B 0.7384(4) 0.2317(2) 0.77696(18) 0.0286(7) Uani 1 1 d . U . . .
C13 C 0.5700(5) 0.9026(2) 0.6592(2) 0.0573(12) Uani 1 1 d . U . . .
H13 H 0.474656 0.900246 0.660669 0.069 Uiso 1 1 calc R . . . .
F15 F 1.1402(5) 0.0845(3) 0.8331(3) 0.1284(14) Uani 1 1 d . U . . .
C72 C 1.1509(5) 0.1189(3) 0.7821(3) 0.0687(13) Uani 1 1 d . U . . .
C11 C 0.7893(5) 0.9648(3) 0.6337(3) 0.0721(16) Uani 1 1 d . U . . .
H11 H 0.847917 1.004490 0.619009 0.086 Uiso 1 1 calc R . . . .
C81 C 0.3648(6) 0.1144(3) 0.5682(2) 0.0675(14) Uani 1 1 d . U . . .
C57 C 0.7448(5) 0.4750(2) 0.9345(2) 0.0499(10) Uani 1 1 d . U . . .
C49 C 0.2508(6) 0.9670(2) 0.6569(2) 0.0571(12) Uani 1 1 d . U . . .
H49A H 0.290973 0.949872 0.616861 0.086 Uiso 1 1 calc GR . . . .
H49B H 0.316954 1.011358 0.684993 0.086 Uiso 1 1 calc GR . . . .
H49C H 0.164354 0.978602 0.642892 0.086 Uiso 1 1 calc GR . . . .
C47 C -0.0147(6) 0.9429(3) 0.9102(2) 0.0716(16) Uani 1 1 d . U . . .
H47A H 0.042719 0.990725 0.905028 0.107 Uiso 1 1 calc GR . . . .
H47B H 0.007610 0.936556 0.956146 0.107 Uiso 1 1 calc GR . . . .
H47C H -0.113210 0.941310 0.901759 0.107 Uiso 1 1 calc GR . . . .
C26 C -0.2297(5) 0.6832(3) 0.5289(2) 0.0640(13) Uani 1 1 d . U . . .
H26 H -0.241374 0.727904 0.518573 0.077 Uiso 1 1 calc R . . . .
C24 C -0.3068(4) 0.5527(3) 0.5134(2) 0.0617(12) Uani 1 1 d . U . . .
H24 H -0.372262 0.507020 0.492479 0.074 Uiso 1 1 calc R . . . .
C12 C 0.6540(6) 0.9612(2) 0.6376(2) 0.0608(12) Uani 1 1 d . U . . .
H12 H 0.616335 0.998670 0.625577 0.073 Uiso 1 1 calc R . . . .
C77 C 0.8594(6) 0.1642(3) 0.5364(2) 0.0622(13) Uani 1 1 d . U . . .
C9 C 0.7563(5) 0.8523(3) 0.6745(3) 0.0738(17) Uani 1 1 d . U . . .
H9 H 0.795229 0.815718 0.687691 0.089 Uiso 1 1 calc R . . . .
C25 C -0.3249(5) 0.6169(4) 0.4994(2) 0.0681(14) Uani 1 1 d . U . . .
H25 H -0.403517 0.615848 0.469210 0.082 Uiso 1 1 calc R . . . .
C10 C 0.8392(6) 0.9102(4) 0.6512(4) 0.112(3) Uani 1 1 d . U . . .
H10 H 0.933427 0.911433 0.647514 0.134 Uiso 1 1 calc R . . . .
F23 F 0.3013(10) 0.1695(6) 0.9540(5) 0.049(2) Uani 0.25 1 d . U P A 2
F27 F 0.4632(13) 0.2687(8) 0.9782(7) 0.053(3) Uani 0.25 1 d . U P A 2
F25 F 0.4670(12) 0.1838(6) 1.0286(5) 0.048(2) Uani 0.25 1 d . U P A 2
loop_
_atom_site_aniso_label
_atom_site_aniso_U_11
_atom_site_aniso_U_22
_atom_site_aniso_U_33
_atom_site_aniso_U_23
_atom_site_aniso_U_13
_atom_site_aniso_U_12
Pd1 0.03421(14) 0.02352(13) 0.01844(13) 0.00564(9) 0.00476(9) 0.01185(10)
F21 0.0564(14) 0.0380(12) 0.0757(17) 0.0213(12) 0.0163(12) 0.0202(11)
F6 0.0812(18) 0.0650(16) 0.0371(12) 0.0248(11) 0.0224(12) 0.0362(14)
F5 0.0683(17) 0.0567(15) 0.0565(15) 0.0138(12) -0.0218(13) 0.0198(13)
F20 0.0563(15) 0.0329(12) 0.087(2) -0.0067(12) 0.0031(13) -0.0039(11)
F4 0.0892(19) 0.0767(17) 0.0428(13) 0.0206(12) 0.0210(12) 0.0649(16)
F22 0.127(3) 0.0428(14) 0.0569(16) 0.0295(12) 0.0209(16) 0.0318(15)
N2 0.0289(13) 0.0234(13) 0.0201(12) 0.0051(10) 0.0058(10) 0.0078(11)
N1 0.0479(17) 0.0295(14) 0.0245(14) 0.0063(11) 0.0083(12) 0.0205(13)
N3 0.0319(14) 0.0245(13) 0.0170(12) 0.0030(10) 0.0041(10) 0.0087(11)
F18 0.0687(18) 0.0498(15) 0.079(2) -0.0179(14) 0.0156(15) -0.0120(13)
F7 0.0572(17) 0.097(2) 0.0726(19) 0.0361(17) -0.0251(14) -0.0107(16)
F16 0.0429(14) 0.084(2) 0.105(2) -0.0215(17) 0.0028(14) 0.0311(14)
F17 0.0767(19) 0.0626(17) 0.0656(17) 0.0295(14) 0.0096(14) -0.0171(14)
F9 0.115(3) 0.0620(17) 0.0598(18) 0.0147(14) -0.0360(17) -0.0384(17)
F19 0.0661(18) 0.0577(17) 0.115(3) 0.0214(17) -0.0512(18) -0.0115(14)
F1 0.146(3) 0.0557(16) 0.0465(15) -0.0148(13) -0.0049(17) 0.0462(19)
F8 0.082(2) 0.089(2) 0.087(2) 0.0612(18) -0.0416(17) -0.0199(17)
C16 0.0279(15) 0.0238(15) 0.0231(15) 0.0071(12) 0.0042(12) 0.0109(12)
C36 0.0341(17) 0.0276(16) 0.0207(15) 0.0063(12) 0.0023(12) 0.0071(13)
C7 0.0340(17) 0.0238(15) 0.0231(15) 0.0022(12) 0.0020(12) 0.0089(13)
C15 0.0312(16) 0.0226(15) 0.0192(14) 0.0041(11) 0.0049(11) 0.0129(12)
F26 0.0634(17) 0.0752(18) 0.0530(16) -0.0007(14) 0.0070(13) 0.0235(15)
C14 0.0308(16) 0.0224(15) 0.0210(14) 0.0041(11) 0.0037(12) 0.0112(12)
C1 0.0276(16) 0.0278(16) 0.0281(16) 0.0051(13) 0.0011(12) 0.0034(13)
C17 0.0306(16) 0.0287(16) 0.0188(14) 0.0049(12) 0.0023(12) 0.0114(13)
C35 0.0285(16) 0.0242(15) 0.0230(15) 0.0063(12) 0.0021(12) 0.0068(13)
C18 0.0355(17) 0.0286(16) 0.0185(14) 0.0063(12) 0.0050(12) 0.0137(13)
C55 0.0330(17) 0.0278(16) 0.0250(16) 0.0065(12) 0.0063(13) 0.0089(13)
C19 0.0299(16) 0.0257(16) 0.0253(15) 0.0078(12) 0.0076(12) 0.0088(13)
C20 0.0399(19) 0.0385(19) 0.0206(15) 0.0056(13) 0.0081(13) 0.0088(15)
C63 0.0322(17) 0.0305(17) 0.0295(17) 0.0079(13) -0.0001(13) 0.0097(14)
C58 0.0266(16) 0.0292(16) 0.0264(16) 0.0069(12) -0.0043(12) 0.0055(13)
C44 0.0418(19) 0.0290(17) 0.0234(16) -0.0005(13) 0.0017(13) 0.0090(15)
C28 0.0264(16) 0.0320(17) 0.0267(16) 0.0104(13) 0.0001(12) 0.0049(13)
C54 0.0396(19) 0.0340(18) 0.0278(16) 0.0105(13) 0.0091(14) 0.0148(15)
C59 0.0303(17) 0.0281(16) 0.0287(16) 0.0044(13) 0.0002(13) 0.0050(13)
C29 0.0309(17) 0.046(2) 0.0352(18) 0.0175(15) 0.0085(14) 0.0115(15)
C80 0.050(2) 0.0261(17) 0.0334(18) 0.0112(14) -0.0066(15) 0.0026(15)
F10 0.169(4) 0.128(3) 0.0379(16) 0.0256(17) 0.0353(19) 0.058(3)
C45 0.050(2) 0.0291(17) 0.0238(16) 0.0041(13) 0.0076(14) 0.0181(15)
C66 0.0322(16) 0.0323(17) 0.0208(15) 0.0080(12) 0.0053(12) 0.0059(13)
C21 0.0285(16) 0.0336(17) 0.0240(15) 0.0100(13) 0.0063(12) 0.0108(13)
C67 0.0371(17) 0.0297(17) 0.0269(16) 0.0113(13) 0.0023(13) 0.0055(14)
C50 0.0313(17) 0.0278(16) 0.0265(16) 0.0062(12) 0.0040(13) 0.0053(13)
C38 0.0360(17) 0.0350(17) 0.0169(14) 0.0077(12) 0.0026(12) 0.0100(14)
C34 0.0327(17) 0.0239(15) 0.0296(16) 0.0074(12) 0.0041(13) 0.0112(13)
F28 0.138(5) 0.136(5) 0.071(3) 0.058(3) 0.056(3) 0.118(5)
C71 0.0344(17) 0.0322(17) 0.0295(17) -0.0004(14) 0.0042(14) 0.0069(14)
C53 0.046(2) 0.0286(17) 0.0327(18) 0.0046(14) 0.0070(15) 0.0131(15)
C37 0.066(3) 0.042(2) 0.0275(18) 0.0169(15) 0.0109(17) 0.0267(19)
F11 0.145(3) 0.101(3) 0.106(3) 0.053(2) 0.069(3) 0.070(3)
F12 0.141(3) 0.096(2) 0.081(2) -0.0129(19) 0.069(2) -0.025(2)
C22 0.0279(16) 0.049(2) 0.0243(16) 0.0155(14) 0.0082(12) 0.0139(15)
C39 0.048(2) 0.0344(18) 0.0249(17) 0.0061(14) 0.0069(14) 0.0068(16)
C51 0.0374(18) 0.0279(16) 0.0268(16) 0.0056(13) -0.0009(13) 0.0038(14)
C68 0.0351(17) 0.0390(18) 0.0234(16) 0.0104(14) 0.0034(13) 0.0007(15)
F2 0.171(2) 0.0762(15) 0.0404(13) 0.0112(12) 0.0129(14) 0.0169(15)
C60 0.0306(17) 0.0286(16) 0.0305(17) 0.0087(13) -0.0034(13) 0.0026(13)
C62 0.0311(17) 0.0381(18) 0.0307(17) 0.0089(14) -0.0006(13) 0.0094(15)
C43 0.0323(17) 0.0345(17) 0.0205(15) 0.0044(12) 0.0009(12) 0.0123(14)
C2 0.0307(17) 0.0360(18) 0.0292(17) 0.0081(14) 0.0045(13) 0.0087(14)
C6 0.046(2) 0.0315(18) 0.0279(17) 0.0049(14) -0.0003(14) 0.0067(15)
C61 0.0310(17) 0.0339(17) 0.0320(17) 0.0127(14) -0.0008(13) 0.0003(14)
C69 0.0298(17) 0.051(2) 0.0270(17) 0.0052(15) 0.0050(13) 0.0062(16)
C75 0.054(2) 0.0275(17) 0.0282(17) 0.0044(13) 0.0050(15) 0.0090(16)
C74 0.0448(19) 0.0215(15) 0.0293(16) 0.0057(13) -0.0020(14) 0.0062(14)
C30 0.041(2) 0.055(2) 0.044(2) 0.0322(18) 0.0099(16) 0.0126(18)
C52 0.043(2) 0.0272(17) 0.0286(17) 0.0018(13) 0.0041(14) 0.0040(15)
C33 0.0408(19) 0.0328(18) 0.0292(17) 0.0095(14) 0.0057(14) 0.0076(15)
F3 0.087(2) 0.138(3) 0.102(3) -0.072(2) -0.042(2) 0.034(2)
C70 0.0352(18) 0.045(2) 0.0313(18) -0.0001(15) 0.0054(14) 0.0117(16)
C8 0.0402(18) 0.0268(16) 0.0223(15) 0.0035(12) -0.0012(13) 0.0010(14)
C27 0.043(2) 0.066(3) 0.046(2) 0.029(2) 0.0128(17) 0.025(2)
C79 0.066(2) 0.0282(18) 0.040(2) 0.0121(16) -0.0163(18) -0.0064(18)
C41 0.054(2) 0.053(2) 0.0231(17) 0.0084(15) 0.0137(15) 0.0145(19)
C42 0.050(2) 0.043(2) 0.0187(15) 0.0045(14) 0.0040(14) 0.0179(17)
C64 0.043(2) 0.049(2) 0.045(2) 0.0176(18) 0.0133(16) 0.0149(18)
F13 0.0820(17) 0.1088(18) 0.151(2) -0.0653(15) -0.0215(15) 0.0481(15)
C73 0.040(2) 0.044(2) 0.043(2) 0.0132(17) -0.0005(16) -0.0034(17)
C48 0.055(2) 0.0341(19) 0.0296(18) 0.0107(15) 0.0100(16) 0.0219(17)
C46 0.056(2) 0.061(3) 0.034(2) 0.0099(18) 0.0083(17) 0.035(2)
F24 0.0853(19) 0.090(2) 0.092(2) 0.0137(16) 0.0493(16) 0.0131(15)
C32 0.052(2) 0.0315(18) 0.042(2) 0.0079(15) 0.0015(17) 0.0098(17)
C3 0.0318(18) 0.039(2) 0.046(2) 0.0115(16) 0.0049(15) 0.0126(15)
C4 0.037(2) 0.047(2) 0.049(2) 0.0200(18) -0.0040(17) 0.0102(17)
C31 0.047(2) 0.036(2) 0.055(2) 0.0225(18) -0.0005(18) 0.0061(17)
C65 0.048(2) 0.0306(18) 0.044(2) 0.0111(15) 0.0055(17) 0.0058(16)
C23 0.0296(18) 0.064(2) 0.036(2) 0.0093(18) 0.0006(14) 0.0109(17)
C56 0.053(2) 0.041(2) 0.0323(18) 0.0089(15) 0.0078(16) 0.0263(18)
C78 0.091(3) 0.033(2) 0.0264(19) 0.0056(15) -0.0034(19) 0.001(2)
C5 0.047(2) 0.045(2) 0.0329(19) 0.0115(16) -0.0078(16) 0.0045(18)
C40 0.053(2) 0.047(2) 0.0290(18) 0.0126(16) 0.0144(16) 0.0028(18)
C76 0.080(3) 0.0282(18) 0.0278(18) 0.0059(14) 0.0054(18) 0.0092(19)
B02N 0.0334(19) 0.0251(17) 0.0248(17) 0.0047(14) -0.0002(14) 0.0054(15)
C13 0.072(3) 0.048(2) 0.071(3) 0.032(2) 0.033(2) 0.029(2)
F15 0.139(2) 0.117(2) 0.150(2) 0.0404(16) 0.0376(17) 0.0597(16)
C72 0.051(3) 0.074(3) 0.078(3) -0.012(2) 0.006(2) 0.034(2)
C11 0.061(3) 0.062(3) 0.078(3) 0.044(3) -0.020(2) -0.023(2)
C81 0.075(3) 0.059(3) 0.048(3) 0.028(2) -0.023(2) -0.019(2)
C57 0.071(3) 0.035(2) 0.035(2) -0.0017(16) -0.0064(19) 0.011(2)
C49 0.087(3) 0.049(2) 0.055(3) 0.031(2) 0.027(2) 0.033(2)
C47 0.098(4) 0.096(4) 0.047(3) 0.011(3) 0.020(3) 0.073(3)
C26 0.058(3) 0.105(4) 0.062(3) 0.054(3) 0.025(2) 0.051(3)
C24 0.036(2) 0.105(4) 0.040(2) 0.011(2) -0.0032(17) 0.018(2)
C12 0.089(3) 0.040(2) 0.060(3) 0.024(2) 0.019(3) 0.017(2)
C77 0.104(4) 0.048(2) 0.032(2) 0.0051(18) 0.021(2) 0.015(3)
C9 0.037(2) 0.072(3) 0.121(5) 0.065(3) 0.001(3) 0.002(2)
C25 0.042(2) 0.137(5) 0.041(2) 0.034(3) 0.0064(18) 0.039(3)
C10 0.038(3) 0.120(5) 0.187(7) 0.112(5) -0.004(3) -0.009(3)
F23 0.044(3) 0.054(3) 0.051(3) 0.0092(19) 0.0104(18) 0.0153(19)
F27 0.055(3) 0.051(3) 0.053(3) 0.0093(19) 0.013(2) 0.016(2)
F25 0.052(3) 0.050(3) 0.046(3) 0.0132(19) 0.0093(18) 0.0152(19)
loop_
_atom_type_symbol
_atom_type_description
_atom_type_scat_dispersion_real
_atom_type_scat_dispersion_imag
_atom_type_scat_source
C C 0.0033 0.0016 'International Tables Vol C Tables 4.2.6.8 and 6.1.1.4'
H H 0.0000 0.0000 'International Tables Vol C Tables 4.2.6.8 and 6.1.1.4'
B B 0.0013 0.0007 'International Tables Vol C Tables 4.2.6.8 and 6.1.1.4'
F F 0.0171 0.0103 'International Tables Vol C Tables 4.2.6.8 and 6.1.1.4'
N N 0.0061 0.0033 'International Tables Vol C Tables 4.2.6.8 and 6.1.1.4'
Pd Pd -0.9988 1.0072 'International Tables Vol C Tables 4.2.6.8 and 6.1.1.4'
loop_
_geom_angle_atom_site_label_1
_geom_angle_atom_site_label_2
_geom_angle_atom_site_label_3
_geom_angle
_geom_angle_site_symmetry_1
_geom_angle_site_symmetry_3
_geom_angle_publ_flag
N1 Pd1 N2 100.98(10) . . ?
N1 Pd1 N3 178.05(11) . . ?
N1 Pd1 C45 87.02(12) . . ?
N3 Pd1 N2 77.27(10) . . ?
N3 Pd1 C45 94.60(12) . . ?
C45 Pd1 N2 168.69(12) . . ?
C15 N2 Pd1 125.12(19) . . ?
C35 N2 Pd1 113.3(2) . . ?
C35 N2 C15 121.4(3) . . ?
C48 N1 Pd1 170.6(3) . . ?
C36 N3 Pd1 116.6(2) . . ?
C36 N3 C38 122.1(3) . . ?
C38 N3 Pd1 121.3(2) . . ?
C15 C16 C17 117.9(3) . . ?
C15 C16 C21 119.9(3) . . ?
C17 C16 C21 122.1(3) . . ?
N3 C36 C35 115.8(3) . . ?
N3 C36 C37 126.1(3) . . ?
C37 C36 C35 118.1(3) . . ?
C14 C7 H7 106.0 . . ?
C14 C7 C8 112.8(3) . . ?
C1 C7 H7 106.0 . . ?
C1 C7 C14 112.1(3) . . ?
C1 C7 C8 113.1(3) . . ?
C8 C7 H7 106.0 . . ?
C16 C15 N2 118.1(3) . . ?
C16 C15 C14 122.0(3) . . ?
C14 C15 N2 119.8(3) . . ?
C15 C14 C7 120.0(3) . . ?
C19 C14 C7 122.1(3) . . ?
C19 C14 C15 117.9(3) . . ?
C2 C1 C7 121.5(3) . . ?
C2 C1 C6 118.5(3) . . ?
C6 C1 C7 120.0(3) . . ?
C16 C17 H17 119.2 . . ?
C18 C17 C16 121.7(3) . . ?
C18 C17 H17 119.2 . . ?
N2 C35 C36 115.5(3) . . ?
N2 C35 C34 125.8(3) . . ?
C34 C35 C36 118.6(3) . . ?
C17 C18 C19 118.9(3) . . ?
C17 C18 C20 120.2(3) . . ?
C19 C18 C20 120.8(3) . . ?
C54 C55 H55 118.6 . . ?
C54 C55 C50 122.7(3) . . ?
C50 C55 H55 118.6 . . ?
C14 C19 H19 119.3 . . ?
C18 C19 C14 121.4(3) . . ?
C18 C19 H19 119.3 . . ?
C18 C20 H20A 109.5 . . ?
C18 C20 H20B 109.5 . . ?
C18 C20 H20C 109.5 . . ?
H20A C20 H20B 109.5 . . ?
H20A C20 H20C 109.5 . . ?
H20B C20 H20C 109.5 . . ?
C58 C63 H63 118.6 . . ?
C62 C63 H63 118.6 . . ?
C62 C63 C58 122.7(3) . . ?
C63 C58 C59 115.0(3) . . ?
C63 C58 B02N 124.0(3) . . ?
C59 C58 B02N 120.9(3) . . ?
H44A C44 H44B 108.0 . . ?
C45 C44 H44A 109.3 . . ?
C45 C44 H44B 109.3 . . ?
C43 C44 H44A 109.3 . . ?
C43 C44 H44B 109.3 . . ?
C43 C44 C45 111.4(3) . . ?
C29 C28 C21 120.2(3) . . ?
C29 C28 C33 118.4(3) . . ?
C33 C28 C21 121.4(3) . . ?
C55 C54 C56 119.3(3) . . ?
C53 C54 C55 121.1(3) . . ?
C53 C54 C56 119.6(3) . . ?
C58 C59 H59 118.8 . . ?
C60 C59 C58 122.4(3) . . ?
C60 C59 H59 118.8 . . ?
C28 C29 H29 119.4 . . ?
C30 C29 C28 121.1(4) . . ?
C30 C29 H29 119.4 . . ?
C74 C80 H80 118.8 . . ?
C74 C80 C79 122.5(4) . . ?
C79 C80 H80 118.8 . . ?
Pd1 C45 H45 107.8 . . ?
C44 C45 Pd1 106.5(2) . . ?
C44 C45 H45 107.8 . . ?
C46 C45 Pd1 111.5(2) . . ?
C46 C45 C44 115.1(3) . . ?
C46 C45 H45 107.8 . . ?
C67 C66 B02N 124.1(3) . . ?
C71 C66 C67 115.1(3) . . ?
C71 C66 B02N 120.8(3) . . ?
C16 C21 H21 106.4 . . ?
C16 C21 C22 112.1(3) . . ?
C28 C21 C16 111.6(3) . . ?
C28 C21 H21 106.4 . . ?
C28 C21 C22 113.3(3) . . ?
C22 C21 H21 106.4 . . ?
C66 C67 H67 118.8 . . ?
C68 C67 C66 122.5(3) . . ?
C68 C67 H67 118.8 . . ?
C55 C50 C51 114.9(3) . . ?
C55 C50 B02N 124.1(3) . . ?
C51 C50 B02N 121.0(3) . . ?
C39 C38 N3 120.4(3) . . ?
C39 C38 C43 121.1(3) . . ?
C43 C38 N3 118.2(3) . . ?
C35 C34 H34A 109.5 . . ?
C35 C34 H34B 109.5 . . ?
C35 C34 H34C 109.5 . . ?
H34A C34 H34B 109.5 . . ?
H34A C34 H34C 109.5 . . ?
H34B C34 H34C 109.5 . . ?
C66 C71 H71 118.6 . . ?
C70 C71 C66 122.8(3) . . ?
C70 C71 H71 118.6 . . ?
C54 C53 H53 121.2 . . ?
C54 C53 C52 117.6(3) . . ?
C52 C53 H53 121.2 . . ?
C36 C37 H37A 109.5 . . ?
C36 C37 H37B 109.5 . . ?
C36 C37 H37C 109.5 . . ?
H37A C37 H37B 109.5 . . ?
H37A C37 H37C 109.5 . . ?
H37B C37 H37C 109.5 . . ?
C27 C22 C21 118.9(3) . . ?
C27 C22 C23 118.8(4) . . ?
C23 C22 C21 122.3(3) . . ?
C38 C39 H39 119.9 . . ?
C40 C39 C38 120.1(3) . . ?
C40 C39 H39 119.9 . . ?
C50 C51 H51 118.8 . . ?
C52 C51 C50 122.3(3) . . ?
C52 C51 H51 118.8 . . ?
C67 C68 C73 119.1(3) . . ?
C69 C68 C67 121.4(3) . . ?
C69 C68 C73 119.5(3) . . ?
C59 C60 C65 119.7(3) . . ?
C61 C60 C59 121.4(3) . . ?
C61 C60 C65 118.9(3) . . ?
C63 C62 C64 120.5(3) . . ?
C61 C62 C63 120.8(3) . . ?
C61 C62 C64 118.7(3) . . ?
C38 C43 C44 121.2(3) . . ?
C42 C43 C44 121.2(3) . . ?
C42 C43 C38 117.3(3) . . ?
C1 C2 H2 119.6 . . ?
C3 C2 C1 120.7(3) . . ?
C3 C2 H2 119.6 . . ?
C1 C6 H6 119.6 . . ?
C5 C6 C1 120.8(3) . . ?
C5 C6 H6 119.6 . . ?
C60 C61 H61 121.2 . . ?
C62 C61 C60 117.5(3) . . ?
C62 C61 H61 121.2 . . ?
C68 C69 H69 121.4 . . ?
C68 C69 C70 117.3(3) . . ?
C70 C69 H69 121.4 . . ?
C74 C75 H75 118.7 . . ?
C76 C75 H75 118.7 . . ?
C76 C75 C74 122.7(4) . . ?
C80 C74 C75 115.4(3) . . ?
C80 C74 B02N 121.5(3) . . ?
C75 C74 B02N 122.7(3) . . ?
C29 C30 H30 120.1 . . ?
C29 C30 C31 119.8(4) . . ?
C31 C30 H30 120.1 . . ?
C53 C52 C57 119.7(3) . . ?
C51 C52 C53 121.3(3) . . ?
C51 C52 C57 119.0(3) . . ?
C28 C33 H33 119.8 . . ?
C32 C33 C28 120.4(3) . . ?
C32 C33 H33 119.8 . . ?
C71 C70 C69 121.0(4) . . ?
C71 C70 C72 119.1(4) . . ?
C69 C70 C72 119.9(4) . . ?
C13 C8 C7 119.0(3) . . ?
C9 C8 C7 123.6(3) . . ?
C9 C8 C13 117.4(4) . . ?
C22 C27 H27 119.6 . . ?
C22 C27 C26 120.7(5) . . ?
C26 C27 H27 119.6 . . ?
C80 C79 C81 122.0(5) . . ?
C78 C79 C80 120.0(4) . . ?
C78 C79 C81 117.9(4) . . ?
C42 C41 H41 119.7 . . ?
C42 C41 C40 120.6(3) . . ?
C40 C41 H41 119.7 . . ?
C43 C42 H42 119.2 . . ?
C41 C42 C43 121.6(3) . . ?
C41 C42 H42 119.2 . . ?
F26 C64 C62 112.0(3) . . ?
F28 C64 F26 107.7(5) . . ?
F28 C64 C62 115.1(4) . . ?
F28 C64 F24 107.3(5) . . ?
F24 C64 F26 100.8(4) . . ?
F24 C64 C62 112.9(4) . . ?
F23 C64 C62 111.0(5) . . ?
F27 C64 C62 111.9(7) . . ?
F27 C64 F23 103.1(8) . . ?
F25 C64 C62 116.1(6) . . ?
F25 C64 F23 106.5(8) . . ?
F25 C64 F27 107.2(9) . . ?
F18 C73 C68 112.5(3) . . ?
F17 C73 F18 104.6(4) . . ?
F17 C73 C68 112.3(3) . . ?
F19 C73 F18 106.7(4) . . ?
F19 C73 F17 106.6(3) . . ?
F19 C73 C68 113.4(4) . . ?
N1 C48 C49 177.3(5) . . ?
C45 C46 H46A 108.8 . . ?
C45 C46 H46B 108.8 . . ?
C45 C46 C47 113.7(4) . . ?
H46A C46 H46B 107.7 . . ?
C47 C46 H46A 108.8 . . ?
C47 C46 H46B 108.8 . . ?
C33 C32 H32 119.7 . . ?
C31 C32 C33 120.6(4) . . ?
C31 C32 H32 119.7 . . ?
C2 C3 H3 119.9 . . ?
C2 C3 C4 120.2(4) . . ?
C4 C3 H3 119.9 . . ?
C3 C4 H4 120.2 . . ?
C5 C4 C3 119.6(4) . . ?
C5 C4 H4 120.2 . . ?
C30 C31 H31 120.2 . . ?
C32 C31 C30 119.6(4) . . ?
C32 C31 H31 120.2 . . ?
F21 C65 F20 105.7(3) . . ?
F21 C65 F22 106.9(3) . . ?
F21 C65 C60 113.8(3) . . ?
F20 C65 C60 112.0(3) . . ?
F22 C65 F20 105.3(3) . . ?
F22 C65 C60 112.5(3) . . ?
C22 C23 H23 119.8 . . ?
C22 C23 C24 120.4(4) . . ?
C24 C23 H23 119.8 . . ?
F6 C56 C54 112.5(3) . . ?
F5 C56 F6 104.9(3) . . ?
F5 C56 C54 112.4(3) . . ?
F4 C56 F6 105.2(3) . . ?
F4 C56 F5 107.8(3) . . ?
F4 C56 C54 113.4(3) . . ?
C79 C78 H78 120.5 . . ?
C76 C78 C79 119.0(4) . . ?
C76 C78 H78 120.5 . . ?
C6 C5 C4 120.2(4) . . ?
C6 C5 H5 119.9 . . ?
C4 C5 H5 119.9 . . ?
C39 C40 H40 120.4 . . ?
C41 C40 C39 119.2(4) . . ?
C41 C40 H40 120.4 . . ?
C75 C76 C77 118.9(4) . . ?
C78 C76 C75 120.4(4) . . ?
C78 C76 C77 120.7(4) . . ?
C66 B02N C58 109.5(3) . . ?
C50 B02N C58 109.4(3) . . ?
C50 B02N C66 111.2(3) . . ?
C50 B02N C74 108.6(3) . . ?
C74 B02N C58 110.6(3) . . ?
C74 B02N C66 107.6(3) . . ?
C8 C13 H13 118.9 . . ?
C8 C13 C12 122.2(5) . . ?
C12 C13 H13 118.9 . . ?
F16 C72 C70 114.8(5) . . ?
F16 C72 F15 103.3(5) . . ?
F13 C72 F16 106.6(4) . . ?
F13 C72 C70 113.1(4) . . ?
F13 C72 F15 106.8(6) . . ?
F15 C72 C70 111.5(4) . . ?
C12 C11 H11 120.9 . . ?
C12 C11 C10 118.3(4) . . ?
C10 C11 H11 120.9 . . ?
F7 C81 F9 105.2(4) . . ?
F7 C81 F8 106.8(5) . . ?
F7 C81 C79 113.3(4) . . ?
F9 C81 C79 112.5(5) . . ?
F8 C81 F9 105.9(4) . . ?
F8 C81 C79 112.4(4) . . ?
F1 C57 C52 114.5(3) . . ?
F1 C57 F3 103.7(4) . . ?
F2 C57 F1 106.4(4) . . ?
F2 C57 C52 113.0(3) . . ?
F2 C57 F3 107.0(4) . . ?
F3 C57 C52 111.6(4) . . ?
C48 C49 H49A 109.5 . . ?
C48 C49 H49B 109.5 . . ?
C48 C49 H49C 109.5 . . ?
H49A C49 H49B 109.5 . . ?
H49A C49 H49C 109.5 . . ?
H49B C49 H49C 109.5 . . ?
C46 C47 H47A 109.5 . . ?
C46 C47 H47B 109.5 . . ?
C46 C47 H47C 109.5 . . ?
H47A C47 H47B 109.5 . . ?
H47A C47 H47C 109.5 . . ?
H47B C47 H47C 109.5 . . ?
C27 C26 H26 120.2 . . ?
C25 C26 C27 119.5(5) . . ?
C25 C26 H26 120.2 . . ?
C23 C24 H24 119.8 . . ?
C25 C24 C23 120.4(5) . . ?
C25 C24 H24 119.8 . . ?
C13 C12 H12 120.0 . . ?
C11 C12 C13 119.9(5) . . ?
C11 C12 H12 120.0 . . ?
F10 C77 C76 113.0(5) . . ?
F11 C77 F10 105.2(4) . . ?
F11 C77 C76 112.6(4) . . ?
F12 C77 F10 103.5(4) . . ?
F12 C77 F11 108.3(5) . . ?
F12 C77 C76 113.5(4) . . ?
C8 C9 H9 119.9 . . ?
C8 C9 C10 120.2(5) . . ?
C10 C9 H9 119.9 . . ?
C26 C25 H25 119.9 . . ?
C24 C25 C26 120.2(4) . . ?
C24 C25 H25 119.9 . . ?
C11 C10 C9 122.0(5) . . ?
C11 C10 H10 119.0 . . ?
C9 C10 H10 119.0 . . ?
loop_
_geom_bond_atom_site_label_1
_geom_bond_atom_site_label_2
_geom_bond_distance
_geom_bond_site_symmetry_2
_geom_bond_publ_flag
Pd1 N2 2.153(2) . ?
Pd1 N1 2.005(3) . ?
Pd1 N3 2.036(3) . ?
Pd1 C45 2.041(3) . ?
F21 C65 1.324(5) . ?
F6 C56 1.349(5) . ?
F5 C56 1.333(5) . ?
F20 C65 1.341(5) . ?
F4 C56 1.325(4) . ?
F22 C65 1.341(4) . ?
N2 C15 1.443(4) . ?
N2 C35 1.284(4) . ?
N1 C48 1.138(4) . ?
N3 C36 1.292(4) . ?
N3 C38 1.440(4) . ?
F18 C73 1.334(5) . ?
F7 C81 1.331(7) . ?
F16 C72 1.311(6) . ?
F17 C73 1.327(5) . ?
F9 C81 1.350(6) . ?
F19 C73 1.310(5) . ?
F1 C57 1.310(5) . ?
F8 C81 1.341(5) . ?
C16 C15 1.395(4) . ?
C16 C17 1.397(4) . ?
C16 C21 1.524(4) . ?
C36 C35 1.502(4) . ?
C36 C37 1.495(5) . ?
C7 H7 1.0000 . ?
C7 C14 1.528(4) . ?
C7 C1 1.524(5) . ?
C7 C8 1.531(5) . ?
C15 C14 1.402(4) . ?
F26 C64 1.354(6) . ?
C14 C19 1.397(4) . ?
C1 C2 1.389(5) . ?
C1 C6 1.399(5) . ?
C17 H17 0.9500 . ?
C17 C18 1.386(4) . ?
C35 C34 1.491(4) . ?
C18 C19 1.395(4) . ?
C18 C20 1.508(4) . ?
C55 H55 0.9500 . ?
C55 C54 1.386(5) . ?
C55 C50 1.399(5) . ?
C19 H19 0.9500 . ?
C20 H20A 0.9800 . ?
C20 H20B 0.9800 . ?
C20 H20C 0.9800 . ?
C63 H63 0.9500 . ?
C63 C58 1.400(5) . ?
C63 C62 1.397(5) . ?
C58 C59 1.405(5) . ?
C58 B02N 1.656(5) . ?
C44 H44A 0.9900 . ?
C44 H44B 0.9900 . ?
C44 C45 1.539(5) . ?
C44 C43 1.502(5) . ?
C28 C29 1.392(5) . ?
C28 C21 1.520(5) . ?
C28 C33 1.395(5) . ?
C54 C53 1.382(5) . ?
C54 C56 1.493(5) . ?
C59 H59 0.9500 . ?
C59 C60 1.387(5) . ?
C29 H29 0.9500 . ?
C29 C30 1.385(5) . ?
C80 H80 0.9500 . ?
C80 C74 1.393(5) . ?
C80 C79 1.400(5) . ?
F10 C77 1.329(5) . ?
C45 H45 1.0000 . ?
C45 C46 1.504(5) . ?
C66 C67 1.402(5) . ?
C66 C71 1.397(5) . ?
C66 B02N 1.656(5) . ?
C21 H21 1.0000 . ?
C21 C22 1.537(4) . ?
C67 H67 0.9500 . ?
C67 C68 1.393(5) . ?
C50 C51 1.408(4) . ?
C50 B02N 1.645(5) . ?
C38 C39 1.390(5) . ?
C38 C43 1.398(5) . ?
C34 H34A 0.9800 . ?
C34 H34B 0.9800 . ?
C34 H34C 0.9800 . ?
F28 C64 1.289(6) . ?
C71 H71 0.9500 . ?
C71 C70 1.389(5) . ?
C53 H53 0.9500 . ?
C53 C52 1.385(5) . ?
C37 H37A 0.9800 . ?
C37 H37B 0.9800 . ?
C37 H37C 0.9800 . ?
F11 C77 1.318(6) . ?
F12 C77 1.312(6) . ?
C22 C27 1.381(5) . ?
C22 C23 1.383(5) . ?
C39 H39 0.9500 . ?
C39 C40 1.385(5) . ?
C51 H51 0.9500 . ?
C51 C52 1.383(5) . ?
C68 C69 1.381(5) . ?
C68 C73 1.504(5) . ?
F2 C57 1.292(5) . ?
C60 C61 1.386(5) . ?
C60 C65 1.495(5) . ?
C62 C61 1.386(5) . ?
C62 C64 1.496(5) . ?
C43 C42 1.396(5) . ?
C2 H2 0.9500 . ?
C2 C3 1.385(5) . ?
C6 H6 0.9500 . ?
C6 C5 1.379(5) . ?
C61 H61 0.9500 . ?
C69 H69 0.9500 . ?
C69 C70 1.394(5) . ?
C75 H75 0.9500 . ?
C75 C74 1.401(5) . ?
C75 C76 1.401(5) . ?
C74 B02N 1.651(5) . ?
C30 H30 0.9500 . ?
C30 C31 1.388(6) . ?
C52 C57 1.496(5) . ?
C33 H33 0.9500 . ?
C33 C32 1.385(5) . ?
F3 C57 1.316(6) . ?
C70 C72 1.488(6) . ?
C8 C13 1.372(5) . ?
C8 C9 1.357(6) . ?
C27 H27 0.9500 . ?
C27 C26 1.396(6) . ?
C79 C78 1.394(7) . ?
C79 C81 1.475(6) . ?
C41 H41 0.9500 . ?
C41 C42 1.373(5) . ?
C41 C40 1.384(6) . ?
C42 H42 0.9500 . ?
C64 F24 1.339(6) . ?
C64 F23 1.350(11) . ?
C64 F27 1.343(15) . ?
C64 F25 1.244(11) . ?
F13 C72 1.291(6) . ?
C48 C49 1.460(5) . ?
C46 H46A 0.9900 . ?
C46 H46B 0.9900 . ?
C46 C47 1.535(6) . ?
C32 H32 0.9500 . ?
C32 C31 1.382(6) . ?
C3 H3 0.9500 . ?
C3 C4 1.387(5) . ?
C4 H4 0.9500 . ?
C4 C5 1.386(6) . ?
C31 H31 0.9500 . ?
C23 H23 0.9500 . ?
C23 C24 1.389(6) . ?
C78 H78 0.9500 . ?
C78 C76 1.362(7) . ?
C5 H5 0.9500 . ?
C40 H40 0.9500 . ?
C76 C77 1.491(7) . ?
C13 H13 0.9500 . ?
C13 C12 1.391(6) . ?
F15 C72 1.326(7) . ?
C11 H11 0.9500 . ?
C11 C12 1.352(7) . ?
C11 C10 1.357(8) . ?
C49 H49A 0.9800 . ?
C49 H49B 0.9800 . ?
C49 H49C 0.9800 . ?
C47 H47A 0.9800 . ?
C47 H47B 0.9800 . ?
C47 H47C 0.9800 . ?
C26 H26 0.9500 . ?
C26 C25 1.377(8) . ?
C24 H24 0.9500 . ?
C24 C25 1.364(8) . ?
C12 H12 0.9500 . ?
C9 H9 0.9500 . ?
C9 C10 1.395(7) . ?
C25 H25 0.9500 . ?
C10 H10 0.9500 . ?
loop_
_refln_index_h
_refln_index_k
_refln_index_l
_refln_F_squared_meas
_refln_F_squared_sigma
-1 0 0 664.13 38.3
1 0 0 651.83 38.8
-3 0 0 1159.48 68.59
3 0 0 1141.39 68.29
-4 0 0 1007 56.39
-4 0 0 950.3 59.39
-4 0 0 864.91 57.29
4 0 0 909.21 56.99
-5 0 0 624.74 36.6
-5 0 0 591.24 40.2
-5 0 0 496.25 37.3
5 0 0 547.95 37.1
-6 0 0 267.57 21.3
-6 0 0 297.07 24.1
-6 0 0 221.58 18.7
6 0 0 268.87 20.8
-7 0 0 15.8 3.9
-7 0 0 9.6 5.3
-7 0 0 14.1 4.6
-7 0 0 16.3 7.1
7 0 0 21.5 5.8
-8 0 0 122.99 11.7
-8 0 0 138.29 17.2
-8 0 0 113.29 10.4
-8 0 0 148.19 15.1
8 0 0 137.49 14.1
-9 0 0 19.2 4
-9 0 0 25.9 7
-9 0 0 16.8 9.7
-9 0 0 29.1 5.2
9 0 0 1.6 19
-10 0 0 351.16 35.9
-10 0 0 386.46 29.9
-11 0 0 76.99 12.8
-11 0 0 103.09 19.9
-12 0 0 10.1 5.4
-12 0 0 27.2 10.4
-12 1 0 60.49 37.3
-12 1 0 22.6 9.3
-11 1 0 74.89 16.2
-11 1 0 62.39 12.6
10 -1 0 35.5 9.3
-10 1 0 24.2 10.9
-10 1 0 50.49 11.1
9 -1 0 244.08 20.9
-9 1 0 168.48 22.8
8 -1 0 -0.1 3.3
-8 1 0 8.1 5.4
-8 1 0 11.3 5.8
-8 1 0 5.2 2.1
7 -1 0 1235.38 74.39
-7 1 0 1092.19 68.09
-7 1 0 1173.38 75.49
-7 1 0 1284.47 78.29
-7 1 0 1101.99 68.89
6 -1 0 585.84 36.2
-6 1 0 440.56 30.1
-6 1 0 462.45 31
-6 1 0 578.14 38.5
-6 1 0 489.05 35.9
5 -1 0 86.99 9.9
-5 1 0 62.99 6
-5 1 0 70.29 9.5
-5 1 0 87.59 7.2
4 -1 0 1322.37 79.89
-4 1 0 1260.67 80.09
-4 1 0 1479.05 76.89
-4 1 0 1214.68 75.79
3 -1 0 727.23 46.5
-3 1 0 767.82 47.1
-3 1 0 757.32 43.4
2 -1 0 2500.25 150.68
-2 1 0 2617.34 147.99
-2 1 0 2746.33 151.08
-1 -1 0 2678.53 150.18
1 1 0 2581.34 149.99
-2 -1 0 2794.22 165.18
-2 -1 0 3095.59 167.08
-2 -1 0 2948.7 167.38
2 1 0 2855.81 167.28
2 1 0 2855.81 165.08
-3 -1 0 6354.36 373.76
-3 -1 0 7023.1 375.46
-3 -1 0 6520.85 376.36
3 1 0 6489.15 373.56
-4 -1 0 2276.97 130.09
-4 -1 0 1961 126.39
-4 -1 0 2347.27 128.19
4 1 0 2154.58 126.29
-5 -1 0 345.87 24.2
-5 -1 0 285.07 22.8
-5 -1 0 362.16 27.1
5 1 0 330.57 22.8
-6 -1 0 1090.09 63.79
-6 -1 0 854.21 57.89
-6 -1 0 824.52 57.39
6 1 0 962.7 57.29
-7 -1 0 72.99 13.4
-7 -1 0 47 8.4
-7 -1 0 37.2 7.7
7 1 0 50.59 7.1
-8 -1 0 24.5 6.5
-8 -1 0 30.7 6.6
-8 -1 0 18.1 6.9
-9 -1 0 98.09 10.2
-9 -1 0 100.79 11.8
-9 -1 0 114.59 11.8
-9 -1 0 93.09 17.4
-10 -1 0 12.5 8.2
-10 -1 0 2.4 3.9
-10 -1 0 0.6 2.8
-10 -1 0 0.6 3.9
-11 -1 0 18.7 4.9
-11 -1 0 14 8.3
-12 2 0 -12.4 6.1
-12 2 0 16.1 9.8
11 -2 0 99.49 15.9
-11 2 0 99.99 19.5
-11 2 0 116.09 17.6
10 -2 0 251.77 22
-10 2 0 194.88 22.7
-10 2 0 189.28 23.3
9 -2 0 24.4 8.2
-9 2 0 28.7 9.2
-9 2 0 16 8.2
8 -2 0 1115.29 67.99
-8 2 0 992.5 69.99
-8 2 0 832.32 86.59
7 -2 0 35.5 8.3
-7 2 0 20.1 7.6
6 -2 0 804.62 50.59
-6 2 0 704.93 42.8
-6 2 0 718.83 50.79
-6 2 0 754.32 43
5 -2 0 1799.42 100.29
-5 2 0 1618.34 93.19
-5 2 0 1484.85 92.99
-5 2 0 1682.63 100.79
4 -2 0 1778.72 106.39
-4 2 0 1811.32 100.89
-4 2 0 1729.73 106.79
3 -2 0 1705.13 109.39
-3 2 0 1906.61 110.29
-3 2 0 1942.71 105.29
2 -2 0 1406.36 85.99
2 -2 0 1453.75 82.99
-2 2 0 1451.05 86.19
-2 2 0 1504.85 83.19
1 -2 0 620.04 36.6
1 -2 0 624.64 36.7
1 -2 0 603.84 37.7
-1 2 0 623.94 36.5
-1 -2 0 50.89 5.7
-1 -2 0 48.7 5
-1 -2 0 43.9 3.3
1 2 0 43.4 3.1
1 2 0 57.89 5.1
-2 -2 0 8779.22 498.45
-3 -2 0 1756.32 103.89
-3 -2 0 1845.22 103.99
-3 -2 0 1743.43 99.89
3 2 0 1630.54 103.49
-4 -2 0 4324.47 230.98
-4 -2 0 3499.55 226.48
-4 -2 0 4159.38 231.88
-5 -2 0 339.67 26.1
-5 -2 0 447.26 32.1
-5 -2 0 478.65 30.8
-6 -2 0 214.18 19
-6 -2 0 241.98 21.8
-6 -2 0 191.68 15.8
-7 -2 0 194.38 18.5
-7 -2 0 197.08 16
-7 -2 0 221.38 22.1
-8 -2 0 110.89 13.7
-8 -2 0 118.39 18.4
-8 -2 0 97.39 10.1
-9 -2 0 69.59 11.9
-9 -2 0 87.89 9
-9 -2 0 83.09 10.1
-9 -2 0 80.29 17
-10 -2 0 33.6 5.3
-10 -2 0 47 13.3
-10 -2 0 43.7 7.3
-10 -2 0 48.1 8.8
-11 -2 0 -2 3
-11 -2 0 -8 3.8
-11 -2 0 4.5 8.5
-12 3 0 182.98 21.8
-12 3 0 118.59 23.6
11 -3 0 10.3 8.5
-11 3 0 9.9 8
-11 3 0 1.7 6.6
10 -3 0 145.39 17.7
-10 3 0 124.79 20.1
-10 3 0 104.29 19.2
9 -3 0 759.92 52.19
-9 3 0 588.94 51.99
-9 3 0 757.02 54.59
8 -3 0 300.97 26.9
-8 3 0 282.37 28
7 -3 0 1209.18 74.79
-7 3 0 1030.3 81.29
6 -3 0 385.16 33.8
-6 3 0 342.57 29.4
5 -3 0 328.37 25.5
-5 3 0 296.07 25.5
4 -3 0 0.8 2.5
-4 3 0 1.1 0.8
-4 3 0 7.4 3.7
3 -3 0 2572.34 154.98
3 -3 0 2563.24 150.28
-3 3 0 2749.32 150.68
-3 3 0 2694.63 155.58
2 -3 0 646.94 42.9
2 -3 0 662.03 40.4
-2 3 0 711.53 43.4
-2 3 0 685.33 40.6
1 -3 0 3596.04 208.68
1 -3 0 3735.33 207.98
-1 3 0 3648.33 208.78
-1 3 0 3578.24 207.88
-2 -3 0 2327.47 137.59
-2 -3 0 2463.15 139.19
2 3 0 2301.67 137.59
-3 -3 0 6289.87 344.27
-3 -3 0 6000.9 343.17
3 3 0 5676.03 342.77
-4 -3 0 45 3.8
-4 -3 0 54.09 9.3
-4 -3 0 59.79 8.3
4 3 0 53.59 9.4
-5 -3 0 307.17 25
-5 -3 0 325.77 24.9
-5 -3 0 264.27 18.1
-6 -3 0 195.18 14.6
-6 -3 0 254.67 21.6
-6 -3 0 251.57 22.4
-7 -3 0 181.88 19
-7 -3 0 188.98 13.3
-7 -3 0 212.98 21.4
-8 -3 0 67.19 14.7
-8 -3 0 62.29 5.8
-8 -3 0 91.79 14.7
-9 -3 0 104.99 18.9
-9 -3 0 133.39 16.2
-10 -3 0 17.2 8.3
-10 -3 0 24.6 7.1
-10 -3 0 31.5 11.4
-11 -3 0 6 9.6
-11 -3 0 -0.3 4.4
-11 -3 0 -5.2 7.6
12 -4 0 14.4 12.1
-12 4 0 3.1 6.7
-12 4 0 -3.2 9.3
11 -4 0 64.09 15.2
-11 4 0 42.4 13.7
-11 4 0 54.99 14.7
10 -4 0 215.28 21.8
-10 4 0 182.38 23.5
-10 4 0 136.09 22.8
9 -4 0 69.29 14
-9 4 0 28.5 10.4
8 -4 0 253.47 24.1
-8 4 0 236.38 25.2
7 -4 0 79.69 13.7
-7 4 0 57.59 12.8
6 -4 0 619.74 43.9
-6 4 0 586.74 44.8
5 -4 0 82.69 11.1
-5 4 0 97.19 12.3
4 -4 0 1549.05 94.69
4 -4 0 1565.94 88.09
-4 4 0 1613.54 95.59
-4 4 0 1427.96 88.39
3 -4 0 36.7 7.3
3 -4 0 46.4 4.9
-3 4 0 51.89 8.7
-3 4 0 43.2 4.9
2 -4 0 5804.42 345.97
2 -4 0 6091.79 343.77
-2 4 0 6040.6 346.27
-2 4 0 6233.18 343.97
1 -4 0 2886.21 164.78
1 -4 0 2805.72 166.68
1 -4 0 2900.81 166.48
-1 4 0 2974.9 164.88
-1 4 0 2815.22 166.68
0 -4 0 2642.74 154.98
0 -4 0 2751.72 152.88
0 -4 0 2633.64 153.38
0 4 0 2703.43 152.78
0 4 0 2598.24 154.88
0 4 0 2623.94 153.18
-1 -4 0 1627.74 94.39
-1 -4 0 1657.63 98.19
-1 -4 0 1658.63 95.89
1 4 0 1628.94 94.09
1 4 0 1590.24 95.89
-2 -4 0 4.6 2.7
-2 -4 0 6.8 1.4
-2 -4 0 3.8 3.1
2 4 0 5.3 2.8
-3 -4 0 961.5 59.19
-3 -4 0 950.1 60.49
3 4 0 860.61 62.09
-4 -4 0 590.74 41.1
-4 -4 0 590.24 40.4
4 4 0 533.15 39.5
-5 -4 0 1071.09 70.29
-5 -4 0 1113.49 70.79
5 4 0 1026 69.69
-6 -4 0 1079.59 73.19
-6 -4 0 1114.29 72.99
-7 -4 0 107.49 15.1
-7 -4 0 106.29 17.6
-8 -4 0 5.4 6.9
-8 -4 0 0.2 6.1
-9 -4 0 48.3 13.2
-9 -4 0 60.49 13
-10 -4 0 73.59 14.5
-10 -4 0 54.79 15.1
-11 -4 0 67.99 18.3
-11 -4 0 78.59 14.4
12 -5 0 37.7 13.8
-12 5 0 21.8 11.8
-12 5 0 29.4 12.9
11 -5 0 33.7 11
-11 5 0 17.4 10
-11 5 0 29.3 11.7
10 -5 0 147.09 20.5
-10 5 0 172.88 23.1
9 -5 0 -9.6 4.8
-9 5 0 9.9 7.3
8 -5 0 622.04 47.2
-8 5 0 610.84 48.8
7 -5 0 11.3 5.8
-7 5 0 5.3 5.5
6 -5 0 496.85 40.3
-6 5 0 584.14 42.8
5 -5 0 668.63 39.1
5 -5 0 688.03 47.5
-5 5 0 632.44 47.5
4 -5 0 3.7 1.9
4 -5 0 0.5 3
-4 5 0 1.5 1.6
-4 5 0 7.5 4.1
3 -5 0 496.45 31.8
3 -5 0 487.35 35.1
-3 5 0 491.45 32
-3 5 0 494.25 35.5
-3 5 0 495.75 32.3
2 -5 0 128.89 11.6
2 -5 0 135.29 13.2
2 -5 0 137.59 11.1
-2 5 0 137.69 13.1
-2 5 0 135.29 10.8
-2 5 0 122.59 11.6
1 -5 0 329.67 21.5
1 -5 0 325.07 23.4
1 -5 0 309.37 23.1
-1 5 0 303.57 23.1
-1 5 0 321.47 23.3
-1 5 0 317.87 21.4
0 -5 0 147.49 12.2
0 -5 0 155.28 13.9
0 -5 0 148.19 11.7
0 5 0 145.49 11.5
0 5 0 139.69 11.9
0 5 0 133.19 13.2
-1 -5 0 2673.13 154.28
-1 -5 0 2579.64 149.79
-1 -5 0 2661.33 151.18
1 5 0 2509.25 149.29
1 5 0 2585.64 151.08
-2 -5 0 1018.8 64.69
-2 -5 0 977.3 61.79
-2 -5 0 1016.1 58.09
2 5 0 981.2 57.29
2 5 0 971 61.69
-3 -5 0 70.49 12.3
-3 -5 0 79.49 9.5
3 5 0 63.29 10
-4 -5 0 53.09 9.7
-4 -5 0 55.59 18.1
4 5 0 51.89 10.1
-5 -5 0 1129.39 73.29
-5 -5 0 1191.98 74.99
5 5 0 1019.2 72.09
-6 -5 0 -0.7 5
-6 -5 0 8 5.3
-7 -5 0 1426.66 86.69
-7 -5 0 1109.19 83.89
-8 -5 0 279.67 27.6
-8 -5 0 218.88 25.6
-9 -5 0 141.79 23.3
-9 -5 0 116.79 18.8
-10 -5 0 200.48 26.2
-10 -5 0 224.28 25
-12 6 0 115.99 22.1
-12 6 0 145.39 31.2
11 -6 0 23.3 11.1
-11 6 0 22.1 12
10 -6 0 1.7 7.8
-10 6 0 7.7 7.3
9 -6 0 277.17 28.5
-9 6 0 277.87 30.5
8 -6 0 -6.9 4.6
-8 6 0 2.7 5.5
7 -6 0 596.94 45.9
-7 6 0 594.14 47.3
6 -6 0 42.9 10.5
6 -6 0 31 3.2
-6 6 0 27.6 9.3
5 -6 0 26.8 7.9
5 -6 0 20.4 3.7
-5 6 0 30.9 13.9
4 -6 0 1800.52 105.39
4 -6 0 1743.33 110.99
-4 6 0 1940.71 112.59
-4 6 0 1653.33 105.59
-4 6 0 1856.41 107.29
3 -6 0 1873.21 118.09
3 -6 0 2047.5 115.29
-3 6 0 2032.6 119.09
-3 6 0 1764.32 114.59
-3 6 0 2008.6 114.49
2 -6 0 8698.93 500.75
-2 6 0 8815.82 499.15
1 -6 0 187.68 16.2
1 -6 0 172.08 13.7
1 -6 0 182.18 15.8
-1 6 0 179.98 13.8
-1 6 0 166.48 15.8
-1 6 0 168.38 15.2
0 -6 0 739.73 48.7
0 -6 0 840.32 48.5
0 -6 0 753.92 51.09
0 6 0 750.42 50.79
0 6 0 770.92 47.9
0 6 0 764.22 48.5
-1 -6 0 892.31 58.29
-1 -6 0 870.31 53.89
-1 -6 0 872.81 54.79
1 6 0 872.81 54.89
1 6 0 883.91 53.29
-2 -6 0 40.1 7.4
-2 -6 0 31 7.9
-2 -6 0 40 4.7
2 6 0 26.5 6.7
2 6 0 41.1 4.2
-3 -6 0 783.12 52.59
-3 -6 0 850.61 56.19
3 6 0 759.42 52.19
-4 -6 0 474.95 36.7
-4 -6 0 458.15 34.4
4 6 0 422.16 33.7
-5 -6 0 62.29 12.5
-5 -6 0 68.39 12.7
5 6 0 58.69 11.4
-6 -6 0 317.97 29.8
-6 -6 0 336.87 29.8
6 6 0 293.47 28.1
-7 -6 0 295.97 30.2
-7 -6 0 361.36 32.5
-8 -6 0 9.2 8.9
-8 -6 0 0.4 6.6
-9 -6 0 74.09 17
-9 -6 0 108.89 20.3
-10 -6 0 7 8.8
-10 -6 0 -4.1 10.9
-12 7 0 -8.8 10.8
-12 7 0 11.2 7.2
-11 7 0 122.19 23.4
10 -7 0 9.5 6.7
-10 7 0 1.4 7.5
9 -7 0 9.8 14.6
-9 7 0 10.9 8.4
8 -7 0 62.29 13.9
-8 7 0 44.7 13.1
7 -7 0 131.69 20.3
-7 7 0 114.29 19.8
6 -7 0 354.96 32
6 -7 0 357.16 23.8
-6 7 0 426.06 34.8
5 -7 0 68.09 7.6
5 -7 0 70.59 12.9
-5 7 0 81.59 9.6
-5 7 0 82.69 14.4
4 -7 0 185.38 15.7
4 -7 0 190.68 19.4
-4 7 0 197.28 16.3
-4 7 0 168.28 15.6
-4 7 0 214.98 21
3 -7 0 5574.14 317.47
3 -7 0 5761.02 316.97
-3 7 0 5053.99 317.07
-3 7 0 5517.35 316.87
-3 7 0 5696.43 321.27
2 -7 0 1008.8 65.99
2 -7 0 1042.8 62.69
2 -7 0 992.9 64.59
-2 7 0 1049.49 65.19
-2 7 0 996.9 65.79
-2 7 0 1021.2 62.49
1 -7 0 3646.94 215.78
1 -7 0 3724.53 216.68
-1 7 0 3677.93 215.58
-1 7 0 3676.03 213.08
-1 7 0 3747.73 216.68
0 -7 0 77.79 9.5
0 -7 0 82.69 11
0 -7 0 86.19 9.1
0 7 0 73.29 9.3
0 7 0 85.69 8.9
-1 -7 0 66.09 14.5
-1 -7 0 70.89 8.1
-1 -7 0 77.19 9
1 7 0 58.19 7.2
-2 -7 0 315.97 21
-2 -7 0 312.77 26.9
-2 -7 0 264.17 26
2 7 0 276.97 19.5
2 7 0 330.27 24.4
-3 -7 0 525.45 38.6
-3 -7 0 402.86 27.5
-3 -7 0 511.05 34.7
3 7 0 487.55 34.6
-4 -7 0 192.38 20.9
-4 -7 0 186.08 18.8
4 7 0 166.78 17.9
-5 -7 0 91.19 16.1
-5 -7 0 99.19 15.8
5 7 0 90.09 14.6
-6 -7 0 74.69 14.7
-6 -7 0 55.79 13.7
6 7 0 81.09 15.3
-7 -7 0 243.08 27.4
-8 -7 0 91.99 18.5
-8 -7 0 147.39 25.6
-9 -7 0 19.8 9.8
-9 -7 0 55.49 15.2
-10 -7 0 102.19 22.6
-10 -7 0 64.79 18.4
-12 8 0 129.09 26.9
-11 8 0 17.2 12.1
10 -8 0 139.59 23
-10 8 0 106.89 24.2
9 -8 0 150.88 21.2
-9 8 0 158.38 25.8
8 -8 0 226.38 25.4
-8 8 0 176.08 23.7
7 -8 0 644.64 50.99
7 -8 0 673.63 39.9
-7 8 0 696.33 47.9
-7 8 0 624.34 51.99
6 -8 0 46.9 11.6
6 -8 0 45.6 5.8
-6 8 0 36.7 8.3
-6 8 0 34.6 10.2
5 -8 0 234.38 24.1
5 -8 0 244.28 19.7
-5 8 0 296.37 27.1
-5 8 0 272.07 21.5
4 -8 0 110.79 14.2
4 -8 0 98.49 10.9
-4 8 0 102.69 14.3
-4 8 0 101.79 10.8
-4 8 0 79.69 10.7
3 -8 0 -3.5 3.7
3 -8 0 1.5 3
3 -8 0 0.2 3.1
-3 8 0 0.7 1.8
-3 8 0 1.6 4
-3 8 0 -0.4 2.3
2 -8 0 162.58 16.2
2 -8 0 149.29 15
2 -8 0 149.09 13.3
-2 8 0 126.29 14.9
-2 8 0 125.29 14.4
-2 8 0 129.19 14.5
1 -8 0 997 63.79
1 -8 0 929.91 62.19
1 -8 0 1011 60.09
-1 8 0 923.31 62.99
-1 8 0 917.21 61.59
0 -8 0 2808.02 168.78
0 -8 0 2930.11 167.78
0 -8 0 3025.4 172.98
0 8 0 2793.02 167.38
0 8 0 2780.22 168.08
-1 -8 0 3514.75 201.38
-1 -8 0 3500.75 200.38
-1 -8 0 3451.65 205.88
1 8 0 3391.06 200.98
1 8 0 3355.06 198.98
-2 -8 0 727.23 46
-2 -8 0 789.62 54.19
-2 -8 0 747.93 49
2 8 0 708.93 48.8
2 8 0 696.23 44.5
-3 -8 0 787.92 51.69
-3 -8 0 888.21 57.79
-3 -8 0 653.43 44.8
3 8 0 769.22 51.69
-4 -8 0 835.92 56.39
-4 -8 0 813.92 60.19
4 8 0 779.12 55.49
-5 -8 0 -3.7 4.7
-5 -8 0 9.5 7.1
5 8 0 -1.8 2.9
-6 -8 0 1339.17 97.19
-6 -8 0 1744.13 104.39
6 8 0 1432.96 97.89
-7 -8 0 -14.1 7.5
-7 -8 0 -7.3 5.6
-8 -8 0 431.56 47.5
-8 -8 0 314.67 33.1
-9 -8 0 1.2 11.9
-9 -8 0 6.2 7.5
-10 -8 0 31.5 13.7
-10 -8 0 69.89 19.3
-12 9 0 8.7 13.6
-11 9 0 417.86 44.3
-10 9 0 -2.3 7.7
9 -9 0 853.51 63.39
-9 9 0 758.02 65.19
8 -9 0 98.29 18.7
-8 9 0 105.49 20.2
-8 9 0 81.09 14.7
7 -9 0 465.45 39.7
7 -9 0 446.86 29.4
-7 9 0 422.06 40.5
-7 9 0 467.65 35.6
6 -9 0 558.34 46.1
6 -9 0 566.04 38.3
-6 9 0 654.63 49.1
-6 9 0 568.74 41.3
5 -9 0 191.68 21.4
5 -9 0 201.38 17.7
-5 9 0 219.48 18.9
-5 9 0 222.98 23.9
4 -9 0 3.9 4.2
4 -9 0 4.2 3.7
-4 9 0 1.5 3.2
-4 9 0 5 4.9
-4 9 0 2.8 3.4
3 -9 0 806.52 50.99
3 -9 0 762.42 52.79
3 -9 0 768.32 54.99
-3 9 0 823.42 55.79
-3 9 0 795.92 50.49
-3 9 0 710.93 52.29
2 -9 0 5174.48 302.57
2 -9 0 5110.49 308.17
2 -9 0 5053.49 299.17
-2 9 0 5217.48 302.47
-2 9 0 5341.47 298.37
-2 9 0 5175.98 302.07
1 -9 0 6026 353.66
1 -9 0 6010.4 351.96
1 -9 0 6331.07 349.47
-1 9 0 5985.2 351.56
-1 9 0 6050.59 348.97
0 -9 0 439.96 35.6
0 -9 0 449.16 32.7
0 -9 0 425.66 32.3
0 9 0 417.06 31.7
0 9 0 447.66 31.4
-1 -9 0 1282.67 84.29
-1 -9 0 1266.97 78.79
-1 -9 0 1276.67 78.49
1 9 0 1240.78 78.89
1 9 0 1242.18 77.09
-2 -9 0 71.19 8.8
-2 -9 0 127.59 15.9
-2 -9 0 81.09 10.5
2 9 0 84.09 11
2 9 0 75.29 8.1
-3 -9 0 400.16 30.5
-3 -9 0 325.77 24.2
-3 -9 0 464.65 36.9
3 9 0 365.26 29.9
3 9 0 370.66 23.1
-4 -9 0 486.45 41.2
-4 -9 0 465.45 36.9
4 9 0 456.25 36.8
-5 -9 0 150.38 18.5
-5 -9 0 180.38 23
5 9 0 157.58 19.1
-6 -9 0 6.5 5.5
-6 -9 0 -1.3 7
-7 -9 0 108.59 20.7
-7 -9 0 74.39 15.5
-8 -9 0 -11.7 10.6
-8 -9 0 5.2 5.7
-9 -9 0 184.38 51.19
-12 10 0 14.6 13
-11 10 0 4 11.1
-10 10 0 47.5 16.2
-9 10 0 376.16 39.7
8 -10 0 16.9 8.5
8 -10 0 25 4.3
-8 10 0 31.9 12.6
-8 10 0 9.3 7.1
7 -10 0 475.05 31.9
7 -10 0 465.95 81.49
-7 10 0 445.86 42.3
-7 10 0 481.75 36.7
6 -10 0 270.17 28.9
6 -10 0 324.57 24.4
-6 10 0 332.67 32.5
-6 10 0 303.37 25.5
5 -10 0 16.8 7.6
5 -10 0 8.3 4.9
-5 10 0 13.6 7.8
-5 10 0 16.8 5.5
4 -10 0 4.6 6
4 -10 0 9.4 9
4 -10 0 21.6 6.2
-4 10 0 12 7.1
-4 10 0 15 5.2
3 -10 0 1773.42 115.89
3 -10 0 1814.32 114.19
3 -10 0 1879.71 111.29
-3 10 0 1822.32 110.69
-3 10 0 1887.11 116.59
2 -10 0 140.39 16.5
2 -10 0 135.29 13.6
2 -10 0 135.79 16.2
-2 10 0 137.09 22.9
-2 10 0 149.39 14.1
1 -10 0 1503.65 96.59
1 -10 0 1579.64 93.79
1 -10 0 1565.84 98.69
-1 10 0 1483.65 93.09
-1 10 0 1501.05 95.79
0 -10 0 21.7 6.2
0 -10 0 8.3 4.7
0 -10 0 21.9 7.1
0 10 0 21 6.5
0 10 0 16 5.8
-1 -10 0 210.98 18.9
-1 -10 0 200.78 22.3
-1 -10 0 214.68 18.2
1 10 0 175.78 16.5
1 10 0 170.78 17.6
-2 -10 0 67.09 11.3
-2 -10 0 44 8
-2 -10 0 27.1 10.7
2 10 0 54.49 6.9
2 10 0 60.29 11
-3 -10 0 285.47 25.1
-3 -10 0 257.77 19.8
-3 -10 0 305.27 29.9
3 10 0 258.67 24.2
3 10 0 287.17 18.5
-4 -10 0 131.09 22.5
-4 -10 0 120.49 15.6
4 10 0 122.69 15.3
-5 -10 0 105.09 17.8
-5 -10 0 133.59 23.4
5 10 0 121.69 16
-6 -10 0 -0.1 4.5
-6 -10 0 7.4 10.7
-7 -10 0 56.29 13.5
-7 -10 0 48.9 15.5
-8 -10 0 121.49 21.1
-9 -10 0 28.5 12.3
-12 11 0 138.29 26.5
-11 11 0 50.29 17.9
-10 11 0 42.9 15.8
8 -11 0 183.88 15.1
8 -11 0 179.38 27.7
-8 11 0 203.68 26.1
-8 11 0 163.18 33.2
7 -11 0 3.6 5.5
7 -11 0 4.6 4.3
-7 11 0 13.5 6.1
-7 11 0 18.6 10.1
6 -11 0 1705.73 105.59
6 -11 0 1619.34 113.29
-6 11 0 1702.03 106.59
-6 11 0 1884.51 116.59
5 -11 0 290.47 25.7
5 -11 0 311.67 30.9
-5 11 0 312.87 25.5
-5 11 0 346.07 32.3
4 -11 0 53.19 12.9
4 -11 0 65.09 11.9
4 -11 0 61.39 10.7
-4 11 0 37.8 10.8
-4 11 0 60.49 10.3
3 -11 0 14.1 5.5
3 -11 0 15.4 5.3
3 -11 0 24.5 8.5
-3 11 0 17.9 5.8
-3 11 0 10.9 7
2 -11 0 1190.68 72.99
2 -11 0 1161.18 77.59
2 -11 0 1114.79 77.09
-2 11 0 1116.79 72.59
-2 11 0 1162.68 77.09
1 -11 0 255.37 24.4
1 -11 0 253.47 25.8
1 -11 0 270.87 22.6
-1 11 0 245.78 28
-1 11 0 280.47 22.4
0 -11 0 44.9 9.3
0 -11 0 36.8 8.8
0 -11 0 32.7 10.1
0 11 0 39.6 8.7
0 11 0 26.5 7.3
-1 -11 0 376.46 29.5
-1 -11 0 405.56 35.3
-1 -11 0 369.26 29.1
1 11 0 340.57 27.2
1 11 0 350.86 28.9
-2 -11 0 353.76 27.7
-2 -11 0 256.17 23.9
-2 -11 0 353.76 33.1
2 11 0 329.47 23.4
2 11 0 325.37 27.3
-3 -11 0 1843.52 108.59
-3 -11 0 1425.96 101.09
-3 -11 0 2022.1 118.09
3 11 0 1681.53 99.59
3 11 0 1745.43 125.29
-4 -11 0 208.08 22.7
-4 -11 0 244.28 39.6
4 11 0 234.78 23.7
-5 -11 0 138.19 21.3
-5 -11 0 167.48 27.4
-6 -11 0 269.17 27.9
-7 -11 0 18.2 10.5
-8 -11 0 116.99 22.8
-9 -11 0 118.09 23
-12 12 0 9.8 10.5
-11 12 0 122.19 27.9
-10 12 0 139.19 27.8
9 -12 0 56.39 6.4
-9 12 0 44 16.2
8 -12 0 597.74 39.4
-8 12 0 560.94 52.79
7 -12 0 35.2 13.4
7 -12 0 50.19 11.2
-7 12 0 61.89 15.4
-7 12 0 73.39 12.9
6 -12 0 931.21 71.39
6 -12 0 984 64.69
-6 12 0 924.11 65.59
-6 12 0 1086.49 75.09
5 -12 0 143.49 20.5
5 -12 0 167.58 18.1
-5 12 0 138.89 23.3
-5 12 0 165.88 16.6
4 -12 0 180.58 22.2
4 -12 0 205.48 21.4
4 -12 0 210.48 19.5
-4 12 0 230.28 24.6
-4 12 0 177.68 18.6
3 -12 0 -1 3.2
3 -12 0 4.2 3.2
3 -12 0 13.1 6.5
-3 12 0 0.5 5.9
-3 12 0 -1.9 2.6
2 -12 0 -0.9 4.9
2 -12 0 0.9 3.3
2 -12 0 11.1 5.9
-2 12 0 11.5 5.4
-2 12 0 7.7 4.8
1 -12 0 436.56 38.9
1 -12 0 490.85 35.1
1 -12 0 455.95 37.2
-1 12 0 434.56 34.3
-1 12 0 491.85 37.4
0 -12 0 794.12 59.69
0 -12 0 787.72 54.99
0 -12 0 771.02 53.19
0 12 0 758.52 53.49
0 12 0 783.02 53.29
-1 -12 0 388.86 31.2
-1 -12 0 360.06 35.8
-1 -12 0 373.06 34.8
1 12 0 369.66 28.8
1 12 0 376.16 30.6
-2 -12 0 1016 71.49
-2 -12 0 975.2 63.29
-2 -12 0 849.32 59.79
2 12 0 916.71 64.19
2 12 0 881.91 57.59
-3 -12 0 14.7 7.9
-3 -12 0 9.7 4.2
-3 -12 0 21.5 10.7
3 12 0 15.4 6.4
3 12 0 6.8 3.5
-4 -12 0 454.05 43.3
-4 -12 0 410.36 36.2
-5 -12 0 901.41 68.89
-5 -12 0 653.03 54.99
-6 -12 0 71.29 16.1
-7 -12 0 75.29 16.8
-8 -12 0 -14.4 6
-11 13 0 16.6 13.7
-10 13 0 99.69 23.9
9 -13 0 9.2 4.5
-9 13 0 13.9 10.3
8 -13 0 519.95 47.6
-8 13 0 573.74 52.29
7 -13 0 72.19 12.2
7 -13 0 73.39 31.3
-7 13 0 69.69 17.7
-7 13 0 64.09 12.4
6 -13 0 116.99 14.8
6 -13 0 66.29 17.1
-6 13 0 95.49 19.2
-6 13 0 104.49 13.2
5 -13 0 264.67 25.7
5 -13 0 294.57 32.1
-5 13 0 283.07 30.7
4 -13 0 602.04 45.2
4 -13 0 566.34 41.9
4 -13 0 541.55 46.8
-4 13 0 545.35 40.7
-4 13 0 583.14 47.3
3 -13 0 654.23 45.2
3 -13 0 640.64 50.09
3 -13 0 620.34 49.5
-3 13 0 670.33 50.49
-3 13 0 593.84 44.5
2 -13 0 949.11 63.59
2 -13 0 1025.1 70.29
2 -13 0 937.91 67.89
-2 13 0 949.11 67.69
-2 13 0 944.31 63.49
1 -13 0 53.29 11.2
1 -13 0 67.19 13.9
1 -13 0 51.99 13.5
-1 13 0 79.99 12.6
-1 13 0 68.19 13.4
0 -13 0 661.03 53.69
0 -13 0 724.13 48.3
0 -13 0 659.73 49.2
0 13 0 675.23 47.9
0 13 0 597.74 46.5
-1 -13 0 190.48 19.8
-1 -13 0 210.98 20.6
1 13 0 180.08 17.8
-2 -13 0 770.02 53.59
-2 -13 0 609.34 49.1
-2 -13 0 839.62 62.09
2 13 0 761.32 48.1
2 13 0 725.83 52.99
-3 -13 0 593.44 41.6
-3 -13 0 603.64 46.8
-3 -13 0 687.73 55.69
3 13 0 632.04 39.2
3 13 0 584.64 46.8
-4 -13 0 257.77 27.4
-5 -13 0 195.58 23.5
-6 -13 0 151.78 24.2
-7 -13 0 19.6 9.4
-8 -13 0 128.69 22.8
-11 14 0 123.99 27.4
10 -14 0 107.49 9.3
-10 14 0 115.99 26
9 -14 0 889.21 55.69
-9 14 0 800.32 71.89
8 -14 0 297.97 25
-8 14 0 267.37 33
7 -14 0 63.99 12.4
6 -14 0 551.14 45.3
6 -14 0 572.84 51.49
-6 14 0 697.83 54.99
-6 14 0 642.74 45.7
5 -14 0 498.95 45.1
5 -14 0 532.65 39.8
5 -14 0 485.45 40.2
-5 14 0 480.55 44.1
-5 14 0 488.35 38.1
4 -14 0 360.96 31.1
4 -14 0 405.16 35.4
-4 14 0 390.06 31
-4 14 0 375.86 36.6
3 -14 0 935.81 68.79
3 -14 0 952.4 63.39
3 -14 0 908.31 68.89
-3 14 0 1034.6 70.29
-3 14 0 869.91 66.79
2 -14 0 148.79 20.8
2 -14 0 155.88 17.7
2 -14 0 189.58 23.2
-2 14 0 178.98 21.3
-2 14 0 161.58 17.6
1 -14 0 727.43 57.09
1 -14 0 794.32 54.69
1 -14 0 824.92 61.79
-1 14 0 795.92 56.89
-1 14 0 732.63 64.29
0 -14 0 199.88 20.9
0 -14 0 231.68 23.6
0 -14 0 235.38 27.1
0 14 0 211.08 21.5
0 14 0 186.68 20.4
-1 -14 0 757.02 53.79
-1 -14 0 702.63 60.29
-1 -14 0 771.52 54.09
1 14 0 742.93 51.39
1 14 0 719.53 53.59
-2 -14 0 32 12.8
-2 -14 0 74.39 17.7
-2 -14 0 65.79 13.3
2 14 0 57.29 12.1
2 14 0 60.19 9.6
-3 -14 0 186.98 17.8
-3 -14 0 179.38 38.9
3 14 0 208.28 16
-4 -14 0 1252.97 86.39
-5 -14 0 130.59 21
-6 -14 0 382.86 37.1
-7 -14 0 23.7 11.3
-11 15 0 -3.1 6.6
10 -15 0 274.07 20.3
-10 15 0 232.18 32.9
9 -15 0 39 9.3
-9 15 0 52.69 17.6
8 -15 0 119.09 14.9
-8 15 0 141.09 28.2
7 -15 0 42 10.5
-7 15 0 38.2 12.6
6 -15 0 43.4 11.9
-6 15 0 54.39 16.5
5 -15 0 986.7 81.69
5 -15 0 1208.88 77.49
5 -15 0 1146.59 78.99
-5 15 0 1112.89 74.99
-5 15 0 1221.28 84.59
4 -15 0 312.97 31.2
4 -15 0 306.77 27.8
4 -15 0 304.27 33
-4 15 0 326.87 27.6
-4 15 0 317.77 33.7
3 -15 0 287.37 37.5
3 -15 0 380.86 30.7
3 -15 0 316.47 32.9
-3 15 0 340.67 34
-3 15 0 373.46 30.1
2 -15 0 249.38 29.6
2 -15 0 275.97 29
2 -15 0 301.67 26.1
-2 15 0 254.77 24.6
-2 15 0 258.67 27.4
1 -15 0 11.2 6.9
1 -15 0 6.2 6
1 -15 0 2.1 6.2
-1 15 0 4.8 4.7
-1 15 0 0.5 4.9
0 -15 0 335.67 31.3
0 -15 0 306.57 28.2
0 -15 0 306.87 34.1
0 15 0 341.77 28.8
0 15 0 288.67 28.2
-1 -15 0 21.8 15
-1 -15 0 22.1 9.6
-1 -15 0 35.9 10.3
1 15 0 30.9 11.6
1 15 0 10 6.5
-2 -15 0 37.2 10.5
-2 -15 0 37.5 20
2 15 0 55.69 9.9
-3 -15 0 320.67 33.7
-3 -15 0 380.96 29.8
3 15 0 420.66 27.1
-4 -15 0 104.99 18.4
-5 -15 0 283.67 30.5
-6 -15 0 14.3 9.2
-7 -15 0 89.19 18.5
-11 16 0 15.9 65.39
-10 16 0 23.5 14.9
9 -16 0 390.86 30.5
-9 16 0 317.27 40.3
8 -16 0 10.6 6.9
-8 16 0 5 8.4
7 -16 0 390.86 34.2
-7 16 0 368.76 41.1
6 -16 0 630.04 50.69
-6 16 0 671.53 57.99
5 -16 0 74.69 16.4
5 -16 0 81.79 16.4
-5 16 0 101.89 21.2
4 -16 0 397.96 39.9
4 -16 0 455.25 35.3
4 -16 0 376.56 39.5
-4 16 0 375.36 39.5
-4 16 0 435.36 40.3
3 -16 0 26 9.9
3 -16 0 7.9 7
3 -16 0 11.3 8.7
-3 16 0 8.2 7.7
-3 16 0 4.7 4.9
2 -16 0 23.3 7.9
2 -16 0 3.4 5.8
2 -16 0 2.9 7.7
-2 16 0 10.8 6.1
-2 16 0 8.2 7
1 -16 0 1.9 7.4
1 -16 0 3.2 5.3
1 -16 0 0.1 6.9
-1 16 0 -2.6 5.8
-1 16 0 2.4 6.7
0 -16 0 214.08 25.1
0 -16 0 250.77 24.5
0 16 0 241.58 24.4
-1 -16 0 673.63 54.19
-1 -16 0 783.42 55.49
1 16 0 763.32 52.29
-2 -16 0 6.9 7.3
-2 -16 0 -0.9 5.7
2 16 0 13.1 5.9
-3 -16 0 26.2 6.9
-3 -16 0 24.1 10.9
3 16 0 21.7 5.8
-4 -16 0 167.68 22.2
-5 -16 0 -1.2 8.3
-6 -16 0 177.18 38.7
10 -17 0 230.78 21.7
-10 17 0 172.78 33.1
9 -17 0 3.3 8.5
-9 17 0 -9.3 12.4
8 -17 0 254.27 26.7
-8 17 0 264.67 35.1
7 -17 0 26.8 9.3
-7 17 0 36.6 13.3
6 -17 0 23.4 10.6
-6 17 0 37.7 15.4
5 -17 0 339.07 31.3
5 -17 0 302.87 32.2
-5 17 0 327.67 35.9
4 -17 0 97.09 17.4
4 -17 0 99.49 20.5
-4 17 0 101.49 21.1
3 -17 0 1269.57 91.29
3 -17 0 1187.48 89.49
-3 17 0 1295.47 89.59
2 -17 0 143.19 24.8
-2 17 0 162.58 21.8
1 -17 0 19.6 9.9
1 -17 0 5.8 6.9
-1 17 0 13.3 7.7
0 -17 0 422.56 38.5
0 -17 0 529.15 42.8
0 17 0 459.95 39.1
-1 -17 0 94.99 17.7
-1 -17 0 150.28 19.3
1 17 0 108.89 15.3
-2 -17 0 194.78 23.2
-2 -17 0 197.78 21.5
2 17 0 209.18 19.4
-3 -17 0 13.3 8.1
3 17 0 -0.2 4.1
-4 -17 0 4.1 8.5
-5 -17 0 79.19 17.5
10 -18 0 117.19 17
-10 18 0 133.49 27.9
9 -18 0 171.08 22.2
-9 18 0 192.48 34.1
-8 18 0 56.19 18.9
7 -18 0 47.4 14.4
-7 18 0 45.7 15.7
6 -18 0 -2.5 8.4
-6 18 0 -6.1 6
5 -18 0 40.5 15.4
5 -18 0 82.39 16.3
-5 18 0 89.99 20.3
4 -18 0 179.48 21.7
-4 18 0 196.08 25.3
3 -18 0 29.6 10.2
-3 18 0 27.7 12.1
2 -18 0 418.66 34.8
2 -18 0 314.87 36.5
-2 18 0 367.16 36.1
1 -18 0 -0.7 7.4
1 -18 0 5.2 7.4
-1 18 0 -5.4 5.6
0 -18 0 181.08 22.2
0 -18 0 204.08 24.8
0 18 0 182.28 22.3
-1 -18 0 17.9 8.2
-1 -18 0 39.7 11.8
1 18 0 40.8 10.5
-2 -18 0 16.3 8
-2 -18 0 34.1 9.1
2 18 0 11.5 6.1
-3 -18 0 197.28 25.9
-3 -18 0 208.78 20.7
3 18 0 228.18 18.2
-4 -18 0 -7.8 9.2
-5 -18 0 84.89 18.1
9 -19 0 63.49 15.3
-9 19 0 93.39 40.6
8 -19 0 213.38 26.8
-8 19 0 190.58 34.1
-7 19 0 111.69 23
-6 19 0 224.78 30.9
5 -19 0 8.5 8
-5 19 0 -18.2 7.4
4 -19 0 63.89 15
-4 19 0 72.29 18.7
3 -19 0 367.36 34.3
-3 19 0 347.37 37.1
2 -19 0 381.46 36.7
-2 19 0 505.95 42.4
1 -19 0 45.6 12.9
1 -19 0 55.99 16.4
-1 19 0 60.89 15.1
0 -19 0 56.09 13.8
0 -19 0 38.8 13.2
0 19 0 30.8 10.7
-1 -19 0 139.89 19.9
-1 -19 0 159.98 20.2
1 19 0 146.29 17.9
-2 -19 0 44.2 12.6
-2 -19 0 43.8 12.7
2 19 0 46.6 9.6
-3 -19 0 5.1 6.1
-3 -19 0 -2 6.5
-4 -19 0 105.59 21.4
9 -20 0 37 14.8
-9 20 0 -12.9 10.3
-8 20 0 113.89 27.1
-7 20 0 120.99 26.8
-6 20 0 82.49 21.3
5 -20 0 467.25 42.7
-5 20 0 523.05 49.7
4 -20 0 11.1 7.2
-4 20 0 -7.1 8.4
3 -20 0 268.17 27.8
-3 20 0 238.68 29.9
2 -20 0 68.79 15.6
-2 20 0 83.09 18.5
1 -20 0 -15.6 5.9
-1 20 0 -1.6 7.8
0 -20 0 85.29 16.7
0 -20 0 149.99 24.2
0 20 0 86.39 17
-1 -20 0 4.4 5.6
1 20 0 12.2 7.7
-2 -20 0 61.69 14.8
-2 -20 0 78.09 18
2 20 0 82.89 12.9
-3 -20 0 36.6 11.8
-3 -20 0 28 9.1
-8 21 0 1.5 6.5
-7 21 0 236.78 33.1
-6 21 0 18.6 10
5 -21 0 34.8 10.5
-5 21 0 50.69 17.4
4 -21 0 302.67 30.9
-4 21 0 271.87 34.3
3 -21 0 3.5 7.1
-3 21 0 10.8 9.1
2 -21 0 174.18 23.3
-2 21 0 183.08 25.1
1 -21 0 71.79 16.2
-1 21 0 54.59 15.3
0 -21 0 -0.6 7
0 -21 0 -17.2 21.2
0 21 0 1.5 7.4
-1 -21 0 66.19 17.9
-1 -21 0 72.69 17.5
1 21 0 79.99 14.9
-2 -21 0 -4.2 10.4
-2 -21 0 5.1 7.1
2 21 0 28.4 9.6
-7 22 0 2.2 7.3
-6 22 0 26.5 14.9
5 -22 0 47.9 12
-5 22 0 42.3 15.4
4 -22 0 4.9 7.1
-4 22 0 -1 11.3
3 -22 0 363.76 36.5
-3 22 0 420.26 43.6
2 -22 0 32.1 10.4
-2 22 0 38.6 15.5
1 -22 0 44 14.7
-1 22 0 43.4 13.9
0 -22 0 33.3 13.6
0 22 0 61.99 15.4
-1 -22 0 15.3 13.6
-1 -22 0 12.5 9.9
1 22 0 41.1 11.7
5 -23 0 33.9 11.6
-5 23 0 19 14.5
4 -23 0 85.49 17.6
-4 23 0 142.19 27.4
3 -23 0 22.8 10.3
-3 23 0 2.1 9
2 -23 0 204.28 26.5
-2 23 0 169.28 29.4
1 -23 0 -11.8 8.2
-1 23 0 -14.7 8.9
-1 23 -1 49.9 13.9
1 -23 1 6.2 9.1
-2 23 -1 20.5 11.1
2 -23 1 5.6 10.8
-3 23 -1 88.69 21.4
3 -23 1 77.59 18.1
-4 23 -1 -18.3 7.4
4 -23 1 -9.4 6
-5 23 -1 153.68 29.1
5 -23 1 88.49 18.4
-6 23 -1 48.7 19
1 22 -1 274.97 27.2
-1 -22 1 259.17 31.2
-1 -22 1 323.67 34.5
0 22 -1 -13.1 9.2
-1 22 -1 37.9 13.5
1 -22 1 -4.4 9.1
-2 22 -1 97.19 21.3
2 -22 1 70.09 16.2
-3 22 -1 45.8 15.4
-4 22 -1 256.67 31.8
4 -22 1 217.58 26.8
-5 22 -1 41.5 16.9
5 -22 1 -17 7.2
-6 22 -1 85.49 23.4
-7 22 -1 34.4 14.3
2 21 -1 84.59 13.2
-2 -21 1 87.09 16
-2 -21 1 66.39 16.5
1 21 -1 11.5 7.5
-1 -21 1 -3.3 7.3
-1 -21 1 5.1 9.7
0 21 -1 132.49 20.6
0 -21 1 99.69 18.7
0 -21 1 174.88 48.9
-1 21 -1 -1.7 8.3
1 -21 1 -14.7 6.6
-2 21 -1 54.89 14.4
2 -21 1 45.8 11.8
-3 21 -1 200.18 26.7
3 -21 1 139.19 22.6
-4 21 -1 13.8 11.3
4 -21 1 -6.3 6.1
-5 21 -1 275.17 34
5 -21 1 250.07 28
-6 21 -1 16 9.1
-7 21 -1 28.2 13.8
-8 21 -1 15.8 12.7
-3 -20 1 5.1 7.7
-3 -20 1 10.7 13.2
2 20 -1 2.2 6.5
-2 -20 1 11.6 10.1
-2 -20 1 3.4 5.3
1 20 -1 80.99 13.6
-1 -20 1 50.29 14
-1 -20 1 13 22.2
0 20 -1 -6.3 5.1
0 -20 1 -6.6 11.2
-1 20 -1 33.5 13.1
1 -20 1 31.3 11.7
-2 20 -1 312.97 35.1
2 -20 1 370.46 33.8
-3 20 -1 324.17 35
3 -20 1 311.67 31.1
-4 20 -1 86.89 20.1
4 -20 1 57.29 14.6
-5 20 -1 5.1 10.3
5 -20 1 6.3 6.2
-6 20 -1 319.07 37.5
-7 20 -1 38.5 14.8
-8 20 -1 38.2 14.4
8 -20 1 40 17.3
-9 20 -1 43.1 19.7
9 -20 1 72.39 16.4
-4 -19 1 55.79 16.3
-3 -19 1 7.9 6.7
-3 -19 1 0.9 5.7
2 19 -1 68.19 11.2
-2 -19 1 57.09 13.6
-2 -19 1 41.5 12.2
1 19 -1 15.7 8.1
-1 -19 1 20.4 8.9
-1 -19 1 5.6 6.1
0 19 -1 235.38 24.5
0 -19 1 215.78 25.4
0 -19 1 229.18 29
-1 19 -1 23.1 10.9
1 -19 1 25 11.6
1 -19 1 11.9 7.9
-2 19 -1 337.67 32.7
2 -19 1 260.47 28.4
-3 19 -1 11.2 7
3 -19 1 -2.9 6.2
-4 19 -1 76.39 18.3
-5 19 -1 216.18 28.9
5 -19 1 178.68 23.3
-6 19 -1 47.8 16.5
-7 19 -1 452.65 45
7 -19 1 384.86 37.8
-8 19 -1 22 11.2
8 -19 1 34.1 12.8
-9 19 -1 142.99 30.6
9 -19 1 135.09 21.6
-5 -18 1 144.19 24.6
-4 -18 1 41.7 13.2
3 18 -1 2.2 14.6
-3 -18 1 10.5 6.9
-3 -18 1 5 5.7
2 18 -1 127.29 14.2
-2 -18 1 110.29 18
-2 -18 1 120.49 20.9
1 18 -1 57.49 11.7
-1 -18 1 65.39 15.9
-1 -18 1 37.2 11
0 18 -1 351.96 32.8
0 -18 1 339.47 33.5
0 -18 1 438.36 37.8
-1 18 -1 111.09 19
1 -18 1 60.19 14.2
1 -18 1 92.69 19.2
-2 18 -1 8 8.7
2 -18 1 -6.3 6
2 -18 1 20.9 9.4
-3 18 -1 89.99 18.6
3 -18 1 73.29 14.8
-4 18 -1 560.94 50.99
4 -18 1 591.74 75.99
4 -18 1 592.94 46.4
-5 18 -1 325.17 35.5
5 -18 1 295.67 29.8
5 -18 1 309.97 33.6
-6 18 -1 47.7 15.6
6 -18 1 5.1 9.4
-7 18 -1 23.8 14.8
7 -18 1 16.3 10.1
-8 18 -1 257.87 33
8 -18 1 236.98 27.2
-9 18 -1 7.8 8
9 -18 1 25.5 11.3
-10 18 -1 120.29 30.2
10 -18 1 159.48 18.8
-5 -17 1 114.29 20.9
-4 -17 1 146.89 23.4
3 17 -1 54.09 8.7
-3 -17 1 68.59 12.1
-3 -17 1 66.69 15.5
2 17 -1 402.96 29.3
-2 -17 1 369.46 34.2
-2 -17 1 327.27 32
1 17 -1 332.07 28.5
-1 -17 1 336.27 32.3
-1 -17 1 309.07 31.3
0 17 -1 6.9 6.2
0 -17 1 -6.3 6
0 -17 1 9.2 8.5
-1 17 -1 451.55 38.5
1 -17 1 457.35 41.1
1 -17 1 386.86 42
-2 17 -1 496.15 43.2
2 -17 1 495.65 44.8
2 -17 1 570.64 73.09
2 -17 1 464.95 40.7
-3 17 -1 184.28 23.4
3 -17 1 168.48 27.1
3 -17 1 197.98 25.9
3 -17 1 160.98 27.5
-4 17 -1 68.29 17.2
4 -17 1 68.79 16.8
4 -17 1 77.89 18
-5 17 -1 83.19 19.3
5 -17 1 80.19 17.4
5 -17 1 74.59 15.4
-6 17 -1 459.75 44.5
6 -17 1 373.96 42.3
-7 17 -1 227.88 32.1
7 -17 1 299.87 27.8
-8 17 -1 19.8 12.2
8 -17 1 10.4 8.3
-9 17 -1 309.17 36.8
9 -17 1 245.48 24.7
-10 17 -1 -4.3 10.1
10 -17 1 4.4 7.1
-6 -16 1 23.6 11.9
-5 -16 1 120.69 21.5
-4 -16 1 14.4 4.8
-4 -16 1 25.6 9.8
3 16 -1 386.56 26.1
-3 -16 1 338.77 32.8
-3 -16 1 256.47 57.69
2 16 -1 49.4 9.5
-2 -16 1 57.29 13.2
-2 -16 1 63.89 12
1 16 -1 8.5 6
-1 -16 1 -3.5 5.9
-1 -16 1 -11.6 9.1
0 16 -1 1966 120.79
0 -16 1 1766.72 119.69
0 -16 1 1985.4 124.09
-1 16 -1 798.62 59.79
-1 16 -1 753.42 56.99
1 -16 1 842.52 66.39
1 -16 1 851.61 62.99
1 -16 1 845.12 58.59
-2 16 -1 652.93 51.59
-2 16 -1 619.54 47.8
2 -16 1 713.83 56.19
2 -16 1 600.54 52.79
2 -16 1 677.13 48.8
-3 16 -1 305.77 27.8
-3 16 -1 327.97 32.6
3 -16 1 254.87 31.2
3 -16 1 347.57 34.4
3 -16 1 313.77 28.5
-4 16 -1 168.78 19.9
-4 16 -1 181.78 24.6
4 -16 1 190.38 20.8
4 -16 1 230.98 46.6
4 -16 1 193.28 26.4
-5 16 -1 1375.86 97.99
5 -16 1 1332.67 93.99
5 -16 1 1415.86 91.69
-6 16 -1 25.2 12.2
6 -16 1 30.5 11.4
-7 16 -1 34.5 14.3
7 -16 1 89.49 16
-8 16 -1 18.6 11.9
8 -16 1 22 8.7
-9 16 -1 24.9 13.2
9 -16 1 27.7 8.3
-10 16 -1 31.1 14.7
10 -16 1 57.69 8.8
-11 16 -1 55.59 32.3
-7 -15 1 99.09 21.4
-6 -15 1 60.79 14.9
-5 -15 1 37 12.5
-4 -15 1 102.29 9.8
-4 -15 1 107.59 18.9
3 15 -1 52.79 7
-3 -15 1 37 9.1
-3 -15 1 38.6 10.7
2 15 -1 889.41 57.99
-2 -15 1 947.61 65.49
-2 -15 1 797.22 59.69
1 15 -1 999.5 66.89
1 15 -1 957.6 69.49
-1 -15 1 1040.2 78.99
-1 -15 1 974.9 69.49
-1 -15 1 1105.49 71.29
0 15 -1 343.67 30.3
0 15 -1 359.56 30.9
0 -15 1 356.56 30.7
0 -15 1 365.46 33
0 -15 1 371.66 37.8
-1 15 -1 1614.04 102.29
-1 15 -1 1566.14 103.99
1 -15 1 1566.04 109.99
1 -15 1 1665.73 102.79
1 -15 1 1617.64 106.99
-2 15 -1 18.4 8.1
-2 15 -1 5.3 4.6
2 -15 1 -0.2 4.8
2 -15 1 16.2 8.5
-3 15 -1 413.06 33.7
-3 15 -1 445.26 39.1
3 -15 1 410.86 33.6
3 -15 1 419.86 39
3 -15 1 404.56 40.7
-4 15 -1 401.96 34.1
-4 15 -1 492.55 41.4
4 -15 1 437.06 35.4
4 -15 1 409.66 40
4 -15 1 412.26 38.1
-5 15 -1 27.1 12.5
-5 15 -1 35.5 9.4
5 -15 1 44.5 11.4
5 -15 1 27.1 11
5 -15 1 42.4 11
-6 15 -1 9.5 8.5
6 -15 1 -2.2 5.4
-7 15 -1 93.79 21.2
7 -15 1 110.09 14.2
-8 15 -1 563.64 55.39
8 -15 1 654.53 45.1
-9 15 -1 170.68 29.8
9 -15 1 148.99 36.5
-10 15 -1 12 10.8
10 -15 1 12.7 4.3
-11 15 -1 56.89 17.7
-7 -14 1 5.4 7.3
-6 -14 1 256.47 28.8
-5 -14 1 132.89 21.6
-4 -14 1 5.1 3.2
-4 -14 1 0.5 7.2
3 14 -1 745.23 45.4
-3 -14 1 722.53 53.69
-3 -14 1 669.23 48.3
2 14 -1 5 6
2 14 -1 12.3 5.3
-2 -14 1 12.8 6.5
-2 -14 1 3.1 8.6
-2 -14 1 5.7 7.4
1 14 -1 874.21 62.19
1 14 -1 883.91 59.39
-1 -14 1 910.41 62.49
-1 -14 1 913.81 63.09
-1 -14 1 914.61 70.49
0 14 -1 520.15 44.1
0 14 -1 578.94 44
0 -14 1 627.94 44.5
0 -14 1 620.04 53.69
0 -14 1 630.34 46.7
-1 14 -1 194.28 20.8
-1 14 -1 185.18 18.8
1 -14 1 164.58 18.2
1 -14 1 170.28 20.2
1 -14 1 187.48 23.4
-2 14 -1 397.96 31.2
-2 14 -1 366.06 33.5
2 -14 1 364.36 34.7
2 -14 1 428.76 32
2 -14 1 343.07 35
-3 14 -1 439.66 36.4
-3 14 -1 450.75 39.8
3 -14 1 502.75 36.9
3 -14 1 473.75 40.9
3 -14 1 464.25 41.1
-4 14 -1 32 11.7
-4 14 -1 13.7 6.1
4 -14 1 13.7 7.2
4 -14 1 43.8 19
4 -14 1 14.9 8.4
-5 14 -1 900.51 61.49
-5 14 -1 989.9 70.99
5 -14 1 846.52 67.89
5 -14 1 896.61 64.19
-6 14 -1 165.78 27.2
-6 14 -1 149.88 17.6
6 -14 1 157.38 27.2
6 -14 1 163.78 19.3
-7 14 -1 234.68 40.8
7 -14 1 285.97 25.3
-8 14 -1 88.59 19.8
8 -14 1 82.29 11.3
-9 14 -1 21.3 11.8
9 -14 1 18.5 5.4
-10 14 -1 46.5 16.7
-11 14 -1 6.3 11.1
-8 -13 1 8.2 10.4
-7 -13 1 133.99 22.2
-6 -13 1 10.4 7.3
-5 -13 1 1.2 4.7
-4 -13 1 670.93 81.59
-4 -13 1 492.25 32.6
-4 -13 1 554.74 56.09
3 13 -1 562.14 41.6
3 13 -1 517.85 32.9
-3 -13 1 580.14 49.2
-3 -13 1 430.86 34.8
-3 -13 1 474.55 39.7
2 13 -1 1045.8 65.99
2 13 -1 1061.99 71.69
-2 -13 1 1100.39 71.89
-2 -13 1 1136.89 80.69
-2 -13 1 970.5 68.49
1 13 -1 5.1 4.2
1 13 -1 4.7 4.4
-1 -13 1 8.9 6.4
-1 -13 1 21.5 6.5
0 13 -1 630.14 44.6
0 13 -1 610.34 44.5
0 -13 1 608.34 46.3
0 -13 1 584.54 43.9
0 -13 1 640.34 51.39
-1 13 -1 452.15 37.2
-1 13 -1 435.46 35.3
1 -13 1 487.05 39.4
1 -13 1 522.95 36.9
1 -13 1 488.55 42
-2 13 -1 214.58 23.3
-2 13 -1 213.28 20.8
2 -13 1 244.88 21.3
2 -13 1 256.57 25.8
2 -13 1 200.08 23.1
-3 13 -1 947.11 65.89
-3 13 -1 1029.8 72.09
3 -13 1 1052.29 71.59
3 -13 1 1041 66.99
3 -13 1 992.4 72.19
-4 13 -1 54.59 14.2
-4 13 -1 57.79 10.3
4 -13 1 51.29 11.8
4 -13 1 44.1 13
4 -13 1 49 10.6
-5 13 -1 231.78 26.6
-5 13 -1 210.68 37.6
5 -13 1 196.48 35.5
5 -13 1 263.77 24.7
-6 13 -1 1237.98 80.89
-6 13 -1 1366.96 91.39
6 -13 1 1241.18 81.29
6 -13 1 1166.18 87.79
-7 13 -1 76.59 17.7
-7 13 -1 67.69 15.8
7 -13 1 68.89 19.9
7 -13 1 70.39 12.4
-8 13 -1 118.29 24.2
8 -13 1 135.09 13.6
-9 13 -1 47.9 15.5
9 -13 1 46.1 6.8
-10 13 -1 28.2 13.2
-11 13 -1 170.98 32
-8 -12 1 45.2 12.6
-7 -12 1 93.19 18.7
-6 -12 1 82.29 18.2
-5 -12 1 -4.4 9.2
-5 -12 1 -4.4 6.5
4 12 -1 60.79 12.3
-4 -12 1 64.49 13.5
-4 -12 1 51.09 5.8
-4 -12 1 80.39 18.5
3 12 -1 336.57 22.3
3 12 -1 317.47 28.6
-3 -12 1 277.67 24.1
-3 -12 1 345.57 29.8
-3 -12 1 386.36 37.3
2 12 -1 12.4 4.3
2 12 -1 19.9 7.6
-2 -12 1 33.9 11
-2 -12 1 12.6 5.7
-2 -12 1 27.5 9
1 12 -1 1101.99 76.89
1 12 -1 1197.98 75.59
-1 -12 1 1269.97 78.19
-1 -12 1 1232.08 85.39
0 12 -1 159.18 17.1
0 12 -1 156.48 16.4
0 -12 1 144.89 20.2
0 -12 1 177.78 18.4
0 -12 1 170.48 17.1
-1 12 -1 641.24 47.7
-1 12 -1 700.83 50.39
1 -12 1 748.53 49
1 -12 1 672.83 53.29
1 -12 1 767.52 52.99
-2 12 -1 9.5 5.6
-2 12 -1 -0.1 4.5
2 -12 1 0.6 4.5
2 -12 1 21.5 7.4
2 -12 1 8.9 5.7
-3 12 -1 177.18 21.2
-3 12 -1 197.28 18.5
3 -12 1 205.98 22.7
3 -12 1 189.88 21.1
3 -12 1 198.68 18.9
-4 12 -1 381.16 29.9
-4 12 -1 366.36 34.8
4 -12 1 372.06 32.4
4 -12 1 402.56 31.1
4 -12 1 395.86 35.4
-5 12 -1 122.19 13.8
-5 12 -1 89.69 17.8
5 -12 1 99.69 19
5 -12 1 113.69 14.6
-6 12 -1 810.62 58.49
-6 12 -1 687.23 48.7
6 -12 1 663.73 47.9
6 -12 1 631.74 54.29
-7 12 -1 40.7 9.9
-7 12 -1 35.1 12.1
7 -12 1 29.3 7.4
7 -12 1 42.6 12.4
-8 12 -1 11.7 8
8 -12 1 4.1 3.9
-9 12 -1 -1.1 8.1
9 -12 1 5.2 1.9
-10 12 -1 340.57 40
-11 12 -1 60.49 18.9
-12 12 -1 153.18 29.1
-9 -11 1 19.9 10.6
-8 -11 1 150.18 24.9
-7 -11 1 66.99 15.8
-6 -11 1 96.49 18.4
-6 -11 1 136.19 25
-5 -11 1 -6.1 8.5
-5 -11 1 -1.5 5
4 11 -1 55.59 12.7
-4 -11 1 65.29 13.5
-4 -11 1 67.49 5.7
3 11 -1 744.23 47.4
3 11 -1 735.83 54.49
-3 -11 1 816.52 55.29
-3 -11 1 874.01 62.89
2 11 -1 606.74 38.5
2 11 -1 587.94 43
-2 -11 1 492.65 39.7
-2 -11 1 628.44 49.4
-2 -11 1 645.84 43.3
1 11 -1 215.18 20.6
1 11 -1 212.08 19.3
-1 -11 1 239.38 21.4
-1 -11 1 256.77 26.2
-1 -11 1 238.08 21.3
0 11 -1 2277.47 144.69
0 -11 1 2518.75 145.59
0 -11 1 2453.25 152.08
0 -11 1 2456.75 147.79
-1 11 -1 5.9 3.8
-1 11 -1 5.9 7.9
1 -11 1 1 4.3
1 -11 1 7.5 4
1 -11 1 4.8 4.3
-2 11 -1 2091.19 126.69
-2 11 -1 2122.29 131.09
2 -11 1 2139.99 131.79
2 -11 1 2068.19 126.49
2 -11 1 2114.79 131.79
-3 11 -1 26.1 9
-3 11 -1 24.5 6.8
3 -11 1 29.1 8.2
3 -11 1 26.6 8.6
3 -11 1 28.2 7.1
-4 11 -1 159.08 16
-4 11 -1 181.18 20.7
4 -11 1 186.38 17.8
4 -11 1 152.68 17.3
4 -11 1 144.59 19.1
-5 11 -1 4.8 5.6
-5 11 -1 0.7 3.8
5 -11 1 7.8 6.7
-6 11 -1 55.99 11.1
-6 11 -1 75.79 16.6
6 -11 1 50.69 13.4
6 -11 1 71.39 9.8
-7 11 -1 1513.15 103.29
-7 11 -1 1551.84 94.99
7 -11 1 1446.26 101.29
7 -11 1 1435.56 89.79
-8 11 -1 473.25 47
8 -11 1 540.35 33.4
8 -11 1 508.45 46.3
-9 11 -1 -17.4 13.8
-10 11 -1 157.08 28.8
-11 11 -1 124.49 26.7
-12 11 -1 68.29 20.6
-9 -10 1 42.2 11.8
-8 -10 1 -5.6 6.8
-7 -10 1 156.98 25.7
-7 -10 1 90.79 18.1
-6 -10 1 163.28 28.4
-6 -10 1 201.68 27.2
5 10 -1 406.46 34.5
-5 -10 1 341.97 32.4
-5 -10 1 424.76 39.9
4 10 -1 89.29 22.2
-4 -10 1 108.89 20.8
-4 -10 1 75.69 5.4
-4 -10 1 97.69 15.6
3 10 -1 -0.6 2.6
-3 -10 1 -2.1 5.2
-3 -10 1 5.2 4.2
-3 -10 1 4.2 3.1
2 10 -1 131.19 11.9
2 10 -1 144.09 15.8
-2 -10 1 151.58 19.2
-2 -10 1 117.79 12.7
-2 -10 1 144.99 15.6
1 10 -1 2223.58 133.69
1 10 -1 2155.58 135.19
-1 -10 1 2272.87 135.79
-1 -10 1 2378.66 135.99
-1 -10 1 2249.68 141.99
0 10 -1 488.55 36.1
0 10 -1 511.15 36.9
0 -10 1 541.75 37
0 -10 1 525.65 38.4
0 -10 1 532.75 42
-1 10 -1 804.22 55.39
-1 10 -1 769.82 52.79
1 -10 1 842.62 53.49
1 -10 1 855.11 58.49
1 -10 1 820.02 56.39
-2 10 -1 158.68 21
-2 10 -1 158.58 15
2 -10 1 147.49 16.9
2 -10 1 154.58 14.6
2 -10 1 127.29 16.6
-3 10 -1 936.91 58.59
-3 10 -1 888.71 62.79
3 -10 1 935.01 58.89
3 -10 1 844.92 60.59
3 -10 1 916.21 63.59
-4 10 -1 442.26 32
-4 10 -1 461.75 37.4
4 -10 1 459.75 33.9
4 -10 1 389.56 35.8
-5 10 -1 258.47 21.5
-5 10 -1 263.07 26.2
5 -10 1 233.28 20.6
5 -10 1 229.78 25.1
-6 10 -1 772.52 51.49
-6 10 -1 834.62 59.29
6 -10 1 703.33 48.4
6 -10 1 705.73 56.59
-7 10 -1 99.59 12.6
-7 10 -1 80.79 18
7 -10 1 65.89 8
7 -10 1 49.3 16.6
-8 10 -1 292.97 26.7
-8 10 -1 287.67 32.2
8 -10 1 281.67 29.6
8 -10 1 257.67 16.9
-9 10 -1 12.8 10.8
9 -10 1 -17.9 13.4
-10 10 -1 180.28 30
-11 10 -1 118.89 25.3
-12 10 -1 35 18.2
-9 -9 1 65.19 15.7
-9 -9 1 100.09 26.3
-8 -9 1 13.6 8.5
-8 -9 1 -18.6 11.9
-7 -9 1 42.4 11.4
-7 -9 1 78.49 18.9
6 9 -1 333.47 53.79
-6 -9 1 257.57 27.3
5 9 -1 52.09 11.4
-5 -9 1 45.9 11.3
-5 -9 1 39.6 12.6
4 9 -1 278.37 25.9
-4 -9 1 308.27 30.9
-4 -9 1 325.77 27.6
3 9 -1 1551.24 94.79
-3 -9 1 1716.03 102.09
-3 -9 1 1558.14 94.69
-3 -9 1 1288.07 88.59
2 9 -1 336.67 23.9
2 9 -1 338.87 27.6
-2 -9 1 372.86 28.1
-2 -9 1 383.66 26.2
-2 -9 1 347.57 32.1
1 9 -1 66.69 8.2
1 9 -1 63.09 10.2
-1 -9 1 61.89 9.9
-1 -9 1 46.5 8.7
-1 -9 1 62.29 12.3
0 9 -1 80.19 9.1
0 9 -1 63.89 8.8
0 -9 1 47.9 9.4
0 -9 1 61.79 15.7
0 -9 1 45.7 10.4
-1 9 -1 314.67 24.8
-1 9 -1 325.37 27.1
1 -9 1 337.87 27.8
1 -9 1 361.96 25.8
1 -9 1 376.56 29.9
-2 9 -1 555.34 40.9
-2 9 -1 527.45 37.3
2 -9 1 607.44 38.6
2 -9 1 510.55 40.9
2 -9 1 589.24 43
-3 9 -1 1201.08 74.59
-3 9 -1 1306.47 80.29
3 -9 1 1165.18 79.39
3 -9 1 1181.38 76.79
3 -9 1 1192.08 75.19
-4 9 -1 1143.39 75.99
-4 9 -1 1100.59 69.99
4 -9 1 1119.79 71.09
4 -9 1 1116.59 75.69
-5 9 -1 303.37 24
-5 9 -1 311.07 28.8
5 -9 1 279.87 27.4
5 -9 1 281.37 22.7
-6 9 -1 220.58 23.3
-6 9 -1 195.18 18.8
6 -9 1 183.48 15.5
6 -9 1 179.58 21.7
-7 9 -1 935.51 68.49
-7 9 -1 860.11 73.19
7 -9 1 935.11 54.49
7 -9 1 875.21 66.19
-8 9 -1 460.25 42.9
-8 9 -1 497.45 38.1
8 -9 1 413.56 39.5
-9 9 -1 282.87 32.2
9 -9 1 239.88 29.5
-10 9 -1 38.1 14.9
-11 9 -1 -6 8.6
-12 9 -1 79.99 20.9
-10 -8 1 96.99 25.1
-10 -8 1 200.18 30.8
-9 -8 1 14 7.6
-9 -8 1 23.4 13.4
-8 -8 1 27.5 10.6
-8 -8 1 36.4 25.4
-7 -8 1 42 13.1
-7 -8 1 66.69 15.9
6 8 -1 5.7 7.1
-6 -8 1 -3.1 6.7
-6 -8 1 3.5 4.5
5 8 -1 281.37 27.5
-5 -8 1 340.27 32
-5 -8 1 331.57 28.4
4 8 -1 304.17 26.5
-4 -8 1 300.97 26.5
-4 -8 1 342.77 31.1
3 8 -1 539.15 36.9
-3 -8 1 534.75 41.1
-3 -8 1 507.25 36.7
-3 -8 1 441.46 31.1
2 8 -1 1200.28 71.89
2 8 -1 1141.99 75.59
-2 -8 1 1249.88 73.89
-2 -8 1 1279.37 81.59
-2 -8 1 1205.18 75.99
1 8 -1 564.54 36
1 8 -1 491.85 36.6
-1 -8 1 576.34 37.5
-1 -8 1 535.75 36.9
-1 -8 1 552.04 41.7
0 8 -1 269.07 21.7
0 8 -1 242.48 23.1
0 -8 1 302.77 26.7
0 -8 1 286.67 22.8
0 -8 1 308.27 21.8
-1 8 -1 20.6 5.2
-1 8 -1 24.2 6.7
1 -8 1 45.6 9
1 -8 1 20 4.8
1 -8 1 17.1 5.6
-2 8 -1 7615.24 450.75
2 -8 1 7594.54 451.45
2 -8 1 7984.1 450.65
2 -8 1 8188.28 447.76
-3 8 -1 1780.12 105.99
-3 8 -1 1800.72 110.99
3 -8 1 1820.72 107.89
3 -8 1 1654.93 110.29
3 -8 1 1815.32 106.89
-4 8 -1 1757.82 110.49
-4 8 -1 1702.63 104.69
4 -8 1 1767.92 105.09
4 -8 1 1751.32 110.49
-5 8 -1 10.4 6.9
-5 8 -1 3.7 3.5
5 -8 1 13.4 6.5
5 -8 1 6.2 3
-6 8 -1 802.32 53.49
-6 8 -1 841.82 59.09
6 -8 1 747.13 57.09
6 -8 1 766.92 47.9
-7 8 -1 61.49 14.2
7 -8 1 63.79 13.4
7 -8 1 52.69 5
-8 8 -1 893.51 68.09
8 -8 1 906.21 66.29
-9 8 -1 225.28 27.5
9 -8 1 229.88 26.8
-10 8 -1 41 14
10 -8 1 39.7 13
-11 8 -1 54.89 20.6
-12 8 -1 1.6 10.4
-10 -7 1 21.3 12.1
-10 -7 1 10.7 8.2
-9 -7 1 134.49 22.9
-9 -7 1 142.09 24.9
-8 -7 1 633.54 48.7
-8 -7 1 429.56 42
-7 -7 1 26.3 11.3
-7 -7 1 7.4 7.3
6 7 -1 897.61 66.79
-6 -7 1 912.21 67.19
-6 -7 1 1135.89 72.79
5 7 -1 39.5 9.8
-5 -7 1 39.1 10.6
-5 -7 1 47.9 11
4 7 -1 45.7 9.8
-4 -7 1 38.1 10.6
-4 -7 1 39.4 9.1
3 7 -1 223.58 19.2
-3 -7 1 187.48 14.1
-3 -7 1 198.78 18.5
-3 -7 1 238.98 22.5
2 7 -1 1043.5 63.89
2 7 -1 1047.8 67.89
-2 -7 1 1095.29 68.09
-2 -7 1 1150.28 73.09
-2 -7 1 1106.49 65.59
1 7 -1 955.8 59.69
1 7 -1 906.31 58.09
-1 -7 1 907.61 59.09
-1 -7 1 1027.4 64.89
-1 -7 1 999 59.99
0 7 -1 8.3 3.4
0 7 -1 12.8 4
0 -7 1 7.8 3.5
0 -7 1 11.4 4.7
0 -7 1 7.6 3.6
-1 7 -1 1016.9 63.69
-1 7 -1 992.6 61.19
1 -7 1 987.5 63.89
1 -7 1 984.6 61.29
1 -7 1 1023 64.69
-2 7 -1 4828.52 273.57
-2 7 -1 4699.53 276.97
2 -7 1 4831.22 276.07
2 -7 1 4899.31 273.77
2 -7 1 4584.94 277.07
-3 7 -1 482.45 34.3
-3 7 -1 403.06 37.3
3 -7 1 439.06 30.4
3 -7 1 376.06 40.7
-4 7 -1 2042 123.79
-4 7 -1 2174.38 129.19
4 -7 1 2036.1 128.19
4 -7 1 2086.79 122.79
-5 7 -1 -0.5 1.9
-5 7 -1 2.2 3.4
5 -7 1 -3 4.6
5 -7 1 -0.7 1.7
-6 7 -1 580.14 48.9
6 -7 1 691.13 39.5
6 -7 1 686.23 49.9
-7 7 -1 115.79 19.6
7 -7 1 134.59 17.1
-8 7 -1 205.18 25
8 -7 1 218.98 24.3
-9 7 -1 103.49 19.5
9 -7 1 77.79 19.2
-10 7 -1 59.49 15.4
10 -7 1 69.69 16.6
-11 7 -1 10.8 11
-12 7 -1 -3.3 5.7
-12 7 -1 1.2 12
-10 -6 1 237.68 28.5
-10 -6 1 220.78 29.2
-9 -6 1 12.7 7.6
-9 -6 1 33.9 11.3
-8 -6 1 132.79 23.1
-8 -6 1 219.58 24.4
-7 -6 1 5.7 5.5
-7 -6 1 0.8 7.7
6 6 -1 102.29 20.1
-6 -6 1 142.59 18.3
-6 -6 1 93.79 16.1
5 6 -1 14.7 6
-5 -6 1 4.3 5
-5 -6 1 7.2 5.7
4 6 -1 230.28 20.8
-4 -6 1 229.58 23.2
-4 -6 1 258.77 21.9
3 6 -1 362.96 26.4
-3 -6 1 318.17 21
-3 -6 1 352.86 29.3
2 6 -1 72.79 6.2
2 6 -1 75.29 9
-2 -6 1 71.89 7.2
-2 -6 1 81.19 11.2
-2 -6 1 75.09 8.9
1 6 -1 1025.5 62.39
1 6 -1 1001.6 63.79
-1 -6 1 1079.99 64.19
-1 -6 1 1054.59 63.49
-1 -6 1 1058.59 67.89
0 6 -1 339.57 24.3
0 6 -1 350.66 23.8
0 -6 1 376.16 27.3
0 -6 1 331.07 24.7
0 -6 1 348.07 24
-1 6 -1 896.51 56.09
-1 6 -1 893.21 53.89
1 -6 1 857.51 56.09
1 -6 1 873.21 56.39
-2 6 -1 533.45 34.2
-2 6 -1 518.15 37.1
2 -6 1 512.35 34.3
2 -6 1 532.75 37.3
2 -6 1 558.84 36
-3 6 -1 601.94 38.1
-3 6 -1 573.14 41.3
3 -6 1 578.74 41.5
3 -6 1 593.14 38.1
-4 6 -1 1 2
-4 6 -1 2.3 3
4 -6 1 0.3 1.7
4 -6 1 0.8 3.1
5 -6 1 15.1 5.8
5 -6 1 10.8 2.5
-6 6 -1 187.98 20.5
6 -6 1 171.68 19
-7 6 -1 144.19 18.8
7 -6 1 141.29 17.6
-8 6 -1 182.48 22.4
8 -6 1 197.18 21.6
-9 6 -1 5.2 7.6
9 -6 1 15.6 9.1
-10 6 -1 94.89 19.2
10 -6 1 57.49 14.7
-11 6 -1 18.2 8.9
-11 6 -1 46.4 13.7
11 -6 1 40.9 13.9
-12 6 -1 46.4 16.5
-12 6 -1 82.89 18.6
-11 -5 1 41.5 15.2
-11 -5 1 39 22.7
-11 -5 1 35 9.9
-10 -5 1 3.7 8.2
-10 -5 1 7.6 8.7
-9 -5 1 33.2 11.2
-9 -5 1 32.4 11.2
-8 -5 1 13.5 14.7
-8 -5 1 35.1 11.3
-7 -5 1 32.5 9.7
-7 -5 1 37.3 10.6
-6 -5 1 699.23 54.19
-6 -5 1 849.22 56.99
5 5 -1 104.09 13.2
-5 -5 1 117.29 15.2
-5 -5 1 111.69 13.8
4 5 -1 3.5 3.2
-4 -5 1 12.7 8.5
-4 -5 1 2.7 4.2
3 5 -1 37.8 7.2
-3 -5 1 30.1 6.6
-3 -5 1 41.4 9
-3 -5 1 32.1 3.3
2 5 -1 2.1 2.4
-2 -5 1 6.4 3.9
-2 -5 1 4.3 2
-2 -5 1 6.1 3.3
1 5 -1 3904.61 229.98
1 5 -1 3909.21 228.38
-1 -5 1 4143.59 229.48
-1 -5 1 4188.68 233.78
-1 -5 1 3903.51 229.88
0 5 -1 1454.15 87.29
0 5 -1 1487.95 88.09
0 -5 1 1514.05 87.59
0 -5 1 1491.45 88.59
0 -5 1 1494.55 90.49
-1 5 -1 5606.54 313.97
1 -5 1 5614.94 313.97
1 -5 1 5208.28 313.77
-2 5 -1 310.97 22.8
-2 5 -1 286.87 19.9
2 -5 1 280.17 20.2
2 -5 1 294.97 20.8
2 -5 1 281.17 22.3
-3 5 -1 47 6.2
-3 5 -1 68.79 8.8
3 -5 1 53.99 5.9
3 -5 1 45.5 8.5
-4 5 -1 538.15 38
4 -5 1 500.15 31.4
4 -5 1 518.35 37.6
-5 5 -1 37.3 8.9
5 -5 1 38.1 8.8
-6 5 -1 1284.37 82.59
6 -5 1 1217.28 81.29
-7 5 -1 -0.6 3.8
7 -5 1 10.3 5.9
-8 5 -1 149.69 19.8
8 -5 1 165.98 19.3
-9 5 -1 108.89 19.7
9 -5 1 128.99 17.5
-10 5 -1 70.59 16.1
10 -5 1 77.99 15.4
-11 5 -1 17.4 11.8
-11 5 -1 22.1 9.9
11 -5 1 11.4 10.5
-12 5 -1 81.19 16.8
-12 5 -1 16.9 12.8
12 -5 1 40.9 14.1
-11 -4 1 11.3 9.6
-11 -4 1 3.6 5.5
-11 -4 1 9.9 9
-10 -4 1 30.9 9.8
-10 -4 1 4.2 5.6
-10 -4 1 1.9 6.6
-9 -4 1 26.1 9.3
-9 -4 1 39.9 11.2
-8 -4 1 296.07 30.2
-8 -4 1 367.26 31
-7 -4 1 150.18 18
-7 -4 1 190.08 19.6
-7 -4 1 139.69 9.5
-6 -4 1 351.26 23.1
-6 -4 1 446.26 33.2
-6 -4 1 395.76 32.1
5 4 -1 365.76 29.6
-5 -4 1 418.16 30.5
-5 -4 1 354.76 22.6
4 4 -1 330.37 24.9
-4 -4 1 310.47 18.5
-4 -4 1 397.46 27.8
-4 -4 1 274.37 18.9
3 4 -1 664.83 44.3
-3 -4 1 739.73 47
-3 -4 1 706.73 44.9
-3 -4 1 597.14 39.4
-3 -4 1 710.53 39.4
2 4 -1 99.79 9.9
-2 -4 1 108.89 7.8
-2 -4 1 104.89 10.1
1 4 -1 596.94 37.2
1 4 -1 576.74 35.7
-1 -4 1 605.14 37.3
-1 -4 1 607.44 36.4
-1 4 -1 4959 278.27
1 -4 1 4781.02 278.17
1 -4 1 4833.52 277.67
-2 4 -1 413.36 27.2
-2 4 -1 411.46 29.4
2 -4 1 438.56 27.3
2 -4 1 432.96 29.7
-3 4 -1 648.44 43.8
3 -4 1 643.24 43.7
3 -4 1 673.73 39.4
-4 4 -1 575.54 38
4 -4 1 512.15 30
4 -4 1 479.25 36.5
-5 4 -1 1213.98 77.19
5 -4 1 1178.28 76.49
-6 4 -1 86.59 14.4
6 -4 1 110.49 13.7
-7 4 -1 1025.6 72.19
7 -4 1 1112.69 71.89
-8 4 -1 5.3 5.3
8 -4 1 5.5 4.9
-9 4 -1 238.48 26.3
9 -4 1 252.57 25.1
-10 4 -1 144.79 19.9
-10 4 -1 128.29 22
10 -4 1 147.89 19.2
-11 4 -1 -4.4 5.3
-11 4 -1 11.7 8.6
11 -4 1 -13.4 6.6
-12 4 -1 10.1 10.7
-12 4 -1 18.1 9.8
12 -4 1 16.2 11.6
-11 -3 1 11.9 5.1
-11 -3 1 5.7 8.5
-10 -3 1 146.59 23.7
-10 -3 1 124.09 17
-10 -3 1 132.89 14.5
-9 -3 1 370.06 30.3
-9 -3 1 319.27 21.7
-9 -3 1 310.27 31.6
-8 -3 1 11.8 5.9
-8 -3 1 26.2 8
-8 -3 1 26.2 4.8
-7 -3 1 221.48 22.4
-7 -3 1 196.78 35.5
-7 -3 1 227.68 16.8
-6 -3 1 21.5 6.6
-6 -3 1 13.5 3.6
-6 -3 1 23.3 7.4
-5 -3 1 45.3 8.9
-5 -3 1 43.6 5.3
-5 -3 1 58.59 10.1
4 3 -1 414.26 29.9
-4 -3 1 442.26 30.4
-4 -3 1 330.57 25
-4 -3 1 493.25 31.6
3 3 -1 3.1 2.3
-3 -3 1 9 3.7
-3 -3 1 0.9 1.3
2 3 -1 371.96 25.3
-2 -3 1 384.36 25.6
-2 -3 1 380.26 22.5
-1 3 -1 26.5 3.2
-1 3 -1 15.9 3.7
1 -3 1 17.6 3.1
1 -3 1 19 4
-2 3 -1 3967.9 219.38
2 -3 1 3770.82 215.98
2 -3 1 3674.83 218.98
-3 3 -1 3831.52 212.98
3 -3 1 3719.63 206.98
3 -3 1 3442.16 212.18
-4 3 -1 1091.79 70.39
4 -3 1 1145.59 70.49
-5 3 -1 73.99 11.8
5 -3 1 81.19 10.5
-6 3 -1 15.1 5.8
6 -3 1 14.5 9.1
-7 3 -1 2.6 4.6
7 -3 1 1.4 4.3
-8 3 -1 388.66 33.4
8 -3 1 402.86 33
-9 3 -1 455.85 44.1
-9 3 -1 515.65 42.6
9 -3 1 615.74 43.1
-10 3 -1 44.4 12.7
-10 3 -1 53.09 12.7
10 -3 1 55.19 12.3
-11 3 -1 86.19 18.2
-11 3 -1 86.09 15.8
11 -3 1 98.79 16.4
-12 3 -1 -5.1 7.2
-12 3 -1 5.8 16.4
12 -3 1 -6.5 9.1
-11 -2 1 24.1 5.7
-11 -2 1 6.6 9.5
-11 -2 1 6.8 6.5
-10 -2 1 24.4 5.7
-10 -2 1 15.5 5.1
-10 -2 1 9.2 8.5
-10 -2 1 16 5.4
-9 -2 1 101.19 12.9
-9 -2 1 81.29 10.1
-9 -2 1 76.09 16.8
-9 -2 1 78.39 10.4
-8 -2 1 17.5 6.2
-8 -2 1 10.7 6.2
-8 -2 1 30.4 6.4
-7 -2 1 134.79 13.2
-7 -2 1 112.79 13.5
-7 -2 1 118.49 18
-6 -2 1 1071.49 66.19
-6 -2 1 868.51 60.19
-6 -2 1 1024.6 63.79
-5 -2 1 236.38 19.7
-5 -2 1 324.87 23.6
-5 -2 1 307.27 24.3
-4 -2 1 2495.75 140.59
-4 -2 1 2249.87 136.79
3 2 -1 3100.59 186.08
-3 -2 1 3223.78 183.58
-3 -2 1 3321.27 186.48
2 2 -1 299.47 20.6
-2 -2 1 311.57 20.7
-2 -2 1 300.17 18.7
1 2 -1 154.08 10.8
-1 -2 1 147.39 9.5
-1 -2 1 153.28 10.8
0 2 -1 1.9 0.9
0 2 -1 2 0.9
0 -2 1 2.8 1.1
0 -2 1 3.9 1
2 -2 1 425.06 25.4
-3 2 -1 47.4 6.4
3 -2 1 50.99 6.6
-4 2 -1 3024.9 178.58
4 -2 1 3084.09 178.38
-5 2 -1 4347.86 267.47
5 -2 1 4888.11 267.87
-6 2 -1 824.22 57.29
6 -2 1 901.91 57.39
-7 2 -1 680.43 49.99
-7 2 -1 745.23 51.99
7 -2 1 736.63 54.09
-8 2 -1 8.5 6.1
-8 2 -1 7.8 5.4
8 -2 1 12.1 6.2
-9 2 -1 121.89 31.1
-9 2 -1 136.39 17
9 -2 1 154.58 17.1
-10 2 -1 93.99 15.6
-10 2 -1 56.19 14.1
10 -2 1 64.19 12.8
-11 2 -1 162.78 19.1
-11 2 -1 156.68 25.4
11 -2 1 130.89 17.8
-12 2 -1 73.19 13
-12 2 -1 40.4 13.8
-11 -1 1 7.8 5.5
-11 -1 1 12.2 3
-11 -1 1 16.3 4.4
-11 -1 1 7.1 6.9
-10 -1 1 267.77 20.9
-10 -1 1 254.07 19.3
-10 -1 1 259.57 22.2
-10 -1 1 238.28 27.5
-9 -1 1 12.4 13
-9 -1 1 14.2 5.1
-9 -1 1 5.8 3.4
-9 -1 1 3.7 4.8
-8 -1 1 463.95 39.7
-8 -1 1 483.75 35.1
-8 -1 1 510.65 33.3
-8 -1 1 479.65 35.6
-7 -1 1 185.68 17.1
-7 -1 1 197.78 20.3
6 1 -1 92.19 9.5
-6 -1 1 91.99 13.7
-6 -1 1 68.69 9.4
-6 -1 1 66.59 9.3
5 1 -1 3106.09 170.38
-5 -1 1 2524.25 170.58
-5 -1 1 3216.48 174.98
4 1 -1 303.87 20.4
-4 -1 1 278.97 21
-4 -1 1 304.77 23
3 1 -1 1800.52 105.79
-3 -1 1 1859.21 106.49
-3 -1 1 1824.12 107.89
2 1 -1 103.19 9
-2 -1 1 111.79 8.4
-2 -1 1 114.09 9.3
1 1 -1 38.3 3.8
-1 -1 1 50.09 4
1 -1 1 120.09 7.3
-2 1 -1 604.04 35.8
2 -1 1 544.25 35.4
-3 1 -1 4369.96 243.98
-3 1 -1 4427.16 240.58
3 -1 1 3957.9 243.48
-4 1 -1 254.07 15.2
-4 1 -1 218.68 18.2
4 -1 1 219.58 17.9
-5 1 -1 1826.52 96.89
-5 1 -1 1493.45 100.49
5 -1 1 1678.43 100.69
-6 1 -1 258.07 18.1
-6 1 -1 282.67 23.3
-6 1 -1 294.27 19
-6 1 -1 344.97 26.9
6 -1 1 316.87 23.8
-7 1 -1 324.37 20.8
-7 1 -1 328.37 26.9
-7 1 -1 309.57 21.3
-7 1 -1 417.16 31.3
7 -1 1 364.66 27
-8 1 -1 154.78 19
-8 1 -1 142.19 16.1
8 -1 1 158.38 26.7
-9 1 -1 38.5 9.5
-9 1 -1 29.2 10.5
9 -1 1 51.99 10
-10 1 -1 263.97 29.5
-10 1 -1 294.17 26.1
10 -1 1 300.27 24.9
-11 1 -1 45.1 9.6
-11 1 -1 22.4 11.8
-12 1 -1 0.6 5.3
-12 1 -1 -7.4 8.9
-11 0 1 13.6 11.1
-11 0 1 3.2 6.1
-10 0 1 14.7 3.5
-10 0 1 15.2 8.5
-10 0 1 5.6 2.5
-10 0 1 2.4 19.6
-9 0 1 190.18 15.9
-9 0 1 169.48 21.1
-9 0 1 177.28 14.5
-9 0 1 196.68 20.1
8 0 -1 177.98 16.5
-8 0 1 156.38 14.4
-8 0 1 157.08 13
-8 0 1 143.09 18.8
-8 0 1 144.79 16.8
7 0 -1 390.66 26.9
-7 0 1 342.97 27.5
-7 0 1 322.47 23.2
-7 0 1 303.87 24.3
-7 0 1 359.16 29.6
6 0 -1 10.1 4
-6 0 1 16.2 4.7
-6 0 1 11.3 4.9
-6 0 1 12.2 5
-6 0 1 10 3.2
5 0 -1 51.19 7.2
-5 0 1 51.59 8.7
-5 0 1 55.79 10.3
4 0 -1 4473.25 256.87
-4 0 1 4650.33 258.87
-4 0 1 4317.07 257.57
3 0 -1 2211.48 131.89
-3 0 1 2344.67 132.69
1 0 -1 2173.48 122.79
-1 0 1 2042.9 122.09
-1 0 1 2238.78 122.89
-1 0 -1 1781.42 99.29
1 0 1 1701.63 99.19
1 0 1 1739.63 99.29
-3 0 -1 5167.48 280.97
-3 0 -1 4963.9 279.97
-3 0 -1 4869.11 282.67
3 0 1 4714.03 280.57
-4 0 -1 464.75 32.4
-4 0 -1 504.55 35
-4 0 -1 534.15 31.9
4 0 1 495.05 32.6
-5 0 -1 125.09 12.4
-5 0 -1 147.59 11.9
-5 0 -1 115.59 14.2
5 0 1 152.98 12.9
-6 0 -1 345.67 24.6
-6 0 -1 347.87 26.3
-6 0 -1 379.96 29.9
6 0 1 361.16 26.1
-7 0 -1 732.53 51.89
-7 0 -1 695.73 44.9
-7 0 -1 686.43 47.3
7 0 1 738.53 47.3
-8 0 -1 6.5 4.7
-8 0 -1 -4.5 4.6
-8 0 -1 2 2.8
-8 0 -1 1.8 2.1
8 0 1 2.4 4
-9 0 -1 372.16 24.8
-9 0 -1 376.46 29.5
-9 0 -1 361.76 34.9
-9 0 -1 380.76 24.2
9 0 1 429.66 29.6
-10 0 -1 -3.4 3.9
-10 0 -1 3.3 5
-11 0 -1 38.1 7.9
-11 0 -1 54.19 15.9
-12 1 1 6.9 8.5
-12 1 1 8.2 9.7
-11 1 1 165.98 19.8
-11 1 1 119.39 22.3
-10 1 1 -3.5 4.4
-10 1 1 -5 4.8
9 -1 -1 32.4 8.8
-9 1 1 34.4 10.9
-9 1 1 36.6 4.5
-9 1 1 21 8.5
-9 1 1 33.3 4
8 -1 -1 359.96 27.4
-8 1 1 296.97 28.1
-8 1 1 344.87 22.8
-8 1 1 330.37 30
-8 1 1 306.47 21.6
7 -1 -1 477.05 32.7
-7 1 1 400.36 27.1
-7 1 1 392.46 28
-7 1 1 470.95 35.2
-7 1 1 411.36 33.3
6 -1 -1 129.99 12.7
-6 1 1 100.49 9
-6 1 1 128.69 14.4
-6 1 1 115.99 13.3
5 -1 -1 764.42 44.4
-5 1 1 592.94 39.2
-5 1 1 625.84 44.1
4 -1 -1 471.75 29.8
-4 1 1 415.16 29.9
-4 1 1 391.56 25.8
3 -1 -1 4454.05 272.47
-3 1 1 5052.49 273.67
-3 1 1 4790.32 269.87
2 -1 -1 4645.04 273.47
-2 1 1 4890.01 273.97
-2 1 1 4859.31 271.47
1 -1 -1 457.95 29
1 -1 -1 474.45 28.2
-1 1 1 489.45 28.4
-1 -1 -1 201.18 13.7
-1 -1 -1 212.18 14
1 1 1 198.08 11.9
1 1 1 200.68 13.7
-3 -1 -1 1.3 2
-3 -1 -1 3.3 2.4
-3 -1 -1 3.6 1.6
3 1 1 -0.7 1.3
-4 -1 -1 481.75 32.5
-4 -1 -1 521.15 36.2
-4 -1 -1 590.64 34.6
4 1 1 493.45 32.5
-5 -1 -1 1078.09 61.79
-5 -1 -1 891.71 59.69
-5 -1 -1 1039.8 64.99
5 1 1 961 59.79
-6 -1 -1 -1.3 3.4
-6 -1 -1 -5 2
-6 -1 -1 -1 2.2
6 1 1 1.9 2.6
-7 -1 -1 104.59 11.2
-7 -1 -1 100.79 11.3
-7 -1 -1 113.39 17.5
7 1 1 118.09 11.3
-8 -1 -1 74.79 9.7
-8 -1 -1 72.59 15.5
-8 -1 -1 82.19 9.9
8 1 1 73.69 9.2
-9 -1 -1 -1.3 3.1
-9 -1 -1 -5.1 2.3
-9 -1 -1 3.5 3.8
-9 -1 -1 -0.6 2.1
-10 -1 -1 104.59 19.8
-10 -1 -1 97.19 10.3
-10 -1 -1 108.79 10.1
-10 -1 -1 100.79 9
-11 -1 -1 5.9 9.1
-11 -1 -1 3.4 3.2
-12 2 1 116.69 21.6
-12 2 1 106.29 17.8
-11 2 1 20.1 10.6
-11 2 1 31.5 10.2
10 -2 -1 50.79 10.6
-10 2 1 25.8 10.7
-10 2 1 38.3 11
9 -2 -1 607.54 45
-9 2 1 606.64 47.7
-9 2 1 620.94 48.7
8 -2 -1 288.47 25.2
-8 2 1 280.87 16.9
-8 2 1 303.47 27.7
-8 2 1 279.97 26.6
-8 2 1 256.87 16.8
7 -2 -1 465.05 33.7
-7 2 1 417.16 34.1
-7 2 1 414.16 26.6
-7 2 1 408.96 26.2
6 -2 -1 50.69 9.4
-6 2 1 47.6 10.2
-6 2 1 56.39 5.4
5 -2 -1 3935.71 217.88
-5 2 1 3850.91 218.98
-5 2 1 3420.06 211.88
4 -2 -1 2067.99 119.49
-4 2 1 1964.2 114.79
-4 2 1 1975.2 120.09
3 -2 -1 837.12 51.19
3 -2 -1 807.12 54.79
-3 2 1 977.2 56.29
-3 2 1 924.71 51.99
2 -2 -1 64.89 7.4
2 -2 -1 78.49 6
-2 2 1 68.49 7.6
-2 2 1 75.79 6.3
1 -2 -1 539.35 31.9
1 -2 -1 503.45 32.5
-1 2 1 513.65 32.6
-1 2 1 523.85 32
0 -2 -1 804.72 49.4
0 -2 -1 816.22 48.4
0 -2 -1 812.12 48
0 2 1 814.52 49.4
0 2 1 836.62 48.5
0 2 1 845.12 48.1
-1 -2 -1 1159.88 68.99
1 2 1 1142.39 68.99
1 2 1 1158.78 68.19
1 2 1 1170.78 66.19
-2 -2 -1 3387.56 189.38
-2 -2 -1 3305.37 188.98
2 2 1 3178.08 188.88
2 2 1 3252.87 189.18
-3 -2 -1 3696.93 209.48
-3 -2 -1 3738.53 208.98
-3 -2 -1 3497.15 204.08
3 2 1 3585.04 204.48
3 2 1 3556.34 209.28
-4 -2 -1 454.45 28.9
-4 -2 -1 324.57 23.8
-4 -2 -1 438.26 29.8
4 2 1 401.56 24.3
-5 -2 -1 2720.23 181.18
-5 -2 -1 3497.65 186.78
-5 -2 -1 3351.66 188.88
5 2 1 3192.68 181.68
-6 -2 -1 623.44 43.5
-6 -2 -1 523.15 39.7
-6 -2 -1 559.84 36
6 2 1 612.54 36.3
-7 -2 -1 319.47 28.8
-7 -2 -1 316.67 21.6
-7 -2 -1 309.67 25.4
-8 -2 -1 31.4 5.2
-8 -2 -1 24.1 8.7
-8 -2 -1 26.8 8
-9 -2 -1 105.69 19.4
-9 -2 -1 151.38 15.2
-9 -2 -1 135.99 10.8
-10 -2 -1 119.89 22
-10 -2 -1 179.18 16.5
-10 -2 -1 173.68 15.1
-11 -2 -1 114.09 10.2
-11 -2 -1 97.59 21.4
-11 -2 -1 101.19 9.1
-12 3 1 -6.8 8.6
-12 3 1 -13.6 8
11 -3 -1 202.58 22.3
-11 3 1 183.98 23.9
-11 3 1 173.28 26.7
10 -3 -1 5.8 6.9
-10 3 1 5.3 6.7
-10 3 1 0.3 6.7
9 -3 -1 1166.88 76.89
-9 3 1 1158.58 80.19
-9 3 1 1117.69 79.39
8 -3 -1 66.89 12.9
-8 3 1 84.39 15.4
7 -3 -1 4 5.1
-7 3 1 22.5 9.4
6 -3 -1 21.7 6.7
-6 3 1 3 1.5
-6 3 1 4.5 4.6
5 -3 -1 4.6 3.6
-5 3 1 0.5 2.6
-5 3 1 3.7 1.7
4 -3 -1 1675.83 102.69
4 -3 -1 1628.34 96.79
-4 3 1 1881.41 104.49
-4 3 1 1609.84 97.59
3 -3 -1 716.33 48.1
3 -3 -1 714.73 44.4
-3 3 1 755.12 49
-3 3 1 802.42 45.2
2 -3 -1 5253.27 311.27
-2 3 1 5630.64 311.97
1 -3 -1 863.51 49.6
1 -3 -1 810.42 51.29
1 -3 -1 864.41 51.19
-1 3 1 839.42 49.6
-1 3 1 825.62 51.59
0 -3 -1 2456.15 142.69
0 -3 -1 2510.85 142.19
0 -3 -1 2494.45 144.19
0 3 1 2515.75 142.29
0 3 1 2433.86 142.69
-1 -3 -1 1050.79 59.49
-1 -3 -1 1018.1 61.29
-1 -3 -1 1057.59 62.99
1 3 1 985.8 59.39
1 3 1 1033.8 61.39
1 3 1 1006.7 62.69
-2 -3 -1 2906.21 168.38
-2 -3 -1 3041.6 169.68
2 3 1 2873.31 168.28
2 3 1 2794.92 169.08
-3 -3 -1 1573.34 91.69
-3 -3 -1 1515.85 90.99
3 3 1 1410.86 90.49
-4 -3 -1 1050.09 70.29
-4 -3 -1 1119.19 68.99
4 3 1 1078.19 69.09
-5 -3 -1 1242.48 79.99
-5 -3 -1 1258.67 79.09
-6 -3 -1 1143.39 71.99
-6 -3 -1 1045.8 72.59
-7 -3 -1 63.79 11.5
-7 -3 -1 69.69 13.7
-8 -3 -1 122.79 19.5
-8 -3 -1 129.29 17.9
-9 -3 -1 16.1 8.2
-9 -3 -1 20.4 7.6
-10 -3 -1 53.59 14.7
-11 -3 -1 61.09 10.7
-11 -3 -1 62.89 8.9
-11 -3 -1 93.09 19.6
12 -4 -1 43.4 14.1
-12 4 1 41.3 14.3
-12 4 1 41.4 14
11 -4 -1 57.49 22
-11 4 1 29.9 11.7
-11 4 1 25 12.5
10 -4 -1 261.57 26.2
-10 4 1 260.47 29
-10 4 1 224.28 26.7
9 -4 -1 46.9 11.7
-9 4 1 62.69 14.3
8 -4 -1 21.1 7.8
-8 4 1 18.1 8.2
7 -4 -1 102.29 14
-7 4 1 95.29 16.8
6 -4 -1 274.97 23.4
-6 4 1 270.07 24.9
-6 4 1 227.18 15.7
5 -4 -1 547.15 30.9
-5 4 1 526.65 38.8
-5 4 1 464.25 31.5
4 -4 -1 6 3.7
4 -4 -1 5 1.9
-4 4 1 4.5 3.9
-4 4 1 4.2 2
3 -4 -1 2529.15 156.48
3 -4 -1 2713.93 153.08
-3 4 1 2757.42 153.68
-3 4 1 2624.04 153.78
-3 4 1 2649.33 157.38
2 -4 -1 70.09 8.5
2 -4 -1 75.49 7.3
2 -4 -1 87.29 8.1
-2 4 1 68.99 8.7
-2 4 1 80.79 7.2
-2 4 1 86.69 8.3
1 -4 -1 6410.26 360.86
1 -4 -1 6113.79 360.56
-1 4 1 6445.95 361.06
0 -4 -1 152.08 12.3
0 -4 -1 148.89 11.7
0 -4 -1 172.08 13.9
0 4 1 154.78 12.3
0 4 1 160.58 12
0 4 1 157.38 13.8
-1 -4 -1 0.8 2.1
-1 -4 -1 1.2 1.6
-1 -4 -1 3.3 1.7
1 4 1 2.1 2.4
1 4 1 4.6 1.7
1 4 1 3 2.3
-2 -4 -1 58.59 7.1
-2 -4 -1 63.79 8.6
2 4 1 46.5 7.6
2 4 1 50.69 8.7
2 4 1 57.79 4
-3 -4 -1 2272.37 134.79
-3 -4 -1 2323.17 136.29
3 4 1 2209.18 134.69
-4 -4 -1 2312.27 136.39
-4 -4 -1 2306.17 136.99
4 4 1 2173.88 135.89
-5 -4 -1 1673.13 102.89
-5 -4 -1 1723.73 102.89
5 4 1 1517.15 101.79
-6 -4 -1 400.46 31.4
-6 -4 -1 336.67 30.8
-7 -4 -1 269.27 24.9
-7 -4 -1 217.08 24.2
-8 -4 -1 502.55 44.2
-8 -4 -1 522.55 41.2
-9 -4 -1 90.79 15.3
-9 -4 -1 100.99 18.7
-10 -4 -1 89.89 18.6
-10 -4 -1 110.09 17.5
-11 -4 -1 6.9 7
-11 -4 -1 10.8 9.2
-11 -4 -1 -4.6 14.3
12 -5 -1 89.29 22.4
-12 5 1 76.39 17.7
-12 5 1 77.59 19.3
11 -5 -1 -10.4 8.9
-11 5 1 12.3 11.9
-11 5 1 10.9 8.8
10 -5 -1 -0.7 9
-10 5 1 -7.5 7.8
9 -5 -1 111.49 19.3
-9 5 1 121.09 21.2
8 -5 -1 66.49 12.7
-8 5 1 53.89 13.7
7 -5 -1 1678.83 104.69
-7 5 1 1575.04 106.19
6 -5 -1 2228.78 131.69
-6 5 1 1952.8 121.99
-6 5 1 2235.48 133.49
5 -5 -1 1481.55 91.19
5 -5 -1 1465.45 83.39
-5 5 1 1592.74 93.29
-5 5 1 1242.58 83.89
4 -5 -1 69.99 9.6
4 -5 -1 58.39 6.1
-4 5 1 66.99 11.4
-4 5 1 41 6
3 -5 -1 154.18 15.4
3 -5 -1 177.48 13.8
-3 5 1 177.68 16.7
-3 5 1 167.68 13.3
-3 5 1 154.18 13.5
2 -5 -1 2295.77 142.99
2 -5 -1 2413.76 140.09
2 -5 -1 2369.46 141.59
-2 5 1 2550.74 142.29
-2 5 1 2498.95 140.09
-2 5 1 2383.06 143.49
1 -5 -1 260.17 17.5
1 -5 -1 249.88 19.5
1 -5 -1 244.68 19.2
-1 5 1 235.98 19.1
-1 5 1 234.48 19.3
-1 5 1 251.87 17.4
0 -5 -1 339.97 24.6
0 -5 -1 321.07 22
0 -5 -1 304.97 22.4
0 5 1 330.87 22.2
0 5 1 334.57 24.7
0 5 1 308.17 22.4
-1 -5 -1 245.08 17
-1 -5 -1 249.28 18.2
-1 -5 -1 239.28 20.3
1 5 1 231.58 19.9
1 5 1 231.88 16.7
1 5 1 253.87 18.5
-2 -5 -1 -0.1 2.7
-2 -5 -1 7.8 4
-2 -5 -1 4.8 1.6
2 5 1 13.1 2.2
2 5 1 16.4 4.5
2 5 1 2.9 3.5
-3 -5 -1 523.85 36.7
-3 -5 -1 462.75 35.5
3 5 1 455.95 33.9
-4 -5 -1 1066.59 72.49
-4 -5 -1 1030.3 65.49
4 5 1 908.21 64.19
-5 -5 -1 466.45 36.7
-5 -5 -1 506.35 37.7
5 5 1 437.46 35.9
-6 -5 -1 56.09 12.3
-6 -5 -1 50.69 11.7
-7 -5 -1 313.47 30.6
-7 -5 -1 342.07 31
-8 -5 -1 413.66 40.8
-8 -5 -1 585.04 43.6
-9 -5 -1 158.78 25.7
-9 -5 -1 151.18 20
-10 -5 -1 14 9.8
-10 -5 -1 19 11
-12 6 1 116.09 23
-12 6 1 156.88 31.4
11 -6 -1 106.39 19.9
-11 6 1 129.79 25.1
10 -6 -1 76.09 15.9
-10 6 1 65.99 17.8
9 -6 -1 374.16 34.4
-9 6 1 358.86 36.6
8 -6 -1 105.99 17.7
-8 6 1 94.49 18.6
7 -6 -1 48.6 11.2
-7 6 1 46.2 12.7
6 -6 -1 755.62 53.29
6 -6 -1 765.42 44.1
-6 6 1 743.13 54.49
-6 6 1 676.23 45
5 -6 -1 273.17 25.3
5 -6 -1 307.27 20.1
-5 6 1 255.17 20.4
-5 6 1 332.87 28.3
4 -6 -1 257.47 23.1
4 -6 -1 266.57 19.5
-4 6 1 264.07 20.1
-4 6 1 259.47 20.3
-4 6 1 263.97 24.1
3 -6 -1 714.23 51.69
3 -6 -1 812.92 49.7
-3 6 1 809.92 53.09
-3 6 1 726.03 49.5
-3 6 1 805.02 48.6
2 -6 -1 2349.76 131.69
2 -6 -1 2361.36 134.19
2 -6 -1 2095.99 134.49
-2 6 1 2289.17 134.19
-2 6 1 2184.48 135.09
-2 6 1 2249.57 131.49
1 -6 -1 2764.32 158.08
1 -6 -1 2743.13 161.28
1 -6 -1 2643.94 160.28
-1 6 1 2745.93 161.38
-1 6 1 2801.82 158.28
-1 6 1 2672.33 160.38
0 -6 -1 5681.13 325.27
0 -6 -1 5832.72 321.77
0 -6 -1 5374.56 322.27
0 6 1 5515.05 322.27
0 6 1 5712.63 325.47
0 6 1 5670.13 321.77
-1 -6 -1 121.79 13.4
-1 -6 -1 120.29 11.3
-1 -6 -1 106.39 10.2
1 6 1 116.09 13.5
1 6 1 121.79 11.4
1 6 1 111.99 10.1
-2 -6 -1 2461.75 134.29
-2 -6 -1 2346.17 141.59
-2 -6 -1 2366.66 138.29
2 6 1 2244.88 138.09
2 6 1 2234.18 133.49
-3 -6 -1 1880.81 113.09
-3 -6 -1 1940.31 116.19
3 6 1 1755.32 112.59
-4 -6 -1 893.61 59.79
-4 -6 -1 869.91 57.39
4 6 1 777.32 56.49
-5 -6 -1 237.68 22.8
-5 -6 -1 206.38 20.9
5 6 1 179.28 20.1
-6 -6 -1 1418.66 87.09
-6 -6 -1 1262.77 84.09
6 6 1 1113.69 82.59
-7 -6 -1 584.94 43.9
-7 -6 -1 403.06 39.4
-8 -6 -1 134.39 22.6
-8 -6 -1 192.28 24
-9 -6 -1 184.38 23.9
-9 -6 -1 201.08 24.8
-10 -6 -1 124.49 20.7
-10 -6 -1 87.49 20.3
-12 7 1 32.2 13.7
-12 7 1 2.9 9.5
-11 7 1 -2.6 9.7
10 -7 -1 61.89 16.2
-10 7 1 84.69 19.9
9 -7 -1 78.09 15.9
-9 7 1 65.39 16.5
8 -7 -1 151.18 19.5
-8 7 1 122.49 21.9
7 -7 -1 647.44 49.1
7 -7 -1 619.24 37.8
-7 7 1 640.44 51.09
6 -7 -1 60.79 11.9
6 -7 -1 40.8 5.4
-6 7 1 37.8 6.7
-6 7 1 43.5 11.9
-6 7 1 53.69 10.4
5 -7 -1 144.09 17.2
5 -7 -1 162.68 13.3
-5 7 1 167.58 14.9
-5 7 1 143.49 18.1
-5 7 1 135.69 13.2
4 -7 -1 2764.32 161.98
4 -7 -1 2856.01 157.08
-4 7 1 2640.14 169.78
-4 7 1 2264.67 156.38
-4 7 1 2842.92 156.88
3 -7 -1 1128.99 69.79
3 -7 -1 1045.9 73.59
3 -7 -1 1127.99 68.49
-3 7 1 1150.88 68.29
-3 7 1 1172.98 73.29
-3 7 1 1039.8 69.69
2 -7 -1 1873.31 111.19
2 -7 -1 1831.12 108.09
2 -7 -1 1803.92 111.69
-2 7 1 1890.01 111.49
-2 7 1 1803.02 107.99
-2 7 1 1765.02 111.69
1 -7 -1 392.36 27.2
1 -7 -1 420.96 29.9
1 -7 -1 408.76 30.5
-1 7 1 406.06 27.4
-1 7 1 374.66 29.2
-1 7 1 375.56 30.1
0 -7 -1 2027.6 124.19
0 -7 -1 2080.69 120.39
0 -7 -1 1981.4 121.09
0 7 1 2090.99 124.59
0 7 1 1966.3 120.79
0 7 1 2070.69 120.49
-1 -7 -1 1.1 2.2
-1 -7 -1 0.3 2.7
-1 -7 -1 6.4 3
1 7 1 3.2 4
1 7 1 2.2 2.4
1 7 1 1.7 2.2
-2 -7 -1 401.26 30.3
-2 -7 -1 421.56 33.5
-2 -7 -1 419.96 26.9
2 7 1 383.46 25.9
2 7 1 411.96 30.3
-3 -7 -1 202.48 20.7
-3 -7 -1 186.58 17.7
3 7 1 170.38 17.3
-4 -7 -1 39.7 9.4
-4 -7 -1 52.79 11.6
4 7 1 46.9 10.2
-5 -7 -1 13.8 8
-5 -7 -1 -3.5 4.3
5 7 1 5.3 5.7
-6 -7 -1 3.2 6.9
-6 -7 -1 28.4 11.5
6 7 1 9 5.8
-7 -7 -1 8.8 6.1
-7 -7 -1 3.1 8.6
-8 -7 -1 13.9 10.1
-8 -7 -1 3.2 8.4
-9 -7 -1 120.59 21.8
-9 -7 -1 101.19 21.4
-10 -7 -1 24.5 23.8
-10 -7 -1 1.7 17
-12 8 1 -4.3 10.8
-11 8 1 49.5 17.2
10 -8 -1 -2.3 9.9
-10 8 1 2 9.5
9 -8 -1 141.09 22.6
-9 8 1 139.39 25.6
8 -8 -1 88.49 17.5
-8 8 1 73.19 16.9
7 -8 -1 54.49 6.5
7 -8 -1 78.79 16
-7 8 1 82.19 17
-7 8 1 74.69 12.8
6 -8 -1 486.05 40.3
6 -8 -1 505.75 32.9
-6 8 1 436.16 33.6
-6 8 1 539.65 43.1
-6 8 1 537.95 36.6
5 -8 -1 807.62 52.09
5 -8 -1 784.22 57.79
-5 8 1 860.31 53.59
-5 8 1 755.92 52.89
-5 8 1 889.81 60.69
4 -8 -1 161.08 14.3
4 -8 -1 110.09 14.8
-4 8 1 171.98 18.4
-4 8 1 130.19 12.7
-4 8 1 101.49 12.6
3 -8 -1 1062.39 74.39
3 -8 -1 1135.89 72.79
3 -8 -1 1278.47 71.59
-3 8 1 1125.59 75.29
-3 8 1 1068.89 72.59
-3 8 1 1182.88 70.69
2 -8 -1 124.19 13.9
2 -8 -1 94.49 17.4
2 -8 -1 116.59 11.4
-2 8 1 111.69 14.2
-2 8 1 127.89 14.6
-2 8 1 121.29 12.3
1 -8 -1 1671.53 95.19
1 -8 -1 1536.55 97.39
1 -8 -1 1348.17 110.09
-1 8 1 1546.55 95.69
-1 8 1 1630.94 97.79
-1 8 1 1667.53 99.59
0 -8 -1 302.07 25.1
0 -8 -1 271.27 21.9
0 -8 -1 263.87 20.9
0 8 1 243.98 20.7
0 8 1 271.57 24.8
0 8 1 269.57 21.7
-1 -8 -1 39.5 9.7
-1 -8 -1 30.7 6.4
-1 -8 -1 37.8 9.5
1 8 1 26 6.8
1 8 1 38.1 6.8
-2 -8 -1 1935.11 119.39
-2 -8 -1 1981.9 111.09
-2 -8 -1 1888.61 114.39
2 8 1 1828.42 114.49
2 8 1 1787.02 109.69
-3 -8 -1 -1 4.3
-3 -8 -1 3.7 3.6
3 8 1 3 1.3
3 8 1 2.4 4
-4 -8 -1 1467.05 90.09
-4 -8 -1 1300.67 84.49
4 8 1 1174.28 83.39
-5 -8 -1 153.88 19.8
-5 -8 -1 145.89 17.4
5 8 1 135.09 17.1
-6 -8 -1 78.29 17.3
-6 -8 -1 60.89 13.8
6 8 1 63.19 16.8
-7 -8 -1 12.7 8.1
-7 -8 -1 6.8 6.7
-8 -8 -1 5.6 6.7
-8 -8 -1 12 10.3
-9 -8 -1 124.59 23.3
-9 -8 -1 79.69 18
-10 -8 -1 50.69 19
-10 -8 -1 34.1 13.7
-12 9 1 19.6 16.1
-11 9 1 79.69 21.9
-10 9 1 22.8 19.7
9 -9 -1 43.6 11.5
-9 9 1 55.69 17.1
8 -9 -1 301.77 19.3
8 -9 -1 290.37 29.5
-8 9 1 211.48 29.2
-8 9 1 329.77 27.5
7 -9 -1 634.14 52.59
7 -9 -1 678.53 43.1
-7 9 1 681.83 55.19
-7 9 1 697.43 48
6 -9 -1 102.29 11.1
6 -9 -1 86.29 16.9
-6 9 1 141.69 18.6
-6 9 1 130.59 13.4
-6 9 1 75.99 11.1
5 -9 -1 852.31 53.59
5 -9 -1 825.52 59.09
-5 9 1 661.33 52.79
-5 9 1 929.01 61.69
-5 9 1 839.52 53.39
4 -9 -1 761.72 50.49
4 -9 -1 720.93 53.49
-4 9 1 776.12 48.9
-4 9 1 812.52 55.49
-4 9 1 646.34 49.99
3 -9 -1 55.19 13.1
3 -9 -1 70.49 13
3 -9 -1 70.39 9.2
-3 9 1 59.79 11.1
-3 9 1 59.89 12.2
-3 9 1 72.19 8.9
2 -9 -1 3876.81 221.88
2 -9 -1 3834.42 222.98
2 -9 -1 3539.95 222.28
-2 9 1 3816.32 223.08
-2 9 1 3726.03 218.38
-2 9 1 3787.12 222.98
1 -9 -1 -1.8 3
1 -9 -1 2.6 4.2
1 -9 -1 3.7 6.1
-1 9 1 2.6 4.8
-1 9 1 7.6 4.8
-1 9 1 3.3 3.1
0 -9 -1 6.1 3.8
0 -9 -1 2.9 2.7
0 -9 -1 1 4.5
0 9 1 9.6 5.8
0 9 1 1.5 3.6
0 9 1 2 3.2
-1 -9 -1 73.29 9.5
-1 -9 -1 64.39 10.6
-1 -9 -1 67.39 13.6
1 9 1 58.49 10.3
1 9 1 85.49 9.7
-2 -9 -1 37.6 8
-2 -9 -1 38 6.5
-2 -9 -1 38.6 10
2 9 1 33.6 7.9
2 9 1 32.1 5.7
-3 -9 -1 3082.59 176.18
-3 -9 -1 3045.2 181.58
3 9 1 2843.52 175.58
3 9 1 2795.62 166.98
-4 -9 -1 143.09 17.4
-4 -9 -1 160.98 20.4
4 9 1 136.79 16.6
-5 -9 -1 251.97 28.1
-5 -9 -1 246.98 24.7
5 9 1 217.08 23.4
-6 -9 -1 16 12
-7 -9 -1 80.49 16.1
-7 -9 -1 69.39 18.3
-8 -9 -1 12.7 7.9
-8 -9 -1 18.6 12.1
-9 -9 -1 8.5 7.2
-12 10 1 87.89 22.6
-11 10 1 93.09 23.6
-10 10 1 4.7 11.7
-9 10 1 9.9 10.8
8 -10 -1 2.3 3
8 -10 -1 -9.7 6.7
-8 10 1 14.7 6.9
-8 10 1 6.2 8.2
7 -10 -1 8.1 10.6
7 -10 -1 11.7 4.8
-7 10 1 7.7 11.3
-7 10 1 34.9 11.5
6 -10 -1 159.68 20.3
6 -10 -1 126.49 14
-6 10 1 165.38 16.2
-6 10 1 147.69 20.2
-6 10 1 131.59 15.1
5 -10 -1 67.09 11.1
5 -10 -1 65.59 14.3
-5 10 1 59.99 10.3
-5 10 1 85.49 15.9
-5 10 1 54.99 10.8
4 -10 -1 366.36 27.5
4 -10 -1 351.76 30.8
4 -10 -1 325.97 27.9
-4 10 1 363.86 26.7
-4 10 1 277.47 27
-4 10 1 370.56 32.1
3 -10 -1 313.37 27.7
3 -10 -1 343.67 25.3
3 -10 -1 336.47 29.5
-3 10 1 290.57 27.3
-3 10 1 337.87 25.2
-3 10 1 309.27 29
2 -10 -1 249.28 19.7
2 -10 -1 258.17 23.4
2 -10 -1 209.18 21.7
-2 10 1 221.48 19.3
-2 10 1 236.58 23.1
-2 10 1 211.28 22.6
1 -10 -1 1434.16 95.79
1 -10 -1 1531.85 91.19
1 -10 -1 1410.16 93.49
-1 10 1 1458.15 93.69
-1 10 1 1481.05 91.09
-1 10 1 1564.24 96.79
0 -10 -1 108.79 13.7
0 -10 -1 140.79 14.3
0 -10 -1 140.59 17
0 10 1 116.69 13.4
0 10 1 127.39 16.6
0 10 1 132.49 14.3
-1 -10 -1 1986.9 123.89
-1 -10 -1 1963.6 117.19
-1 -10 -1 2000.9 117.79
1 10 1 1828.42 115.69
1 10 1 1877.51 117.59
-2 -10 -1 34.7 8.6
-2 -10 -1 12.3 4.5
-2 -10 -1 25.7 9.2
2 10 1 24.3 7.7
2 10 1 31.1 6
-3 -10 -1 356.36 26.8
-3 -10 -1 442.66 34.2
-3 -10 -1 484.85 40
3 10 1 435.26 26.3
3 10 1 419.06 33.8
-4 -10 -1 60.79 12.8
-4 -10 -1 69.19 16.4
4 10 1 67.69 13.6
-5 -10 -1 117.69 19.1
-5 -10 -1 175.68 41.3
5 10 1 137.59 32.8
-6 -10 -1 658.73 56.69
-6 -10 -1 925.01 66.59
-7 -10 -1 8.3 10.2
-7 -10 -1 6.8 7.6
-8 -10 -1 24.4 11.1
-9 -10 -1 9.2 12.7
-12 11 1 11.3 12
-11 11 1 100.29 24.9
-10 11 1 261.47 34.3
9 -11 -1 43.9 5.6
-9 11 1 26.4 11.4
8 -11 -1 531.65 35.2
8 -11 -1 465.35 44.5
-8 11 1 571.74 41.3
-8 11 1 498.35 47.4
7 -11 -1 44.3 13.8
7 -11 -1 53.69 8.9
-7 11 1 20.9 10.5
-7 11 1 39.4 9.8
6 -11 -1 174.78 18.7
6 -11 -1 192.78 23.2
-6 11 1 183.68 18
-6 11 1 193.08 24.8
5 -11 -1 465.65 40.3
5 -11 -1 502.25 36.9
-5 11 1 518.65 42.6
-5 11 1 397.46 35.9
-5 11 1 508.45 35.5
4 -11 -1 1009.2 73.29
4 -11 -1 1154.08 69.19
4 -11 -1 1094.09 70.89
-4 11 1 850.01 69.49
-4 11 1 1197.38 76.09
-4 11 1 1056.99 67.69
3 -11 -1 227.28 22
3 -11 -1 184.38 21.1
3 -11 -1 218.48 18.9
-3 11 1 200.18 22.1
-3 11 1 184.78 21
-3 11 1 198.38 18.1
2 -11 -1 110.59 16.6
2 -11 -1 166.28 15.3
2 -11 -1 138.69 16.9
-2 11 1 162.08 18.2
-2 11 1 120.99 14.1
-2 11 1 166.08 19
1 -11 -1 1071.29 74.39
1 -11 -1 1124.69 69.09
1 -11 -1 1039.2 71.49
-1 11 1 1023.7 68.49
-1 11 1 1105.99 74.69
0 -11 -1 648.84 44.2
0 -11 -1 598.44 48.9
0 -11 -1 641.14 45.8
0 11 1 618.24 44.3
0 11 1 641.94 44.8
-1 -11 -1 135.79 15
-1 -11 -1 174.58 17.3
-1 -11 -1 139.29 19
1 11 1 150.38 15
1 11 1 154.28 16.8
-2 -11 -1 450.15 36.8
-2 -11 -1 595.54 46.9
-2 -11 -1 569.44 41
2 11 1 547.25 36.4
2 11 1 604.94 41.7
-3 -11 -1 150.48 16.4
-3 -11 -1 101.99 10.5
-3 -11 -1 141.29 23
3 11 1 121.19 9.9
3 11 1 107.29 17.3
-4 -11 -1 1458.05 102.19
-4 -11 -1 1499.15 95.59
4 11 1 1403.16 95.09
-5 -11 -1 294.77 35.1
-6 -11 -1 86.59 18.5
-6 -11 -1 132.29 24.9
-7 -11 -1 5.8 7.8
-8 -11 -1 14.5 10.3
-12 12 1 28.4 16.7
-11 12 1 12.2 12.8
-10 12 1 262.77 35.6
9 -12 -1 13.7 4.1
-9 12 1 17.2 10.1
8 -12 -1 241.88 20.6
-8 12 1 283.17 32.8
7 -12 -1 31.6 7.6
7 -12 -1 42.2 12.8
-7 12 1 40.6 9.8
-7 12 1 46.5 14.2
6 -12 -1 63.39 16.1
6 -12 -1 67.69 12.2
-6 12 1 45.4 15.2
-6 12 1 70.79 14.6
5 -12 -1 124.79 15.2
5 -12 -1 116.89 19.8
-5 12 1 94.49 19.5
-5 12 1 152.48 15.4
-5 12 1 127.29 15.9
4 -12 -1 2180.68 126.79
4 -12 -1 1916.01 131.29
4 -12 -1 2145.39 129.59
-4 12 1 2006.9 125.19
-4 12 1 2072.89 133.29
3 -12 -1 206.08 23.4
3 -12 -1 227.78 20.5
3 -12 -1 185.58 22.3
-3 12 1 208.28 23.5
-3 12 1 258.37 25.5
-3 12 1 242.08 20.5
2 -12 -1 700.63 54.09
2 -12 -1 776.32 56.29
2 -12 -1 730.93 50.19
-2 12 1 782.72 55.29
-2 12 1 715.33 55.19
-2 12 1 740.63 50.59
1 -12 -1 60.49 10.9
1 -12 -1 62.19 13.8
1 -12 -1 45.5 11.5
-1 12 1 49.8 11
-1 12 1 59.29 10.7
0 -12 -1 462.65 35.2
0 -12 -1 440.26 39.6
0 -12 -1 425.56 33.6
0 12 1 421.86 34.5
0 12 1 429.66 33.6
-1 -12 -1 491.75 42
-1 -12 -1 494.95 38.9
-1 -12 -1 610.04 46.9
1 12 1 489.25 38.7
1 12 1 525.45 37.3
-2 -12 -1 178.58 19.2
-2 -12 -1 199.38 25
-2 -12 -1 133.99 15.6
2 12 1 161.98 20.9
2 12 1 188.98 15.7
-3 -12 -1 345.97 30.1
-3 -12 -1 358.16 35.7
-3 -12 -1 281.97 22.6
3 12 1 319.67 21.5
3 12 1 312.67 28.5
-4 -12 -1 305.97 34.1
-4 -12 -1 240.28 25.3
-5 -12 -1 617.24 49.4
-6 -12 -1 21.9 10.7
-7 -12 -1 14.4 8.2
-8 -12 -1 83.19 30.2
-11 13 1 212.58 35.8
10 -13 -1 8.1 2.9
-10 13 1 18.7 12.8
9 -13 -1 507.55 33.8
-9 13 1 440.86 47.1
8 -13 -1 23.8 6.8
-8 13 1 1.6 8.8
7 -13 -1 78.59 13.2
-7 13 1 70.89 17.6
-7 13 1 58.49 11.2
6 -13 -1 1215.98 79.29
6 -13 -1 1075.69 84.29
-6 13 1 1270.67 88.09
-6 13 1 1225.08 77.99
5 -13 -1 -0.8 4.2
5 -13 -1 3.8 7.6
-5 13 1 0.8 6.8
4 -13 -1 121.19 15.7
4 -13 -1 128.99 21.2
4 -13 -1 101.59 13.5
-4 13 1 98.49 12.8
-4 13 1 89.99 19.3
3 -13 -1 573.74 39.6
3 -13 -1 557.24 43.7
3 -13 -1 523.15 43.8
-3 13 1 496.85 38.4
-3 13 1 529.55 43.7
-3 13 1 461.75 42.1
2 -13 -1 271.27 28.6
2 -13 -1 279.37 28.2
2 -13 -1 284.97 24.4
-2 13 1 284.07 24.5
-2 13 1 305.67 28.7
1 -13 -1 2077.59 128.19
1 -13 -1 2013.3 131.49
1 -13 -1 2180.78 136.29
-1 13 1 2144.89 131.19
-1 13 1 2061.59 128.19
0 -13 -1 41.3 9.6
0 -13 -1 44.2 12.6
0 -13 -1 47.7 10.7
0 13 1 40.2 9.9
0 13 1 52.29 10.8
-1 -13 -1 783.82 53.89
-1 -13 -1 749.42 60.89
-1 -13 -1 785.02 53.79
1 13 1 740.23 53.99
1 13 1 718.73 51.09
-2 -13 -1 35.5 12.6
-2 -13 -1 40.9 10.7
-2 -13 -1 23.8 7.1
2 13 1 36.9 7.5
2 13 1 28.8 8.7
-3 -13 -1 6.9 6.3
-3 -13 -1 40 15.2
-3 -13 -1 13.4 4.8
-4 -13 -1 829.92 60.99
-5 -13 -1 10.9 7.5
-6 -13 -1 -3.2 4.7
-7 -13 -1 82.79 19.2
-11 14 1 12.7 10.7
10 -14 -1 387.46 26.2
-10 14 1 351.86 42.9
9 -14 -1 357.56 27.7
-9 14 1 304.17 39.8
8 -14 -1 38.1 9.3
-8 14 1 46.7 14.6
7 -14 -1 187.78 20
-7 14 1 163.08 35.4
6 -14 -1 90.69 15.4
6 -14 -1 83.99 19.4
-6 14 1 88.69 14
-6 14 1 77.89 17.7
5 -14 -1 396.26 34.3
5 -14 -1 449.36 40.9
5 -14 -1 411.56 36
-5 14 1 465.95 41.7
-5 14 1 408.46 33.4
4 -14 -1 5.3 8.9
4 -14 -1 4.1 4.2
4 -14 -1 5.8 6.2
-4 14 1 -2.5 2.3
3 -14 -1 1435.36 100.69
3 -14 -1 1508.25 94.79
3 -14 -1 1500.75 100.99
-3 14 1 1528.75 101.39
2 -14 -1 233.88 21.1
2 -14 -1 206.78 25.2
2 -14 -1 197.38 23.5
-2 14 1 190.78 23.1
-2 14 1 192.88 35
1 -14 -1 13.1 7.3
1 -14 -1 1.3 5.4
-1 14 1 4.7 4.4
-1 14 1 7.7 6.3
0 -14 -1 398.96 39.8
0 -14 -1 429.76 35.8
0 -14 -1 384.96 32.9
0 14 1 387.36 32.8
0 14 1 387.96 32.8
-1 -14 -1 39.8 10.5
-1 -14 -1 41.2 12.8
-1 -14 -1 46.1 11.2
1 14 1 49.1 10.1
1 14 1 54.29 11.7
-2 -14 -1 468.55 54.79
-2 -14 -1 657.33 55.69
-2 -14 -1 679.63 47.7
2 14 1 599.14 41.3
-3 -14 -1 106.49 12.4
-3 -14 -1 138.59 17.7
3 14 1 132.19 11.6
-4 -14 -1 75.99 16
-5 -14 -1 56.69 14.7
-6 -14 -1 81.69 18.4
-11 15 1 144.59 30
10 -15 -1 -4.9 5.1
-10 15 1 3.3 12.4
9 -15 -1 378.46 30
-9 15 1 352.26 43.3
8 -15 -1 107.39 15
-8 15 1 124.29 25.1
7 -15 -1 368.66 31.6
-7 15 1 300.37 35.9
6 -15 -1 231.88 24.6
-6 15 1 242.18 41.5
5 -15 -1 -2.6 5.3
5 -15 -1 -1.2 6.4
5 -15 -1 -1.8 5.6
-5 15 1 -7.1 4
-5 15 1 -4.8 5.6
4 -15 -1 773.12 63.99
4 -15 -1 881.51 63.69
4 -15 -1 792.32 57.79
-4 15 1 865.11 65.79
-4 15 1 859.41 58.59
3 -15 -1 11.4 6.6
3 -15 -1 0.3 13.1
3 -15 -1 4.6 13.1
-3 15 1 28.5 8.1
-3 15 1 3.5 6.4
2 -15 -1 5.5 6.6
2 -15 -1 0.8 4.4
2 -15 -1 -2.1 4.8
-2 15 1 1.3 4.8
-2 15 1 -1.7 5.1
1 -15 -1 207.08 22.1
1 -15 -1 249.08 25.5
1 -15 -1 212.58 27.5
-1 15 1 167.78 20.3
-1 15 1 212.38 23.5
0 -15 -1 -2.8 9.3
0 -15 -1 -2.9 4.5
0 -15 -1 3.7 5.3
0 15 1 -4.1 3.2
0 15 1 0 4.6
-1 -15 -1 454.55 36.3
-1 -15 -1 440.56 36.3
1 15 1 388.16 33.1
-2 -15 -1 68.39 13.5
-2 -15 -1 96.69 17
2 15 1 114.19 12.7
-3 -15 -1 253.57 23
-3 -15 -1 333.37 30.7
3 15 1 319.17 21.9
-4 -15 -1 105.19 18.5
-5 -15 -1 4.5 6.3
-6 -15 -1 4.7 7.8
11 -16 -1 27.3 5.2
-11 16 1 23.9 18.8
10 -16 -1 105.29 13.4
-10 16 1 60.59 20.5
9 -16 -1 -2.5 5.4
-9 16 1 -2.3 9.9
8 -16 -1 201.78 21.6
-8 16 1 181.98 31.5
7 -16 -1 127.99 17.4
-7 16 1 101.09 22.8
6 -16 -1 164.48 21.6
-6 16 1 170.28 28.7
5 -16 -1 138.09 18.4
-5 16 1 171.98 27.5
4 -16 -1 5.2 5.7
4 -16 -1 0.8 7.7
4 -16 -1 8.8 6.9
-4 16 1 6.6 7.2
3 -16 -1 320.27 33
3 -16 -1 279.87 31.8
3 -16 -1 333.77 29
-3 16 1 337.57 33.6
-3 16 1 289.57 27.8
2 -16 -1 69.59 18
2 -16 -1 24.5 9.3
2 -16 -1 26.2 13.6
-2 16 1 46.4 12.5
-2 16 1 31.5 9.9
1 -16 -1 82.59 15.2
1 -16 -1 139.69 38.4
1 -16 -1 126.79 21.3
-1 16 1 106.29 18.7
0 -16 -1 280.77 32.4
0 -16 -1 318.87 31.3
0 16 1 314.17 28.8
-1 -16 -1 67.49 14.7
-1 -16 -1 71.09 14.5
1 16 1 61.69 11.7
-2 -16 -1 494.15 42
-2 -16 -1 431.96 37.5
2 16 1 559.34 37.9
-3 -16 -1 7 6.6
-3 -16 -1 5.3 4.8
3 16 1 4.4 3.6
-4 -16 -1 301.87 30.7
-5 -16 -1 15.4 8.6
-6 -16 -1 3.5 8.9
10 -17 -1 26.8 9
-10 17 1 12.6 12.7
9 -17 -1 22.9 9.7
-9 17 1 11.8 12.1
8 -17 -1 -3.8 7.7
-8 17 1 5.3 7.8
-7 17 1 404.66 45.1
6 -17 -1 166.58 22.5
-6 17 1 222.58 29.4
5 -17 -1 525.95 45.4
5 -17 -1 489.85 41.3
-5 17 1 514.95 48.7
4 -17 -1 36.5 12.7
4 -17 -1 50.99 11.7
-4 17 1 30.6 13.6
3 -17 -1 69.59 16.8
3 -17 -1 66.19 18.7
3 -17 -1 40 14.8
-3 17 1 66.99 16.2
2 -17 -1 400.46 37.5
2 -17 -1 325.57 31.7
-2 17 1 317.97 33.4
1 -17 -1 80.79 16.5
1 -17 -1 106.19 17.2
-1 17 1 95.29 18.2
0 -17 -1 -2.3 6.3
0 -17 -1 -1.4 7.4
0 17 1 8.7 6.4
-1 -17 -1 64.79 13.9
-1 -17 -1 51.19 13.4
1 17 1 43.1 10.9
-2 -17 -1 0.6 6.8
-2 -17 -1 -4.8 6.3
2 17 1 10.3 5.4
-3 -17 -1 147.09 42.8
-3 -17 -1 183.58 23.6
3 17 1 228.98 17.6
-4 -17 -1 65.89 15.2
-5 -17 -1 161.68 40.7
10 -18 -1 9.2 9.1
-10 18 1 14.8 14.8
9 -18 -1 30.8 11.4
-9 18 1 33.5 17.6
8 -18 -1 101.49 18.4
-8 18 1 97.39 25.3
7 -18 -1 45.5 13.9
-7 18 1 41.9 16.8
6 -18 -1 124.49 21.2
-6 18 1 117.59 25
5 -18 -1 214.18 23.7
-5 18 1 242.98 30.9
4 -18 -1 426.76 37.9
-4 18 1 466.45 44.8
3 -18 -1 142.49 20.8
-3 18 1 128.79 22.9
2 -18 -1 47.6 13
2 -18 -1 77.19 18.2
-2 18 1 52.39 14.3
1 -18 -1 184.88 26.1
1 -18 -1 245.88 24.8
-1 18 1 192.28 23.9
0 -18 -1 39.1 13.7
0 -18 -1 22 10.7
0 18 1 36.1 11.1
-1 -18 -1 144.19 22.9
-1 -18 -1 113.89 20.3
1 18 1 162.58 18.1
-2 -18 -1 74.79 16.8
-2 -18 -1 49.99 12.7
2 18 1 73.79 11.7
-3 -18 -1 -1.2 7.1
3 18 1 6.1 4
-4 -18 -1 54.59 14.3
9 -19 -1 3.3 11
-9 19 1 -8.4 18.8
8 -19 -1 174.98 22.4
-8 19 1 130.39 28.6
-7 19 1 239.68 32.7
-6 19 1 -13.9 7.6
5 -19 -1 257.07 27.2
-5 19 1 221.98 30.3
4 -19 -1 78.79 16.2
-4 19 1 66.69 16
3 -19 -1 249.28 27.4
-3 19 1 261.37 30.6
2 -19 -1 387.66 34.9
-2 19 1 388.06 38.6
1 -19 -1 -8.6 9.2
1 -19 -1 -6 4.3
-1 19 1 6.2 6.9
0 -19 -1 197.28 24.4
0 -19 -1 264.87 27.9
0 19 1 233.38 25.6
-1 -19 -1 50.99 13.8
-1 -19 -1 75.99 15
1 19 1 60.29 13
-2 -19 -1 146.09 18.8
-2 -19 -1 127.29 22.9
2 19 1 164.78 17.3
-3 -19 -1 67.19 16.1
3 19 1 98.49 12.7
-4 -19 -1 6.3 9.2
9 -20 -1 176.98 79.99
-9 20 1 131.99 30
-8 20 1 10.6 13.9
-7 20 1 147.29 29.6
-6 20 1 203.28 34
5 -20 -1 112.39 19.9
-5 20 1 84.19 21.6
4 -20 -1 206.68 24.5
-4 20 1 155.68 29.4
3 -20 -1 75.39 16.1
-3 20 1 117.79 22.3
2 -20 -1 123.59 21.2
-2 20 1 116.79 22.4
1 -20 -1 163.18 20.6
-1 20 1 159.28 25.1
0 -20 -1 -2.5 10.2
0 -20 -1 -7.1 6.2
0 20 1 3.2 7.6
-1 -20 -1 192.58 24.3
-1 -20 -1 126.49 45
1 20 1 192.38 21.3
-2 -20 -1 42.3 12.4
-2 -20 -1 34.2 12
2 20 1 54.19 10.3
-3 -20 -1 47.3 15.4
-8 21 1 49.99 18.7
-7 21 1 -10.6 11.8
6 -21 -1 75.09 16
-6 21 1 45.4 18.9
5 -21 -1 105.79 20.3
-5 21 1 71.69 21.9
4 -21 -1 1.8 8.2
-4 21 1 29.6 13.6
3 -21 -1 202.08 25.4
-3 21 1 213.78 28.9
2 -21 -1 70.19 15.5
-2 21 1 36.1 15.4
1 -21 -1 51.69 13.7
-1 21 1 90.59 18.9
0 -21 -1 134.19 22.1
0 -21 -1 218.28 52.49
0 21 1 128.09 21.3
-1 -21 -1 1.8 23.5
1 21 1 -3.8 5.9
-2 -21 -1 -4.4 7.4
-2 -21 -1 -16.5 9
2 21 1 9 6.3
-7 22 1 74.59 21.4
6 -22 -1 20.8 20.1
-6 22 1 14 13.7
5 -22 -1 214.78 27.5
-5 22 1 252.77 31.8
4 -22 -1 40.2 11.8
-4 22 1 68.09 18.9
-3 22 1 -1.5 8.2
2 -22 -1 148.39 23.9
-2 22 1 115.69 23.7
1 -22 -1 121.19 30.9
-1 22 1 119.89 21.1
0 -22 -1 45.1 12.2
0 22 1 45.5 17.3
5 -23 -1 20.6 10.5
-5 23 1 31.8 17.8
4 -23 -1 20 10.6
-4 23 1 33 14.2
3 -23 -1 16.9 10.3
-3 23 1 6.6 13.4
2 -23 -1 0.6 9.1
-2 23 1 4.4 10
-1 23 -2 42.4 13.8
1 -23 2 34.1 11.7
-2 23 -2 85.69 19.5
2 -23 2 67.69 17.6
-3 23 -2 2.8 11.7
3 -23 2 10.9 16.2
-4 23 -2 60.29 19.3
4 -23 2 75.29 20.5
-5 23 -2 3.5 8.9
5 -23 2 5.1 9
-6 23 -2 23.6 12.2
1 22 -2 39.7 11
-1 -22 2 18.5 15
-1 -22 2 37.5 11
0 22 -2 329.37 31.7
0 -22 2 273.87 33.1
-1 22 -2 4.3 8.9
1 -22 2 -2 5.9
-2 22 -2 108.99 20.1
2 -22 2 39.3 12.7
-3 22 -2 212.38 28.9
3 -22 2 192.98 24.7
-4 22 -2 8.7 9.7
4 -22 2 38.1 11.6
-5 22 -2 34.7 17.2
5 -22 2 51.79 15.2
-6 22 -2 2.4 11.5
-7 22 -2 59.29 18.6
2 21 -2 24.4 8.1
-2 -21 2 -22.1 10.1
-2 -21 2 10.7 11.5
1 21 -2 144.99 18.4
-1 -21 2 113.49 21.5
-1 -21 2 162.28 24.3
0 21 -2 -7.5 5.8
0 -21 2 -10.1 7.6
-1 21 -2 222.78 25.5
1 -21 2 133.99 23.2
-2 21 -2 0.8 8.6
2 -21 2 20.1 8.1
-3 21 -2 7.6 8.8
3 -21 2 21.7 8.7
-4 21 -2 107.69 22.8
4 -21 2 95.99 18.6
-5 21 -2 -13.2 8.7
5 -21 2 0.1 7.7
-6 21 -2 167.58 31.3
-7 21 -2 24.2 12.3
-8 21 -2 19.3 11.9
-3 -20 2 14.7 9.3
-3 -20 2 29.7 19.1
2 20 -2 39.6 8.8
-2 -20 2 19.8 11
-2 -20 2 30.6 10.1
1 20 -2 5.9 5.8
-1 -20 2 13.6 11
-1 -20 2 6.3 7.8
0 20 -2 47.7 12.5
0 -20 2 71.89 15.7
0 -20 2 32.7 12.1
-1 20 -2 21.5 10.5
1 -20 2 8.2 7.7
-2 20 -2 67.69 16.2
2 -20 2 45.5 12.5
-3 20 -2 -7.5 6.7
3 -20 2 -4 6.2
-4 20 -2 43.2 15.5
4 -20 2 24.6 10
-5 20 -2 227.98 28.9
5 -20 2 176.08 22.7
-6 20 -2 31 15.2
-7 20 -2 295.57 37.1
-8 20 -2 14.9 15
8 -20 2 40.5 14.2
-9 20 -2 100.49 24.9
9 -20 2 122.59 20.9
-4 -19 2 7.3 8.5
-4 -19 2 6 4.9
-3 -19 2 26.4 10.2
-3 -19 2 21.7 10.6
2 19 -2 23.2 7
-2 -19 2 7.1 8.7
-2 -19 2 0.6 5
1 19 -2 50.79 11.9
-1 -19 2 40 12
-1 -19 2 61.29 14.6
0 19 -2 2.1 5.5
0 -19 2 8.9 8.2
0 -19 2 -10.6 7.2
-1 19 -2 109.09 19
1 -19 2 107.19 18.2
1 -19 2 88.09 19.2
-2 19 -2 13.3 9
2 -19 2 7.7 4.8
-3 19 -2 450.85 43.5
3 -19 2 453.85 39.1
-4 19 -2 212.28 26.9
4 -19 2 125.99 21.4
-5 19 -2 462.65 44.2
5 -19 2 377.46 37
-6 19 -2 421.96 43.6
6 -19 2 393.26 39
-7 19 -2 18.6 11.3
7 -19 2 6.3 10.4
-8 19 -2 225.08 37.5
8 -19 2 302.37 29.6
-9 19 -2 84.09 23.9
9 -19 2 108.79 17.9
-5 -18 2 4.6 15.3
-4 -18 2 41.5 12.5
-4 -18 2 52.39 8.5
-3 -18 2 34 10
-3 -18 2 21.2 9.6
2 18 -2 35.8 8.4
-2 -18 2 36.7 12.3
-2 -18 2 54.19 12.3
1 18 -2 38.9 9.7
-1 -18 2 44.6 11.9
-1 -18 2 34.2 11.5
0 18 -2 504.35 40.2
0 -18 2 553.94 45.5
0 -18 2 418.36 39.8
-1 18 -2 32.3 11.2
1 -18 2 40.2 11.5
1 -18 2 38.4 13.5
-2 18 -2 881.11 63.29
2 -18 2 769.82 58.39
2 -18 2 782.52 64.79
-3 18 -2 13.8 10.6
3 -18 2 5.1 6.2
-4 18 -2 495.05 45.3
4 -18 2 461.05 43.7
4 -18 2 438.76 38.7
-5 18 -2 278.37 33
5 -18 2 260.17 27.1
5 -18 2 229.38 30.5
-6 18 -2 193.68 26.4
6 -18 2 146.59 24
-7 18 -2 70.39 19.1
7 -18 2 160.08 37.9
-8 18 -2 7.1 11.7
8 -18 2 23 10.4
-9 18 -2 311.97 41.8
9 -18 2 398.66 32.8
-10 18 -2 109.99 29.9
10 -18 2 157.18 17.9
-6 -17 2 28.6 12.2
-5 -17 2 102.09 20.8
-4 -17 2 16.8 10.7
-4 -17 2 14.1 5.8
-3 -17 2 373.96 32.3
-3 -17 2 427.46 37.6
2 17 -2 336.67 26.7
-2 -17 2 308.47 31.3
-2 -17 2 334.17 30.4
1 17 -2 365.76 30.6
-1 -17 2 388.16 34.5
-1 -17 2 326.07 32.5
0 17 -2 126.59 17.7
0 -17 2 142.39 21.4
0 -17 2 170.08 22.7
-1 17 -2 139.59 21.5
1 -17 2 166.58 26.1
1 -17 2 113.69 21.9
-2 17 -2 5.8 9.2
2 -17 2 30.2 10.7
2 -17 2 27.2 11.7
2 -17 2 24.6 8
-3 17 -2 556.54 48.8
3 -17 2 621.64 51.79
3 -17 2 581.94 45.3
3 -17 2 545.65 50.09
-4 17 -2 6.8 8.2
4 -17 2 0.7 7.2
4 -17 2 7.4 8
-5 17 -2 1309.57 96.09
5 -17 2 1341.07 90.09
5 -17 2 1365.46 94.19
-6 17 -2 89.99 20
6 -17 2 70.99 16.6
-7 17 -2 224.28 30.1
7 -17 2 239.08 25.8
-8 17 -2 142.69 27.8
8 -17 2 186.48 20.8
-9 17 -2 2 11.9
9 -17 2 38.3 9.7
-10 17 -2 203.08 35.7
10 -17 2 217.18 39.2
-6 -16 2 33.6 12.1
-5 -16 2 35.6 9.3
-4 -16 2 557.24 37.8
-4 -16 2 555.34 47.2
3 16 -2 225.98 17.2
-3 -16 2 183.28 22.1
-3 -16 2 161.98 19.2
2 16 -2 841.02 53.69
-2 -16 2 854.01 60.09
-2 -16 2 731.33 56.99
1 16 -2 677.63 46.9
-1 -16 2 668.43 50.79
-1 -16 2 578.84 50.09
0 16 -2 12.3 8
0 16 -2 24.9 8
0 -16 2 17.9 9.2
0 -16 2 26.4 40
0 -16 2 19.9 9.1
-1 16 -2 1145.09 78.99
-1 16 -2 1253.67 82.09
1 -16 2 1225.08 84.79
1 -16 2 1136.99 79.39
1 -16 2 1209.48 88.19
-2 16 -2 13.2 8.7
-2 16 -2 10.3 7.3
2 -16 2 1.2 8.4
2 -16 2 18.6 8.7
2 -16 2 20.7 7.7
-3 16 -2 310.47 27.8
-3 16 -2 315.77 31.5
3 -16 2 325.77 33.3
3 -16 2 322.37 28.5
3 -16 2 299.17 32.5
-4 16 -2 300.17 31.8
-4 16 -2 244.98 26.2
4 -16 2 294.97 27.4
4 -16 2 316.37 33.7
4 -16 2 299.37 30.9
-5 16 -2 19.3 11.1
5 -16 2 12.9 7.4
5 -16 2 35.1 11.8
-6 16 -2 288.07 31.9
6 -16 2 254.67 27.1
-7 16 -2 167.88 29.5
7 -16 2 214.78 22.2
-8 16 -2 67.39 17.9
8 -16 2 77.49 14
-9 16 -2 129.39 26.3
9 -16 2 182.78 18.1
-10 16 -2 2.2 11
10 -16 2 8.1 4.7
-11 16 -2 186.68 57.39
-7 -15 2 37.2 18.3
-6 -15 2 106.89 19.2
-5 -15 2 79.89 17.1
-4 -15 2 30.2 6.5
-4 -15 2 30 10.5
3 15 -2 529.45 34.2
-3 -15 2 459.75 40.3
-3 -15 2 489.45 37.5
2 15 -2 62.09 15.4
-2 -15 2 15.2 8.1
-2 -15 2 33.3 10.8
1 15 -2 422.66 35
1 15 -2 481.95 38.3
-1 -15 2 495.65 46.5
-1 -15 2 457.15 38.4
-1 -15 2 513.05 39.4
0 15 -2 769.02 53.99
0 15 -2 813.82 55.09
0 -15 2 734.83 62.49
0 -15 2 726.63 54.29
0 -15 2 746.13 56.89
-1 15 -2 39.2 10.9
-1 15 -2 55.09 11.1
1 -15 2 26.9 12.7
1 -15 2 63.89 12.4
1 -15 2 49.8 12.6
-2 15 -2 777.22 56.79
-2 15 -2 848.82 61.69
2 -15 2 824.72 65.89
2 -15 2 872.31 58.09
2 -15 2 835.12 63.19
-3 15 -2 234.58 22.4
-3 15 -2 231.08 25.8
3 -15 2 232.68 28.3
3 -15 2 246.38 23
3 -15 2 213.88 25.8
-4 15 -2 102.29 15.2
-4 15 -2 68.89 16.3
4 -15 2 69.89 13.2
4 -15 2 86.39 16.7
4 -15 2 72.19 17
-5 15 -2 782.12 56.49
-5 15 -2 873.61 64.89
5 -15 2 759.42 63.59
5 -15 2 824.32 60.29
-6 15 -2 23.3 12.4
6 -15 2 17.9 7.6
-7 15 -2 96.79 21.9
7 -15 2 143.69 16.9
-8 15 -2 -2 8.4
8 -15 2 2.4 6.2
-9 15 -2 9.5 9.7
9 -15 2 0.1 4.4
-10 15 -2 264.87 37.3
10 -15 2 297.77 18.5
-11 15 -2 3.6 9.1
-7 -14 2 109.59 20.4
-6 -14 2 2.9 4.5
-5 -14 2 4.5 7.4
-4 -14 2 760.72 56.99
-4 -14 2 767.02 49
3 14 -2 341.27 23.8
-3 -14 2 323.17 30
-3 -14 2 307.97 26.4
2 14 -2 934.51 63.49
2 14 -2 896.01 57.89
-2 -14 2 952.1 63.99
-2 -14 2 748.43 59.99
-2 -14 2 1069.89 75.19
1 14 -2 23.6 6.9
1 14 -2 42.9 10.2
-1 -14 2 33.6 10
-1 -14 2 43.6 10.8
-1 -14 2 36.6 12.8
0 14 -2 1390.96 86.69
0 -14 2 1354.36 86.39
0 -14 2 1375.06 89.99
0 -14 2 1088.79 116.79
-1 14 -2 1386.26 95.69
-1 14 -2 1531.05 98.79
1 -14 2 1536.65 101.59
1 -14 2 1531.15 104.69
1 -14 2 1665.43 97.99
-2 14 -2 136.99 15.5
-2 14 -2 162.58 18.9
2 -14 2 142.69 19.8
2 -14 2 123.19 15
2 -14 2 122.59 20.9
-3 14 -2 423.46 38.8
-3 14 -2 442.16 35.1
3 -14 2 494.65 36.1
3 -14 2 461.65 41.1
3 -14 2 459.35 39.6
-4 14 -2 4.8 6.8
-4 14 -2 11.6 5.9
4 -14 2 21.7 8.3
4 -14 2 10 10.9
4 -14 2 11.1 6.1
-5 14 -2 2.3 8.2
-5 14 -2 0.2 4.8
5 -14 2 19.7 9.8
5 -14 2 19.1 7.1
-6 14 -2 1009.1 68.29
-6 14 -2 1074.69 77.49
6 -14 2 1026.1 76.99
6 -14 2 976.9 68.79
-7 14 -2 66.99 20.4
7 -14 2 81.69 13
-8 14 -2 26 10.4
-9 14 -2 109.19 23.1
9 -14 2 117.29 11.5
-10 14 -2 249.18 33.2
-11 14 -2 73.09 20.8
-8 -13 2 121.89 21.2
-7 -13 2 181.28 23.1
-6 -13 2 93.29 18.3
-5 -13 2 13.2 7
-4 -13 2 305.27 29
-4 -13 2 348.57 39.3
-4 -13 2 286.97 21.9
3 13 -2 219.18 21.8
3 13 -2 203.88 15.8
-3 -13 2 191.48 21.3
-3 -13 2 226.38 28.3
-3 -13 2 165.78 17.5
2 13 -2 71.99 12.7
2 13 -2 49.1 8.3
-2 -13 2 52.49 12.9
-2 -13 2 76.59 13.2
-2 -13 2 40.3 13.8
1 13 -2 721.53 52.19
1 13 -2 682.03 49.7
-1 -13 2 772.12 60.19
-1 -13 2 787.12 54.09
-1 -13 2 788.72 53.09
0 13 -2 77.49 12.9
0 13 -2 100.99 13
0 -13 2 124.39 15.2
0 -13 2 98.99 19.4
0 -13 2 84.29 13.9
-1 13 -2 49.9 9.8
-1 13 -2 54.59 11.9
1 -13 2 58.59 14
1 -13 2 35.2 11.3
1 -13 2 81.39 12.7
-2 13 -2 4094.09 245.58
-2 13 -2 4097.49 249.58
2 -13 2 4387.96 246.28
2 -13 2 4318.27 252.97
2 -13 2 4070.49 251.47
-3 13 -2 1440.16 97.89
-3 13 -2 1540.35 93.49
3 -13 2 1532.15 93.79
3 -13 2 1431.56 97.59
3 -13 2 1462.75 99.79
-4 13 -2 2185.08 136.99
-4 13 -2 2027.6 129.49
4 -13 2 2099.69 137.59
4 -13 2 2205.78 133.99
4 -13 2 2155.48 131.19
-5 13 -2 -2.8 3.8
-5 13 -2 0.9 3.4
5 -13 2 10.4 6
5 -13 2 -10.4 4.8
-6 13 -2 110.79 14.5
-6 13 -2 126.09 21.3
6 -13 2 101.59 20.6
6 -13 2 92.99 13.3
-7 13 -2 689.03 58.29
7 -13 2 691.43 52.29
7 -13 2 746.83 66.69
-8 13 -2 2.5 7.4
8 -13 2 7 4.1
-9 13 -2 98.69 21.4
9 -13 2 131.69 10.2
-10 13 -2 55.59 17.7
-11 13 -2 236.68 38
-8 -12 2 89.89 19.1
-7 -12 2 30.8 11.7
-6 -12 2 0 6.3
-5 -12 2 75.69 18.4
-5 -12 2 80.29 23.7
4 12 -2 68.19 13.2
-4 -12 2 40.8 6.7
-4 -12 2 30.2 11.8
-4 -12 2 38.7 10.4
3 12 -2 228.28 22.5
-3 -12 2 239.78 22.7
-3 -12 2 213.78 28.9
-3 -12 2 174.18 17.2
2 12 -2 296.97 22.6
2 12 -2 294.37 26.3
-2 -12 2 331.47 27.4
-2 -12 2 288.67 25.1
-2 -12 2 293.07 32.2
1 12 -2 577.54 42.5
1 12 -2 588.14 44.3
-1 -12 2 696.53 52.89
-1 -12 2 666.83 45.5
-1 -12 2 638.64 46.1
0 12 -2 538.85 47.2
0 12 -2 593.64 42.9
0 -12 2 613.54 45.6
0 -12 2 634.74 49.9
0 -12 2 671.63 44.2
-1 12 -2 446.36 35.4
-1 12 -2 522.85 38.7
1 -12 2 526.95 36.9
1 -12 2 487.85 39.6
1 -12 2 515.55 42.2
-2 12 -2 2428.56 143.69
-2 12 -2 2381.76 147.39
2 -12 2 2381.46 149.29
2 -12 2 2469.15 143.99
2 -12 2 2299.67 148.79
-3 12 -2 789.32 57.09
-3 12 -2 737.63 51.79
3 -12 2 771.62 56.19
3 -12 2 787.72 58.19
3 -12 2 808.72 53.19
-4 12 -2 8.4 5.2
-4 12 -2 4 6.9
4 -12 2 3.8 6
4 -12 2 -6.6 5.2
4 -12 2 9 6.4
-5 12 -2 1109.99 77.19
-5 12 -2 1074.99 69.89
5 -12 2 1029.8 70.99
5 -12 2 1103.69 77.59
-6 12 -2 71.79 12.7
-6 12 -2 75.19 16.9
6 -12 2 80.89 16.7
-7 12 -2 -3 3.7
-7 12 -2 4 5.1
7 -12 2 3.6 4.8
7 -12 2 3.6 8.4
-8 12 -2 67.09 18.2
8 -12 2 84.59 9.1
-9 12 -2 50.89 15.6
-10 12 -2 427.06 45.1
-11 12 -2 11.7 12.5
-9 -11 2 84.19 33.4
-8 -11 2 16.1 10.3
-7 -11 2 0.5 7.4
-6 -11 2 132.29 21.1
-6 -11 2 200.78 30.7
5 11 -2 156.68 20.9
-5 -11 2 161.18 20.2
-5 -11 2 190.18 25.1
4 11 -2 273.77 25.8
-4 -11 2 312.37 57.49
-4 -11 2 289.97 26.7
-4 -11 2 279.17 20
3 11 -2 -3.8 4.5
-3 -11 2 8 3.5
-3 -11 2 -2 6.5
-3 -11 2 -0.6 4.7
2 11 -2 2653.63 155.98
2 11 -2 2660.83 160.78
-2 -11 2 2990.9 170.48
-2 -11 2 2262.77 157.98
-2 -11 2 2888.01 161.48
1 11 -2 1466.95 96.59
1 11 -2 1525.25 95.09
-1 -11 2 1558.34 97.89
-1 -11 2 1657.33 97.89
-1 -11 2 1623.34 104.79
0 11 -2 298.97 25.8
0 11 -2 333.87 25.8
0 -11 2 310.87 30.5
0 -11 2 356.96 26.7
0 -11 2 321.27 27.6
-1 11 -2 933.21 82.69
-1 11 -2 972.1 64.29
1 -11 2 1023.4 68.59
1 -11 2 1056.69 70.99
1 -11 2 1031 64.99
-2 11 -2 2.3 4.1
-2 11 -2 9.5 6.3
2 -11 2 6.7 4.2
2 -11 2 5.5 4
2 -11 2 4.6 6
-3 11 -2 2186.58 133.89
-3 11 -2 2269.17 139.39
3 -11 2 2305.07 134.79
3 -11 2 2234.68 137.89
3 -11 2 2190.08 140.09
-4 11 -2 560.14 39.9
-4 11 -2 618.74 46.1
4 -11 2 524.25 44.8
4 -11 2 580.84 42.2
-5 11 -2 110.09 18.7
-5 11 -2 115.99 13.3
5 -11 2 133.59 20.9
5 -11 2 116.29 13.5
-6 11 -2 999.5 66.39
-6 11 -2 1025.2 73.29
6 -11 2 971.1 72.29
6 -11 2 1008.6 64.49
-7 11 -2 120.19 22.6
-7 11 -2 160.58 18.2
7 -11 2 136.89 23.4
7 -11 2 151.48 13.9
-8 11 -2 283.87 31.5
8 -11 2 271.87 18.7
8 -11 2 299.57 31.7
-9 11 -2 1424.36 113.29
-10 11 -2 68.89 17.8
-11 11 -2 212.28 34.2
-12 11 -2 84.09 22.4
-9 -10 2 17.6 10.7
-8 -10 2 332.47 34
-7 -10 2 51.89 15.4
-7 -10 2 47.1 12.9
-6 -10 2 742.73 60.39
-6 -10 2 975.3 70.29
5 10 -2 33.4 9.8
-5 -10 2 16.3 8
-5 -10 2 14.5 10.4
4 10 -2 344.97 29.3
-4 -10 2 308.27 22.6
-4 -10 2 431.06 37.3
-4 -10 2 360.26 30.1
3 10 -2 562.54 40.8
-3 -10 2 442.06 35.6
-3 -10 2 661.53 48.3
-3 -10 2 603.34 41.1
2 10 -2 570.74 38.8
2 10 -2 587.14 42.7
-2 -10 2 621.24 41.6
-2 -10 2 645.04 49.5
-2 -10 2 645.34 43.4
1 10 -2 293.77 23.6
1 10 -2 321.87 25.6
-1 -10 2 344.87 26.1
-1 -10 2 327.77 25.8
-1 -10 2 297.47 29.5
0 10 -2 619.44 44.7
0 10 -2 639.84 44.2
0 -10 2 675.03 50.09
0 -10 2 711.93 45.2
0 -10 2 664.33 46.7
-1 10 -2 340.67 26.1
-1 10 -2 342.77 28
1 -10 2 347.47 30.5
1 -10 2 376.96 26.9
1 -10 2 323.77 28.5
-2 10 -2 9394.86 540.45
-2 10 -2 9162.58 546.45
2 -10 2 9999 541.05
2 -10 2 9531.95 545.25
2 -10 2 9290.47 545.45
-3 10 -2 1104.19 68.29
-3 10 -2 1057.79 72.59
3 -10 2 1049.89 68.59
3 -10 2 1088.59 73.59
3 -10 2 1103.29 77.09
-4 10 -2 1889.61 114.09
-4 10 -2 1679.03 106.69
4 -10 2 1784.92 108.79
4 -10 2 1726.43 113.29
-5 10 -2 594.34 42.1
-5 10 -2 642.94 48.3
5 -10 2 594.44 47.6
5 -10 2 597.74 41.7
-6 10 -2 365.96 28.4
-6 10 -2 356.96 33.7
6 -10 2 325.77 25.1
6 -10 2 326.17 31.6
-7 10 -2 16.4 7.7
-7 10 -2 23.1 9.9
7 -10 2 14.2 4.1
7 -10 2 30.5 11.8
-8 10 -2 341.77 34.4
-8 10 -2 303.87 33.2
8 -10 2 306.47 32.2
-9 10 -2 269.57 31.2
9 -10 2 253.57 34.9
-10 10 -2 191.38 26.9
-11 10 -2 24.3 11.8
-12 10 -2 160.08 29.8
-9 -9 2 29.7 11.3
-9 -9 2 -9.4 28.6
-8 -9 2 -4.7 11
-8 -9 2 3.6 6.3
-7 -9 2 167.58 22.1
-7 -9 2 191.08 27.2
6 9 -2 47 11.7
-6 -9 2 49.7 13.8
-6 -9 2 37.9 10.6
5 9 -2 108.69 16.9
-5 -9 2 103.79 16.6
-5 -9 2 94.09 18.9
4 9 -2 834.82 55.29
-4 -9 2 965.1 62.89
-4 -9 2 806.22 55.09
-4 -9 2 669.23 47
3 9 -2 116.99 13.5
-3 -9 2 107.59 18.8
-3 -9 2 129.59 13.7
-3 -9 2 74.89 9.3
2 9 -2 336.77 24.2
2 9 -2 358.16 27.8
-2 -9 2 353.86 26.3
-2 -9 2 376.26 28.3
-2 -9 2 404.16 33.8
1 9 -2 -0.5 1.9
1 9 -2 -1.2 2
-1 -9 2 1 2.7
-1 -9 2 6.6 4.9
-1 -9 2 2.4 3.5
0 9 -2 29.4 6.2
0 9 -2 35.3 7.2
0 -9 2 30.7 8.8
0 -9 2 26.6 7
0 -9 2 33.2 7.2
-1 9 -2 4294.57 257.87
-1 9 -2 4343.97 255.47
1 -9 2 4603.34 256.07
1 -9 2 4514.25 260.87
1 -9 2 4380.46 259.27
-2 9 -2 1531.85 91.79
-2 9 -2 1472.85 95.09
2 -9 2 1548.65 92.09
2 -9 2 1466.05 95.99
2 -9 2 1549.05 95.49
-3 9 -2 4413.06 265.37
-3 9 -2 4712.23 270.97
3 -9 2 4626.64 266.47
3 -9 2 4516.45 271.07
3 -9 2 4752.22 268.57
-4 9 -2 405.66 29.1
-4 9 -2 441.36 34.3
4 -9 2 389.36 33.3
4 -9 2 353.66 28.6
-5 9 -2 1427.76 89.59
-5 9 -2 1320.97 82.79
5 -9 2 1246.48 87.79
5 -9 2 1319.47 81.39
-6 9 -2 310.27 28.9
-6 9 -2 268.47 22.9
6 -9 2 232.98 18.7
6 -9 2 257.67 26.5
-7 9 -2 133.89 17.2
-7 9 -2 174.28 21.4
7 -9 2 145.29 10.5
7 -9 2 132.39 21.7
-8 9 -2 65.09 16.6
8 -9 2 97.49 18.4
-9 9 -2 40.6 12.7
9 -9 2 51.59 14.8
-10 9 -2 -8.6 7.1
-11 9 -2 310.47 35.9
-12 9 -2 -10.8 14.4
-10 -8 2 32.7 16.1
-9 -8 2 126.49 24.5
-9 -8 2 86.09 18.2
-8 -8 2 36.5 12
-8 -8 2 23.8 14.9
-7 -8 2 9.3 9.9
-7 -8 2 0.7 6
6 8 -2 652.83 50.89
-6 -8 2 827.82 58.29
-6 -8 2 608.34 50.29
5 8 -2 11.6 5.8
-5 -8 2 7.9 7.6
-5 -8 2 10.4 6.1
4 8 -2 824.92 55.39
-4 -8 2 882.71 56.09
-4 -8 2 690.83 47.7
-4 -8 2 933.91 61.79
3 8 -2 1152.48 73.99
-3 -8 2 1252.57 80.29
-3 -8 2 1061.49 69.59
-3 -8 2 1218.18 74.59
2 8 -2 2260.77 139.09
2 8 -2 2201.88 134.99
-2 -8 2 2462.65 137.79
-2 -8 2 2318.27 139.09
-2 -8 2 2462.05 145.49
1 8 -2 1675.23 105.29
1 8 -2 1713.43 106.79
-1 -8 2 1864.71 107.79
-1 -8 2 1811.02 112.59
-1 -8 2 1867.51 107.49
0 8 -2 659.53 43.2
0 8 -2 596.64 44.7
0 -8 2 689.63 42.8
0 -8 2 683.13 44.6
0 -8 2 570.94 61.49
-1 8 -2 596.44 39.5
-1 8 -2 621.94 41.9
1 -8 2 621.94 39.7
1 -8 2 580.34 42.2
1 -8 2 598.94 43.3
-2 8 -2 105.89 13.3
-2 8 -2 117.79 20.3
2 -8 2 123.29 13.7
2 -8 2 117.99 11.4
2 -8 2 102.79 14.2
-3 8 -2 86.49 10.1
-3 8 -2 106.89 13.4
3 -8 2 95.39 11.1
3 -8 2 99.29 11.3
3 -8 2 95.29 13.4
-4 8 -2 932.61 61.29
-4 8 -2 840.32 55.59
4 -8 2 866.81 55.39
4 -8 2 855.61 60.49
-5 8 -2 67.79 10.6
-5 8 -2 74.99 14.3
5 -8 2 71.19 8.1
5 -8 2 56.89 12.5
-6 8 -2 111.09 18
-6 8 -2 97.49 12.7
6 -8 2 95.99 16.6
6 -8 2 112.59 9.1
-7 8 -2 109.59 19.6
7 -8 2 103.09 18.5
-8 8 -2 13.4 8.5
8 -8 2 2.2 5.4
-9 8 -2 347.27 34.7
9 -8 2 320.37 32.9
-10 8 -2 0.1 9.6
10 -8 2 8.8 9.5
-11 8 -2 61.39 30.9
-12 8 -2 84.99 19.9
-10 -7 2 49.3 14.2
-10 -7 2 54.49 15.6
-9 -7 2 17.3 12.6
-9 -7 2 9.1 7.6
-8 -7 2 275.67 29.6
-7 -7 2 363.46 33.5
-7 -7 2 371.66 36.2
6 7 -2 69.29 13.2
-6 -7 2 73.49 15.7
-6 -7 2 63.99 13.1
5 7 -2 43.4 10.3
-5 -7 2 26.5 9.5
-5 -7 2 46.4 10.2
4 7 -2 356.76 27.8
-4 -7 2 442.96 33.8
-4 -7 2 366.06 28.5
-4 -7 2 296.07 21.4
3 7 -2 544.15 40.1
-3 -7 2 652.93 41.6
-3 -7 2 593.04 36.8
-3 -7 2 547.75 44
2 7 -2 439.06 31.4
2 7 -2 416.36 28.1
-2 -7 2 425.06 31.4
-2 -7 2 501.45 30.5
-2 -7 2 463.75 36.1
1 7 -2 2596.04 159.88
1 7 -2 2753.52 161.48
-1 -7 2 2812.32 161.68
-1 -7 2 2796.72 161.58
-1 -7 2 2889.61 166.88
0 7 -2 2661.83 156.18
0 7 -2 2626.94 156.88
0 -7 2 2770.72 160.98
0 -7 2 2657.33 157.98
0 -7 2 2711.53 156.38
-1 7 -2 25.6 6
-1 7 -2 29.8 5.5
1 -7 2 20 6
1 -7 2 27.5 5.2
1 -7 2 22.5 5.8
-2 7 -2 368.86 29
-2 7 -2 380.76 26.2
2 -7 2 355.86 26.3
2 -7 2 399.26 28.5
2 -7 2 410.46 30.1
-3 7 -2 800.42 53.29
-3 7 -2 772.62 54.89
3 -7 2 779.02 49.6
3 -7 2 703.23 63.69
-4 7 -2 646.54 42.9
-4 7 -2 658.13 47.2
4 -7 2 668.03 41.7
4 -7 2 613.64 46.4
-5 7 -2 1367.96 88.69
5 -7 2 1328.67 79.89
5 -7 2 1373.86 88.49
-6 7 -2 39.9 10.7
6 -7 2 28 9.1
6 -7 2 36 3.1
-7 7 -2 638.14 49.1
7 -7 2 588.94 47.2
-8 7 -2 188.58 23.2
8 -7 2 185.38 22.2
-9 7 -2 45.4 13.2
9 -7 2 27.9 12.6
-10 7 -2 211.58 26.7
10 -7 2 202.18 25.4
-11 7 -2 3.9 10.6
11 -7 2 32.7 22.2
-12 7 -2 19.1 11
-12 7 -2 27.8 13
-10 -6 2 -4.7 10.6
-10 -6 2 -9.8 7.3
-9 -6 2 90.49 17.5
-9 -6 2 77.79 17.2
-8 -6 2 4.4 5.7
-8 -6 2 7.5 8.7
-7 -6 2 11.5 7.5
-7 -6 2 -5.4 6.1
6 6 -2 29.6 9.1
-6 -6 2 15.8 8.2
-6 -6 2 21.5 7.4
5 6 -2 6.2 5.1
-5 -6 2 0.1 3.9
-5 -6 2 5.5 3.9
4 6 -2 9 4.9
-4 -6 2 10.1 5
-4 -6 2 10.6 2.3
-4 -6 2 5.4 1.8
-4 -6 2 7.6 5.6
3 6 -2 255.87 21.3
-3 -6 2 264.47 24.6
-3 -6 2 264.37 18.3
-3 -6 2 304.87 22.6
2 6 -2 12.5 4.4
-2 -6 2 14 3.5
-2 -6 2 14 4.4
1 6 -2 408.16 29.2
1 6 -2 420.16 28.1
-1 -6 2 473.95 29.9
-1 -6 2 453.65 29.6
0 6 -2 1886.01 113.79
0 6 -2 1851.11 112.79
0 -6 2 2000.8 114.99
0 -6 2 1992.7 113.29
-1 6 -2 793.12 51.19
-1 6 -2 851.71 53.69
1 -6 2 865.01 51.69
1 -6 2 859.71 54.29
-2 6 -2 1028.5 64.69
-2 6 -2 1000.9 61.39
2 -6 2 982.7 61.69
2 -6 2 1034 65.09
2 -6 2 1027.3 63.19
-3 6 -2 652.63 42.5
-3 6 -2 665.43 45.9
3 -6 2 675.63 46.1
3 -6 2 662.43 42.2
-4 6 -2 754.42 51.69
4 -6 2 717.53 51.19
4 -6 2 753.72 45.6
5 -6 2 46.1 4.4
5 -6 2 48.4 10
-6 6 -2 914.21 64.79
6 -6 2 956.8 64.69
-7 6 -2 8.6 5.7
7 -6 2 -6.9 3.1
-8 6 -2 312.17 30.4
8 -6 2 315.57 29.9
-9 6 -2 93.39 18.2
9 -6 2 84.49 16.7
-10 6 -2 298.07 32.3
10 -6 2 293.67 31.1
-11 6 -2 4.1 10.2
-11 6 -2 5 6.4
11 -6 2 13.6 9.4
-12 6 -2 20.4 10.6
-12 6 -2 35.9 21.9
-11 -5 2 -5.7 9.2
-11 -5 2 5.2 6.9
-11 -5 2 4.6 9.3
-10 -5 2 9.4 6.6
-10 -5 2 6.3 10.7
-10 -5 2 11.9 7.3
-9 -5 2 7.1 8.1
-9 -5 2 18 8.1
-8 -5 2 854.01 59.19
-8 -5 2 659.93 55.89
-7 -5 2 119.49 16.7
-7 -5 2 94.49 16.8
-6 -5 2 18.1 2.4
-6 -5 2 24.6 7.9
-6 -5 2 15.9 7.6
-6 -5 2 20.4 2.8
5 5 -2 880.91 54.89
-5 -5 2 705.53 45.9
-5 -5 2 745.23 46.9
-5 -5 2 934.51 55.79
4 5 -2 0.1 2.1
-4 -5 2 0.4 1.1
-4 -5 2 -1.3 1.1
-4 -5 2 -2.4 3
3 5 -2 2414.56 159.98
-3 -5 2 2678.93 152.98
-3 -5 2 2645.74 148.29
2 5 -2 511.05 35.7
-2 -5 2 554.44 33.9
-2 -5 2 577.34 36.3
1 5 -2 2585.34 153.28
1 5 -2 2552.24 152.08
-1 -5 2 2720.03 153.58
-1 -5 2 2749.82 153.28
0 5 -2 1938.01 116.19
0 5 -2 1993.8 115.59
0 -5 2 2051.79 117.19
0 -5 2 1982.2 115.69
-1 5 -2 3703.93 217.98
-1 5 -2 3896.61 220.38
1 -5 2 3920.51 218.18
1 -5 2 3735.33 220.48
-2 5 -2 2103.09 122.49
2 -5 2 2107.19 125.59
-3 5 -2 723.43 48.3
3 -5 2 713.03 44.3
3 -5 2 733.93 48.6
-4 5 -2 1077.39 66.59
4 -5 2 975.4 65.59
4 -5 2 994.4 59.29
-5 5 -2 723.23 51.89
5 -5 2 778.22 52.29
-6 5 -2 70.79 13.3
6 -5 2 91.29 12.5
-7 5 -2 111.49 17.8
7 -5 2 120.39 15.5
-8 5 -2 115.39 18.4
8 -5 2 84.99 15.8
-9 5 -2 369.26 35.2
9 -5 2 424.86 35.6
-10 5 -2 548.25 44.9
-10 5 -2 469.95 43.7
10 -5 2 535.35 43.1
-11 5 -2 72.39 15.5
-11 5 -2 65.89 15.5
11 -5 2 65.09 16.3
-12 5 -2 48.7 13.7
-12 5 -2 89.29 30.6
12 -5 2 51.09 15.5
-11 -4 2 11.9 9.5
-11 -4 2 -9.8 7.3
-11 -4 2 14.9 7.1
-10 -4 2 45.7 14
-10 -4 2 53.79 10.4
-10 -4 2 63.89 14.1
-9 -4 2 352.46 33.6
-9 -4 2 366.36 31.9
-9 -4 2 330.17 20.4
-8 -4 2 64.79 14.8
-8 -4 2 65.19 6.8
-8 -4 2 86.29 15.3
-7 -4 2 456.55 36.9
-7 -4 2 388.86 28.4
-7 -4 2 530.55 38.3
-6 -4 2 17.8 4.1
-6 -4 2 18.4 7.9
-6 -4 2 25.3 7.7
5 4 -2 1191.48 75.29
-5 -4 2 1011.1 69.49
-5 -4 2 1308.27 78.19
-5 -4 2 1257.07 76.09
4 4 -2 188.88 16.2
-4 -4 2 158.58 12.6
-4 -4 2 184.08 16.5
3 4 -2 3261.17 194.38
-3 -4 2 3268.57 190.28
-3 -4 2 3523.75 194.88
2 4 -2 30.6 5.4
-2 -4 2 25.3 5
1 4 -2 3407.06 199.98
1 4 -2 3411.86 198.88
-1 -4 2 3570.44 199.58
-1 -4 2 3584.54 200.08
0 4 -2 807.32 50.49
0 4 -2 819.22 49.8
0 -4 2 863.21 51.19
0 -4 2 861.61 50.09
-1 4 -2 6547.24 373.06
-2 4 -2 1859.11 110.79
-2 4 -2 1942.71 113.19
2 -4 2 1911.91 113.29
-3 4 -2 1122.49 69.09
3 -4 2 1060.09 68.79
3 -4 2 1112.69 64.29
-4 4 -2 53.99 9.5
4 -4 2 41.4 8.4
-5 4 -2 115.29 14
5 -4 2 156.68 15.6
-6 4 -2 308.17 27.5
6 -4 2 351.46 28.2
-7 4 -2 113.09 15.1
7 -4 2 144.49 16
-8 4 -2 321.97 29.8
8 -4 2 324.47 29.1
-9 4 -2 250.17 26.4
9 -4 2 276.77 26.1
-10 4 -2 128.69 22.1
-10 4 -2 152.58 19.6
10 -4 2 166.08 20
-11 4 -2 8.8 8.3
-11 4 -2 14.1 8.5
11 -4 2 25.6 9.7
-12 4 -2 10.1 8.8
-12 4 -2 -4.4 28.2
12 -4 2 -5.5 10.2
-11 -3 2 18.8 7.2
-11 -3 2 29.7 9.3
-11 -3 2 22.2 11.1
-10 -3 2 13.1 8.4
-10 -3 2 10.1 13.2
-10 -3 2 0.4 3.1
-10 -3 2 12.8 9.3
-9 -3 2 149.69 12.8
-9 -3 2 100.59 14
-9 -3 2 120.19 18.3
-9 -3 2 137.19 22.5
-8 -3 2 -3 3.6
-8 -3 2 0.2 5
-8 -3 2 -0.7 3.1
-7 -3 2 -0.1 3.2
-7 -3 2 2.2 4.7
-7 -3 2 4.7 6
-6 -3 2 12.3 5.9
-6 -3 2 18.8 4.7
-6 -3 2 14.8 6.8
-5 -3 2 2244.28 126.19
-5 -3 2 1925.41 121.29
4 3 -2 1407.46 84.19
-4 -3 2 1531.25 84.09
-4 -3 2 1157.28 79.49
3 3 -2 1746.73 104.49
-3 -3 2 1884.91 105.09
-3 -3 2 1667.53 101.99
1 3 -2 3278.27 185.68
-1 -3 2 3159.48 184.98
-1 -3 2 3316.97 185.68
0 3 -2 728.03 44.7
0 3 -2 746.33 44
0 -3 2 771.32 45.1
0 -3 2 741.63 44
-1 3 -2 2915.11 171.08
-1 3 -2 3097.29 172.98
1 -3 2 2964 171.38
1 -3 2 3035.3 173.08
-2 3 -2 980 57.49
2 -3 2 876.91 57.09
-3 3 -2 2115.09 117.09
3 -3 2 1857.71 111.19
3 -3 2 1935.51 116.69
-4 3 -2 3367.46 198.38
4 -3 2 3413.86 198.28
-5 3 -2 70.49 10
5 -3 2 77.89 10.4
-6 3 -2 95.99 12.2
6 -3 2 57.19 18.6
-7 3 -2 42.8 9.7
7 -3 2 49.8 10.3
-8 3 -2 476.25 38
8 -3 2 487.95 37.6
-9 3 -2 607.74 53.69
-9 3 -2 698.53 51.09
9 -3 2 724.43 50.79
-10 3 -2 166.58 25.4
-10 3 -2 191.78 21.4
10 -3 2 186.48 21.1
-11 3 -2 63.49 15.2
-11 3 -2 58.29 13
11 -3 2 74.29 13.8
-12 3 -2 54.39 15.3
-12 3 -2 33.5 11.1
12 -3 2 65.99 14.2
-11 -2 2 229.28 20.4
-11 -2 2 177.38 28.1
-11 -2 2 216.68 18.1
-11 -2 2 201.58 17.2
-10 -2 2 137.59 22.9
-10 -2 2 167.68 28.8
-10 -2 2 144.59 14.2
-10 -2 2 150.48 14.8
-9 -2 2 7.8 5.1
-9 -2 2 5.1 8.6
-9 -2 2 5.9 4.5
-9 -2 2 21.9 16.5
-8 -2 2 77.49 11.7
-8 -2 2 62.39 10
-8 -2 2 64.29 11.8
-8 -2 2 62.79 13.2
-7 -2 2 786.32 56.39
-7 -2 2 872.21 55.49
-7 -2 2 751.62 52.39
-6 -2 2 4.6 4.5
-6 -2 2 10.9 4.5
-5 -2 2 925.01 56.59
-5 -2 2 781.72 53.09
-4 -2 2 434.66 29.8
-4 -2 2 400.26 28
3 2 -2 247.08 18.9
-3 -2 2 275.17 19.4
-3 -2 2 248.08 17.7
2 2 -2 4887.71 283.77
-2 -2 2 5082.49 283.97
1 -2 2 314.17 20.8
-3 2 -2 1403.66 80.29
3 -2 2 1317.97 75.39
3 -2 2 1259.07 79.69
-4 2 -2 39.3 7.1
4 -2 2 38.1 7.4
-5 2 -2 91.29 11.1
5 -2 2 114.79 12.1
-6 2 -2 449.36 34.5
6 -2 2 499.35 35
-7 2 -2 5.6 5.8
-7 2 -2 -3.3 3.5
7 -2 2 0 8.3
-8 2 -2 82.29 13.5
-8 2 -2 58.59 14.2
8 -2 2 77.09 12.8
-9 2 -2 80.39 13.9
-9 2 -2 64.09 14.9
9 -2 2 94.59 13
-10 2 -2 445.66 35.2
-10 2 -2 394.56 38.7
10 -2 2 443.66 34.7
-11 2 -2 61.99 16.4
-11 2 -2 89.59 14.7
11 -2 2 99.69 15.4
-12 2 -2 1.3 6.5
-12 2 -2 13.1 10.6
-11 -1 2 19.7 5
-11 -1 2 27.1 7.9
-11 -1 2 9.8 9.7
-11 -1 2 19.6 5.7
-10 -1 2 17.2 4.7
-10 -1 2 7.2 7.2
-10 -1 2 15.1 6.3
-10 -1 2 18.6 6.2
-9 -1 2 111.99 13
-9 -1 2 95.89 13.2
-9 -1 2 99.19 11
-9 -1 2 73.29 15.9
-8 -1 2 189.58 18.6
-8 -1 2 171.78 17
-8 -1 2 170.78 15.4
-8 -1 2 170.58 19.9
-7 -1 2 464.75 36.7
-7 -1 2 423.06 34
-7 -1 2 433.36 31.5
-7 -1 2 541.95 35.2
-6 -1 2 265.77 21.9
-6 -1 2 247.58 22.8
-5 -1 2 3.1 3.2
-5 -1 2 5.9 4
-4 -1 2 1786.12 112.49
-4 -1 2 2030.1 113.99
-3 -1 2 2944.01 167.68
-3 -1 2 2858.61 167.88
2 1 -2 196.88 13.4
-2 -1 2 178.28 13.3
1 1 -2 3333.47 188.88
0 1 -2 133.99 8.8
0 -1 2 148.29 8.7
0 -1 2 144.59 9.6
-1 1 -2 440.16 26.5
-1 1 -2 465.05 27.3
1 -1 2 456.55 27.4
1 -1 2 420.86 26.4
-2 1 -2 3807.42 213.28
-2 1 -2 3827.92 215.08
2 -1 2 3698.53 215.18
2 -1 2 3727.93 213.38
-3 1 -2 19.2 4.2
-3 1 -2 16.3 2.5
3 -1 2 15.3 3.8
3 -1 2 9.9 2.1
-4 1 -2 21.8 3.3
-4 1 -2 18.4 4.7
4 -1 2 14.7 4.5
-5 1 -2 361.06 22.2
-5 1 -2 327.87 25.5
5 -1 2 347.27 25.8
-6 1 -2 615.64 44
-6 1 -2 705.63 47.9
-6 1 -2 628.44 39.6
6 -1 2 711.93 44.9
-7 1 -2 472.25 28.8
-7 1 -2 535.35 39.1
-7 1 -2 447.76 34.4
-7 1 -2 438.06 28.3
7 -1 2 527.35 35.3
-8 1 -2 87.69 12.2
-8 1 -2 117.19 18.3
-9 1 -2 176.98 17.6
-9 1 -2 137.49 22.5
9 -1 2 153.88 16.6
-10 1 -2 4.9 13.9
10 -1 2 -7.7 4.8
-11 1 -2 54.89 14.5
-11 1 -2 33.1 8.6
-12 0 2 32.2 14.4
-12 0 2 46 10.3
-11 0 2 293.87 26.9
-11 0 2 258.37 29.5
-10 0 2 75.69 8.4
-10 0 2 85.39 9.4
-10 0 2 73.49 16.6
-10 0 2 85.49 14.8
-9 0 2 109.09 18.4
-9 0 2 98.09 18.7
-9 0 2 95.89 11.4
-9 0 2 112.29 10.6
-8 0 2 409.26 35.1
-8 0 2 414.36 33.7
-8 0 2 391.26 29.9
-8 0 2 426.06 28.5
7 0 -2 23.8 6.1
-7 0 2 13.6 4
-7 0 2 9.6 6.2
-7 0 2 16.1 6.1
6 0 -2 106.69 11.2
-6 0 2 77.19 8.6
-6 0 2 102.29 12.2
-6 0 2 95.89 11.8
5 0 -2 142.49 12.9
-5 0 2 124.89 13.3
-5 0 2 123.09 10.9
-5 0 2 144.99 14.1
4 0 -2 375.56 25.2
-4 0 2 333.37 23.2
-4 0 2 329.57 25.6
-4 0 2 395.26 26.3
3 0 -2 1327.27 79.09
-3 0 2 1368.76 79.99
-3 0 2 1292.77 77.59
2 0 -2 1698.33 97.49
-2 0 2 1747.93 97.99
-2 0 2 1573.44 96.29
1 0 -2 1168.68 68.89
-1 0 2 1212.38 69.09
-1 0 -2 2553.34 149.88
-1 0 -2 2703.83 149.88
1 0 2 2580.34 149.19
1 0 2 2659.73 149.88
-3 0 -2 221.08 15.1
-3 0 -2 216.98 15.1
-3 0 -2 209.88 16.9
3 0 2 197.58 15.1
3 0 2 210.98 14.8
-4 0 -2 6185.88 371.46
-4 0 -2 7058.39 371.36
-4 0 -2 6560.14 374.86
4 0 2 6309.67 371.76
-5 0 -2 2232.28 147.09
-5 0 -2 2888.31 147.19
-5 0 -2 2505.35 151.48
5 0 2 2480.75 147.79
-6 0 -2 814.32 54.59
-6 0 -2 974 61.59
-6 0 -2 872.01 56.29
6 0 2 945.91 56.99
-7 0 -2 318.87 28.9
-7 0 -2 290.07 22.1
-7 0 -2 308.67 24.1
7 0 2 357.56 25.1
-8 0 -2 168.98 20.4
-8 0 -2 130.09 11.5
-8 0 -2 132.79 13.8
8 0 2 132.19 14.2
-9 0 -2 34.3 11.1
-9 0 -2 47.6 4.6
-9 0 -2 46.9 8.7
-9 0 -2 43.8 5
9 0 2 65.59 9.7
-10 0 -2 116.99 22.3
-10 0 -2 122.99 12.9
10 0 2 153.38 23.8
-11 0 -2 7.2 9.6
-11 0 -2 7.6 4.4
-12 1 2 218.18 28.2
-12 1 2 255.87 25.8
-11 1 2 49.7 12.5
-11 1 2 40.3 13.4
-10 1 2 72.39 15.7
-10 1 2 85.79 16.1
9 -1 -2 285.67 25.3
-9 1 2 300.17 21.3
-9 1 2 312.77 28.5
-9 1 2 273.77 20.1
-9 1 2 280.87 28.5
8 -1 -2 89.99 11.9
-8 1 2 81.49 8.7
-8 1 2 79.69 15.7
-8 1 2 82.19 17.9
-8 1 2 106.19 10.4
7 -1 -2 458.65 33.5
-7 1 2 390.16 27.6
-7 1 2 413.56 33.8
-7 1 2 438.96 34.3
6 -1 -2 409.86 28.9
-6 1 2 399.26 29.9
-6 1 2 372.06 30.3
-6 1 2 340.67 24.7
5 -1 -2 74.89 9.6
-5 1 2 72.69 7.2
-5 1 2 76.89 10.1
4 -1 -2 686.33 42.6
-4 1 2 648.94 43.4
-4 1 2 610.84 39.3
3 -1 -2 3.6 2.4
-3 1 2 10.5 3.7
-3 1 2 6.1 2
2 -1 -2 20.3 4.1
2 -1 -2 15.1 2.7
-2 1 2 16.8 4.1
-2 1 2 20 3.3
1 -1 -2 143.29 10.5
1 -1 -2 143.99 10.9
-1 1 2 149.09 9.2
-1 1 2 138.49 10.5
-1 1 2 147.99 11.1
0 -1 -2 82.99 6
0 -1 -2 80.09 7.1
0 1 2 90.99 6.1
0 1 2 87.19 7.2
-1 -1 -2 4852.61 272.17
1 1 2 4704.43 272.07
-3 -1 -2 6932.61 395.06
-3 -1 -2 6326.27 390.86
-3 -1 -2 7574.04 394.06
3 1 2 6787.22 391.66
3 1 2 6978.1 393.46
-4 -1 -2 97.09 9.7
-4 -1 -2 97.69 11.4
-4 -1 -2 83.09 7.7
4 1 2 93.49 8.5
-5 -1 -2 34.1 5.6
-5 -1 -2 41.9 7.1
-5 -1 -2 42.8 9.2
5 1 2 43.6 5.8
-6 -1 -2 733.63 48.4
-6 -1 -2 846.12 55.59
-6 -1 -2 702.93 49.8
6 1 2 872.21 49.8
-7 -1 -2 121.89 12.9
-7 -1 -2 141.29 12.5
-7 -1 -2 148.59 17.6
7 1 2 138.79 13
-8 -1 -2 979.6 58.89
-8 -1 -2 911.71 59.99
-8 -1 -2 904.11 67.59
8 1 2 986.2 59.59
-9 -1 -2 41.5 12.7
-9 -1 -2 67.59 8
-9 -1 -2 69.39 8.3
-10 -1 -2 88.29 8.3
-10 -1 -2 85.69 17.6
-10 -1 -2 92.79 8.8
-10 -1 -2 80.79 7.5
-11 -1 -2 16 10.8
-12 2 2 -9 8.3
-12 2 2 14.5 10.8
-11 2 2 85.39 18.9
-11 2 2 128.69 20.4
10 -2 -2 74.29 14.8
-10 2 2 74.39 16.3
-10 2 2 122.49 20.7
9 -2 -2 223.98 21.2
-9 2 2 209.88 23.3
-9 2 2 186.78 13
-9 2 2 199.88 13.4
-9 2 2 207.38 23.4
8 -2 -2 476.75 35.6
-8 2 2 408.26 28.4
-8 2 2 457.85 29.4
-8 2 2 442.16 37.3
-8 2 2 461.55 36.9
7 -2 -2 276.77 22.7
-7 2 2 243.98 24
-7 2 2 226.18 17.3
6 -2 -2 91.69 15.6
-6 2 2 87.39 14.5
-6 2 2 78.29 7.9
5 -2 -2 25.3 6.2
-5 2 2 19.9 3.9
-5 2 2 21.7 6.7
4 -2 -2 1275.97 77.89
-4 2 2 1215.58 74.09
-4 2 2 1290.57 79.09
3 -2 -2 2259.47 137.39
3 -2 -2 2354.66 140.89
-3 2 2 2493.55 138.39
-3 2 2 2497.25 141.99
2 -2 -2 3222.48 184.68
2 -2 -2 3131.39 186.58
-2 2 2 3325.57 185.18
-2 2 2 3243.28 187.18
1 -2 -2 66.69 6.5
1 -2 -2 69.79 5.4
1 -2 -2 71.29 7
-1 2 2 81.29 7.3
-1 2 2 65.29 5.3
-1 2 2 58.59 6.7
0 -2 -2 1614.74 96.19
0 -2 -2 1632.14 94.29
0 -2 -2 1642.94 95.09
0 2 2 1727.63 96.59
0 2 2 1626.44 94.39
0 2 2 1605.24 95.09
-1 -2 -2 6349.16 363.66
1 2 2 6423.16 363.86
-2 -2 -2 3163.08 185.48
-2 -2 -2 3404.06 186.48
2 2 2 3235.68 186.08
2 2 2 3154.28 181.88
2 2 2 3122.29 185.58
-3 -2 -2 183.08 16.2
-3 -2 -2 208.58 16.5
3 2 2 179.28 16.2
3 2 2 193.88 12.6
3 2 2 187.68 15.8
-4 -2 -2 33.1 11.7
-4 -2 -2 41.5 7.5
-4 -2 -2 20.9 2.7
4 2 2 25.4 3.8
-5 -2 -2 18.1 6
-5 -2 -2 38.6 8.6
-5 -2 -2 29.8 3.6
5 2 2 27.6 4.6
-6 -2 -2 1302.77 78.19
-6 -2 -2 1097.69 73.29
-6 -2 -2 1046.7 68.19
6 2 2 1265.77 69.59
-7 -2 -2 955.6 63.69
-7 -2 -2 1185.88 74.89
-7 -2 -2 1062.79 69.29
7 2 2 1169.38 64.89
-8 -2 -2 16.1 8.9
-8 -2 -2 14.6 3.3
-8 -2 -2 18.8 6.6
-9 -2 -2 94.09 12.2
-9 -2 -2 93.79 17.5
-10 -2 -2 3.5 4.9
-10 -2 -2 5.4 8.8
-10 -2 -2 2.9 3.2
-11 -2 -2 8.2 10.6
-11 -2 -2 28.7 3.8
-11 -2 -2 24 4.3
-12 3 2 242.58 28.6
-12 3 2 235.38 27.6
11 -3 -2 23.1 10.3
-11 3 2 43.5 13
-11 3 2 30.6 10.3
10 -3 -2 198.38 21.1
-10 3 2 154.78 20.5
-10 3 2 172.88 22.1
9 -3 -2 41.1 10.6
-9 3 2 32.6 11.5
8 -3 -2 182.68 18.8
-8 3 2 149.29 11.3
-8 3 2 151.88 19.9
-8 3 2 153.18 11
7 -3 -2 352.86 28.2
-7 3 2 299.27 20.9
-7 3 2 295.57 28.6
6 -3 -2 1444.56 84.59
-6 3 2 1232.08 84.99
-6 3 2 1263.97 77.39
5 -3 -2 1258.47 76.29
-5 3 2 1115.19 70.69
-5 3 2 1224.58 77.89
4 -3 -2 509.25 31.1
4 -3 -2 472.65 35.2
-4 3 2 580.54 37.8
-4 3 2 472.75 32
3 -3 -2 1596.54 101.69
3 -3 -2 1678.73 98.69
-3 3 2 1715.13 102.99
-3 3 2 1784.72 99.69
1 -3 -2 4348.46 245.28
1 -3 -2 4097.49 245.18
-1 3 2 4204.88 245.58
-1 3 2 4464.95 245.78
0 -3 -2 145.89 12.6
0 -3 -2 149.79 10.8
0 -3 -2 149.99 11.4
0 3 2 142.59 12.6
0 3 2 136.09 11.4
0 3 2 157.38 11.1
-1 -3 -2 1181.48 71.59
-1 -3 -2 1230.48 73.69
1 3 2 1230.38 73.59
1 3 2 1213.68 71.79
1 3 2 1171.68 70.19
-2 -3 -2 10.1 3.6
-2 -3 -2 3.2 2.7
2 3 2 2.7 2.2
2 3 2 4.7 2.4
2 3 2 1.9 1
-3 -3 -2 1932.61 119.09
-3 -3 -2 2044.9 119.89
3 3 2 2011.6 119.49
-4 -3 -2 1071.69 64.99
-4 -3 -2 955 64.29
4 3 2 981.6 64.79
-5 -3 -2 3374.16 191.98
-5 -3 -2 3102.29 192.18
-6 -3 -2 198.58 21.2
-6 -3 -2 251.57 21.8
-7 -3 -2 1251.77 78.89
-7 -3 -2 1036.6 78.69
-8 -3 -2 487.55 61.69
-8 -3 -2 555.74 41.8
-9 -3 -2 117.19 21
-9 -3 -2 115.49 15.3
-10 -3 -2 30.8 11.2
-11 -3 -2 1.3 14.3
-11 -3 -2 -6.3 5
-11 -3 -2 7 4.4
-12 4 2 104.59 20.4
-12 4 2 96.29 18.9
11 -4 -2 98.79 18.1
-11 4 2 101.49 21
-11 4 2 64.59 16.2
10 -4 -2 11.4 8
-10 4 2 11.1 7.9
-10 4 2 13.2 9.4
9 -4 -2 512.45 40.9
-9 4 2 485.95 44
8 -4 -2 224.58 23
-8 4 2 222.48 25.3
7 -4 -2 1044.3 65.09
-7 4 2 870.21 65.49
-7 4 2 885.71 55.29
6 -4 -2 1640.14 101.49
-6 4 2 1535.75 94.39
-6 4 2 1691.83 113.29
5 -4 -2 1520.05 92.49
5 -4 -2 1514.05 85.49
-5 4 2 1505.35 94.09
-5 4 2 1338.17 86.49
4 -4 -2 848.52 51.59
4 -4 -2 841.82 56.49
-4 4 2 837.72 52.69
-4 4 2 900.51 58.09
3 -4 -2 257.57 21.9
3 -4 -2 272.27 19.6
-3 4 2 266.97 19.3
-3 4 2 290.07 23.4
-3 4 2 311.07 20.9
2 -4 -2 835.22 51.09
2 -4 -2 788.22 53.59
2 -4 -2 841.92 52.59
-2 4 2 847.12 54.49
-2 4 2 869.81 50.99
-2 4 2 901.91 53.39
1 -4 -2 41.3 4.7
1 -4 -2 27.6 5.7
1 -4 -2 38.1 6.4
-1 4 2 43.3 4.8
-1 4 2 31 6.1
-1 4 2 33.5 6.5
0 -4 -2 400.06 27.5
0 -4 -2 451.35 30
0 -4 -2 405.96 26.9
0 4 2 412.56 27.1
0 4 2 413.66 27.8
0 4 2 441.76 29.9
-1 -4 -2 511.95 33.9
-1 -4 -2 477.35 29.8
-1 -4 -2 469.35 31.2
1 4 2 481.65 31.5
1 4 2 467.05 30
1 4 2 471.65 33.6
-2 -4 -2 1031.4 63.49
-2 -4 -2 1012.1 61.49
2 4 2 941.91 60.99
2 4 2 958.2 62.59
2 4 2 986.2 57.29
-3 -4 -2 1407.46 87.29
-3 -4 -2 1494.75 89.09
3 4 2 1360.66 87.09
3 4 2 1418.76 88.19
-4 -4 -2 1010 64.69
-4 -4 -2 963.4 63.69
4 4 2 956 63.69
-5 -4 -2 15.9 8
-5 -4 -2 1.2 4.8
5 4 2 1.8 3.6
-6 -4 -2 1127.09 78.59
-6 -4 -2 1251.67 78.99
-7 -4 -2 1968.5 125.29
-7 -4 -2 1968.9 122.99
-8 -4 -2 138.49 22.2
-8 -4 -2 138.89 17.8
-9 -4 -2 204.68 25.3
-9 -4 -2 215.58 22.4
-10 -4 -2 17.1 8.5
-10 -4 -2 0.8 5.8
-11 -4 -2 55.59 14.3
-11 -4 -2 34.3 13.3
-11 -4 -2 36.3 41.8
-12 5 2 68.19 15.5
-12 5 2 30.7 15.3
11 -5 -2 70.39 15.2
-11 5 2 48.1 17.2
-11 5 2 48.3 13.5
10 -5 -2 147.29 27.9
-10 5 2 204.08 25.6
9 -5 -2 65.19 13.8
-9 5 2 81.59 17.7
8 -5 -2 874.51 61.69
-8 5 2 838.42 64.49
7 -5 -2 247.58 23.4
-7 5 2 208.88 24.1
-7 5 2 208.78 15.7
6 -5 -2 350.56 21.9
6 -5 -2 324.37 28.9
-6 5 2 352.96 31
-6 5 2 312.07 23.1
5 -5 -2 176.38 13.4
5 -5 -2 213.98 19.4
-5 5 2 167.68 14.5
-5 5 2 152.08 18.4
4 -5 -2 14.4 3.7
4 -5 -2 13.6 9.5
-4 5 2 17.2 6.3
-4 5 2 13.6 4.3
-4 5 2 16.7 4.4
3 -5 -2 1233.78 74.19
3 -5 -2 1229.88 77.29
-3 5 2 1224.28 73.19
-3 5 2 1240.88 78.09
-3 5 2 1191.08 74.89
2 -5 -2 155.58 13.8
2 -5 -2 139.69 11.8
2 -5 -2 137.69 14.1
-2 5 2 169.38 14.5
-2 5 2 157.28 12.1
-2 5 2 154.98 14.9
1 -5 -2 1175.18 74.69
1 -5 -2 1245.68 75.59
1 -5 -2 1197.98 72.39
-1 5 2 1196.08 75.19
-1 5 2 1252.07 75.89
-1 5 2 1262.97 72.79
0 -5 -2 230.88 18
0 -5 -2 232.88 19.9
0 -5 -2 242.08 17.5
0 5 2 246.48 17.7
0 5 2 222.08 18
0 5 2 267.77 20.6
-1 -5 -2 41.3 8.1
-1 -5 -2 56.49 6.8
-1 -5 -2 34.9 5.5
1 5 2 32.2 7.4
1 5 2 32.1 6.2
1 5 2 34.6 4.9
-2 -5 -2 0.1 2.9
-2 -5 -2 1.9 2.5
2 5 2 4.8 3.7
2 5 2 2 1.5
2 5 2 5.3 3.9
-3 -5 -2 28 7.6
-3 -5 -2 30.8 6.9
3 5 2 30.8 7.6
3 5 2 29.5 7.7
-4 -5 -2 154.98 16.3
-4 -5 -2 156.48 17.5
4 5 2 124.89 14.7
-5 -5 -2 78.09 13.7
-5 -5 -2 102.99 13.6
5 5 2 77.89 13.5
-6 -5 -2 30.4 10.2
-6 -5 -2 35.9 9.9
-7 -5 -2 485.95 44.2
-7 -5 -2 650.43 46.2
-8 -5 -2 7.3 8.1
-9 -5 -2 98.29 19.7
-9 -5 -2 110.29 17.8
-10 -5 -2 57.09 14.5
-10 -5 -2 109.09 17.9
-12 6 2 298.67 32
-12 6 2 283.97 35.7
11 -6 -2 29.6 14
-11 6 2 39.2 12.9
10 -6 -2 215.58 25.1
-10 6 2 206.88 28
9 -6 -2 86.39 17.8
-9 6 2 94.49 19.6
8 -6 -2 39.8 10.5
-8 6 2 23.5 10.4
7 -6 -2 162.18 19.4
7 -6 -2 183.38 12.5
-7 6 2 193.48 22.8
-7 6 2 149.79 13.3
6 -6 -2 51.89 6
6 -6 -2 37.9 10.4
-6 6 2 42.8 7
-6 6 2 63.59 13.4
5 -6 -2 1362.66 79.99
5 -6 -2 1354.96 86.49
-5 6 2 1164.78 80.69
-5 6 2 1511.15 89.89
-5 6 2 1333.37 81.99
4 -6 -2 4488.55 271.27
4 -6 -2 4678.03 266.77
-4 6 2 4866.81 273.37
-4 6 2 4368.26 267.47
-4 6 2 4808.42 273.57
3 -6 -2 4 2.7
3 -6 -2 5 3.3
3 -6 -2 5.2 3.4
-3 6 2 2.8 3.3
-3 6 2 5.4 2.5
-3 6 2 5.7 3.5
2 -6 -2 1509.75 91.29
2 -6 -2 1428.86 91.79
2 -6 -2 1465.15 88.29
-2 6 2 1486.95 88.49
-2 6 2 1566.04 91.89
-2 6 2 1486.95 92.59
1 -6 -2 1912.51 119.19
1 -6 -2 2087.29 120.99
1 -6 -2 1959.9 116.69
-1 6 2 1968 119.59
-1 6 2 1981.4 120.69
-1 6 2 2067.29 117.19
0 -6 -2 0.7 1.7
0 -6 -2 3.4 2.5
0 -6 -2 5.7 4.1
0 6 2 3 2.8
0 6 2 3.9 2.9
0 6 2 -0.4 2.3
-1 -6 -2 1228.28 79.29
-1 -6 -2 1219.78 75.69
-1 -6 -2 1267.87 74.69
1 6 2 1210.58 74.49
1 6 2 1270.47 76.29
1 6 2 1249.47 79.39
-2 -6 -2 0.1 2.6
-2 -6 -2 0.7 3.9
2 6 2 7 4.6
2 6 2 6.3 2.4
2 6 2 4 3.2
-3 -6 -2 297.57 24.6
-3 -6 -2 278.87 26.4
3 6 2 306.97 24.8
3 6 2 320.27 26.8
-4 -6 -2 52.19 10.7
-4 -6 -2 61.69 12.5
4 6 2 39.4 9.2
-5 -6 -2 155.28 18.1
-5 -6 -2 160.28 19
5 6 2 150.78 17.3
-6 -6 -2 393.66 34.2
-6 -6 -2 346.37 31.5
6 6 2 322.67 30.9
-7 -6 -2 209.48 32.3
-7 -6 -2 229.08 25.6
-8 -6 -2 180.78 23.9
-8 -6 -2 251.77 27.7
-9 -6 -2 57.19 15.1
-9 -6 -2 33.6 12.6
-10 -6 -2 43.2 14.1
-10 -6 -2 18.2 11.9
-12 7 2 -2.2 8.6
-12 7 2 7 6.3
-11 7 2 494.65 57.59
10 -7 -2 -1.9 7.2
-10 7 2 10.2 9.5
9 -7 -2 120.09 20.8
-9 7 2 111.19 22.8
8 -7 -2 27.7 10
-8 7 2 52.29 13.8
7 -7 -2 1.5 1.9
7 -7 -2 9.1 6.1
-7 7 2 4.6 5.7
-7 7 2 -3.7 2.5
6 -7 -2 683.83 43.3
6 -7 -2 705.53 51.49
-6 7 2 733.03 47.2
-6 7 2 566.24 44
-6 7 2 827.82 55.69
5 -7 -2 85.39 9.3
5 -7 -2 62.59 13.2
-5 7 2 84.69 15.3
-5 7 2 80.29 9.5
-5 7 2 61.99 8.9
4 -7 -2 1.3 2.5
4 -7 -2 1.2 3.2
-4 7 2 2 3
-4 7 2 3.4 3
-4 7 2 7.3 6.1
3 -7 -2 2591.54 144.89
3 -7 -2 2266.17 148.09
3 -7 -2 2591.84 146.99
-3 7 2 2299.97 146.69
-3 7 2 2565.04 150.28
-3 7 2 2470.05 144.09
2 -7 -2 266.57 22.2
2 -7 -2 247.78 22.1
2 -7 -2 260.17 19.6
-2 7 2 283.37 23.6
-2 7 2 249.88 22.3
-2 7 2 269.27 19.8
1 -7 -2 2099.99 128.49
1 -7 -2 2162.08 130.09
1 -7 -2 2151.48 125.69
-1 7 2 2052.59 128.39
-1 7 2 2161.58 130.29
-1 7 2 2207.88 125.99
0 -7 -2 127.49 17.5
0 -7 -2 127.29 13.1
0 -7 -2 135.39 12.6
0 7 2 137.59 12.7
0 7 2 134.29 15
0 7 2 141.19 13.5
-1 -7 -2 4 3.4
-1 -7 -2 6.9 3.8
-1 -7 -2 9.9 5.4
1 7 2 2.4 3.1
1 7 2 2.1 2.6
1 7 2 1.9 3.6
-2 -7 -2 114.79 14.7
-2 -7 -2 93.59 11.8
-2 -7 -2 111.89 9.6
2 7 2 104.49 12.2
2 7 2 111.19 19.7
2 7 2 106.79 9.4
-3 -7 -2 3.5 5.2
-3 -7 -2 5 4.5
3 7 2 3.7 1.1
3 7 2 7.3 4.3
-4 -7 -2 -0.5 5.6
-4 -7 -2 1.6 4.9
4 7 2 7.9 4.4
-5 -7 -2 25.4 8.5
-5 -7 -2 32.4 9.1
-6 -7 -2 12.7 9
-6 -7 -2 11.3 7.5
6 7 2 11.2 6.3
-7 -7 -2 632.04 49.3
-7 -7 -2 489.65 44.4
-8 -7 -2 41.9 12.3
-8 -7 -2 18.2 10.2
-9 -7 -2 109.59 20.9
-9 -7 -2 116.79 21.1
-10 -7 -2 40.5 13
-10 -7 -2 13.2 10.7
-12 8 2 60.99 19.7
-11 8 2 13.4 13.9
-10 8 2 148.19 28.1
9 -8 -2 68.79 15.5
8 -8 -2 194.28 14
-8 8 2 210.28 21
-8 8 2 173.28 28.1
7 -8 -2 522.25 34.9
7 -8 -2 552.74 44.6
-7 8 2 493.15 36.5
-7 8 2 560.24 47.3
-7 8 2 614.74 40.6
6 -8 -2 258.17 19.8
6 -8 -2 274.07 26.3
-6 8 2 275.77 28.2
-6 8 2 220.78 20.6
-6 8 2 284.57 22.6
5 -8 -2 378.26 33.2
5 -8 -2 411.96 29
-5 8 2 459.25 36.7
-5 8 2 344.87 29.1
-5 8 2 392.66 28.8
4 -8 -2 158.08 15.2
4 -8 -2 136.39 17
-4 8 2 122.69 14.4
-4 8 2 153.48 18.5
-4 8 2 148.29 13.6
3 -8 -2 623.04 39.5
3 -8 -2 532.85 42.5
3 -8 -2 607.94 41.8
-3 8 2 547.75 41.8
-3 8 2 617.74 46.6
-3 8 2 597.84 39.1
2 -8 -2 481.95 32.3
2 -8 -2 457.05 36.6
2 -8 -2 469.85 36.6
-2 8 2 470.45 32.2
-2 8 2 467.85 36.1
-2 8 2 462.05 35.8
1 -8 -2 328.87 26.4
1 -8 -2 304.87 26.9
1 -8 -2 328.67 23.9
-1 8 2 318.57 27.7
-1 8 2 335.87 24
-1 8 2 300.97 25.9
0 -8 -2 1154.58 73.69
0 -8 -2 1136.59 69.89
0 -8 -2 1119.49 68.69
0 8 2 1065.19 72.89
0 8 2 1060.59 68.59
0 8 2 1067.09 69.29
-1 -8 -2 15.2 6.8
-1 -8 -2 28.4 6.3
-1 -8 -2 29.4 7
1 8 2 23.7 5.8
1 8 2 21.5 6
1 8 2 18.7 6.7
-2 -8 -2 120.99 16.2
-2 -8 -2 124.19 11.2
-2 -8 -2 123.59 13.6
2 8 2 133.79 16.5
2 8 2 121.69 13.8
2 8 2 120.59 10.7
-3 -8 -2 282.07 27.5
-3 -8 -2 301.37 25.1
3 8 2 259.97 17.3
3 8 2 299.17 24.8
-4 -8 -2 154.18 18.1
-4 -8 -2 184.58 21.4
4 8 2 153.08 17.4
-5 -8 -2 82.79 16.4
-5 -8 -2 76.09 14.1
5 8 2 88.09 15.3
-6 -8 -2 31.5 11.8
-6 -8 -2 21.4 8.5
-7 -8 -2 589.24 47.9
-7 -8 -2 414.26 40.9
-8 -8 -2 6 6
-8 -8 -2 3.7 9.3
-9 -8 -2 -8.9 3.8
-9 -8 -2 -2.2 12.5
-12 9 2 17.6 14
-11 9 2 208.68 35.3
-10 9 2 -4.7 11
9 -9 -2 219.78 25.4
-9 9 2 193.58 27.5
8 -9 -2 157.98 21.1
8 -9 -2 168.58 13.3
-8 9 2 162.78 23.1
-8 9 2 169.88 18.3
7 -9 -2 1821.42 118.59
7 -9 -2 1872.71 108.19
-7 9 2 1585.94 109.39
-7 9 2 1925.21 122.69
-7 9 2 1910.01 112.49
6 -9 -2 419.96 35.7
6 -9 -2 384.26 28.8
-6 9 2 442.36 38.7
-6 9 2 337.27 29.6
-6 9 2 453.95 31.3
5 -9 -2 23.1 8.4
5 -9 -2 24.4 6.4
-5 9 2 26.2 9.4
-5 9 2 5.4 4.6
-5 9 2 15.9 5.1
4 -9 -2 4842.82 276.97
4 -9 -2 4919.51 274.27
4 -9 -2 4618.24 279.07
-4 9 2 5042.9 281.47
-4 9 2 3961.8 274.97
-4 9 2 4990.5 273.27
3 -9 -2 28 6.4
3 -9 -2 27.1 7.1
3 -9 -2 15.3 6.7
-3 9 2 32 9.2
-3 9 2 15 4.8
-3 9 2 16.8 7
2 -9 -2 9.9 5.3
2 -9 -2 25.6 7.7
-2 9 2 17.6 5.2
-2 9 2 16.1 5.7
-2 9 2 15.7 6.2
1 -9 -2 61.59 14.4
1 -9 -2 81.19 14.3
1 -9 -2 79.79 10.3
-1 9 2 76.09 11
-1 9 2 78.99 12.6
-1 9 2 65.29 13.1
0 -9 -2 793.42 53.19
0 -9 -2 815.62 52.29
0 -9 -2 780.32 56.79
0 9 2 781.32 56.89
0 9 2 816.72 52.39
0 9 2 777.42 52.89
-1 -9 -2 3302.37 191.98
-1 -9 -2 3269.07 192.58
-1 -9 -2 3449.25 199.38
1 9 2 3191.08 192.98
1 9 2 3283.17 198.28
1 9 2 3168.68 191.28
-2 -9 -2 294.37 23.4
-2 -9 -2 238.48 19.5
-2 -9 -2 262.07 26.3
2 9 2 252.77 23.1
2 9 2 265.97 19.6
2 9 2 256.57 26.3
-3 -9 -2 595.54 45.2
-3 -9 -2 540.85 39.4
3 9 2 458.45 31.1
3 9 2 535.15 39.6
-4 -9 -2 248.78 27.4
-4 -9 -2 230.98 22.8
4 9 2 216.48 26.5
-5 -9 -2 551.54 44.2
-5 -9 -2 581.04 48.2
5 9 2 542.65 44
-6 -9 -2 141.19 19.1
-6 -9 -2 228.78 47.2
-7 -9 -2 19.1 12.4
-7 -9 -2 10.3 7.6
-8 -9 -2 -3.3 4.4
-8 -9 -2 -5.7 9.2
-9 -9 -2 49.2 13
-12 10 2 -14.1 10.2
-11 10 2 -1.2 11.3
-10 10 2 219.68 30.9
9 -10 -2 4.5 2.5
-9 10 2 -2.4 8.9
8 -10 -2 50.19 7.8
8 -10 -2 47.5 13.9
-8 10 2 40.3 14
-8 10 2 49.5 10.6
7 -10 -2 3.4 4.1
7 -10 -2 9.7 8.5
-7 10 2 12.8 5.8
-7 10 2 6 8.4
-7 10 2 0.5 8.9
6 -10 -2 555.84 44.1
6 -10 -2 527.85 36.8
-6 10 2 520.45 45.1
-6 10 2 532.85 37.2
-6 10 2 417.76 36.8
5 -10 -2 862.91 63.59
5 -10 -2 911.31 59.09
-5 10 2 776.92 58.89
-5 10 2 905.51 65.79
-5 10 2 926.51 57.69
4 -10 -2 47.3 9.1
4 -10 -2 28.3 7.6
4 -10 -2 24.8 8
-4 10 2 37.3 7.5
-4 10 2 48.9 12.8
-4 10 2 33 8.6
3 -10 -2 223.98 22.2
3 -10 -2 250.57 19.9
3 -10 -2 233.48 23.4
-3 10 2 228.88 23.3
-3 10 2 177.88 22.4
-3 10 2 240.28 19.8
2 -10 -2 468.75 31.9
2 -10 -2 397.76 34.2
2 -10 -2 449.06 36
-2 10 2 443.06 35.7
-2 10 2 404.16 31.2
-2 10 2 460.65 36.5
1 -10 -2 454.95 32.4
1 -10 -2 439.96 35
1 -10 -2 453.95 37.2
-1 10 2 455.35 37.4
-1 10 2 445.56 35.2
-1 10 2 442.26 32.6
0 -10 -2 1741.43 108.69
0 -10 -2 1891.91 107.99
0 -10 -2 1793.62 113.49
0 10 2 1737.43 113.29
0 10 2 1686.23 108.09
0 10 2 1699.73 107.29
-1 -10 -2 307.17 23.9
-1 -10 -2 269.27 27.8
-1 -10 -2 264.47 23.7
1 10 2 297.67 24.8
1 10 2 266.77 22.6
1 10 2 285.57 28.1
-2 -10 -2 245.58 22.1
-2 -10 -2 356.16 32.2
-2 -10 -2 322.07 26.3
2 10 2 321.97 22.7
2 10 2 310.97 26.4
-3 -10 -2 77.59 16.3
-3 -10 -2 89.09 14.4
3 10 2 72.09 7.1
3 10 2 94.69 15
-4 -10 -2 9.9 5.9
-4 -10 -2 7.3 7.2
4 10 2 37.3 9.5
-5 -10 -2 261.87 26.9
-5 -10 -2 296.97 32
-6 -10 -2 -18.5 7.3
-6 -10 -2 3.1 7
-7 -10 -2 309.77 32.3
-8 -10 -2 48.9 13
-9 -10 -2 1.8 8
-12 11 2 136.49 28.3
-11 11 2 20.2 14.3
-10 11 2 207.88 34.5
9 -11 -2 13.5 4
-9 11 2 19.8 9.5
8 -11 -2 126.99 12.5
8 -11 -2 121.29 25.8
-8 11 2 88.09 22.2
-8 11 2 123.59 16
7 -11 -2 292.27 30.7
7 -11 -2 357.66 35.5
-7 11 2 266.07 25.6
-7 11 2 297.87 26.1
-7 11 2 310.07 33.9
6 -11 -2 160.58 16.7
6 -11 -2 147.29 36
-6 11 2 193.18 23.6
-6 11 2 133.69 16.6
-6 11 2 151.48 15.8
5 -11 -2 1148.09 71.49
5 -11 -2 1093.09 76.09
-5 11 2 1096.69 68.99
-5 11 2 1101.19 77.49
-5 11 2 906.81 72.39
4 -11 -2 17.3 5.7
4 -11 -2 14.4 7.1
-4 11 2 12.2 6.8
-4 11 2 12 6.5
-4 11 2 19.1 5.8
3 -11 -2 148.59 17.9
3 -11 -2 149.49 17.8
3 -11 -2 142.99 14.7
-3 11 2 141.69 14.8
-3 11 2 140.19 18.1
-3 11 2 139.69 18.1
2 -11 -2 168.08 19.7
2 -11 -2 172.28 19.4
2 -11 -2 186.68 16.8
-2 11 2 181.48 17.2
-2 11 2 157.58 20
-2 11 2 170.18 19.3
1 -11 -2 418.96 33.1
1 -11 -2 423.56 35.4
1 -11 -2 392.66 30
-1 11 2 356.56 34.3
-1 11 2 387.36 30
-1 11 2 375.46 33.5
0 -11 -2 993.9 71.59
0 -11 -2 962.8 66.89
0 -11 -2 1034.6 65.89
0 11 2 1032.5 66.09
0 11 2 991.2 66.69
0 11 2 1012.6 71.69
-1 -11 -2 1636.74 106.99
-1 -11 -2 1601.04 99.99
-1 -11 -2 1722.83 100.09
1 11 2 1529.45 97.99
1 11 2 1499.65 105.29
1 11 2 1582.44 100.39
-2 -11 -2 249.88 28.2
-2 -11 -2 264.37 23.6
-2 -11 -2 202.78 19.3
2 11 2 241.18 23.5
2 11 2 255.07 19.5
-3 -11 -2 53.09 11.6
-3 -11 -2 78.69 16.5
3 11 2 54.69 6.3
3 11 2 49.99 11.4
-4 -11 -2 111.59 17.8
-4 -11 -2 83.89 19
4 11 2 108.99 17.8
-5 -11 -2 496.15 45.1
-5 -11 -2 395.86 37
-6 -11 -2 464.35 41.3
-7 -11 -2 -4 6.6
-8 -11 -2 130.89 22.7
-12 12 2 -9.8 11.8
-11 12 2 186.78 35.1
10 -12 -2 79.59 7.6
-10 12 2 95.29 22.8
9 -12 -2 64.79 8.4
-9 12 2 34 12.8
8 -12 -2 725.83 49.3
-8 12 2 710.13 71.49
7 -12 -2 294.37 24.9
7 -12 -2 298.47 31.3
-7 12 2 214.28 42.2
-7 12 2 303.67 26.5
-7 12 2 312.77 34.6
6 -12 -2 1797.52 110.19
6 -12 -2 1758.52 117.39
-6 12 2 1743.93 120.29
-6 12 2 1559.44 110.89
-6 12 2 1974.7 121.69
5 -12 -2 160.38 18
5 -12 -2 165.78 20.8
-5 12 2 152.18 15.7
-5 12 2 126.79 17.2
-5 12 2 146.09 24.1
4 -12 -2 85.09 13.8
4 -12 -2 106.59 18.2
4 -12 -2 114.49 15
-4 12 2 116.99 20
-4 12 2 87.69 11.8
-4 12 2 71.39 14.8
3 -12 -2 656.63 45.4
3 -12 -2 673.93 50.89
3 -12 -2 646.54 49.7
-3 12 2 679.43 45.9
-3 12 2 667.43 51.49
-3 12 2 588.24 49.1
2 -12 -2 350.96 32.8
2 -12 -2 394.86 35.2
2 -12 -2 394.86 29.8
-2 12 2 376.66 29.6
-2 12 2 396.46 34.1
-2 12 2 382.96 34.9
1 -12 -2 364.36 33.4
1 -12 -2 367.46 28.3
1 -12 -2 319.97 29.9
-1 12 2 318.37 27.5
-1 12 2 332.67 30.4
-1 12 2 389.26 34.6
0 -12 -2 25.7 9
0 -12 -2 33.1 9.2
0 -12 -2 23.6 8
0 12 2 23 10.1
0 12 2 41.8 9
0 12 2 12.6 11.9
-1 -12 -2 -0.8 4.9
-1 -12 -2 -0.6 4.8
1 12 2 1.6 4.5
1 12 2 -3.6 3.2
-2 -12 -2 229.18 21.3
-2 -12 -2 272.87 25
-2 -12 -2 254.67 30.7
2 12 2 269.37 25.4
2 12 2 273.67 21.2
-3 -12 -2 424.26 34
-3 -12 -2 371.76 38.4
3 12 2 369.56 25.4
3 12 2 374.26 33.2
-4 -12 -2 620.84 54.69
-5 -12 -2 13.4 7.4
-6 -12 -2 154.68 24.4
-7 -12 -2 191.88 24.4
-8 -12 -2 14.8 10.1
-11 13 2 15 11.2
10 -13 -2 378.16 25.9
-10 13 2 382.46 43.5
-9 13 2 21.3 13.2
8 -13 -2 182.48 18.2
-8 13 2 159.38 27.9
7 -13 -2 150.18 18.5
-7 13 2 190.98 18.9
-7 13 2 176.08 29.1
6 -13 -2 318.27 35
6 -13 -2 375.86 31.8
-6 13 2 432.86 40.3
-6 13 2 295.07 31.1
-6 13 2 403.26 31
5 -13 -2 284.77 25.5
5 -13 -2 286.67 30.5
5 -13 -2 244.08 25.5
-5 13 2 285.57 30
-5 13 2 242.48 26.4
4 -13 -2 259.77 26.6
4 -13 -2 305.07 25
4 -13 -2 269.37 28.6
-4 13 2 300.37 24.6
-4 13 2 208.18 25.8
-4 13 2 290.07 30.6
3 -13 -2 754.52 49.6
3 -13 -2 629.14 52.49
3 -13 -2 686.03 54.09
-3 13 2 692.13 49
-3 13 2 725.53 55.39
-3 13 2 716.43 54.99
2 -13 -2 591.14 41.1
2 -13 -2 593.84 47.1
2 -13 -2 538.85 44.8
-2 13 2 538.25 46.3
-2 13 2 527.45 44.5
-2 13 2 553.84 41
1 -13 -2 62.29 12.6
1 -13 -2 52.19 13
1 -13 -2 73.89 12.5
-1 13 2 59.69 12.9
-1 13 2 66.89 15.2
-1 13 2 73.49 12.4
0 -13 -2 725.63 50.49
0 -13 -2 673.93 51.19
0 -13 -2 674.33 62.89
0 13 2 684.63 50.19
0 13 2 734.53 50.89
-1 -13 -2 171.68 24.6
-1 -13 -2 247.88 22.8
-1 -13 -2 238.08 22
1 13 2 160.08 19.6
1 13 2 217.28 19.9
-2 -13 -2 134.19 25
-2 -13 -2 193.68 19.5
-2 -13 -2 138.59 15.7
2 13 2 145.69 18.4
2 13 2 183.88 15.9
-3 -13 -2 13.5 7.6
-3 -13 -2 18.7 11.2
3 13 2 24 5.1
-4 -13 -2 33 11
-5 -13 -2 14.3 9.2
-6 -13 -2 121.59 21.2
-7 -13 -2 167.08 27.2
-11 14 2 85.09 23
-10 14 2 9.9 12
9 -14 -2 349.37 27.5
-9 14 2 267.37 37.6
8 -14 -2 386.76 30.3
-8 14 2 308.57 39.2
7 -14 -2 810.62 55.69
-7 14 2 721.53 63.79
6 -14 -2 13.8 18.5
6 -14 -2 29 8.8
-6 14 2 16.7 10.1
-6 14 2 20.4 7.6
5 -14 -2 455.25 35.8
5 -14 -2 437.36 40.8
5 -14 -2 449.76 37.4
-5 14 2 457.95 42.6
-5 14 2 346.07 36.2
-5 14 2 429.36 34.3
4 -14 -2 861.21 63.09
4 -14 -2 808.22 64.59
4 -14 -2 872.51 58.99
-4 14 2 868.51 66.39
-4 14 2 854.61 58.59
3 -14 -2 166.48 21.8
3 -14 -2 176.78 21.1
3 -14 -2 156.88 17.6
-3 14 2 140.39 22.6
-3 14 2 185.28 23.3
-3 14 2 130.39 22.5
2 -14 -2 -0.2 5.7
2 -14 -2 10.3 7.6
2 -14 -2 3.1 4
-2 14 2 3.9 5.7
-2 14 2 9.1 6.7
-2 14 2 6.7 6.4
1 -14 -2 -0.7 5.1
1 -14 -2 -10.9 5.4
1 -14 -2 -5.5 4
-1 14 2 -4.4 4.2
-1 14 2 3.9 4
0 -14 -2 356.76 29.7
0 -14 -2 317.77 30
0 -14 -2 352.16 35.9
0 14 2 330.67 29.6
0 14 2 328.97 30.2
-1 -14 -2 396.16 34.3
-1 -14 -2 462.05 35.2
-1 -14 -2 429.46 41.2
1 14 2 414.46 35.2
1 14 2 397.36 32.9
-2 -14 -2 24.1 8.4
-2 -14 -2 15.3 10.3
2 14 2 11.4 5.7
-3 -14 -2 27.5 9.4
3 14 2 31.8 5.9
-4 -14 -2 59.59 13.4
-5 -14 -2 -2.6 7
-6 -14 -2 334.57 34.6
-7 -14 -2 26.8 10.9
11 -15 -2 323.27 22.2
-11 15 2 394.56 45.2
10 -15 -2 160.38 16.5
-10 15 2 188.88 33.7
9 -15 -2 7.4 6.2
-9 15 2 -0.2 6.7
8 -15 -2 431.06 34.5
-8 15 2 395.26 44.7
7 -15 -2 134.59 17.9
-7 15 2 101.19 23.1
6 -15 -2 332.87 31.9
5 -15 -2 544.25 50.99
5 -15 -2 583.94 48.2
5 -15 -2 649.04 46.9
-5 15 2 590.94 45.2
-5 15 2 686.83 55.19
4 -15 -2 13.2 9.3
4 -15 -2 49.4 14.4
4 -15 -2 28.5 9
-4 15 2 9.3 9.5
-4 15 2 29.9 8.5
3 -15 -2 177.68 18.7
3 -15 -2 206.28 34.5
3 -15 -2 152.08 21.2
-3 15 2 121.19 16.5
-3 15 2 138.19 19.9
-3 15 2 157.38 21.5
2 -15 -2 11.1 6.3
2 -15 -2 3.5 7.1
2 -15 -2 8.6 9.3
-2 15 2 3.9 5.5
-2 15 2 1.4 5.9
1 -15 -2 1290.07 86.39
1 -15 -2 1263.77 82.39
1 -15 -2 1221.18 89.99
-1 15 2 1215.98 82.39
-1 15 2 1224.18 84.59
0 -15 -2 805.52 67.29
0 -15 -2 897.91 60.59
0 -15 -2 825.72 60.89
0 15 2 819.32 59.59
0 15 2 828.72 59.49
-1 -15 -2 33.8 10
-1 -15 -2 24.6 8.8
1 15 2 18.4 6.9
-2 -15 -2 1.9 4.8
-2 -15 -2 -3.4 4.4
2 15 2 0.3 4.2
-3 -15 -2 0.6 7.5
3 15 2 -0.9 2.5
-4 -15 -2 36.3 12.9
-5 -15 -2 74.59 16.3
-6 -15 -2 9.2 9
11 -16 -2 -8.3 9
-11 16 2 1 13.5
10 -16 -2 133.59 16
-10 16 2 112.99 28.2
9 -16 -2 72.29 13.4
-9 16 2 80.39 20.7
8 -16 -2 -1 7.1
-8 16 2 14 12.2
7 -16 -2 571.14 44.9
-7 16 2 540.85 53.39
6 -16 -2 104.69 30.3
-6 16 2 83.99 20.2
5 -16 -2 24.2 10.7
5 -16 -2 24.4 9.5
-5 16 2 18.2 12.6
4 -16 -2 279.87 30.7
4 -16 -2 333.77 28.9
4 -16 -2 264.67 31.2
-4 16 2 297.77 33.5
3 -16 -2 223.78 27.7
3 -16 -2 223.48 27.3
3 -16 -2 236.38 23.5
-3 16 2 207.28 38.2
-3 16 2 248.18 28.6
2 -16 -2 750.72 51.39
2 -16 -2 666.03 58.09
-2 16 2 630.34 53.49
1 -16 -2 -11.1 6.2
1 -16 -2 10.6 6.9
-1 16 2 -6.1 5.1
0 -16 -2 96.69 21.5
0 -16 -2 130.99 20.8
0 16 2 159.78 19.3
-1 -16 -2 97.29 16.3
-1 -16 -2 53.59 13.3
1 16 2 86.39 14.1
-2 -16 -2 130.79 20.3
-2 -16 -2 98.89 13.8
2 16 2 109.49 13.8
-3 -16 -2 83.69 17.1
3 16 2 87.89 9.6
-4 -16 -2 -1.2 5.9
-5 -16 -2 4.3 5.4
-6 -16 -2 173.78 28.3
10 -17 -2 60.79 12.6
-10 17 2 37.6 19.5
9 -17 -2 65.79 13.9
-9 17 2 111.19 25.5
8 -17 -2 261.17 31.6
-8 17 2 202.08 35.2
7 -17 -2 118.09 20.4
-7 17 2 134.19 26.9
6 -17 -2 117.39 20.2
-6 17 2 94.09 23.3
5 -17 -2 135.19 17.7
5 -17 -2 113.09 20.6
-5 17 2 145.59 27
4 -17 -2 415.86 41.1
4 -17 -2 407.06 36.1
-4 17 2 539.35 45.1
3 -17 -2 394.86 40.4
3 -17 -2 489.55 38.2
-3 17 2 430.96 41.6
2 -17 -2 4.1 6.4
2 -17 -2 10.7 9.3
-2 17 2 -1 6.4
1 -17 -2 658.13 62.29
1 -17 -2 746.63 52.99
-1 17 2 651.83 53.49
0 -17 -2 10.4 7.5
0 -17 -2 5.7 6.4
0 17 2 -4.9 6.3
-1 -17 -2 73.69 15.5
-1 -17 -2 50.99 12.9
1 17 2 59.09 12.2
-2 -17 -2 729.23 55.99
-2 -17 -2 643.24 50.99
2 17 2 777.12 49.99
-3 -17 -2 73.09 16.3
3 17 2 93.89 10.3
-4 -17 -2 230.48 26.9
-5 -17 -2 28.6 11.9
10 -18 -2 300.37 28.3
-10 18 2 266.27 44.4
9 -18 -2 96.19 18.2
-9 18 2 119.89 26.5
8 -18 -2 245.18 27.2
-8 18 2 179.58 33.4
7 -18 -2 120.89 20.4
-7 18 2 79.39 22.3
6 -18 -2 33.3 22.9
-6 18 2 38.3 15
5 -18 -2 42.3 12.1
-5 18 2 59.49 17.7
4 -18 -2 176.68 21.3
-4 18 2 232.98 29.5
3 -18 -2 58.29 14
-3 18 2 65.99 16.6
2 -18 -2 544.95 43.6
2 -18 -2 503.65 47.3
-2 18 2 533.45 47.4
1 -18 -2 241.48 28.2
1 -18 -2 262.17 27.6
-1 18 2 270.67 28.9
0 -18 -2 246.28 26.8
0 -18 -2 243.78 28.1
0 18 2 215.78 24.7
-1 -18 -2 241.98 27
-1 -18 -2 186.58 23.4
1 18 2 248.48 23.9
-2 -18 -2 53.89 14.8
-2 -18 -2 49.9 11.1
2 18 2 64.19 11
-3 -18 -2 150.48 26
3 18 2 228.58 17.8
-4 -18 -2 39.7 32.6
9 -19 -2 129.09 20.7
-9 19 2 86.09 25.3
-8 19 2 55.19 20.3
-7 19 2 118.89 25.9
6 -19 -2 304.67 30.5
-6 19 2 289.17 36.5
5 -19 -2 11 7.2
-5 19 2 1.3 10.9
4 -19 -2 38.8 10.4
-4 19 2 60.29 16.9
3 -19 -2 233.28 24.9
-3 19 2 228.28 28.4
2 -19 -2 559.04 45
-2 19 2 516.55 47.4
1 -19 -2 444.36 38.9
1 -19 -2 395.06 39.9
-1 19 2 397.96 38.5
0 -19 -2 3.7 8.5
0 -19 -2 23.2 11.2
0 19 2 -0.6 7.4
-1 -19 -2 356.06 35.2
-1 -19 -2 416.36 38.1
1 19 2 390.26 33.5
-2 -19 -2 19.2 10.9
-2 -19 -2 21.9 8.6
2 19 2 23.9 8
-3 -19 -2 34.9 19.2
3 19 2 16 5.3
-8 20 2 229.18 57.89
-7 20 2 40.1 16.1
6 -20 -2 127.89 22
-6 20 2 148.29 28.4
5 -20 -2 325.77 33.1
-5 20 2 318.57 38.8
4 -20 -2 13 7.3
-4 20 2 16 11.1
3 -20 -2 241.08 26
-3 20 2 186.68 26
2 -20 -2 212.88 25.7
-2 20 2 247.68 29.2
1 -20 -2 299.67 32.3
-1 20 2 316.17 32.5
0 -20 -2 285.97 31.1
0 -20 -2 295.07 32.4
0 20 2 283.97 30.4
-1 -20 -2 10.7 8.7
1 20 2 3.7 7.6
-2 -20 -2 70.59 15.2
-2 -20 -2 95.39 34
-8 21 2 -7.1 10.6
-7 21 2 507.95 56.59
6 -21 -2 26.8 11.1
-6 21 2 22.8 14.8
5 -21 -2 74.29 15.9
-5 21 2 80.29 19.4
4 -21 -2 211.58 25.2
-4 21 2 207.58 28.4
3 -21 -2 49.6 13.7
-3 21 2 61.59 16.7
2 -21 -2 364.46 33.6
-2 21 2 288.97 34.7
1 -21 -2 10.5 9.1
-1 21 2 12.3 10.1
0 -21 -2 17 9
0 21 2 31.5 10.8
-1 -21 -2 159.78 26.3
-1 -21 -2 203.28 25.8
1 21 2 181.38 21.6
6 -22 -2 61.59 18.3
-6 22 2 80.89 22.3
5 -22 -2 21 11.2
-5 22 2 13.1 11.6
4 -22 -2 172.98 25.5
-4 22 2 138.99 26.7
3 -22 -2 246.58 28
-3 22 2 198.38 32.7
2 -22 -2 88.19 19.5
-2 22 2 93.39 22
1 -22 -2 194.38 30.5
-1 22 2 224.98 29.6
0 22 2 -2.4 8.6
4 -23 -2 2.3 6.5
-4 23 2 -14.6 10.5
3 -23 -2 105.99 20.4
-3 23 2 68.59 19.9
0 23 -3 266.27 27.1
0 -23 3 234.78 28.4
-1 23 -3 1.5 9.7
1 -23 3 8.1 9.8
-2 23 -3 232.78 28.6
2 -23 3 149.59 36.6
-3 23 -3 113.69 24
3 -23 3 169.28 41.5
-4 23 -3 5.3 11.1
4 -23 3 -3.6 13.6
-5 23 -3 50.99 14.8
5 -23 3 38.2 14.4
-6 23 -3 14 14
1 22 -3 136.69 17.1
-1 -22 3 75.39 18.1
-1 -22 3 99.29 38.8
0 22 -3 12 8.8
0 -22 3 21.3 11.2
-1 22 -3 207.68 26.6
1 -22 3 179.28 23.1
-2 22 -3 19.3 11.7
2 -22 3 16 11.4
-3 22 -3 86.19 18.4
3 -22 3 43.1 13.5
-4 22 -3 79.89 20.8
4 -22 3 64.69 14.6
-5 22 -3 154.98 28.3
5 -22 3 116.99 22
-6 22 -3 31.4 13.1
-7 22 -3 -15.9 10.6
2 21 -3 1.7 5.2
-2 -21 3 -7.2 5.6
-2 -21 3 -1.3 11.7
1 21 -3 3 5.3
-1 -21 3 1.3 8.3
-1 -21 3 -10.5 10.4
0 21 -3 235.28 24.5
0 -21 3 164.98 26.7
-1 21 -3 -4.6 7.7
1 -21 3 -1.1 4.4
-2 21 -3 375.06 36.5
2 -21 3 317.07 32.6
-3 21 -3 -5.9 8.1
3 -21 3 14.8 7.4
-4 21 -3 130.09 24.5
4 -21 3 97.29 18.4
-5 21 -3 142.39 26.6
5 -21 3 113.69 21.3
-6 21 -3 182.88 32.7
-7 21 -3 49 18.7
-8 21 -3 -6.2 10.8
-3 -20 3 86.59 16.5
-3 -20 3 85.49 18.2
2 20 -3 31.9 8.4
-2 -20 3 51.19 13.8
-2 -20 3 40.1 12
1 20 -3 30.1 9.7
-1 -20 3 31.4 12.9
-1 -20 3 19 10.8
0 20 -3 -6.8 6.7
0 -20 3 -7.9 6.4
0 -20 3 -1.1 7.9
-1 20 -3 -0.9 6.5
1 -20 3 -0.1 6.1
-2 20 -3 28 12.8
2 -20 3 46.4 13.1
-3 20 -3 269.27 32.2
3 -20 3 262.67 27.9
-4 20 -3 219.48 29.6
4 -20 3 223.08 25.3
-5 20 -3 198.88 31.6
5 -20 3 139.09 22.6
-6 20 -3 284.17 35.3
-7 20 -3 95.59 23.4
-8 20 -3 128.39 28.6
8 -20 3 181.88 22.5
-9 20 -3 7.5 10.7
9 -20 3 0.7 14.2
-4 -19 3 162.38 25
-4 -19 3 119.99 13.8
-3 -19 3 34.9 10.8
-3 -19 3 50.39 15.2
2 19 -3 171.08 17.5
-2 -19 3 155.98 20.4
-2 -19 3 116.49 20.2
1 19 -3 15.8 7.8
-1 -19 3 13.3 7.9
-1 -19 3 22 10.5
0 19 -3 36.7 10.5
0 -19 3 24 13.3
0 -19 3 18.9 10.2
-1 19 -3 287.67 28.7
1 -19 3 268.17 30.9
1 -19 3 227.88 26.2
-2 19 -3 59.09 14
2 -19 3 23.1 9.1
-3 19 -3 2.3 8.9
3 -19 3 -4.7 4.9
-4 19 -3 303.57 32.9
4 -19 3 250.97 27.7
-5 19 -3 102.69 22.8
5 -19 3 71.79 16
-6 19 -3 192.08 31.7
6 -19 3 172.98 24
-7 19 -3 129.29 27
7 -19 3 164.78 25.5
-8 19 -3 10 9.9
8 -19 3 41.8 19.4
-9 19 -3 84.59 22.6
9 -19 3 70.49 16
-5 -18 3 76.89 17.5
-4 -18 3 32.8 12
-4 -18 3 28 7.9
-3 -18 3 118.49 20.8
-3 -18 3 107.19 16.8
2 18 -3 83.09 12.8
-2 -18 3 60.09 15.5
-2 -18 3 67.09 14.5
1 18 -3 105.59 14.3
-1 -18 3 108.99 19.1
-1 -18 3 95.39 19.9
0 18 -3 83.89 15.2
0 -18 3 59.19 14.6
0 -18 3 64.69 15.9
-1 18 -3 40.2 10.6
1 -18 3 61.29 15.6
1 -18 3 36.8 10.1
-2 18 -3 75.69 16.6
2 -18 3 48.5 12.7
2 -18 3 74.69 18.1
-3 18 -3 444.26 41
3 -18 3 412.76 36.5
-4 18 -3 78.69 19.2
4 -18 3 57.29 16.5
4 -18 3 71.89 14.3
-5 18 -3 227.98 29
5 -18 3 202.28 24.8
5 -18 3 247.08 29.1
-6 18 -3 243.18 30.7
6 -18 3 241.48 28.8
-7 18 -3 46.3 16.7
7 -18 3 57.09 14.7
-8 18 -3 311.57 38.3
8 -18 3 357.96 32.6
-9 18 -3 -0.7 8.4
9 -18 3 0.5 7.6
-10 18 -3 133.29 30.8
10 -18 3 178.18 18.7
-6 -17 3 -1.9 10.9
-5 -17 3 91.69 18.4
-4 -17 3 240.18 21.2
-4 -17 3 251.87 28
-3 -17 3 64.69 13.5
-3 -17 3 108.39 19.2
2 17 -3 266.17 22.5
-2 -17 3 249.97 26.4
-2 -17 3 239.78 26.9
1 17 -3 27.9 8.1
-1 -17 3 43 11
-1 -17 3 64.49 14.3
0 17 -3 17.6 8
0 -17 3 13.5 9.1
0 -17 3 21.4 12.2
-1 17 -3 609.44 46.2
1 -17 3 489.55 43.7
1 -17 3 665.83 58.99
-2 17 -3 38.4 11.2
2 -17 3 37.9 12.3
2 -17 3 33.6 13.1
2 -17 3 26.7 9.4
-3 17 -3 55.59 14
3 -17 3 81.59 18
3 -17 3 52.59 11.8
3 -17 3 61.79 16.3
-4 17 -3 44.5 14
4 -17 3 40.6 13.4
4 -17 3 99.49 26
-5 17 -3 236.28 28.9
5 -17 3 171.78 46.2
5 -17 3 217.18 24
-6 17 -3 555.94 50.19
6 -17 3 537.95 45.5
-7 17 -3 222.88 29.2
7 -17 3 250.47 26.2
-8 17 -3 65.79 18.7
8 -17 3 87.69 14.6
-9 17 -3 106.19 24.6
9 -17 3 123.79 15.4
-10 17 -3 -13.7 11.6
10 -17 3 10.1 5.9
-6 -16 3 49.5 14.1
-5 -16 3 182.98 24.2
-4 -16 3 2.6 5.1
-4 -16 3 -1.3 7.3
-3 -16 3 556.34 43.2
-3 -16 3 467.95 38.5
2 16 -3 65.69 10.6
-2 -16 3 48.3 12
-2 -16 3 53.59 12.2
1 16 -3 81.79 13.4
-1 -16 3 61.89 13.4
-1 -16 3 92.19 16.8
0 16 -3 782.62 56.89
0 16 -3 782.52 56.29
0 -16 3 790.02 60.39
0 -16 3 822.82 57.79
0 -16 3 775.02 74.19
-1 16 -3 326.67 28.4
-1 16 -3 298.17 29.6
1 -16 3 295.27 34.7
1 -16 3 303.87 32.3
1 -16 3 344.27 29.8
-2 16 -3 29.7 8.7
-2 16 -3 18.4 9.3
2 -16 3 29.2 9.2
2 -16 3 22.1 13.2
2 -16 3 41.7 13.7
-3 16 -3 110.79 19.9
-3 16 -3 76.89 13.7
3 -16 3 69.09 13.7
3 -16 3 61.99 16
3 -16 3 90.49 18.7
-4 16 -3 258.27 29.7
-4 16 -3 261.27 26.8
4 -16 3 276.27 31.7
4 -16 3 279.37 29.7
4 -16 3 315.57 27.9
-5 16 -3 442.26 41.5
5 -16 3 407.76 38
-6 16 -3 122.19 23.6
6 -16 3 110.99 19.4
-7 16 -3 346.87 38.5
7 -16 3 379.26 32.7
-8 16 -3 3.4 7.2
8 -16 3 1.4 5.9
-9 16 -3 85.99 22.4
9 -16 3 112.59 14.3
-10 16 -3 151.48 31.2
10 -16 3 148.59 11.4
10 -16 3 130.19 11.3
-11 16 -3 34.5 25.5
-7 -15 3 66.39 18.9
-6 -15 3 14.7 10.1
-5 -15 3 78.59 17
-4 -15 3 163.98 21.4
-4 -15 3 157.28 15.5
-3 -15 3 16.1 6.8
-3 -15 3 28.2 7.8
2 15 -3 38 8.5
-2 -15 3 22.1 9.2
-2 -15 3 48.5 11.3
1 15 -3 6.8 4.6
1 15 -3 8.6 5.1
-1 -15 3 4.6 6
-1 -15 3 7.7 8.2
-1 -15 3 2.9 5.6
0 15 -3 1006.4 67.59
0 15 -3 954.9 67.19
0 -15 3 1028.8 77.29
0 -15 3 1001.3 71.09
0 -15 3 989.3 68.09
-1 15 -3 801.02 57.99
-1 15 -3 792.42 59.79
1 -15 3 872.71 63.89
1 -15 3 896.11 59.69
1 -15 3 893.01 67.09
-2 15 -3 103.79 13.7
-2 15 -3 116.59 16.2
2 -15 3 97.39 19.8
2 -15 3 119.39 15.7
2 -15 3 103.99 20.9
-3 15 -3 1268.47 83.69
-3 15 -3 1335.17 89.49
3 -15 3 1355.76 90.59
3 -15 3 1139.19 112.99
3 -15 3 1296.87 84.39
-4 15 -3 364.26 31.4
-4 15 -3 400.56 37.1
4 -15 3 354.26 34.5
4 -15 3 375.16 37.9
4 -15 3 411.16 33.3
-5 15 -3 49.2 11.4
-5 15 -3 56.19 15.3
5 -15 3 55.09 13.3
5 -15 3 35.5 14.4
-6 15 -3 4.6 8.4
6 -15 3 -2.3 6.5
-7 15 -3 27.7 12
7 -15 3 62.59 12.3
-8 15 -3 206.18 29
8 -15 3 254.87 22.5
-9 15 -3 73.39 19.8
9 -15 3 92.19 10.8
-10 15 -3 1.5 7.6
-11 15 -3 38.2 13.3
-7 -14 3 -1.1 4.7
-6 -14 3 227.18 26.8
-5 -14 3 4.4 5.1
-4 -14 3 125.49 13.2
-4 -14 3 132.79 17.5
3 14 -3 13 8.7
-3 -14 3 2.4 4.3
-3 -14 3 12.5 5.7
2 14 -3 49.6 10.7
2 14 -3 32.9 7.3
-2 -14 3 37.4 14.4
-2 -14 3 20.3 7.8
-2 -14 3 31 9.5
1 14 -3 952.9 62.19
1 14 -3 874.71 63.79
-1 -14 3 958.4 66.59
-1 -14 3 1022.5 65.89
-1 -14 3 933.91 73.29
0 14 -3 44.2 9.9
0 14 -3 38 9.6
0 -14 3 47.8 12
0 -14 3 -5.9 23.2
0 -14 3 45.9 10.4
-1 14 -3 490.65 40.4
-1 14 -3 506.15 38.6
1 -14 3 545.15 39.6
1 -14 3 510.95 43.3
1 -14 3 550.64 46.2
-2 14 -3 385.26 30.9
-2 14 -3 398.76 34
2 -14 3 376.46 36
2 -14 3 405.76 31.9
2 -14 3 357.66 35.1
-3 14 -3 74.39 15.3
-3 14 -3 70.09 12
3 -14 3 74.39 13.2
3 -14 3 74.09 15.4
3 -14 3 68.49 16.3
-4 14 -3 465.85 40.5
-4 14 -3 444.66 34.9
4 -14 3 451.85 38.4
4 -14 3 466.45 36.7
4 -14 3 408.16 66.29
-5 14 -3 94.59 18.7
-5 14 -3 105.39 13.5
5 -14 3 105.79 17
5 -14 3 98.99 19.3
-6 14 -3 669.23 48.8
-6 14 -3 740.63 57.29
6 -14 3 691.13 49.9
6 -14 3 608.54 55.39
-7 14 -3 750.52 90.99
7 -14 3 885.21 58.49
-8 14 -3 100.59 22
8 -14 3 135.89 14.5
-9 14 -3 174.68 30.3
9 -14 3 191.58 15
-10 14 -3 1.3 9.3
-11 14 -3 74.59 21.9
-8 -13 3 54.69 14.9
-7 -13 3 86.99 18.3
-6 -13 3 21.1 9.3
-5 -13 3 508.35 42.5
-4 -13 3 86.79 10.3
-4 -13 3 98.39 16.6
-4 -13 3 94.09 22.9
3 13 -3 32.1 9.9
-3 -13 3 21.4 7.1
-3 -13 3 31.1 13
-3 -13 3 27.5 9.5
2 13 -3 204.98 38
2 13 -3 196.58 17.4
-2 -13 3 212.48 20.8
-2 -13 3 205.28 26.4
-2 -13 3 212.88 21.2
1 13 -3 216.78 21.8
-1 -13 3 242.08 28.1
-1 -13 3 234.48 22.2
-1 -13 3 237.08 23.1
0 13 -3 1509.35 94.19
0 13 -3 1382.46 93.09
0 -13 3 1581.94 102.89
0 -13 3 1477.95 96.99
0 -13 3 1517.35 94.29
-1 13 -3 1.3 3.4
-1 13 -3 7.3 4.7
1 -13 3 7.3 6.2
1 -13 3 1.4 3.7
1 -13 3 4 4.9
-2 13 -3 418.36 33.5
-2 13 -3 478.65 38.1
2 -13 3 474.35 39.7
2 -13 3 430.96 38.2
2 -13 3 465.45 34.8
-3 13 -3 820.52 54.09
-3 13 -3 836.92 59.09
3 -13 3 760.42 57.89
3 -13 3 780.02 54.09
3 -13 3 756.22 59.59
-4 13 -3 833.02 59.79
-4 13 -3 788.12 52.89
4 -13 3 681.03 58.39
4 -13 3 756.82 55.79
4 -13 3 774.82 53.89
-5 13 -3 697.93 50.49
-5 13 -3 738.33 56.39
5 -13 3 655.13 57.79
5 -13 3 722.23 51.19
-6 13 -3 175.08 18.7
-6 13 -3 178.68 24.1
6 -13 3 166.08 23.3
6 -13 3 169.08 18.5
7 -13 3 16.2 10.6
7 -13 3 10.1 6.4
-8 13 -3 266.07 32.9
8 -13 3 275.87 21.2
-9 13 -3 7.9 9.4
9 -13 3 6.5 4.7
9 -13 3 6.5 1.7
-10 13 -3 276.17 35.6
-11 13 -3 167.38 30.1
-8 -12 3 15 10.5
-7 -12 3 91.79 18.2
-6 -12 3 100.29 18.6
-5 -12 3 393.76 38.4
-5 -12 3 264.57 27.7
-4 -12 3 156.48 19.4
-4 -12 3 225.48 27.9
-4 -12 3 159.18 14.8
3 12 -3 6.9 13.3
-3 -12 3 8.8 10.5
-3 -12 3 13.3 5.2
-3 -12 3 26.5 8.4
2 12 -3 203.58 17.3
2 12 -3 200.28 20.5
-2 -12 3 251.97 27.6
-2 -12 3 218.68 20.5
-2 -12 3 202.58 20.3
1 12 -3 584.64 43
1 12 -3 596.44 44.7
-1 -12 3 679.83 47
-1 -12 3 659.53 45.6
-1 -12 3 697.73 53.29
0 12 -3 9.4 5.7
0 12 -3 17.2 5.4
0 -12 3 32.1 10.5
0 -12 3 4.5 5.8
0 -12 3 18.4 6.6
-1 12 -3 335.27 27.5
-1 12 -3 362.46 30.2
1 -12 3 366.06 33.2
1 -12 3 391.56 28.9
1 -12 3 342.67 31.2
-2 12 -3 715.83 52.99
-2 12 -3 720.83 49.6
2 -12 3 731.73 54.99
2 -12 3 738.43 49.9
2 -12 3 771.12 55.19
-3 12 -3 2 3.5
-3 12 -3 8.7 5.7
3 -12 3 10.2 6.2
3 -12 3 -0.8 4.6
3 -12 3 4.3 4.5
-4 12 -3 3220.28 193.28
-4 12 -3 3339.97 199.98
4 -12 3 3370.66 195.08
4 -12 3 3163.38 200.68
4 -12 3 3258.17 196.38
-5 12 -3 117.99 19.5
-5 12 -3 99.69 13.3
5 -12 3 102.89 18.9
5 -12 3 94.29 15
-6 12 -3 2131.09 137.49
-6 12 -3 2204.28 130.49
6 -12 3 2013.2 137.19
6 -12 3 2119.29 129.79
-7 12 -3 13.1 6.8
-7 12 -3 8.6 8.1
7 -12 3 6.9 4.5
7 -12 3 7.9 8.6
-8 12 -3 119.69 23.7
8 -12 3 116.69 10.7
-9 12 -3 209.78 28.9
-10 12 -3 20 11.4
-11 12 -3 11.7 12
-9 -11 3 6.5 9.6
-8 -11 3 13.3 8.5
-7 -11 3 33.1 10.3
-6 -11 3 445.76 42.9
-6 -11 3 319.57 32.7
5 11 -3 219.68 22.9
-5 -11 3 226.58 28.9
-5 -11 3 190.78 22
4 11 -3 388.96 31.5
-4 -11 3 343.97 30.4
-4 -11 3 425.76 56.49
-4 -11 3 336.67 25.4
3 11 -3 181.58 18.2
-3 -11 3 187.98 23.8
-3 -11 3 142.09 14.9
-3 -11 3 180.18 18.3
2 11 -3 152.18 13.6
2 11 -3 131.79 15.8
-2 -11 3 160.88 16
-2 -11 3 161.58 16.5
-2 -11 3 155.18 21.3
1 11 -3 903.31 63.39
1 11 -3 908.71 61.89
-1 -11 3 1118.79 65.49
-1 -11 3 1004.9 65.69
-1 -11 3 1011.1 71.39
0 11 -3 11.7 4.9
0 11 -3 10.4 4.8
0 -11 3 10 5.6
0 -11 3 12.1 5.4
0 -11 3 14.2 6.4
-1 11 -3 400.76 30.2
-1 11 -3 393.86 32.1
1 -11 3 422.56 35.8
1 -11 3 435.76 34.5
1 -11 3 397.06 30.4
-2 11 -3 1264.97 82.99
-2 11 -3 1317.97 86.89
2 -11 3 1414.36 84.19
2 -11 3 1369.26 89.09
2 -11 3 1356.16 88.59
-3 11 -3 1357.66 86.79
-3 11 -3 1441.66 92.29
3 -11 3 1494.95 88.29
3 -11 3 1435.86 90.99
3 -11 3 1279.57 91.89
-4 11 -3 790.62 51.39
-4 11 -3 781.62 56.69
4 -11 3 730.23 56.49
4 -11 3 743.13 52.79
-5 11 -3 875.61 58.19
-5 11 -3 944.11 65.09
5 -11 3 898.11 65.29
5 -11 3 810.62 57.59
-6 11 -3 43.1 15.5
-6 11 -3 45.2 12.3
6 -11 3 30.9 10.8
6 -11 3 35.8 7.7
-7 11 -3 3075.19 192.88
-7 11 -3 3188.78 186.08
7 -11 3 3055.19 192.38
7 -11 3 3031.5 179.28
-8 11 -3 87.59 20.9
8 -11 3 106.89 8.3
8 -11 3 120.59 21.4
8 -11 3 115.19 8.1
-9 11 -3 78.09 32.5
-10 11 -3 9.6 10
-11 11 -3 42.3 17.2
-12 11 -3 247.58 37.8
-9 -10 3 65.89 15.7
-8 -10 3 80.39 18.1
-7 -10 3 88.09 17.8
-7 -10 3 179.48 27.7
-6 -10 3 -7.3 7.9
-6 -10 3 0.5 6.2
5 10 -3 624.44 50.59
-5 -10 3 860.61 60.29
-5 -10 3 659.03 51.09
4 10 -3 394.36 31
-4 -10 3 348.47 30.3
-4 -10 3 322.57 24.9
-4 -10 3 451.95 38.5
3 10 -3 18.3 6.8
-3 -10 3 15 5.9
-3 -10 3 19.5 5.4
-3 -10 3 18.7 8.6
2 10 -3 281.27 25
2 10 -3 305.07 22.3
-2 -10 3 322.77 25.9
-2 -10 3 333.87 25.5
-2 -10 3 326.87 31.1
1 10 -3 32.8 7
1 10 -3 28.9 6.4
-1 -10 3 25.4 6.7
-1 -10 3 31.9 9.9
-1 -10 3 33.2 7.6
0 10 -3 631.94 44.7
0 10 -3 654.43 44.2
0 -10 3 708.53 45.1
0 -10 3 680.33 50.39
0 -10 3 646.74 51.79
-1 10 -3 2293.67 141.99
-1 10 -3 2400.46 144.79
1 -10 3 2451.65 148.39
1 -10 3 2396.96 142.39
1 -10 3 2474.35 146.99
-2 10 -3 465.05 35.8
-2 10 -3 468.85 32.8
2 -10 3 443.06 32.5
2 -10 3 474.75 36.6
2 -10 3 439.36 36.4
-3 10 -3 43 8.2
-3 10 -3 39.6 9.7
3 -10 3 41 16.2
3 -10 3 42.2 8.6
3 -10 3 35.7 10.2
-4 10 -3 3005.3 173.98
-4 10 -3 2953.5 179.48
4 -10 3 2911.21 175.08
4 -10 3 2918.31 180.28
-5 10 -3 756.92 56.89
-5 10 -3 772.52 51.59
5 -10 3 747.23 50.49
5 -10 3 798.42 58.29
-6 10 -3 130.99 15.1
-6 10 -3 170.18 21
6 -10 3 134.69 13.2
6 -10 3 141.69 19
-7 10 -3 -2.1 6.5
-7 10 -3 1 6.3
7 -10 3 2.1 2.8
7 -10 3 12.1 12.4
-8 10 -3 471.85 44.7
8 -10 3 565.64 46.5
-9 10 -3 -10.2 7.2
9 -10 3 26.9 12.8
-10 10 -3 49.9 16.3
-11 10 -3 33.6 16
-12 10 -3 -9.5 10.1
-10 -9 3 8.7 29.2
-9 -9 3 76.89 15.5
-8 -9 3 25.4 10.8
-8 -9 3 16.6 12.3
-7 -9 3 6.7 10.2
-7 -9 3 17.1 8.2
6 9 -3 712.63 51.69
-6 -9 3 727.63 57.29
-6 -9 3 614.24 50.19
5 9 -3 34 10.1
-5 -9 3 28.9 8.2
-5 -9 3 30.7 11.9
-5 -9 3 27.3 3.1
-5 -9 3 21 3
4 9 -3 112.39 13.7
-4 -9 3 142.49 15.9
-4 -9 3 140.89 22.2
-4 -9 3 99.09 10.2
3 9 -3 609.14 42.8
-3 -9 3 637.24 43.1
-3 -9 3 655.83 49.1
-3 -9 3 536.25 39.2
2 9 -3 172.48 13.8
2 9 -3 166.98 16.4
-2 -9 3 148.29 19.7
-2 -9 3 178.08 15.9
-2 -9 3 185.48 17.2
1 9 -3 80.99 9.6
1 9 -3 65.79 8.6
-1 -9 3 98.09 15.2
-1 -9 3 85.59 10.5
-1 -9 3 62.79 13.8
0 9 -3 193.18 16.7
0 9 -3 176.98 15.6
0 -9 3 187.68 20.3
0 -9 3 160.28 15.6
0 -9 3 196.58 18.3
-1 9 -3 904.41 58.39
-1 9 -3 870.81 55.89
1 -9 3 880.51 60.59
1 -9 3 874.81 55.99
-2 9 -3 10.2 4
-2 9 -3 18.4 6.8
2 -9 3 4.9 5.3
2 -9 3 17.2 4.9
2 -9 3 9.9 4.9
-3 9 -3 276.47 24.1
-3 9 -3 237.78 20
3 -9 3 269.87 21.4
3 -9 3 232.08 21.5
3 -9 3 243.18 23.7
-4 9 -3 760.32 49.6
-4 9 -3 737.23 53.99
4 -9 3 765.82 50.19
4 -9 3 743.83 54.59
-5 9 -3 622.44 46.1
-5 9 -3 553.24 40.3
5 -9 3 562.34 38.7
5 -9 3 599.74 45.9
-6 9 -3 67.39 11.7
-6 9 -3 93.89 16.6
6 -9 3 46 13.1
6 -9 3 70.49 7.8
-7 9 -3 1165.38 73.99
-7 9 -3 1144.69 78.89
7 -9 3 1069.59 63.09
7 -9 3 1085.09 77.49
7 -9 3 1074.19 63.29
-8 9 -3 143.99 23.7
8 -9 3 155.18 20.7
-9 9 -3 724.83 59.69
9 -9 3 735.13 58.19
-10 9 -3 13.9 11
-11 9 -3 59.79 19
-12 9 -3 49.5 15.7
-10 -8 3 136.59 24.4
-10 -8 3 209.58 31.8
-9 -8 3 31.7 16.1
-9 -8 3 18.8 9.4
-8 -8 3 158.58 27.3
-8 -8 3 102.69 20.4
-7 -8 3 188.28 24.9
-7 -8 3 126.09 21.4
6 8 -3 151.48 18.5
-6 -8 3 214.38 24.4
-6 -8 3 156.88 19.8
5 8 -3 544.65 38.9
-5 -8 3 482.55 30.2
-5 -8 3 511.45 38.7
-5 -8 3 472.05 30.1
4 8 -3 664.13 46.8
-4 -8 3 716.23 47.9
-4 -8 3 565.64 41.1
-4 -8 3 815.92 54.49
3 8 -3 321.07 26.3
-3 -8 3 316.17 23.9
-3 -8 3 375.76 27.5
-3 -8 3 365.46 32.1
2 8 -3 354.76 23.8
2 8 -3 320.67 26.2
-2 -8 3 332.67 34.1
-2 -8 3 383.86 26.2
1 8 -3 14.1 3.8
1 8 -3 10.3 3.6
-1 -8 3 3.9 4.1
-1 -8 3 6.6 4.3
0 8 -3 850.01 55.39
0 8 -3 836.92 54.39
0 -8 3 907.41 55.19
0 -8 3 894.31 57.19
-1 8 -3 50.49 8.1
-1 8 -3 56.19 9.7
1 -8 3 78.79 8.5
1 -8 3 79.39 12.3
-2 8 -3 10.5 4.8
-2 8 -3 27.1 7
2 -8 3 14.3 4.2
2 -8 3 17.8 8.3
2 -8 3 14 5.2
-3 8 -3 671.93 45.6
3 -8 3 697.43 50.29
3 -8 3 756.42 48
-4 8 -3 43.6 10.1
-4 8 -3 37.3 7.4
4 -8 3 39.9 10
4 -8 3 46.3 7.7
-5 8 -3 940.61 59.59
-5 8 -3 955.6 64.19
5 -8 3 868.21 63.19
5 -8 3 877.31 55.99
-6 8 -3 407.36 34.2
6 -8 3 360.76 23.8
6 -8 3 365.86 33.1
-7 8 -3 211.08 24.4
7 -8 3 229.28 24.2
-8 8 -3 159.88 21.6
8 -8 3 225.08 24.6
-9 8 -3 43.1 14.4
9 -8 3 38.4 11.9
-10 8 -3 534.65 49.1
10 -8 3 577.04 48.3
-11 8 -3 9.3 16.5
-12 8 -3 65.19 17.4
-10 -7 3 52.69 14.5
-10 -7 3 -1.5 13.3
-9 -7 3 155.28 40.5
-9 -7 3 56.09 15.1
-8 -7 3 368.96 35.7
-8 -7 3 291.17 30.9
-7 -7 3 644.04 49.7
-7 -7 3 516.65 45
6 7 -3 1076.59 81.49
-6 -7 3 1329.17 83.09
-6 -7 3 1065.79 76.79
5 7 -3 289.57 24.8
-5 -7 3 360.96 30.5
-5 -7 3 269.57 25.2
-5 -7 3 269.57 18.6
-5 -7 3 260.47 18.2
4 7 -3 909.41 61.29
-4 -7 3 855.71 56.19
-4 -7 3 1092.49 63.29
3 7 -3 296.57 26.3
-3 -7 3 389.56 24.9
-3 -7 3 381.46 27.9
2 7 -3 10.8 4.4
-2 -7 3 16.8 5
-2 -7 3 8.8 3.6
1 7 -3 367.96 25.5
1 7 -3 351.76 26.1
-1 -7 3 386.46 27.2
-1 -7 3 411.36 27.1
0 7 -3 1292.87 81.09
0 7 -3 1321.47 82.19
0 -7 3 1364.56 83.69
0 -7 3 1459.35 81.89
-1 7 -3 15.4 4.9
-1 7 -3 5 2.7
1 -7 3 8.4 4.1
1 -7 3 4.6 2.7
-2 7 -3 862.11 56.29
-2 7 -3 842.22 52.89
2 -7 3 834.62 56.59
2 -7 3 871.91 53.59
-3 7 -3 141.49 13.5
-3 7 -3 172.28 16.6
3 -7 3 127.49 15.4
3 -7 3 141.49 13.5
-4 7 -3 2232.98 132.29
-4 7 -3 2225.88 141.89
4 -7 3 2251.17 136.69
4 -7 3 2194.98 130.39
-5 7 -3 99.59 16
5 -7 3 107.29 13.9
5 -7 3 88.19 8.5
-6 7 -3 1006.3 68.69
6 -7 3 965.2 68.09
-7 7 -3 -2.3 3.6
7 -7 3 3.7 5.7
-8 7 -3 282.77 29.1
8 -7 3 266.57 27.9
-9 7 -3 202.78 25.3
9 -7 3 225.08 29.5
-10 7 -3 6.6 10.6
10 -7 3 20.9 11.4
-11 7 -3 85.29 19.1
11 -7 3 114.09 37.1
-12 7 -3 -3.1 7.2
-12 7 -3 -0.1 7.9
-10 -6 3 33.6 10.9
-10 -6 3 23.8 11.2
-10 -6 3 10.3 6.5
-9 -6 3 -3.3 7.2
-9 -6 3 -14.1 8.2
-8 -6 3 99.59 30.5
-8 -6 3 113.49 21.5
-7 -6 3 414.46 38.8
-7 -6 3 584.54 44.2
6 6 -3 465.55 35
-6 -6 3 446.86 34.7
-6 -6 3 386.26 25.4
-6 -6 3 410.76 26.4
5 6 -3 993.2 62.29
-5 -6 3 900.21 55.89
-5 -6 3 831.42 54.49
-5 -6 3 1052.59 63.49
4 6 -3 16.4 6
-4 -6 3 21.8 3.9
-4 -6 3 27.8 7.1
3 6 -3 398.76 29.9
-3 -6 3 421.46 27.2
-3 -6 3 436.86 30.6
2 6 -3 4.9 3.4
-2 -6 3 6.1 2.8
-2 -6 3 4.3 2.9
1 6 -3 165.08 14.2
1 6 -3 176.98 13.8
-1 -6 3 194.38 15.1
-1 -6 3 200.68 15
0 6 -3 252.97 19
0 6 -3 238.68 18
0 -6 3 270.07 18.5
0 -6 3 259.67 20
-1 6 -3 6.2 2.7
-1 6 -3 11.4 4
1 -6 3 8.4 3.8
1 -6 3 4.6 2.3
-2 6 -3 1823.92 108.79
-2 6 -3 1849.02 111.89
2 -6 3 1913.21 109.59
2 -6 3 1829.22 112.29
-3 6 -3 35 8.2
-3 6 -3 35.5 6.3
3 -6 3 36 8.5
-4 6 -3 1011.7 65.19
4 -6 3 959.2 64.89
4 -6 3 969.1 58.99
-5 6 -3 352.06 36.4
5 -6 3 425.96 24.8
5 -6 3 410.16 32.6
5 -6 3 388.96 24
-6 6 -3 -4 3.9
6 -6 3 2.2 3.3
-7 6 -3 311.77 30.6
7 -6 3 383.66 31.7
-8 6 -3 293.07 28.8
8 -6 3 277.37 27.7
-9 6 -3 366.66 33.8
9 -6 3 325.27 31.8
-10 6 -3 162.38 21.8
10 -6 3 126.09 21.5
-11 6 -3 10.2 10.2
-11 6 -3 34.4 11
11 -6 3 -1.7 9.6
-12 6 -3 73.89 15.4
-12 6 -3 52.29 17.5
-11 -5 3 -3.7 6.6
-11 -5 3 -6 10.9
-11 -5 3 1 6.1
-10 -5 3 -1.3 6.1
-10 -5 3 -4 7.2
-10 -5 3 20.4 9.4
-9 -5 3 109.79 19.6
-9 -5 3 82.89 17
-8 -5 3 135.39 9.8
-8 -5 3 141.29 10.8
-8 -5 3 143.19 18.6
-8 -5 3 195.68 21.9
-7 -5 3 161.48 19.8
-7 -5 3 259.37 24.6
-7 -5 3 184.38 14.7
-6 -5 3 545.05 39.8
-6 -5 3 484.45 33
5 5 -3 1256.27 75.09
-5 -5 3 1188.68 74.99
-5 -5 3 1056.79 69.39
4 5 -3 10.7 4.3
-4 -5 3 15.9 3.1
-4 -5 3 7.6 2.8
3 5 -3 589.44 39
-3 -5 3 569.04 38.9
-3 -5 3 576.64 35.5
2 5 -3 51.89 7.6
-2 -5 3 50.89 6.4
-2 -5 3 57.19 5.9
1 5 -3 733.73 45.2
1 5 -3 709.23 44.5
-1 -5 3 737.93 45.4
-1 -5 3 755.12 45.4
0 5 -3 169.88 12.7
0 5 -3 164.08 13.4
0 -5 3 163.78 13.9
0 -5 3 184.78 13
-1 5 -3 6597.44 374.56
-1 5 -3 6506.65 376.66
1 -5 3 6693.43 377.46
-2 5 -3 3240.68 190.48
-2 5 -3 3439.26 193.68
2 -5 3 3265.87 193.78
-3 5 -3 1196.28 72.29
3 -5 3 1080.89 71.79
-4 5 -3 335.67 26
4 -5 3 311.97 25.7
4 -5 3 316.47 20
4 -5 3 288.67 19.1
-5 5 -3 410.26 32
5 -5 3 388.06 31.6
-6 5 -3 463.35 37.4
6 -5 3 498.45 38
-7 5 -3 -1.2 4.2
7 -5 3 2.7 4.4
-8 5 -3 66.29 13.8
8 -5 3 63.29 13.2
-9 5 -3 389.86 34.7
9 -5 3 366.66 33.2
-10 5 -3 88.19 16.4
-10 5 -3 67.09 15.5
10 -5 3 78.59 15.5
-11 5 -3 104.79 20.8
-11 5 -3 161.38 20.7
11 -5 3 144.99 19.9
-12 5 -3 -6.5 7.9
-12 5 -3 19.9 10.1
12 -5 3 20.1 12.8
-11 -4 3 9.1 7.6
-11 -4 3 22.8 7.5
-11 -4 3 0.4 10.2
-10 -4 3 21.9 10.4
-10 -4 3 1.9 1.8
-10 -4 3 -10.9 4.4
-10 -4 3 3.8 7.5
-9 -4 3 4.6 3.3
-9 -4 3 8.7 6.5
-9 -4 3 6.1 6.7
-9 -4 3 7.7 5.4
-8 -4 3 0.4 6
-8 -4 3 -0.6 3.4
-8 -4 3 -2.6 5.3
-7 -4 3 5.3 6.6
-7 -4 3 10.4 5.9
-7 -4 3 1.5 3.5
-6 -4 3 1200.38 76.19
-6 -4 3 1310.87 81.59
5 4 -3 197.98 18.3
-5 -4 3 189.08 15.6
-5 -4 3 191.38 18.6
4 4 -3 839.22 50.89
-4 -4 3 822.62 51.09
-4 -4 3 681.93 47.3
3 4 -3 2100.69 125.19
-3 -4 3 2144.39 125.29
2 4 -3 -0.2 1.6
-2 -4 3 0.9 1.8
-2 -4 3 2.2 1.4
1 4 -3 5207.68 309.57
-1 -4 3 5329.67 309.67
-1 -4 3 5810.82 309.97
-1 4 -3 50.49 6.5
-1 4 -3 50.39 5.3
1 -4 3 58.09 5.7
1 -4 3 62.69 7.2
-2 4 -3 824.12 52.39
2 -4 3 829.72 52.69
-3 4 -3 2029.1 114.89
3 -4 3 1932.71 114.79
3 -4 3 1784.22 109.19
-4 4 -3 344.77 26.2
4 -4 3 318.97 25.9
4 -4 3 328.27 19.8
-5 4 -3 473.85 34.5
5 -4 3 421.36 34.7
-6 4 -3 283.67 25.9
6 -4 3 321.07 26.5
-7 4 -3 296.17 27.3
7 -4 3 330.07 27.9
-8 4 -3 -6.8 4.4
-9 4 -3 72.09 14
-9 4 -3 61.49 14.5
9 -4 3 81.99 15.3
-10 4 -3 11.5 8.4
-10 4 -3 15.2 9.6
10 -4 3 37.5 9.5
-11 4 -3 4.9 6.4
-11 4 -3 0.2 7.6
11 -4 3 4.5 8.8
-12 4 -3 42.6 11.5
-12 4 -3 37.4 12.7
12 -4 3 22.3 15.8
-11 -3 3 23.9 4.8
-11 -3 3 27.7 10.9
-11 -3 3 27.6 11.1
-10 -3 3 282.47 29.4
-10 -3 3 254.57 20.2
-10 -3 3 241.08 24.9
-10 -3 3 220.68 22
-9 -3 3 36.2 9.5
-9 -3 3 21.2 6.6
-9 -3 3 23.1 9.8
-9 -3 3 19.1 7.6
-8 -3 3 183.38 21.6
-8 -3 3 182.08 19.3
-8 -3 3 234.08 19.1
-8 -3 3 217.98 23.1
-7 -3 3 178.98 16.4
-7 -3 3 191.78 19.5
-7 -3 3 128.39 16.9
-6 -3 3 184.68 17.3
-6 -3 3 221.88 20.2
-5 -3 3 3100.69 175.08
-5 -3 3 2812.32 172.08
4 3 -3 39.9 7.6
-4 -3 3 38.6 6.3
-4 -3 3 45.8 8
3 3 -3 518.15 35.9
-3 -3 3 598.44 36.8
2 3 -3 153.78 12.1
-2 -3 3 164.38 12.4
1 3 -3 1364.06 80.69
-1 -3 3 1390.06 80.99
-1 -3 3 1418.56 80.79
0 3 -3 603.64 36.8
0 3 -3 605.14 35.7
0 -3 3 620.44 35.8
0 -3 3 572.14 36.8
-2 3 -3 264.67 19
2 -3 3 271.57 19.4
2 -3 3 236.18 16.2
-3 3 -3 6.8 3.1
3 -3 3 3.6 1.2
3 -3 3 3.2 3
-4 3 -3 1485.85 95.89
4 -3 3 1649.83 89.79
4 -3 3 1581.14 96.39
-5 3 -3 3604.44 214.38
5 -3 3 3710.63 214.58
-6 3 -3 12.2 5.3
6 -3 3 11.1 8.3
-7 3 -3 244.98 24.1
7 -3 3 304.97 25.3
-8 3 -3 165.78 20
-8 3 -3 151.28 17.5
8 -3 3 157.38 18.3
-9 3 -3 3.3 5.8
-9 3 -3 20.1 9.2
9 -3 3 20.8 7.9
-10 3 -3 0.3 4.2
-10 3 -3 11.7 7.1
10 -3 3 16.4 6.5
-11 3 -3 104.19 17
-11 3 -3 128.59 21.3
11 -3 3 158.68 19
-12 3 -3 14.4 7.7
-12 3 -3 21.2 10.6
12 -3 3 18.4 11.3
-11 -2 3 -0.9 8.4
-11 -2 3 1.8 5.8
-11 -2 3 -0.8 4.9
-10 -2 3 39.5 8.5
-10 -2 3 55.69 13.8
-10 -2 3 34.5 9.6
-10 -2 3 50.29 10
-9 -2 3 102.09 13.7
-9 -2 3 95.59 17.6
-9 -2 3 97.29 12.7
-9 -2 3 71.79 10.5
-8 -2 3 16.4 6.2
-8 -2 3 12.6 5.2
-8 -2 3 16.3 10.4
-8 -2 3 6.7 6.7
-7 -2 3 391.56 29.7
-7 -2 3 422.16 31.8
-7 -2 3 414.76 33.4
-6 -2 3 1540.85 94.39
-6 -2 3 1458.35 92.39
-5 -2 3 154.28 18
-5 -2 3 155.88 14.6
-4 -2 3 319.27 23.6
-4 -2 3 339.07 24.4
3 2 -3 1706.33 100.79
-3 -2 3 1811.12 101.19
-3 -2 3 1613.84 100.39
1 2 -3 2857.01 163.88
-1 -2 3 2906.51 163.88
0 2 -3 17.6 2.1
0 -2 3 17.1 3
0 -2 3 15.7 2
-2 2 -3 80.19 7.5
-2 2 -3 72.89 5.6
2 -2 3 55.09 6.6
2 -2 3 58.69 5.3
-3 2 -3 436.56 27.5
-3 2 -3 382.06 23.8
3 -2 3 388.76 27.4
3 -2 3 380.16 24
-4 2 -3 772.52 43.5
-4 2 -3 741.63 48.3
4 -2 3 722.53 43.7
4 -2 3 750.62 48.5
-5 2 -3 171.68 15.8
-5 2 -3 152.18 10
5 -2 3 182.68 16
-6 2 -3 946.31 65.19
6 -2 3 1097.19 66.59
-7 2 -3 133.09 14.8
-7 2 -3 157.78 18
7 -2 3 146.49 18.8
-8 2 -3 88.09 13.8
-8 2 -3 111.99 17.8
8 -2 3 69.49 12.7
-9 2 -3 -1.1 5.2
-9 2 -3 -6.2 3.3
9 -2 3 -3.9 6
-10 2 -3 50.99 14.1
-10 2 -3 54.39 10.8
10 -2 3 60.79 12.4
-11 2 -3 126.79 15.4
-11 2 -3 119.09 22.3
11 -2 3 149.59 18.1
-11 -1 3 4.6 4.1
-11 -1 3 -11.9 6.3
-11 -1 3 0.3 5.3
-11 -1 3 -3.5 7.1
-10 -1 3 140.19 15.2
-10 -1 3 96.49 11.8
-10 -1 3 129.29 20.8
-9 -1 3 52.29 8.7
-9 -1 3 56.09 10.1
-9 -1 3 62.09 12.7
-9 -1 3 30.9 9.9
-8 -1 3 237.08 22.4
-8 -1 3 222.48 23.1
-8 -1 3 221.88 21
-8 -1 3 219.08 18.8
-7 -1 3 39.3 9.5
-7 -1 3 45 10.3
-7 -1 3 43.7 7.9
-6 -1 3 57.69 7.8
-6 -1 3 46.7 9.6
-6 -1 3 72.49 11.7
-5 -1 3 584.94 40.9
-5 -1 3 556.94 38.6
-5 -1 3 660.03 41.8
-4 -1 3 0.7 1.5
-4 -1 3 -1.9 1.7
-4 -1 3 0.3 2.2
-3 -1 3 538.05 33.9
-3 -1 3 525.95 34.4
-3 -1 3 513.45 33.6
-2 -1 3 680.03 40
-2 -1 3 643.94 40.7
1 1 -3 165.68 10.3
1 1 -3 156.38 11.8
-1 -1 3 161.48 11.9
-1 -1 3 170.48 10.3
-1 1 -3 2181.08 123.19
-1 1 -3 2144.89 122.99
1 -1 3 2121.59 123.09
1 -1 3 2127.99 123.19
-2 1 -3 4066.29 227.18
-2 1 -3 4093.49 228.08
2 -1 3 3948.71 227.28
2 -1 3 3870.31 228.18
-3 1 -3 1026.1 63.79
-3 1 -3 1115.09 62.39
3 -1 3 1062.79 62.49
3 -1 3 1028.1 64.09
-4 1 -3 112.29 11.3
-4 1 -3 141.89 10
4 -1 3 126.29 12
4 -1 3 118.29 9.7
-5 1 -3 1059.59 67.29
-5 1 -3 1108.49 61.29
-5 1 -3 932.41 63.69
5 -1 3 1017.7 64.59
-6 1 -3 299.17 20.7
-6 1 -3 307.67 24.2
-6 1 -3 386.86 29.2
6 -1 3 317.87 24.7
-7 1 -3 519.35 37.2
-7 1 -3 540.15 41.5
-7 1 -3 495.35 32
7 -1 3 578.34 38.3
-8 1 -3 22.4 8.5
-8 1 -3 4.8 4.3
8 -1 3 -25.6 12.9
-9 1 -3 57.49 10.1
-9 1 -3 57.09 13.7
9 -1 3 38.9 9.3
-10 1 -3 38.2 22.6
-10 1 -3 59.39 15.2
10 -1 3 50.19 10.1
-11 1 -3 10.3 7.8
11 -1 3 18.8 8.3
-12 0 3 37 12.9
-12 0 3 37 11.4
-11 0 3 25.3 5.2
-11 0 3 19.3 9.2
-11 0 3 25 4.7
-11 0 3 27.8 10.3
-10 0 3 139.69 23.9
-10 0 3 196.68 21.6
-10 0 3 179.28 15.4
-10 0 3 179.88 16.8
-9 0 3 153.38 15.9
-9 0 3 139.89 21.9
-9 0 3 149.59 18.5
-9 0 3 165.38 14.5
-8 0 3 4.3 5.6
-8 0 3 14.7 4.6
-8 0 3 4.1 5.6
-7 0 3 127.19 15.2
-7 0 3 93.99 10.6
-7 0 3 106.59 14
-6 0 3 542.35 37
-6 0 3 589.14 41
-6 0 3 582.04 41.7
5 0 -3 140.79 12.8
-5 0 3 100.39 12.4
-5 0 3 121.79 12.6
-5 0 3 113.09 10.6
4 0 -3 264.77 19.1
-4 0 3 239.58 18.7
-4 0 3 219.08 17.1
-4 0 3 239.38 19.7
-3 0 3 257.17 18
-3 0 3 259.77 19.8
1 0 -3 1.3 1.4
-1 0 3 -0.1 1
0 0 -3 3127.09 179.38
0 0 3 3145.09 179.48
-1 0 -3 1649.33 99.39
-1 0 -3 1744.63 99.99
1 0 3 1768.62 100.09
-2 0 -3 4393.76 255.27
-2 0 -3 4752.52 256.57
-2 0 -3 4358.76 257.07
2 0 3 4315.17 255.57
2 0 3 4656.83 256.57
-3 0 -3 352.86 23.3
-3 0 -3 337.67 25.6
-3 0 -3 387.76 24.3
3 0 3 349.77 23.9
3 0 3 365.76 24
-4 0 -3 1195.48 74.49
-4 0 -3 1296.17 78.49
-4 0 -3 1364.86 75.09
4 0 3 1240.68 74.69
4 0 3 1175.78 75.09
-5 0 -3 214.88 19.6
-5 0 -3 209.68 15.7
-5 0 -3 182.98 15.4
5 0 3 194.48 16.4
-6 0 -3 255.87 23.5
-6 0 -3 241.48 18.5
-6 0 -3 236.18 19.1
6 0 3 259.87 20.2
-7 0 -3 97.69 11.1
-7 0 -3 97.39 10.1
-7 0 -3 135.79 16.6
7 0 3 117.79 12.3
-8 0 -3 807.12 52.89
-8 0 -3 798.52 50.79
-8 0 -3 869.91 61.39
8 0 3 852.11 54.19
-9 0 -3 158.88 11
-9 0 -3 146.39 10.6
-9 0 -3 144.19 23.6
-9 0 -3 167.88 15.1
9 0 3 200.58 16.6
-10 0 -3 145.89 13.9
-10 0 -3 145.09 23.7
10 0 3 163.88 15.5
-11 0 -3 106.99 20.8
-12 1 3 0.5 8.8
-12 1 3 26.3 10
-11 1 3 118.19 20
-11 1 3 93.59 19
-10 1 3 -1.3 4
-10 1 3 1.2 3
-10 1 3 4.6 3.8
-10 1 3 3.3 7.3
-9 1 3 89.79 16.1
-9 1 3 46.6 12.3
-9 1 3 68.49 8.6
-9 1 3 69.09 9.3
8 -1 -3 129.99 15
-8 1 3 135.39 17.2
-8 1 3 125.49 12
-8 1 3 103.99 17.7
7 -1 -3 2.1 3.3
-7 1 3 3 4.4
-7 1 3 1.4 2.4
-7 1 3 10.1 6.5
6 -1 -3 1693.03 91.59
-6 1 3 1370.76 92.29
-6 1 3 1354.56 86.69
-6 1 3 1426.86 90.79
5 -1 -3 714.03 45.1
-5 1 3 709.23 46.9
-5 1 3 590.14 41.3
4 -1 -3 188.58 15.5
-4 1 3 151.28 12.9
-4 1 3 173.48 16.1
3 -1 -3 1661.33 99.29
3 -1 -3 1526.65 96.59
-3 1 3 1709.23 97.49
-3 1 3 1775.42 100.59
2 -1 -3 5122.39 291.27
2 -1 -3 4788.52 289.47
-2 1 3 5283.77 290.27
-2 1 3 5183.48 291.77
1 -1 -3 585.14 36.6
1 -1 -3 594.84 34.4
-1 1 3 605.64 34.4
-1 1 3 582.94 36.9
0 -1 -3 69.29 6.9
0 -1 -3 69.19 5.5
0 1 3 73.49 7.1
0 1 3 70.19 5.5
-3 -1 -3 2389.96 138.49
-3 -1 -3 2423.46 137.39
3 1 3 2316.97 137.09
3 1 3 2264.77 135.09
-4 -1 -3 5939.21 316.67
4 1 3 5174.48 314.17
4 1 3 5454.25 315.97
-5 -1 -3 12.2 3.1
-5 -1 -3 11.5 4.2
-5 -1 -3 6.9 4.4
5 1 3 9.6 3.5
-6 -1 -3 1419.76 92.99
-6 -1 -3 1495.25 95.59
-6 -1 -3 1786.62 102.19
6 1 3 1705.53 95.09
-7 -1 -3 731.23 50.39
-7 -1 -3 815.72 57.59
-7 -1 -3 819.02 48.7
7 1 3 764.82 49.5
-8 -1 -3 5.1 3.9
-8 -1 -3 13.2 7.2
-8 -1 -3 2.3 3
8 1 3 15.6 4.9
-9 -1 -3 154.08 24.3
-9 -1 -3 166.08 14
-9 -1 -3 173.18 15.2
9 1 3 208.48 15.5
-10 -1 -3 73.39 6.4
-10 -1 -3 74.49 17.4
-10 -1 -3 71.39 7
-11 -1 -3 6.1 7.5
-12 2 3 108.59 20.2
-12 2 3 126.89 21.9
-11 2 3 -11.5 6.9
-11 2 3 4.7 8.1
-10 2 3 239.18 26.7
-10 2 3 271.77 29.4
9 -2 -3 214.08 21.2
-9 2 3 187.68 14.9
-9 2 3 154.28 21.2
-9 2 3 200.58 15.8
-9 2 3 172.98 22.7
8 -2 -3 96.29 13
-8 2 3 87.99 15.1
-8 2 3 65.19 8.6
-8 2 3 83.69 15.4
7 -2 -3 796.12 49.99
-7 2 3 654.53 43.8
-7 2 3 627.54 52.59
6 -2 -3 80.29 11
-6 2 3 76.49 8.5
-6 2 3 70.69 13.4
5 -2 -3 846.52 52.79
-5 2 3 794.32 54.19
-5 2 3 732.23 48.8
4 -2 -3 6.9 2.4
4 -2 -3 2.3 2.5
-4 2 3 4.8 2.7
-4 2 3 10 4.4
3 -2 -3 182.08 13.4
3 -2 -3 181.18 15.6
-3 2 3 187.58 14.3
-3 2 3 172.58 16.2
2 -2 -3 4142.89 241.68
2 -2 -3 4170.08 240.28
-2 2 3 3994.8 238.48
-2 2 3 4416.96 240.98
-2 2 3 4291.47 242.58
-1 -2 -3 386.06 27.1
-1 -2 -3 391.16 25.6
1 2 3 394.96 25.9
1 2 3 407.56 27.4
-2 -2 -3 167.18 13.5
-2 -2 -3 154.48 13.9
2 2 3 153.38 13.3
2 2 3 168.48 14.2
2 2 3 161.48 10.8
-3 -2 -3 5221.08 283.67
-3 -2 -3 4917.81 283.47
3 2 3 5004.7 283.27
3 2 3 4854.71 283.67
3 2 3 4612.14 278.87
-4 -2 -3 602.34 43.1
-4 -2 -3 700.03 42.8
4 2 3 632.54 42.1
4 2 3 589.04 38.1
-5 -2 -3 1800.72 110.49
-5 -2 -3 1893.21 108.69
5 2 3 1678.33 103.69
-6 -2 -3 173.08 18.8
-6 -2 -3 137.09 14.8
6 2 3 148.79 12.1
-7 -2 -3 422.96 34.6
-7 -2 -3 308.77 28
7 2 3 403.06 25.2
-8 -2 -3 352.66 27.9
-9 -2 -3 -4 4.3
-9 -2 -3 -4.7 5.5
-10 -2 -3 254.37 29.4
-10 -2 -3 276.67 21.7
-12 3 3 81.89 17.2
-12 3 3 78.19 18.3
-11 3 3 118.29 20.9
-11 3 3 134.29 23.6
10 -3 -3 -6.3 6.5
-10 3 3 1.4 4.7
-10 3 3 -14.9 6.5
9 -3 -3 283.37 25.9
-9 3 3 256.77 26.6
-9 3 3 247.38 18
-9 3 3 274.57 18.6
-9 3 3 265.77 28.9
8 -3 -3 22.5 7.2
-8 3 3 13.9 4.2
-8 3 3 27.2 9.1
7 -3 -3 1380.96 81.99
-7 3 3 1189.88 74.89
-7 3 3 1171.08 83.59
6 -3 -3 7.7 5.6
-6 3 3 17.9 6.7
-6 3 3 12.7 3.9
5 -3 -3 79.49 7.7
-5 3 3 84.39 9
-5 3 3 91.29 14.5
4 -3 -3 138.79 11.6
4 -3 -3 147.69 14.9
-4 3 3 185.88 16.8
-4 3 3 146.39 12.8
3 -3 -3 920.61 56.19
3 -3 -3 876.91 58.79
-3 3 3 965.7 57.39
-3 3 3 938.71 60.19
2 -3 -3 723.03 43.6
2 -3 -3 731.03 45.4
2 -3 -3 701.03 46.5
-2 3 3 730.03 47.5
-2 3 3 739.63 46.1
-2 3 3 723.03 43.4
1 -3 -3 3093.29 182.58
1 -3 -3 3084.79 182.68
1 -3 -3 3155.38 179.98
-1 3 3 3198.58 183.38
-1 3 3 3235.38 180.18
-1 3 3 3168.58 183.18
0 -3 -3 2475.75 145.49
0 -3 -3 2557.44 147.39
0 -3 -3 2434.66 144.29
0 3 3 2540.75 144.69
0 3 3 2492.85 145.69
0 3 3 2589.64 147.69
-1 -3 -3 5478.35 306.07
-1 -3 -3 5345.97 303.57
1 3 3 5156.28 303.47
1 3 3 5250.27 302.57
1 3 3 5377.86 306.07
-2 -3 -3 23.7 6
-2 -3 -3 27.5 5.5
2 3 3 24.6 5.7
2 3 3 18.8 5.3
-3 -3 -3 2483.15 146.79
-3 -3 -3 2599.54 147.69
3 3 3 2467.55 146.79
3 3 3 2410.16 141.19
3 3 3 2448.16 147.09
-4 -3 -3 2660.33 154.58
-4 -3 -3 2747.12 154.58
4 3 3 2469.75 147.09
4 3 3 2490.35 153.38
4 3 3 2585.64 154.68
-5 -3 -3 48.7 9.5
-5 -3 -3 29.8 8.7
5 3 3 40.7 3.9
-6 -3 -3 670.73 51.49
-6 -3 -3 772.12 50.99
-7 -3 -3 4.2 6.1
-7 -3 -3 2.5 6.2
-8 -3 -3 105.59 14.4
-8 -3 -3 123.99 20.2
-9 -3 -3 126.59 15.4
-9 -3 -3 109.09 20.5
-10 -3 -3 3.5 5.5
-11 -3 -3 62.09 18.5
-11 -3 -3 110.69 10.9
-12 4 3 51.59 13.5
-12 4 3 30 14.4
11 -4 -3 54.89 13
-11 4 3 58.89 14.6
-11 4 3 44.6 16
10 -4 -3 315.17 29.6
-10 4 3 241.78 28.6
-10 4 3 382.66 36.6
9 -4 -3 1.7 6.6
-9 4 3 1.4 1.8
-9 4 3 21.4 8.8
8 -4 -3 848.52 59.49
-8 4 3 851.01 63.19
-8 4 3 814.92 51.29
7 -4 -3 568.54 40.8
-7 4 3 482.65 33.6
-7 4 3 501.95 42.7
6 -4 -3 99.49 13.3
6 -4 -3 84.49 8.1
-6 4 3 81.29 9.2
-6 4 3 87.39 15.6
5 -4 -3 2730.13 159.28
5 -4 -3 2659.93 152.68
-5 4 3 2854.21 161.98
-5 4 3 2374.06 153.98
4 -4 -3 428.96 32.3
4 -4 -3 417.96 28.2
-4 4 3 429.26 33.5
-4 4 3 430.56 29.7
3 -4 -3 562.14 41.7
3 -4 -3 637.04 39.9
-3 4 3 651.83 43.6
-3 4 3 607.94 38.4
-3 4 3 627.04 40.7
2 -4 -3 842.92 51.59
2 -4 -3 867.51 53.99
2 -4 -3 818.72 54.69
-2 4 3 886.71 54.79
-2 4 3 875.81 51.59
1 -4 -3 252.47 16.6
1 -4 -3 244.48 19.2
1 -4 -3 221.48 18.4
-1 4 3 233.48 16.6
-1 4 3 254.57 19.7
-1 4 3 236.88 19
0 -4 -3 2312.67 136.29
0 -4 -3 2389.06 138.79
0 -4 -3 2310.07 135.29
0 4 3 2371.56 139.09
0 4 3 2248.28 136.49
0 4 3 2403.56 135.69
-1 -4 -3 1277.77 77.69
-1 -4 -3 1234.58 74.69
1 4 3 1225.38 77.39
1 4 3 1245.38 74.99
1 4 3 1232.98 73.79
-2 -4 -3 2824.62 168.58
-2 -4 -3 2997.3 170.98
2 4 3 2912.41 168.88
2 4 3 2903.21 170.88
2 4 3 2798.52 165.08
-3 -4 -3 909.91 57.29
-3 -4 -3 866.31 56.59
3 4 3 834.52 49.5
3 4 3 813.52 56.19
3 4 3 858.71 55.69
3 4 3 844.42 49.1
-4 -4 -3 126.19 14.3
-4 -4 -3 117.89 14
4 4 3 102.79 13.7
4 4 3 126.29 14
-5 -4 -3 1163.68 74.79
-5 -4 -3 1103.19 74.39
-6 -4 -3 4.9 4.9
-6 -4 -3 0.8 5.6
-7 -4 -3 343.17 32.5
-7 -4 -3 360.76 30.7
-8 -4 -3 275.47 29.3
-8 -4 -3 310.17 27.6
-9 -4 -3 55.29 13
-9 -4 -3 69.19 16
-10 -4 -3 136.59 17.1
-10 -4 -3 111.79 20.7
-12 5 3 168.48 27.1
-12 5 3 197.28 38.6
11 -5 -3 9.9 8.7
-11 5 3 19.8 11.7
-11 5 3 5.1 5.6
10 -5 -3 44.8 13.9
-10 5 3 94.69 20
9 -5 -3 313.87 29.9
-9 5 3 277.57 31.9
8 -5 -3 4.4 6.1
-8 5 3 1.3 5.9
-8 5 3 1.9 2.5
7 -5 -3 616.44 46.5
-7 5 3 682.13 50.99
-7 5 3 580.14 39.8
6 -5 -3 1704.33 97.99
6 -5 -3 1732.13 106.19
-6 5 3 1522.55 99.59
-6 5 3 1736.63 109.19
5 -5 -3 271.47 19.1
5 -5 -3 272.87 24.1
-5 5 3 225.88 19.9
-5 5 3 299.87 31.6
4 -5 -3 663.83 42.1
4 -5 -3 603.14 45.5
-4 5 3 715.63 48.3
-4 5 3 637.14 43.2
-4 5 3 649.74 41.7
3 -5 -3 149.49 15.9
3 -5 -3 164.58 14.7
-3 5 3 183.68 15.9
-3 5 3 187.28 17.9
-3 5 3 169.88 13.4
2 -5 -3 5484.95 312.57
2 -5 -3 5413.96 309.37
2 -5 -3 5079.89 312.87
-2 5 3 5742.93 313.67
-2 5 3 5424.36 309.47
-2 5 3 5442.56 314.17
1 -5 -3 199.78 16.7
1 -5 -3 189.78 14.3
1 -5 -3 178.88 16.7
-1 5 3 193.08 16.8
-1 5 3 196.18 14.6
-1 5 3 191.88 17.5
0 -5 -3 1665.13 100.69
0 -5 -3 1726.33 103.59
0 -5 -3 1681.23 99.69
0 5 3 1712.73 100.09
0 5 3 1655.23 100.99
0 5 3 1719.13 103.89
-1 -5 -3 1807.02 106.29
-1 -5 -3 1759.62 102.69
1 5 3 1674.83 102.69
1 5 3 1673.13 101.59
1 5 3 1719.53 105.99
-2 -5 -3 9.3 4.8
-2 -5 -3 7.2 3.8
2 5 3 4.7 2.4
2 5 3 3.1 3.5
2 5 3 2.2 3
-3 -5 -3 35.9 14.8
-3 -5 -3 14.4 5.3
3 5 3 22.5 2.3
3 5 3 19.5 5.9
3 5 3 21.4 6.7
3 5 3 23.5 2.6
-4 -5 -3 344.77 29.8
-4 -5 -3 414.16 32.3
4 5 3 377.96 30.3
4 5 3 369.06 30.6
-5 -5 -3 57.89 12
-5 -5 -3 77.29 14
5 5 3 46.8 10.7
-6 -5 -3 118.39 18.1
-6 -5 -3 95.19 16.4
-7 -5 -3 23.7 8.6
-7 -5 -3 1.7 7.7
-8 -5 -3 162.88 25.9
-8 -5 -3 230.48 24.1
-9 -5 -3 92.69 16.2
-9 -5 -3 54.89 14.4
-10 -5 -3 28.5 8.9
-10 -5 -3 26.9 10.7
-12 6 3 -2 7.7
-12 6 3 16.9 14.1
-11 6 3 281.67 33.8
10 -6 -3 29.3 11.6
-10 6 3 27.5 13.3
-9 6 3 82.39 19.2
8 -6 -3 508.85 40.9
-8 6 3 471.75 32.1
-8 6 3 479.75 43.7
7 -6 -3 85.09 8.6
7 -6 -3 92.89 16.4
-7 6 3 95.19 18
-7 6 3 96.49 10.4
6 -6 -3 636.34 48.3
6 -6 -3 687.13 41.8
-6 6 3 764.12 52.99
-6 6 3 572.54 43
5 -6 -3 193.38 16
5 -6 -3 204.38 20.6
-5 6 3 169.98 16.7
-5 6 3 194.98 16.6
-5 6 3 224.58 22.7
4 -6 -3 5465.85 302.67
4 -6 -3 5247.97 306.77
-4 6 3 4956 303.57
-4 6 3 5062.19 303.67
-4 6 3 5578.84 309.37
3 -6 -3 935.91 56.89
3 -6 -3 907.91 58.69
-3 6 3 933.31 62.19
-3 6 3 925.31 56.49
-3 6 3 887.01 59.59
2 -6 -3 57.19 6.6
2 -6 -3 49.6 9.3
2 -6 -3 43.9 8.6
-2 6 3 55.49 9.9
-2 6 3 40.9 8.8
-2 6 3 53.29 6.3
1 -6 -3 997.3 64.49
1 -6 -3 975.2 63.29
1 -6 -3 1012.8 60.69
-1 6 3 995.6 65.09
-1 6 3 969.7 63.69
-1 6 3 1013.6 60.89
0 -6 -3 916.41 59.79
0 -6 -3 910.11 56.99
0 -6 -3 902.81 55.79
0 6 3 940.91 56.49
0 6 3 894.21 59.99
0 6 3 841.12 56.89
-1 -6 -3 1738.43 102.39
-1 -6 -3 1717.43 101.09
-1 -6 -3 1725.43 112.49
1 6 3 1788.92 106.79
1 6 3 1663.33 101.29
1 6 3 1610.84 106.09
-2 -6 -3 760.52 51.49
2 6 3 722.33 48.1
2 6 3 710.63 44.4
2 6 3 695.03 50.59
-3 -6 -3 46.7 10.4
-3 -6 -3 50.09 9.9
3 6 3 46.2 11
3 6 3 52.49 4.5
3 6 3 51.39 9.6
-4 -6 -3 2836.62 172.38
-4 -6 -3 3040 175.68
4 6 3 2745.73 172.08
-5 -6 -3 2.9 5.4
-5 -6 -3 7.5 5.9
5 6 3 21.8 6.7
-6 -6 -3 28.3 9.4
-6 -6 -3 0 4.5
6 6 3 0.4 4.2
-7 -6 -3 13.9 8.4
-7 -6 -3 1 6.1
-8 -6 -3 -0.3 8.4
-8 -6 -3 56.19 13.3
-9 -6 -3 132.29 23.2
-9 -6 -3 191.08 23.1
-10 -6 -3 -18.2 8.1
-10 -6 -3 23.6 13.6
-12 7 3 -10.6 10.9
-12 7 3 13.7 6.5
-11 7 3 4.2 11.8
10 -7 -3 81.49 16.7
-10 7 3 43.8 14.9
9 -7 -3 135.59 21.9
-9 7 3 128.99 25.1
8 -7 -3 23 9
-8 7 3 31.4 12.1
-8 7 3 27.9 5.8
7 -7 -3 37.5 6.1
7 -7 -3 37.1 9.8
-7 7 3 38.5 8.7
-7 7 3 36.6 11.3
-7 7 3 39.9 7.7
6 -7 -3 76.89 8.9
6 -7 -3 87.39 15.8
-6 7 3 96.09 10.5
-6 7 3 62.39 10.8
-6 7 3 90.29 16.9
5 -7 -3 121.79 15.2
5 -7 -3 118.89 11.9
-5 7 3 116.29 12.1
-5 7 3 142.79 17.8
-5 7 3 105.29 12.9
4 -7 -3 680.43 44.9
4 -7 -3 655.73 48.2
-4 7 3 599.74 45.3
-4 7 3 679.43 43.3
-4 7 3 727.93 50.59
3 -7 -3 4949.6 297.67
3 -7 -3 5071.29 295.77
3 -7 -3 5324.77 293.27
-3 7 3 5256.07 292.97
-3 7 3 5259.07 299.47
-3 7 3 4768.72 296.47
2 -7 -3 4540.25 265.67
2 -7 -3 4599.94 261.67
2 -7 -3 4400.56 265.67
-2 7 3 4551.24 266.77
-2 7 3 4805.92 267.07
-2 7 3 4448.46 261.67
1 -7 -3 8.7 4
1 -7 -3 5 4.3
1 -7 -3 6.6 3.5
-1 7 3 10.7 4.6
-1 7 3 6.5 3.4
-1 7 3 10.7 5.3
0 -7 -3 83.89 12
0 -7 -3 78.79 10
0 -7 -3 82.49 9.6
0 7 3 94.19 12.7
0 7 3 83.49 10.3
-1 -7 -3 164.28 15.3
-1 -7 -3 210.18 19.9
-1 -7 -3 185.38 15
1 7 3 161.08 14.7
1 7 3 136.49 14.9
1 7 3 162.48 18.1
-2 -7 -3 -2.7 1.6
-2 -7 -3 0.5 4.5
2 7 3 2.8 4.5
2 7 3 3.7 3.7
2 7 3 -3.3 1.7
-3 -7 -3 47 9.8
-3 -7 -3 61.29 13
3 7 3 60.09 10.8
3 7 3 54.79 12.2
3 7 3 51.39 4.9
-4 -7 -3 181.08 21.3
-4 -7 -3 184.58 19.8
4 7 3 206.68 20.2
-5 -7 -3 340.77 31.3
-5 -7 -3 318.77 28.9
5 7 3 285.57 28.2
-6 -7 -3 52.49 13.8
-6 -7 -3 45.8 11.7
6 7 3 45.3 13.1
-7 -7 -3 91.99 17.5
-7 -7 -3 124.49 20.9
-8 -7 -3 -11.1 4.1
-8 -7 -3 -12.7 8.8
-9 -7 -3 10.2 22.7
-9 -7 -3 21.7 11.6
-10 -7 -3 51.49 17.3
-10 -7 -3 96.89 19.4
-12 8 3 115.59 27.1
-11 8 3 142.49 27.7
-10 8 3 -1.2 8.8
9 -8 -3 836.92 64.09
-9 8 3 952.6 62.89
-9 8 3 710.63 65.99
8 -8 -3 42.5 6.5
8 -8 -3 35.4 12
-8 8 3 37.4 12
-8 8 3 30.6 8.4
-8 8 3 32.2 7
7 -8 -3 39.8 6.8
7 -8 -3 27.6 10.4
-7 8 3 22.9 9.7
-7 8 3 37.9 8.3
-7 8 3 28.5 8.2
6 -8 -3 37.5 7.2
6 -8 -3 17.3 8.6
-6 8 3 33.5 7.8
-6 8 3 35.6 11.6
-6 8 3 32.2 7.1
5 -8 -3 788.62 51.59
5 -8 -3 782.42 56.79
-5 8 3 814.42 51.39
-5 8 3 683.13 52.19
-5 8 3 876.21 60.09
4 -8 -3 179.78 19.1
4 -8 -3 164.88 16.5
-4 8 3 115.39 15
-4 8 3 177.58 14.8
-4 8 3 178.48 20
3 -8 -3 5.3 5.5
3 -8 -3 24.4 5.9
3 -8 -3 23.4 8.4
-3 8 3 15.5 6
-3 8 3 9.6 6
-3 8 3 11.2 4.7
2 -8 -3 29.7 8.2
2 -8 -3 14.7 4.5
2 -8 -3 9.4 5.7
-2 8 3 22.7 7.1
-2 8 3 16.7 7.5
-2 8 3 14.3 5
1 -8 -3 5469.95 306.07
1 -8 -3 5257.37 310.77
1 -8 -3 5122.19 308.67
-1 8 3 5473.85 312.17
-1 8 3 5446.05 306.37
-1 8 3 5172.48 309.27
0 -8 -3 113.29 13
0 -8 -3 110.39 11.9
0 -8 -3 114.19 14.7
0 8 3 116.09 16.1
0 8 3 102.69 12.3
0 8 3 115.59 12
-1 -8 -3 2102.99 125.09
-1 -8 -3 2145.19 126.09
-1 -8 -3 2079.79 130.99
1 8 3 2072.79 126.39
1 8 3 2091.79 125.09
1 8 3 2098.39 131.09
-2 -8 -3 472.95 36.4
-2 -8 -3 434.96 31.8
2 8 3 394.96 27.9
2 8 3 377.16 34.3
2 8 3 398.56 31.5
-3 -8 -3 293.57 23.7
-3 -8 -3 265.27 26.1
3 8 3 262.47 25.9
3 8 3 224.68 16.2
3 8 3 221.58 21.8
-4 -8 -3 154.18 18.3
-4 -8 -3 165.88 20.4
4 8 3 150.58 17.8
-5 -8 -3 -1.7 4.7
-5 -8 -3 11.4 8.2
5 8 3 -1.7 3.6
-6 -8 -3 68.69 21.1
-6 -8 -3 91.69 17.7
-7 -8 -3 2.9 8.5
-7 -8 -3 0.6 6.2
-8 -8 -3 57.99 16
-9 -8 -3 112.49 21.6
-9 -8 -3 76.99 17.4
-12 9 3 26 14.9
-11 9 3 240.38 38.7
-10 9 3 8.5 10.5
9 -9 -3 31.4 12.5
-9 9 3 -3.7 9.4
8 -9 -3 674.13 43.3
8 -9 -3 625.04 53.19
-8 9 3 692.03 46.3
-8 9 3 672.03 48.8
-8 9 3 697.13 58.39
7 -9 -3 56.39 14.1
7 -9 -3 38.4 7.3
-7 9 3 49.2 10.2
-7 9 3 61.99 15.6
-7 9 3 52.49 10
6 -9 -3 336.87 25.8
6 -9 -3 328.37 31
-6 9 3 339.07 33.8
-6 9 3 376.66 26.8
-6 9 3 265.07 26
5 -9 -3 412.06 41.4
5 -9 -3 456.95 37.6
-5 9 3 457.45 31.6
-5 9 3 454.55 38.9
-5 9 3 383.46 33.1
4 -9 -3 3.6 4.1
4 -9 -3 2.1 3.9
4 -9 -3 -2.4 3.1
-4 9 3 0.7 2.4
-4 9 3 2.1 5.9
-4 9 3 -3.7 3.1
3 -9 -3 826.22 57.49
3 -9 -3 834.22 58.79
3 -9 -3 832.72 53.99
-3 9 3 754.32 57.59
-3 9 3 918.41 60.99
-3 9 3 883.31 54.49
2 -9 -3 1112.59 72.49
2 -9 -3 1068.69 68.79
2 -9 -3 1169.48 73.19
-2 9 3 1129.19 68.39
-2 9 3 995.4 78.29
-2 9 3 1015.2 74.89
1 -9 -3 601.54 44.9
1 -9 -3 637.34 47.2
1 -9 -3 625.34 42.3
-1 9 3 709.53 49
-1 9 3 609.24 45.2
-1 9 3 623.14 42.5
0 -9 -3 1685.53 104.69
0 -9 -3 1679.93 108.69
0 -9 -3 1737.63 103.39
0 9 3 1732.73 103.79
0 9 3 1618.54 104.19
0 9 3 1715.23 109.29
-1 -9 -3 8.5 4.7
-1 -9 -3 4 6.8
-1 -9 -3 5.2 3.9
1 9 3 13.8 5.4
1 9 3 8.1 5.7
1 9 3 12.4 4.6
-2 -9 -3 1117.79 77.49
-2 -9 -3 1136.49 72.29
2 9 3 1094.79 68.29
2 9 3 1080.69 72.49
2 9 3 1140.89 77.59
-3 -9 -3 579.44 43.5
-3 -9 -3 627.94 49
3 9 3 583.74 47.2
3 9 3 582.14 36.4
3 9 3 594.44 44
-4 -9 -3 32.7 9.7
-4 -9 -3 41.1 12.2
4 9 3 28.4 8.7
-5 -9 -3 420.86 38.2
-5 -9 -3 368.66 33.5
5 9 3 376.96 35.6
-6 -9 -3 108.49 18.9
-6 -9 -3 96.19 19.4
-7 -9 -3 128.19 21.8
-7 -9 -3 188.18 29.2
-8 -9 -3 -8.9 10
-8 -9 -3 11.7 7.7
-9 -9 -3 3.8 7.2
-12 10 3 106.79 25.5
-11 10 3 29.6 15.4
-10 10 3 3.9 9.7
9 -10 -3 116.79 10.8
-9 10 3 99.29 28.8
8 -10 -3 131.29 12.7
8 -10 -3 96.49 19.2
-8 10 3 136.89 25
-8 10 3 103.69 14.1
-8 10 3 144.49 16.6
7 -10 -3 44 10.3
7 -10 -3 58.49 14.4
-7 10 3 33 9
-7 10 3 35.9 8.6
-7 10 3 24.4 12.2
6 -10 -3 365.66 29
6 -10 -3 364.76 34.5
-6 10 3 320.27 29.9
-6 10 3 425.16 38.4
-6 10 3 389.36 29.4
5 -10 -3 1929.51 126.29
5 -10 -3 1993.3 121.39
-5 10 3 2096.39 129.59
-5 10 3 2110.49 119.79
-5 10 3 1757.12 122.59
4 -10 -3 13.9 4.8
4 -10 -3 14.7 6.8
4 -10 -3 16.2 7.5
-4 10 3 13.4 4.8
-4 10 3 17.2 8.2
-4 10 3 17.4 6.7
3 -10 -3 29.3 8.6
3 -10 -3 31.8 7.1
3 -10 -3 26.9 8.5
-3 10 3 37.9 7.7
-3 10 3 45.3 11.4
-3 10 3 27.1 8.8
2 -10 -3 2331.67 137.79
2 -10 -3 2325.17 143.59
2 -10 -3 2221.48 142.19
-2 10 3 2387.96 144.89
-2 10 3 2320.17 143.19
-2 10 3 2296.77 138.19
1 -10 -3 647.14 51.69
1 -10 -3 686.83 50.19
1 -10 -3 751.32 48
-1 10 3 699.93 50.59
-1 10 3 787.32 54.69
-1 10 3 700.43 47.8
0 -10 -3 216.18 18.9
0 -10 -3 159.48 28.5
0 -10 -3 184.78 21.3
0 10 3 183.58 18.5
0 10 3 200.58 18.5
0 10 3 192.48 21.9
-1 -10 -3 166.08 15.8
-1 -10 -3 141.19 19.1
-1 -10 -3 129.49 15.1
1 10 3 146.69 15.7
1 10 3 135.99 14.5
1 10 3 123.19 17.5
-2 -10 -3 77.09 13.1
-2 -10 -3 58.09 9.3
-2 -10 -3 81.89 16
2 10 3 59.89 12.5
2 10 3 68.79 9
2 10 3 106.29 18.4
-3 -10 -3 202.38 24
-3 -10 -3 212.08 21.3
3 10 3 189.78 14.5
-4 -10 -3 28.1 8.8
-4 -10 -3 36.3 12.2
4 10 3 25.6 8.6
-5 -10 -3 261.17 30.5
-6 -10 -3 83.39 19
-6 -10 -3 85.09 16.9
-7 -10 -3 -5.3 7
-7 -10 -3 -21.3 30.4
-8 -10 -3 11.7 10.2
-12 11 3 28.8 15.1
-11 11 3 58.49 20
-10 11 3 27.7 15.2
9 -11 -3 45.7 7.9
-9 11 3 41.9 15.6
8 -11 -3 1046.1 103.99
-8 11 3 1177.68 71.39
-8 11 3 1012.1 69.89
-8 11 3 952.1 80.09
7 -11 -3 230.88 26.3
7 -11 -3 208.28 19.3
-7 11 3 222.88 28.5
-7 11 3 176.48 20.5
-7 11 3 211.58 20.3
6 -11 -3 51.19 13.4
6 -11 -3 63.59 11.3
-6 11 3 52.09 11.5
-6 11 3 45.8 9.8
-6 11 3 91.09 19.6
5 -11 -3 425.56 36.6
5 -11 -3 408.96 32.8
-5 11 3 351.56 32.9
-5 11 3 376.36 30.1
-5 11 3 442.06 39.4
4 -11 -3 453.15 39.3
4 -11 -3 470.35 37.8
4 -11 -3 553.54 36.3
-4 11 3 375.76 36.8
-4 11 3 496.05 41.6
-4 11 3 479.35 34.5
3 -11 -3 305.77 29.1
3 -11 -3 346.27 26.1
3 -11 -3 297.17 29.2
-3 11 3 295.77 29.2
-3 11 3 360.66 31.4
-3 11 3 316.87 25.7
2 -11 -3 98.89 16.1
2 -11 -3 63.09 11.1
2 -11 -3 65.09 13.4
-2 11 3 66.59 14.5
-2 11 3 68.89 11.1
-2 11 3 68.89 14
1 -11 -3 259.17 21.7
1 -11 -3 275.57 24.4
1 -11 -3 227.58 24.9
-1 11 3 214.58 22.7
-1 11 3 256.27 21.8
-1 11 3 214.88 24.9
0 -11 -3 225.18 22.1
0 -11 -3 259.87 22
0 -11 -3 212.38 25.1
0 11 3 229.68 21.7
0 11 3 259.27 26.9
0 11 3 251.67 22.8
-1 -11 -3 114.09 13.8
-1 -11 -3 121.49 21
-1 -11 -3 131.39 15.6
1 11 3 122.09 20.9
1 11 3 132.69 14.7
1 11 3 132.19 15.3
-2 -11 -3 308.77 27.2
-2 -11 -3 290.77 24.1
-2 -11 -3 329.77 32.4
2 11 3 314.67 32.2
2 11 3 321.07 28
2 11 3 322.87 24.2
-3 -11 -3 33.6 15.6
-3 -11 -3 45.5 10.8
3 11 3 60.29 12.1
3 11 3 39.8 6.2
-4 -11 -3 271.87 26.8
-4 -11 -3 232.98 30.3
-5 -11 -3 35 13.6
-5 -11 -3 27.2 9.4
-6 -11 -3 66.29 15.1
-7 -11 -3 29.6 11.8
-8 -11 -3 68.39 18
-12 12 3 5.1 8.9
-11 12 3 -3.1 8.7
10 -12 -3 544.05 35.2
-10 12 3 528.35 54.59
9 -12 -3 154.08 37.2
-9 12 3 149.29 29.7
8 -12 -3 716.13 46
-8 12 3 655.23 69.09
-8 12 3 507.55 62.09
7 -12 -3 2.1 4.8
7 -12 -3 9.9 6.8
-7 12 3 -2.4 5.6
-7 12 3 22.4 7.5
-7 12 3 16.9 10.3
6 -12 -3 61.09 11.7
6 -12 -3 29.4 11.2
-6 12 3 56.89 12.5
-6 12 3 46.6 14.3
5 -12 -3 143.09 17.3
5 -12 -3 157.28 37.3
5 -12 -3 151.88 16.3
-5 12 3 164.68 21.8
-5 12 3 145.29 16
-5 12 3 124.49 17.7
4 -12 -3 133.79 14.4
4 -12 -3 116.99 20
4 -12 -3 116.49 15.8
-4 12 3 132.19 17.7
-4 12 3 109.99 20.5
-4 12 3 127.59 14.7
3 -12 -3 385.66 33.4
3 -12 -3 354.16 28.3
3 -12 -3 353.56 32.6
-3 12 3 295.77 31.8
-3 12 3 383.36 29.1
-3 12 3 399.56 34.9
2 -12 -3 20.1 7.5
2 -12 -3 24.2 7.7
2 -12 -3 37.4 8.8
-2 12 3 25 9.2
-2 12 3 21.7 8.9
-2 12 3 37.3 8.6
1 -12 -3 59.89 12.7
1 -12 -3 55.99 12.9
1 -12 -3 46.5 9.4
-1 12 3 39.3 11.3
-1 12 3 40.2 10.6
-1 12 3 42.5 9.3
0 -12 -3 95.89 15.3
0 -12 -3 57.69 11.7
0 -12 -3 70.79 15.6
0 12 3 92.29 18.1
0 12 3 65.79 13.3
0 12 3 72.39 12.9
-1 -12 -3 1273.07 87.49
-1 -12 -3 1217.58 78.79
-1 -12 -3 1182.88 78.99
1 12 3 1179.38 79.99
1 12 3 1192.68 77.79
1 12 3 1248.88 86.69
-2 -12 -3 100.69 12.6
-2 -12 -3 121.79 16.1
-2 -12 -3 167.28 21.5
2 12 3 120.19 12.7
2 12 3 126.39 18.9
-3 -12 -3 225.18 22.5
-3 -12 -3 199.28 26.9
3 12 3 155.88 20.4
3 12 3 211.18 15.7
-4 -12 -3 16.7 8.9
-4 -12 -3 9.9 12.1
-5 -12 -3 51.99 12.7
-6 -12 -3 -1.5 4.2
-7 -12 -3 56.69 14.2
-8 -12 -3 50.99 15.7
-11 13 3 10.9 13.8
10 -13 -3 33.4 7
-10 13 3 38.8 15.8
9 -13 -3 130.49 14.8
-9 13 3 159.28 31
8 -13 -3 4.6 5.8
-8 13 3 33.2 14
-8 13 3 16.5 8.3
7 -13 -3 51.39 11.2
-7 13 3 30.3 10.7
-7 13 3 42.1 9.2
-7 13 3 53.79 15.4
6 -13 -3 188.38 25.1
6 -13 -3 216.88 22
-6 13 3 251.97 29.7
-6 13 3 234.68 21.5
-6 13 3 181.68 22.7
5 -13 -3 19.6 8.5
5 -13 -3 37.1 10.6
5 -13 -3 36 9.6
-5 13 3 30.3 9.6
-5 13 3 28.9 11.1
4 -13 -3 1128.29 68.99
4 -13 -3 995.8 71.99
4 -13 -3 1011.1 74.29
-4 13 3 1053.69 68.09
-4 13 3 1029 75.89
-4 13 3 955 73.09
3 -13 -3 734.33 49.5
3 -13 -3 609.14 52.39
3 -13 -3 728.73 54.89
-3 13 3 759.02 49.99
-3 13 3 769.22 56.39
-3 13 3 616.54 53.59
2 -13 -3 274.07 27.4
2 -13 -3 280.17 24.3
2 -13 -3 285.07 28.5
-2 13 3 286.27 29.3
-2 13 3 242.08 23.3
-2 13 3 241.68 26.7
1 -13 -3 40.3 10.2
1 -13 -3 26.7 11.6
1 -13 -3 54.39 10.8
-1 13 3 37.9 10.5
-1 13 3 38.6 13
-1 13 3 45 9.8
0 -13 -3 -0.7 2.8
0 -13 -3 0.7 6
0 -13 -3 0.4 5
0 13 3 -7.1 3.9
0 13 3 8 8.5
0 13 3 8.9 6.9
-1 -13 -3 297.17 26
-1 -13 -3 286.67 31.7
-1 -13 -3 263.57 25.6
1 13 3 249.18 29.3
1 13 3 256.67 24.3
1 13 3 298.87 27
-2 -13 -3 13.1 8.2
-2 -13 -3 5 6.2
-2 -13 -3 1.2 4.1
2 13 3 6.7 6.6
2 13 3 3.5 4.2
3 13 3 11.1 3.9
-4 -13 -3 122.49 19.4
-5 -13 -3 1 7.1
-6 -13 -3 151.58 24.5
-7 -13 -3 -3 7.1
11 -14 -3 120.49 10.4
-11 14 3 57.99 18.4
10 -14 -3 241.48 20.6
-10 14 3 200.78 36.9
9 -14 -3 29.9 8.2
-9 14 3 18.5 14.3
8 -14 -3 764.72 52.19
-8 14 3 661.03 62.39
7 -14 -3 79.09 14.1
-7 14 3 72.39 19.4
-7 14 3 61.79 14.9
6 -14 -3 20 8.2
-6 14 3 12 5.4
-6 14 3 11.2 7.6
-6 14 3 -3.3 6.9
5 -14 -3 671.43 51.19
5 -14 -3 663.03 48.2
5 -14 -3 638.14 53.99
-5 14 3 649.74 47.2
-5 14 3 542.75 50.09
-5 14 3 769.92 58.29
4 -14 -3 104.49 19
4 -14 -3 88.49 14.3
4 -14 -3 88.59 16.6
-4 14 3 104.49 12.9
-4 14 3 59.59 15
-4 14 3 86.19 19.6
3 -14 -3 190.08 20.2
3 -14 -3 200.68 24.3
3 -14 -3 199.88 24.1
-3 14 3 196.58 20
-3 14 3 229.78 26.6
-3 14 3 220.38 25.1
2 -14 -3 54.89 14
2 -14 -3 84.09 13.5
2 -14 -3 79.99 17.4
-2 14 3 61.39 16.2
-2 14 3 90.09 14.5
-2 14 3 101.59 18.4
1 -14 -3 36.8 11.3
1 -14 -3 45.6 10.9
1 -14 -3 42.5 11.4
-1 14 3 45.8 14.5
-1 14 3 46.6 11.4
-1 14 3 40.9 11.4
0 -14 -3 27.3 10
0 -14 -3 19.4 11.2
0 -14 -3 33.1 9.9
0 14 3 8.7 10.1
0 14 3 26.8 8.8
0 14 3 9 5.9
-1 -14 -3 9.1 5.4
-1 -14 -3 5.4 7.2
-1 -14 -3 7.6 7.3
1 14 3 4.7 5.6
-2 -14 -3 478.95 42.2
-2 -14 -3 309.37 28.9
2 14 3 410.36 29.7
-3 -14 -3 15.3 8.6
3 14 3 9.4 4.2
-4 -14 -3 338.77 33.7
-5 -14 -3 58.99 13.8
-6 -14 -3 27.7 12.2
-7 -14 -3 87.09 19.4
11 -15 -3 21.9 6.3
-11 15 3 6.7 12.7
10 -15 -3 129.79 15.5
-10 15 3 112.19 25.5
9 -15 -3 335.47 28.3
-9 15 3 275.97 38.9
8 -15 -3 26.8 9.5
-8 15 3 20.7 11.5
7 -15 -3 644.44 49.5
-7 15 3 632.74 51.99
-7 15 3 659.83 60.09
6 -15 -3 185.38 23.3
-6 15 3 173.38 23.2
-6 15 3 226.18 29
5 -15 -3 308.97 27.5
5 -15 -3 296.07 31
-5 15 3 232.98 29.2
-5 15 3 305.47 34.4
-5 15 3 306.87 26.8
4 -15 -3 115.69 21
4 -15 -3 135.09 18.6
4 -15 -3 95.79 15.4
-4 15 3 106.79 16.5
-4 15 3 89.09 19.3
-4 15 3 84.39 19.4
3 -15 -3 52.79 11.6
3 -15 -3 67.49 15.5
3 -15 -3 38.3 13
-3 15 3 44.7 14.8
-3 15 3 73.69 16.6
-3 15 3 45.5 11.2
2 -15 -3 437.46 33.7
2 -15 -3 416.76 38.3
2 -15 -3 363.46 35.1
-2 15 3 370.76 32.1
-2 15 3 311.77 36.9
-2 15 3 404.36 37
1 -15 -3 604.34 48.2
1 -15 -3 618.54 52.59
1 -15 -3 607.34 45.4
-1 15 3 550.64 50.99
-1 15 3 598.84 45.2
-1 15 3 559.04 47.6
0 -15 -3 18.9 8.8
0 -15 -3 17.8 8.6
0 15 3 7.7 6.6
0 15 3 26.5 14
-1 -15 -3 90.79 15.8
1 15 3 93.59 15.2
-2 -15 -3 124.69 19.1
-2 -15 -3 78.39 13.4
2 15 3 107.49 13
-3 -15 -3 282.57 28.8
3 15 3 288.87 21.5
-4 -15 -3 35.8 11.1
-5 -15 -3 152.38 24
-6 -15 -3 24.6 21.6
10 -16 -3 9.4 7.5
-10 16 3 -11.9 10.2
9 -16 -3 133.19 17.1
-9 16 3 140.19 30.7
8 -16 -3 495.05 40.2
-8 16 3 477.15 50.19
7 -16 -3 21.4 18.3
-7 16 3 9.1 8.1
6 -16 -3 302.27 30.5
-6 16 3 272.27 31.4
-6 16 3 334.47 38
5 -16 -3 59.39 13.8
5 -16 -3 47.5 12.4
-5 16 3 39.1 14.1
-5 16 3 102.29 33.8
4 -16 -3 470.85 43.6
4 -16 -3 540.25 40.1
4 -16 -3 507.15 48
-4 16 3 399.36 43
-4 16 3 538.15 48
3 -16 -3 357.16 35.1
3 -16 -3 360.26 30.8
3 -16 -3 327.87 35.6
-3 16 3 331.77 36
-3 16 3 311.47 34.8
2 -16 -3 18.2 7.6
2 -16 -3 4.4 8.8
-2 16 3 27.5 11.9
-2 16 3 18.9 9.5
1 -16 -3 18.5 8.5
1 -16 -3 35.8 12.5
-1 16 3 24.8 9
0 -16 -3 4.8 4.8
0 -16 -3 5.4 7.9
0 16 3 5.4 5.7
-1 -16 -3 2.1 5.3
-1 -16 -3 8.1 7.3
1 16 3 6.7 5.8
-2 -16 -3 148.19 22.9
-2 -16 -3 145.49 17.1
2 16 3 154.58 16.6
-3 -16 -3 10.2 7
3 16 3 3.1 3.9
-4 -16 -3 230.88 27.2
-5 -16 -3 47.9 14.4
10 -17 -3 186.68 22
-10 17 3 203.28 74.99
9 -17 -3 23.5 9.7
-9 17 3 9.8 15.5
8 -17 -3 194.78 23.2
-8 17 3 202.88 35.3
7 -17 -3 66.79 16.5
-7 17 3 96.69 23.9
6 -17 -3 -8.9 7.2
-6 17 3 0.5 6.4
5 -17 -3 1273.07 92.39
5 -17 -3 1312.97 87.49
-5 17 3 1326.17 96.69
4 -17 -3 127.99 16.4
-4 17 3 96.79 34.6
3 -17 -3 97.19 20.3
3 -17 -3 108.89 17.6
-3 17 3 101.49 20.8
2 -17 -3 897.81 68.09
2 -17 -3 867.91 62.79
-2 17 3 895.21 67.79
1 -17 -3 0.2 6.5
1 -17 -3 7.8 11.1
-1 17 3 3.6 6.6
0 -17 -3 65.49 14.7
0 -17 -3 83.69 17.1
0 17 3 80.39 15.2
-1 -17 -3 62.39 14.4
-1 -17 -3 25.9 11
1 17 3 38.6 10.3
-2 -17 -3 86.39 14.7
-2 -17 -3 94.29 19.1
2 17 3 112.39 13.4
-3 -17 -3 215.68 26.7
3 17 3 232.68 18.6
-4 -17 -3 -3.6 7.1
-5 -17 -3 114.79 21.2
10 -18 -3 102.79 21.7
-10 18 3 93.09 25.4
9 -18 -3 227.08 26.8
-9 18 3 258.17 34.7
8 -18 -3 104.09 19.7
-8 18 3 95.39 23.5
7 -18 -3 32.8 22.4
-7 18 3 40 16.1
6 -18 -3 271.67 29.3
-6 18 3 381.76 41
5 -18 -3 13.7 8.4
-5 18 3 14.8 11.7
4 -18 -3 439.06 36.2
-4 18 3 365.66 41.7
3 -18 -3 121.59 19
-3 18 3 118.29 28.2
2 -18 -3 15.2 9.2
2 -18 -3 -0.8 6.5
-2 18 3 -1.8 7.8
1 -18 -3 505.95 46.2
1 -18 -3 577.94 44.6
-1 18 3 464.55 43.8
0 -18 -3 85.69 17.4
0 -18 -3 89.29 22.1
0 18 3 75.39 15.7
-1 -18 -3 581.64 46.3
-1 -18 -3 445.76 42.2
1 18 3 582.74 42.9
-2 -18 -3 32.5 11.8
2 18 3 22.2 8.3
-3 -18 -3 28.4 12.7
3 18 3 39.4 7
-4 -18 -3 109.39 21.1
9 -19 -3 10.5 21.4
-9 19 3 7.6 9.9
-8 19 3 143.09 29.2
-7 19 3 41.4 16.9
6 -19 -3 116.99 20.4
-6 19 3 77.59 21.6
5 -19 -3 326.97 31.9
-5 19 3 321.57 38.4
4 -19 -3 5.7 7.5
-4 19 3 -9.4 7.4
3 -19 -3 245.58 26.5
-3 19 3 236.58 30.7
2 -19 -3 384.46 34.8
-2 19 3 371.06 40.4
1 -19 -3 246.28 29.8
1 -19 -3 250.87 27.6
-1 19 3 249.38 28.3
0 -19 -3 196.68 25.1
0 -19 -3 228.98 24.9
0 19 3 186.28 24.4
-1 -19 -3 15.2 11.1
-1 -19 -3 6.6 6.5
1 19 3 8.9 7.7
-2 -19 -3 138.69 23.9
2 19 3 149.09 17
-3 -19 -3 75.79 17.4
3 19 3 124.59 12.5
-8 20 3 -6.9 16.9
-7 20 3 649.54 62.59
6 -20 -3 19 9.6
-6 20 3 28.1 12.6
5 -20 -3 109.19 19.7
-5 20 3 105.49 24.6
4 -20 -3 307.47 30.8
-4 20 3 279.77 36.3
3 -20 -3 4.6 6
-3 20 3 6.6 10.7
2 -20 -3 151.68 22.8
-2 20 3 112.89 21.6
1 -20 -3 87.89 18.2
-1 20 3 119.29 22.4
0 -20 -3 75.69 18.1
0 -20 -3 71.49 15.7
0 20 3 80.39 16.9
-1 -20 -3 289.17 49
-1 -20 -3 441.36 38.9
1 20 3 378.96 33.8
-2 -20 -3 -6.1 4.9
2 20 3 8.6 7.1
6 -21 -3 104.29 19.7
-6 21 3 102.49 26
5 -21 -3 76.29 16.7
-5 21 3 73.19 20
4 -21 -3 80.59 16.8
-4 21 3 93.59 21.2
3 -21 -3 68.99 15.7
-3 21 3 50.59 15.7
2 -21 -3 1.7 7.6
-2 21 3 -13.1 9.8
1 -21 -3 128.69 21.4
-1 21 3 169.68 26
0 -21 -3 306.07 36.1
0 21 3 201.88 26.4
-1 -21 -3 51.79 15.1
-1 -21 -3 30.4 11.7
1 21 3 51.69 13
6 -22 -3 15.6 10.7
-6 22 3 39 31.1
5 -22 -3 356.56 61.49
-5 22 3 286.77 38.8
4 -22 -3 1.6 5.7
-4 22 3 10.7 7.1
3 -22 -3 122.49 23.2
-3 22 3 155.48 27.6
2 -22 -3 85.09 30
-2 22 3 75.99 19.1
1 -22 -3 0.8 6.6
-1 22 3 24.3 12.7
0 23 -4 42.1 11.7
0 -23 4 17.1 11.8
-1 23 -4 97.79 19
1 -23 4 81.89 23.1
-2 23 -4 130.99 23.3
2 -23 4 78.99 27
-3 23 -4 72.49 18
3 -23 4 71.29 19.2
-4 23 -4 94.19 20.5
-5 23 -4 -0.5 12.3
5 -23 4 2.8 7.7
-6 23 -4 192.88 33.5
1 22 -4 21.9 8.8
-1 -22 4 44.9 31.9
0 22 -4 152.18 19.6
0 -22 4 119.99 21.8
-1 22 -4 37.6 12.9
1 -22 4 29.4 10.6
-2 22 -4 148.99 24.7
2 -22 4 122.19 21.7
-3 22 -4 57.69 16.1
3 -22 4 24.3 11.1
-4 22 -4 177.78 28.9
4 -22 4 131.19 23.3
-5 22 -4 220.28 34.9
5 -22 4 155.28 25.3
-6 22 -4 112.19 24.9
2 21 -4 53.49 11.6
-2 -21 4 59.59 15.5
-2 -21 4 94.09 16.6
1 21 -4 59.19 12.6
-1 -21 4 51.39 16.5
-1 -21 4 76.09 16.2
0 21 -4 89.29 16.7
0 -21 4 52.89 14.9
-1 21 -4 176.28 23
1 -21 4 173.98 22.1
-2 21 -4 40.4 12.3
2 -21 4 28.5 10.2
-3 21 -4 591.84 50.89
3 -21 4 554.34 47.1
-4 21 -4 11.1 11.1
4 -21 4 19.4 9.3
-5 21 -4 169.88 28.3
5 -21 4 126.09 22.3
-6 21 -4 365.46 41.4
-7 21 -4 127.09 25.8
-8 21 -4 177.08 32.9
-3 -20 4 3.3 7.8
-3 -20 4 27.1 9.6
2 20 -4 -5.6 4.6
-2 -20 4 -7.7 8.6
-2 -20 4 -4.8 6.5
1 20 -4 18.9 8.1
-1 -20 4 16.8 8.4
-1 -20 4 47.2 14.5
0 20 -4 158.18 19.2
0 -20 4 126.09 21.6
0 -20 4 156.88 26.5
1 -20 4 -3.4 5.9
-2 20 -4 714.43 54.19
2 -20 4 569.04 49.7
3 -20 4 136.69 21.4
-4 20 -4 233.68 28.8
4 -20 4 162.28 22.4
-5 20 -4 30.3 12.7
5 -20 4 18 10.3
-6 20 -4 27.2 16.1
-7 20 -4 264.87 33.3
7 -20 4 243.08 33.7
-8 20 -4 31.2 13
8 -20 4 24 13
-9 20 -4 79.59 23.4
9 -20 4 59.29 42.3
-4 -19 4 16.6 11.2
-4 -19 4 24.3 8.9
-3 -19 4 39.7 11.2
-3 -19 4 51.69 14.6
2 19 -4 224.48 20.2
-2 -19 4 181.28 23.9
-2 -19 4 205.58 24.2
1 19 -4 238.18 22.8
-1 -19 4 260.27 49.8
-1 -19 4 170.38 22.2
0 19 -4 0.1 5.4
0 -19 4 1.9 6.4
0 -19 4 -7.8 9.3
-1 19 -4 0.5 5.9
1 -19 4 3.2 9
1 -19 4 2.3 5.6
-2 19 -4 1.8 6.7
2 -19 4 -3 6.7
-3 19 -4 112.89 21.3
3 -19 4 87.99 16.7
-4 19 -4 50.49 15.5
4 -19 4 37.4 11.1
-5 19 -4 108.29 22.2
5 -19 4 116.49 20.5
-6 19 -4 144.59 27.5
6 -19 4 150.68 24.6
-7 19 -4 140.59 26.9
7 -19 4 156.58 24.4
-8 19 -4 150.38 29.5
8 -19 4 191.88 30
-9 19 -4 2.5 8.2
9 -19 4 17.3 11.2
-5 -18 4 -0.2 8.6
-4 -18 4 107.29 34.3
-4 -18 4 148.09 23.4
-3 -18 4 21.9 8.5
-3 -18 4 34.9 12.2
2 18 -4 464.25 33.4
-2 -18 4 445.76 39.5
-2 -18 4 364.36 36.5
1 18 -4 102.79 14.4
-1 -18 4 144.09 22.3
-1 -18 4 85.79 16.7
0 18 -4 23.7 8.9
0 -18 4 38.3 11.6
0 -18 4 16.4 19.2
-1 18 -4 207.08 23.7
1 -18 4 208.88 23.5
1 -18 4 259.77 29.5
-2 18 -4 104.09 19.1
2 -18 4 90.59 16.1
2 -18 4 98.79 20.8
-3 18 -4 408.26 37
3 -18 4 293.57 29.8
-4 18 -4 54.39 16.4
4 -18 4 54.59 15.7
4 -18 4 54.59 12.9
-5 18 -4 539.55 48.2
5 -18 4 467.55 43.9
-6 18 -4 179.58 29.6
6 -18 4 184.58 24.7
-7 18 -4 119.39 25.7
7 -18 4 111.09 18.8
-8 18 -4 84.79 21.7
8 -18 4 104.69 17.9
-9 18 -4 96.89 23.8
9 -18 4 87.69 16
-10 18 -4 -7.1 12.8
-6 -17 4 136.59 27.3
-5 -17 4 84.99 18
-5 -17 4 73.19 6.3
-4 -17 4 37.4 27.3
-4 -17 4 13.5 9
-3 -17 4 141.89 21.5
-3 -17 4 98.09 17.3
2 17 -4 327.07 26.1
-2 -17 4 324.77 30.8
-2 -17 4 272.07 28.8
1 17 -4 46.8 10.7
-1 -17 4 95.89 18.1
-1 -17 4 51.99 12.9
0 17 -4 1.2 4.7
0 -17 4 -6.7 6.4
0 -17 4 -3.9 7.9
-1 17 -4 549.05 43.1
1 -17 4 451.35 75.39
1 -17 4 511.65 41.5
-2 17 -4 85.89 17.2
2 -17 4 83.69 20
2 -17 4 60.89 13.3
2 -17 4 99.09 19.4
-3 17 -4 28.5 11.1
3 -17 4 12.7 10.5
3 -17 4 38.9 10.8
3 -17 4 22.1 11.8
-4 17 -4 99.49 19.7
4 -17 4 87.39 22.9
4 -17 4 74.09 17.5
-5 17 -4 153.18 26.2
5 -17 4 183.38 38.7
-6 17 -4 23.3 10.8
6 -17 4 15.4 9.1
-7 17 -4 129.39 25.3
7 -17 4 129.79 18.3
-8 17 -4 70.09 18.3
8 -17 4 45.7 11.4
-9 17 -4 47.5 16.5
9 -17 4 60.59 11.8
-10 17 -4 165.08 32.6
10 -17 4 178.88 15.5
10 -17 4 183.68 14.7
-6 -16 4 8.4 7.8
-5 -16 4 46.8 13.4
-5 -16 4 64.99 6.9
-4 -16 4 1.8 5
-4 -16 4 -2.7 5.2
-3 -16 4 425.26 36.9
-3 -16 4 400.36 33.8
2 16 -4 696.43 45.4
-2 -16 4 513.95 53.89
-2 -16 4 694.73 50.89
1 16 -4 -5.9 2.9
-1 -16 4 4.4 6.6
-1 -16 4 0.5 5.3
0 16 -4 667.73 47.9
0 16 -4 625.04 48.1
0 -16 4 701.53 53.49
0 -16 4 613.34 58.39
0 -16 4 604.44 47.7
-1 16 -4 371.46 33.3
-1 16 -4 443.16 35.9
1 -16 4 455.35 43
1 -16 4 356.36 33.3
1 -16 4 468.85 40.3
-2 16 -4 109.49 14.2
-2 16 -4 111.49 18.7
2 -16 4 119.29 15.1
2 -16 4 118.79 21.6
2 -16 4 89.79 33
-3 16 -4 878.71 60.79
-3 16 -4 952.1 66.89
3 -16 4 882.51 68.39
3 -16 4 856.01 61.29
3 -16 4 795.22 74.89
-4 16 -4 64.49 12.3
-4 16 -4 66.89 15.5
4 -16 4 62.29 15.2
4 -16 4 49 11.5
4 -16 4 73.79 16.6
-5 16 -4 26.1 12
5 -16 4 42.5 12.3
-6 16 -4 0.9 8.6
6 -16 4 6.2 6.7
-7 16 -4 31.9 13.5
7 -16 4 43.5 11
-8 16 -4 231.98 31.9
8 -16 4 251.97 23.6
-9 16 -4 2.5 11.3
-10 16 -4 32.6 14.4
-7 -15 4 28.3 10.4
-6 -15 4 168.18 22.3
-5 -15 4 7.6 8.1
-5 -15 4 12.9 4.2
-4 -15 4 63.79 14.5
-3 -15 4 377.26 31.9
2 15 -4 23.8 9.3
2 15 -4 26.6 6.7
-2 -15 4 24.4 8.6
-2 -15 4 10.8 7
1 15 -4 417.76 32.3
1 15 -4 412.16 34.1
-1 -15 4 445.36 43.3
-1 -15 4 434.06 36.9
-1 -15 4 375.46 33.6
0 15 -4 89.79 14.7
0 15 -4 65.29 13.2
0 -15 4 115.39 18.9
0 -15 4 80.89 14.4
0 -15 4 113.39 21.7
-1 15 -4 1594.64 104.89
-1 15 -4 1594.94 103.09
1 -15 4 1728.83 113.49
1 -15 4 1615.14 103.39
1 -15 4 1669.83 109.39
-2 15 -4 818.12 57.89
-2 15 -4 727.53 53.49
2 -15 4 807.42 54.79
2 -15 4 717.23 59.09
2 -15 4 764.52 60.19
-3 15 -4 180.48 19.3
-3 15 -4 226.78 24.4
3 -15 4 173.08 35.3
3 -15 4 165.68 22.4
3 -15 4 224.08 22
-4 15 -4 318.67 27.9
-4 15 -4 387.66 34.7
4 -15 4 259.07 32.8
4 -15 4 393.46 31.1
4 -15 4 308.87 31.9
-5 15 -4 3.2 4.4
-5 15 -4 4.7 5.4
5 -15 4 2.2 6.5
5 -15 4 6.2 6.7
-6 15 -4 868.31 69.09
6 -15 4 808.62 59.39
-7 15 -4 119.19 23.1
7 -15 4 151.98 17.1
-8 15 -4 137.99 26.7
8 -15 4 147.39 15.7
-9 15 -4 123.39 26.9
9 -15 4 156.58 14.2
-10 15 -4 34.5 15.8
-11 15 -4 53.49 19.6
-7 -14 4 108.19 20.6
-6 -14 4 5.7 9.2
-5 -14 4 283.17 20
-5 -14 4 263.97 28
-4 -14 4 75.79 19.9
-4 -14 4 91.79 11.9
3 14 -4 41.9 11.1
-3 -14 4 37.9 9.2
-3 -14 4 38.4 10.3
2 14 -4 377.06 32.7
2 14 -4 384.36 30.3
-2 -14 4 443.96 34.3
-2 -14 4 497.75 44
-2 -14 4 334.47 31.9
1 14 -4 219.18 23.6
1 14 -4 227.98 21.5
-1 -14 4 305.07 26.9
-1 -14 4 279.67 31.6
-1 -14 4 271.47 24.6
0 14 -4 667.33 47.7
0 14 -4 618.44 47
0 -14 4 696.93 73.79
0 -14 4 687.03 48.3
0 -14 4 681.13 51.09
-1 14 -4 10.9 5.8
-1 14 -4 4.2 5.3
1 -14 4 7.3 7.5
1 -14 4 -2.9 6.3
1 -14 4 5.9 4.6
-2 14 -4 2216.88 137.79
-2 14 -4 2090.49 133.29
2 -14 4 2179.48 140.39
2 -14 4 2192.08 141.09
2 -14 4 2285.47 134.59
-3 14 -4 1262.67 82.99
-3 14 -4 1336.77 88.89
3 -14 4 1358.66 84.49
3 -14 4 1216.88 89.39
3 -14 4 1307.67 89.09
-4 14 -4 923.21 62.49
-4 14 -4 928.41 68.09
4 -14 4 931.51 63.79
4 -14 4 895.41 72.09
4 -14 4 934.11 66.19
-5 14 -4 707.53 54.59
-5 14 -4 690.23 47.9
5 -14 4 599.64 53.49
5 -14 4 629.14 48.7
-6 14 -4 408.66 33.9
-6 14 -4 424.56 40.6
6 -14 4 398.96 40.5
6 -14 4 427.86 34.8
-7 14 -4 101.59 35
7 -14 4 89.29 12.9
-8 14 -4 16.2 10.4
8 -14 4 14.3 6.2
-9 14 -4 -2.6 6.6
9 -14 4 0.2 2.4
9 -14 4 5.1 2.9
-10 14 -4 29.5 14.2
-11 14 -4 248.48 39.1
-8 -13 4 15.2 9.7
-7 -13 4 122.49 21.5
-6 -13 4 17.1 8
-5 -13 4 84.09 8.7
-5 -13 4 68.29 15.6
4 13 -4 140.09 18.8
-4 -13 4 227.88 34.2
-4 -13 4 153.98 19.1
-4 -13 4 133.89 14.8
3 13 -4 90.89 15.2
-3 -13 4 75.09 14.1
-3 -13 4 178.18 27.2
-3 -13 4 75.99 13
2 13 -4 1018.3 63.39
2 13 -4 977.8 68.49
-2 -13 4 1044.9 67.99
-2 -13 4 1004.6 75.79
-2 -13 4 948.11 67.19
1 13 -4 13.8 5.8
1 13 -4 8.4 4.4
-1 -13 4 15.5 7
-1 -13 4 23.5 8.1
-1 -13 4 21.1 10.1
0 13 -4 260.37 23.9
0 13 -4 303.57 25.2
0 -13 4 271.37 26.9
0 -13 4 307.17 25.4
0 -13 4 289.27 31
-1 13 -4 1551.74 97.69
-1 13 -4 1521.15 99.69
1 -13 4 1590.24 105.49
1 -13 4 1558.64 102.89
1 -13 4 1642.24 98.59
-2 13 -4 79.99 13
-2 13 -4 106.59 14.8
2 -13 4 100.39 13
2 -13 4 92.49 17.7
2 -13 4 97.99 17.6
-3 13 -4 554.44 44.2
-3 13 -4 512.25 39.4
3 -13 4 530.05 45.6
3 -13 4 594.54 41.2
3 -13 4 567.54 44.7
-4 13 -4 2338.77 145.19
-4 13 -4 2261.87 138.49
4 -13 4 2234.68 146.29
4 -13 4 2265.07 140.09
4 -13 4 2341.37 142.79
-5 13 -4 323.37 26.3
-5 13 -4 296.27 30.5
5 -13 4 298.97 27.1
5 -13 4 294.37 31.7
-6 13 -4 968.6 64.39
-6 13 -4 916.11 70.59
6 -13 4 956.5 63.99
6 -13 4 940.51 71.79
-7 13 -4 8 7.9
7 -13 4 2 4.6
-8 13 -4 1131.39 88.49
8 -13 4 1271.17 74.99
-9 13 -4 99.99 22.7
-10 13 -4 15 11.1
-11 13 -4 114.09 25
-8 -12 4 168.78 26.7
-7 -12 4 38.5 13.5
-6 -12 4 194.28 23.6
-5 -12 4 66.89 13
-5 -12 4 101.49 21.1
-5 -12 4 60.59 7.6
4 12 -4 60.39 12.7
-4 -12 4 41.3 13.4
-4 -12 4 29 9.7
-4 -12 4 34.5 7.2
3 12 -4 851.31 58.69
-3 -12 4 1045 72.69
-3 -12 4 750.92 55.29
-3 -12 4 813.32 57.99
2 12 -4 119.49 12.3
2 12 -4 133.59 15.5
-2 -12 4 147.79 16.3
-2 -12 4 128.49 28.9
-2 -12 4 143.79 24.2
1 12 -4 790.92 53.89
1 12 -4 812.82 55.69
-1 -12 4 828.12 63.39
-1 -12 4 840.52 58.19
-1 -12 4 879.61 56.79
0 12 -4 447.66 33.8
0 12 -4 386.86 32.2
0 -12 4 477.05 34.2
0 -12 4 457.85 36.9
0 -12 4 475.15 40.1
-1 12 -4 0.8 3.1
-1 12 -4 4.8 3.7
1 -12 4 -1.4 4.8
1 -12 4 2.2 2.8
1 -12 4 -3.4 4.7
-2 12 -4 684.93 48.5
-2 12 -4 734.53 52.59
2 -12 4 705.43 53.99
2 -12 4 751.12 49.7
2 -12 4 746.93 54.49
-3 12 -4 405.86 35.7
-3 12 -4 401.96 31.6
3 -12 4 412.46 36.9
3 -12 4 458.75 33.3
3 -12 4 434.86 35.8
-4 12 -4 831.42 56.99
-4 12 -4 941.61 63.79
4 -12 4 852.41 63.99
4 -12 4 839.32 59.79
-5 12 -4 804.82 54.69
-5 12 -4 896.31 62.09
5 -12 4 776.12 55.49
5 -12 4 779.12 61.29
-6 12 -4 16.9 6.7
-6 12 -4 24.6 10.1
6 -12 4 20.3 6.8
6 -12 4 -3.4 7.7
-7 12 -4 97.09 20
-7 12 -4 87.59 14.9
7 -12 4 75.59 18.2
7 -12 4 70.99 10.2
-8 12 -4 761.72 64.69
8 -12 4 873.91 50.19
8 -12 4 811.62 50.49
-9 12 -4 -3.7 8.3
-10 12 -4 117.19 25.3
-11 12 -4 13.6 11.1
-9 -11 4 224.58 28.2
-8 -11 4 66.09 16.4
-7 -11 4 14.1 8.2
-6 -11 4 11.7 12.8
5 11 -4 150.58 17.9
-5 -11 4 208.78 25
-5 -11 4 136.99 17.8
-5 -11 4 122.59 11.7
-4 -11 4 20.1 5.9
-4 -11 4 23.2 8
3 11 -4 61.19 11.4
-3 -11 4 49.8 9.4
-3 -11 4 44.3 9.9
-3 -11 4 61.09 15.3
2 11 -4 815.22 53.89
2 11 -4 843.72 57.59
-2 -11 4 889.41 65.89
-2 -11 4 872.61 57.99
-2 -11 4 898.51 58.19
1 11 -4 476.65 35.5
1 11 -4 499.55 36.8
-1 -11 4 592.34 38.6
-1 -11 4 522.15 39.2
-1 -11 4 516.95 43.8
0 11 -4 536.35 38.5
0 11 -4 520.05 37.4
0 -11 4 484.75 39.9
0 -11 4 573.34 44.9
0 -11 4 581.24 38.7
-1 11 -4 813.52 58.59
-1 11 -4 856.81 56.99
1 -11 4 952.4 58.09
1 -11 4 893.21 63.49
1 -11 4 900.61 61.99
-2 11 -4 841.92 58.09
-2 11 -4 801.32 54.19
2 -11 4 872.11 55.19
2 -11 4 798.92 59.29
2 -11 4 844.82 59.39
-3 11 -4 226.98 22.1
-3 11 -4 174.08 16.9
3 -11 4 194.28 20.3
3 -11 4 167.48 20.4
3 -11 4 200.28 18.6
-4 11 -4 707.73 46.7
-4 11 -4 728.33 52.49
4 -11 4 636.44 47.9
4 -11 4 667.23 52.49
-5 11 -4 891.91 63.79
-5 11 -4 897.71 58.09
5 -11 4 837.12 57.69
5 -11 4 841.92 63.69
-6 11 -4 350.46 32.5
-6 11 -4 284.97 29.9
6 -11 4 320.67 25.1
6 -11 4 290.27 31.4
-7 11 -4 12.2 11.5
-7 11 -4 23.1 9.2
7 -11 4 26.2 10.7
7 -11 4 17.4 5.3
-8 11 -4 481.55 43.7
8 -11 4 436.46 41.9
-10 11 -4 125.39 25.5
-11 11 -4 54.89 17.6
-9 -10 4 85.09 19
-8 -10 4 99.69 18.7
-7 -10 4 6.8 6.2
-7 -10 4 9.7 10.4
6 10 -4 256.07 25.8
-6 -10 4 184.98 22.5
5 10 -4 88.59 15.3
-5 -10 4 78.99 8.5
-5 -10 4 69.39 14
-5 -10 4 84.09 19.1
4 10 -4 213.18 20.2
-4 -10 4 178.58 16.4
-4 -10 4 199.98 20.4
-4 -10 4 263.87 27.5
3 10 -4 601.44 41.7
-3 -10 4 474.65 38.1
-3 -10 4 633.54 48.5
-3 -10 4 606.74 41.7
2 10 -4 435.16 32.9
2 10 -4 428.86 30
-2 -10 4 443.56 33
-2 -10 4 474.15 33.7
1 10 -4 133.59 14.4
1 10 -4 154.18 14
-1 -10 4 162.88 15.2
-1 -10 4 145.99 15.6
0 10 -4 848.12 57.59
0 10 -4 885.01 58.69
0 -10 4 936.21 58.69
0 -10 4 962.2 61.59
-1 10 -4 3981.8 235.18
-1 10 -4 3980.7 237.78
1 -10 4 4095.79 240.18
1 -10 4 4167.18 235.78
-2 10 -4 55.19 9
-2 10 -4 40.2 9.3
2 -10 4 42.3 7.9
2 -10 4 44.5 10.8
2 -10 4 27.9 8.6
-3 10 -4 907.61 61.09
-3 10 -4 867.91 55.99
3 -10 4 896.51 64.39
3 -10 4 818.62 61.09
3 -10 4 862.81 57.09
-4 10 -4 1616.14 98.89
-4 10 -4 1656.33 104.59
4 -10 4 1582.24 104.99
4 -10 4 1606.34 100.29
-5 10 -4 96.09 12.5
-5 10 -4 152.48 18.1
5 -10 4 111.09 15.5
5 -10 4 116.09 12.8
-6 10 -4 252.77 28.1
-6 10 -4 293.57 25.6
6 -10 4 309.67 22.8
6 -10 4 313.67 30.5
-7 10 -4 552.34 47.8
-7 10 -4 615.24 44
7 -10 4 589.04 35.9
7 -10 4 548.75 35
7 -10 4 508.75 68.69
-8 10 -4 8.6 8.6
8 -10 4 -1.9 6.3
-9 10 -4 532.25 48.2
-10 10 -4 21.1 13.2
-11 10 -4 161.48 27.2
-12 10 -4 28 13.6
-10 -9 4 110.99 21.4
-9 -9 4 49.99 13.1
-8 -9 4 9.7 6.8
-8 -9 4 20.8 11.5
-7 -9 4 550.24 67.29
-7 -9 4 681.93 56.09
6 9 -4 18.2 8.8
-6 -9 4 13.4 9.1
-6 -9 4 33.9 9.9
5 9 -4 293.07 26.4
-5 -9 4 281.67 26.3
-5 -9 4 304.17 21.2
-5 -9 4 295.57 31.3
4 9 -4 172.98 17.7
-4 -9 4 204.28 23.5
-4 -9 4 159.88 17.1
-4 -9 4 143.99 13.7
3 9 -4 521.65 35.7
-3 -9 4 496.05 35.3
-3 -9 4 410.26 32
2 9 -4 1049.89 68.49
2 9 -4 1070.49 65.79
-2 -9 4 1115.89 68.59
-2 -9 4 1081.89 68.69
1 9 -4 577.64 40.9
1 9 -4 624.04 40.6
-1 -9 4 634.14 43
-1 -9 4 626.34 45.5
0 9 -4 1548.65 98.49
0 9 -4 1589.74 99.69
0 -9 4 1789.02 99.79
0 -9 4 1650.33 101.99
-1 9 -4 1053.99 66.99
-1 9 -4 1073.39 69.49
1 -9 4 1120.99 67.59
1 -9 4 1091.89 71.29
-2 9 -4 746.83 54.29
-2 9 -4 747.43 49.3
2 -9 4 817.92 50.19
2 -9 4 752.32 53.79
-3 9 -4 95.69 13.3
-3 9 -4 87.69 10.4
3 -9 4 103.49 12.2
3 -9 4 80.89 14.5
-4 9 -4 1028.1 62.89
-4 9 -4 966.8 66.99
4 -9 4 973 62.99
4 -9 4 943.21 67.69
-5 9 -4 283.37 28
-5 9 -4 299.27 24.6
5 -9 4 304.97 22.8
5 -9 4 287.07 28.3
-6 9 -4 65.49 13.7
-6 9 -4 76.39 12.3
6 -9 4 56.89 13.8
6 -9 4 53.59 7.2
-7 9 -4 465.55 41.2
7 -9 4 489.95 28
7 -9 4 501.55 41.8
7 -9 4 459.35 32.4
-8 9 -4 133.49 22.6
8 -9 4 143.89 19.8
-9 9 -4 19.3 10.5
9 -9 4 26.2 12.2
-10 9 -4 448.56 43.5
-11 9 -4 28.4 13.8
-12 9 -4 127.89 25.4
-10 -8 4 14.1 19.1
-10 -8 4 12 10.7
-9 -8 4 35.5 13.1
-9 -8 4 61.09 16.9
-8 -8 4 124.79 21.2
7 8 -4 158.28 25.7
-7 -8 4 127.59 20.7
-7 -8 4 189.08 25
6 8 -4 129.39 16.5
-6 -8 4 197.68 23.6
-6 -8 4 119.69 9.7
-6 -8 4 102.29 17.5
-6 -8 4 125.29 10.1
5 8 -4 410.66 31.9
-5 -8 4 370.96 25.4
-5 -8 4 477.75 38.4
-5 -8 4 395.96 31.9
-5 -8 4 326.77 25
4 8 -4 61.59 10.7
-4 -8 4 36.1 8.4
-4 -8 4 34.5 6.5
3 8 -4 64.79 10.5
-3 -8 4 69.09 8.4
-3 -8 4 75.59 11.6
2 8 -4 683.33 47.5
-2 -8 4 751.22 47.5
-2 -8 4 743.53 48.1
1 8 -4 2064.79 127.79
1 8 -4 1994.9 134.69
-1 -8 4 2344.17 129.59
-1 -8 4 2293.37 130.59
0 8 -4 302.77 23.1
0 8 -4 337.47 24.7
0 -8 4 347.57 26.2
0 -8 4 322.57 23.7
-1 8 -4 604.94 40.3
-1 8 -4 638.84 42.9
1 -8 4 635.54 40.7
1 -8 4 612.94 43.7
-2 8 -4 564.94 39.9
-2 8 -4 504.65 38.6
2 -8 4 563.54 40.7
2 -8 4 568.24 37.3
-3 8 -4 354.36 35.3
-3 8 -4 306.67 23.2
3 -8 4 291.07 26.5
-4 8 -4 1280.57 79.99
-4 8 -4 1347.17 84.69
4 -8 4 1246.98 84.49
4 -8 4 1293.87 79.49
-5 8 -4 600.04 45.4
-5 8 -4 623.64 42.1
5 -8 4 591.14 38.7
5 -8 4 561.54 45.4
-6 8 -4 7.5 6.3
6 -8 4 16.3 2.9
6 -8 4 17.8 3.6
6 -8 4 15.7 7.6
-7 8 -4 170.88 20.6
7 -8 4 136.89 19.1
-8 8 -4 121.39 21.5
8 -8 4 140.69 18.8
-9 8 -4 263.07 30
9 -8 4 267.57 28.7
-10 8 -4 2.6 7.2
-11 8 -4 218.88 37.3
-12 8 -4 18.7 10.9
-12 8 -4 8.1 9.1
-10 -7 4 148.29 25.3
-10 -7 4 95.19 16.7
-10 -7 4 113.99 19.7
-9 -7 4 24.5 11.9
-9 -7 4 25.2 13.4
-8 -7 4 726.43 55.19
-8 -7 4 517.25 47.5
-7 -7 4 36.2 13
-7 -7 4 26.9 3.3
-7 -7 4 35 10.6
-7 -7 4 19.9 3.5
6 7 -4 19.3 7.9
-6 -7 4 16.5 4.4
-6 -7 4 22.2 4.1
-6 -7 4 17.5 8.1
-6 -7 4 28.7 11.3
5 7 -4 109.39 12.9
-5 -7 4 67.29 8.1
-5 -7 4 99.59 12.5
-5 -7 4 75.29 7.8
4 7 -4 63.79 10.7
-4 -7 4 68.69 7.5
-4 -7 4 56.99 10.6
3 7 -4 4272.37 252.67
-3 -7 4 4078.99 253.57
-3 -7 4 4704.73 250.57
2 7 -4 522.45 37.9
-2 -7 4 528.85 37.2
-2 -7 4 611.74 37.2
1 7 -4 746.03 49
1 7 -4 749.92 48.6
-1 -7 4 818.12 50.59
-1 -7 4 808.92 49.5
0 7 -4 1441.46 87.79
0 7 -4 1414.46 88.79
0 -7 4 1565.44 88.49
0 -7 4 1488.05 90.49
-1 7 -4 759.62 49.1
-1 7 -4 724.83 46.5
1 -7 4 775.82 47.1
1 -7 4 726.23 49.8
-2 7 -4 5239.18 297.87
-2 7 -4 5130.69 294.07
2 -7 4 5121.19 298.67
2 -7 4 5062.19 294.77
-3 7 -4 3123.89 176.58
-3 7 -4 2863.91 171.98
3 -7 4 2879.51 176.48
-4 7 -4 1659.73 100.19
-4 7 -4 1599.14 110.19
4 -7 4 1684.13 104.49
-5 7 -4 9.6 5.4
5 -7 4 2 4.8
5 -7 4 6.6 2.1
5 -7 4 6.7 2.7
-6 7 -4 95.39 16.3
6 -7 4 112.09 15.1
6 -7 4 107.79 7.1
-7 7 -4 485.85 40.3
7 -7 4 476.45 40
-8 7 -4 33.3 10.6
8 -7 4 42.5 12.3
-9 7 -4 21.3 9.6
9 -7 4 22.2 14.7
-10 7 -4 313.87 32.8
10 -7 4 299.87 31.8
-11 7 -4 -6.2 7.9
-12 7 -4 223.98 26.3
-12 7 -4 153.88 27.5
-10 -6 4 24.1 8.6
-10 -6 4 4.8 11.5
-10 -6 4 36.4 11.5
-9 -6 4 28.5 11.1
-9 -6 4 41.6 13.5
-8 -6 4 81.39 7.4
-8 -6 4 137.39 21.9
-8 -6 4 76.99 15.9
-8 -6 4 73.89 6.5
-7 -6 4 127.19 11.5
-7 -6 4 153.08 18
-7 -6 4 104.99 9.3
6 6 -4 1104.49 67.09
-6 -6 4 966.3 60.39
-6 -6 4 1053.99 66.99
-6 -6 4 850.01 57.69
5 6 -4 940.21 58.39
-5 -6 4 779.72 51.79
-5 -6 4 1018.6 59.89
-5 -6 4 794.02 53.29
4 6 -4 820.12 51.09
-4 -6 4 734.23 46.2
-4 -6 4 723.03 50.39
3 6 -4 644.04 43.4
-3 -6 4 593.84 42.2
-3 -6 4 670.23 40.2
2 6 -4 772.82 49.8
-2 -6 4 808.62 49.2
-2 -6 4 789.12 49.9
1 6 -4 1303.17 79.49
1 6 -4 1325.17 79.89
-1 -6 4 1317.37 80.69
-1 -6 4 1410.56 80.29
0 6 -4 546.05 34.9
0 6 -4 510.75 33.5
0 -6 4 532.05 33.9
0 -6 4 523.65 35.6
-1 6 -4 1311.47 78.79
-1 6 -4 1343.37 81.29
1 -6 4 1308.37 81.89
1 -6 4 1350.66 79.09
-2 6 -4 440.46 31.3
-2 6 -4 430.76 28.7
2 -6 4 422.26 31.8
-3 6 -4 439.56 30.9
-3 6 -4 492.65 34.4
3 -6 4 435.36 34
-4 6 -4 587.04 41.3
4 -6 4 529.15 40.7
-5 6 -4 2.8 3.3
5 -6 4 9.5 2.1
5 -6 4 9.7 2.4
5 -6 4 6.7 4.6
-6 6 -4 915.91 62.79
6 -6 4 874.71 62.09
-7 6 -4 86.09 15.7
7 -6 4 91.39 16
-8 6 -4 237.28 25.8
8 -6 4 271.17 26.3
-9 6 -4 58.59 13.5
9 -6 4 47.8 13.2
-10 6 -4 9.9 9.2
10 -6 4 8.6 8.5
-11 6 -4 233.88 27
-11 6 -4 203.88 26.9
11 -6 4 210.08 26.6
-12 6 -4 31.6 11
-12 6 -4 36.1 13
-11 -5 4 119.19 20
-11 -5 4 73.19 16.4
-11 -5 4 68.19 13.3
-10 -5 4 0.7 10.4
-10 -5 4 12 9.5
-10 -5 4 0.5 6.1
-9 -5 4 120.99 20.6
-9 -5 4 111.39 14.7
-9 -5 4 97.99 9.6
-9 -5 4 84.79 17.2
-8 -5 4 823.52 51.09
-8 -5 4 747.93 58.49
-7 -5 4 276.97 26.1
-7 -5 4 159.98 20.9
-7 -5 4 218.98 18.2
-6 -5 4 310.87 23.6
-6 -5 4 298.07 26.9
5 5 -4 51.59 9.6
-5 -5 4 41.4 7.2
-5 -5 4 46.6 9.8
4 5 -4 185.48 16
-4 -5 4 145.69 15.3
3 5 -4 7886.11 441.86
-3 -5 4 7345.46 441.56
-3 -5 4 7993.3 439.36
2 5 -4 583.44 39.1
-2 -5 4 648.74 39.5
-2 -5 4 612.24 38.3
1 5 -4 2719.73 161.78
-1 -5 4 2748.82 162.48
-1 -5 4 2964.4 162.28
0 5 -4 21.3 3.9
0 5 -4 18.6 4
0 -5 4 21.8 3.9
0 -5 4 22.6 4.9
-1 5 -4 0.3 1
-1 5 -4 4.2 2.7
1 -5 4 0.6 2.2
1 -5 4 3.4 2.1
-2 5 -4 1013.8 61.79
-2 5 -4 940.71 58.89
2 -5 4 972.4 61.99
-3 5 -4 1028.1 63.69
3 -5 4 946.71 63.59
-4 5 -4 26.4 7
4 -5 4 26.2 3.4
4 -5 4 17.7 6.9
-5 5 -4 40 9.4
5 -5 4 37.4 9.2
5 -5 4 41 3.5
5 -5 4 41.8 3.6
-6 5 -4 0 3.8
6 -5 4 3.3 4
-7 5 -4 217.78 22.3
7 -5 4 209.88 21.9
-8 5 -4 65.99 13.7
8 -5 4 54.79 12
-9 5 -4 170.78 21
9 -5 4 177.68 21.5
-10 5 -4 97.99 19.8
-10 5 -4 144.49 18.6
10 -5 4 141.49 21.8
-11 5 -4 30.2 10.7
-11 5 -4 35.3 13.8
11 -5 4 40.4 13.2
-12 5 -4 5.6 9.4
-12 5 -4 3.9 6.8
12 -5 4 18.2 13.2
-11 -4 4 67.59 13.1
-11 -4 4 78.49 16.8
-11 -4 4 65.49 9
-11 -4 4 74.99 16.7
-10 -4 4 279.77 27.9
-10 -4 4 226.28 18.6
-10 -4 4 239.98 27.9
-10 -4 4 230.28 22.6
-9 -4 4 15 8
-9 -4 4 -8.8 7.4
-9 -4 4 12.2 5.3
-9 -4 4 4.3 5.2
-8 -4 4 222.18 20.9
-8 -4 4 185.08 22
-8 -4 4 208.18 18.8
-7 -4 4 36.5 10.4
-7 -4 4 43.7 8.3
-6 -4 4 59.29 9.7
-6 -4 4 75.09 12.6
-5 -4 4 1397.56 90.79
-5 -4 4 1633.24 94.29
4 4 -4 1483.55 90.29
-4 -4 4 1279.57 83.89
-4 -4 4 1483.25 86.59
3 4 -4 815.62 50.79
-3 -4 4 795.82 50.79
2 4 -4 1021.3 66.09
-2 -4 4 1200.78 66.89
1 4 -4 244.08 17
-1 -4 4 249.68 17.7
-1 -4 4 265.67 17.3
0 4 -4 4617.34 271.57
0 4 -4 4713.83 270.17
0 -4 4 4699.63 272.07
0 -4 4 4999.9 270.37
-1 4 -4 559.44 35.9
-1 4 -4 536.25 33.9
1 -4 4 566.44 36.4
-2 4 -4 1510.75 90.59
2 -4 4 1495.15 90.89
-3 4 -4 1502.25 84.09
3 -4 4 1380.96 83.89
3 -4 4 1218.48 78.59
-4 4 -4 199.68 18.2
4 -4 4 224.38 19.3
4 -4 4 206.28 13.9
-5 4 -4 2494.25 148.09
5 -4 4 2420.66 154.28
-6 4 -4 301.37 26.7
6 -4 4 325.97 27.1
-7 4 -4 44.7 9.9
7 -4 4 42.7 10
-8 4 -4 44.4 10.3
8 -4 4 48.6 11
-9 4 -4 27.1 9.7
-9 4 -4 25.6 8.5
9 -4 4 2.7 7.7
-10 4 -4 12.5 7.9
-10 4 -4 6.8 8.6
10 -4 4 -3.3 8.2
-11 4 -4 49.1 14.6
-11 4 -4 34.8 9.8
11 -4 4 45.9 11.9
-12 4 -4 20.8 11.4
-12 4 -4 36.5 11.2
12 -4 4 28.4 22.1
-11 -3 4 200.88 20.7
-11 -3 4 218.58 18.7
-11 -3 4 231.68 27.3
-11 -3 4 250.57 25.8
-10 -3 4 2.4 5
-10 -3 4 -5.6 4.7
-10 -3 4 5 7.5
-9 -3 4 156.18 16.7
-9 -3 4 147.89 16.6
-9 -3 4 151.48 27.4
-9 -3 4 147.69 19
-8 -3 4 -2.9 3.3
-8 -3 4 3.8 4.8
-8 -3 4 -5.5 4.1
-8 -3 4 1.3 4.4
-7 -3 4 247.88 22.8
-7 -3 4 213.08 20.4
-7 -3 4 216.88 20.2
-6 -3 4 1.3 2.5
-6 -3 4 -1.6 2.9
-5 -3 4 55.59 15.8
-5 -3 4 48 8.6
4 3 -4 562.04 36.3
-4 -3 4 499.45 35.1
-4 -3 4 533.65 36.1
3 3 -4 8183.18 465.05
2 3 -4 4690.23 279.87
-2 -3 4 5149.69 280.37
1 3 -4 4559.44 262.07
-1 -3 4 4681.43 262.07
0 3 -4 801.82 48.7
0 -3 4 826.92 50.49
0 -3 4 872.51 48.9
-1 3 -4 1041 61.19
1 -3 4 1033 61.49
1 -3 4 967.4 60.19
-2 3 -4 258.97 18.1
2 -3 4 236.68 18.2
2 -3 4 213.98 15.6
-3 3 -4 33.8 6.4
3 -3 4 34.6 7
3 -3 4 28.5 3.7
-4 3 -4 486.95 34.5
4 -3 4 492.35 30
4 -3 4 492.35 34.9
-5 3 -4 930.51 64.79
5 -3 4 1054.19 66.19
5 -3 4 1052.19 58.49
-6 3 -4 266.87 23.1
6 -3 4 272.27 24.1
-7 3 -4 54.39 13.6
7 -3 4 76.69 13
-8 3 -4 8.5 4.9
-8 3 -4 15.5 7.3
8 -3 4 6.2 4.7
-9 3 -4 118.29 15
-9 3 -4 108.79 19
9 -3 4 100.19 16
-10 3 -4 13.6 6.9
-10 3 -4 4.4 8.5
10 -3 4 -3.3 7.5
-11 3 -4 180.88 19.6
-11 3 -4 176.98 23.7
11 -3 4 181.18 22.4
-11 -2 4 52.09 11.3
-11 -2 4 89.79 12
-11 -2 4 52.69 14.8
-11 -2 4 74.89 14.1
-10 -2 4 149.99 17.9
-10 -2 4 169.68 22.2
-10 -2 4 186.18 19.6
-10 -2 4 172.78 19.6
-9 -2 4 295.17 24.9
-9 -2 4 291.47 27.7
-9 -2 4 344.17 28.5
-9 -2 4 278.87 29.1
-8 -2 4 961.8 69.19
-8 -2 4 967.3 64.39
-8 -2 4 1069.69 68.19
-7 -2 4 20.8 7.3
-7 -2 4 18.6 6.6
-7 -2 4 12.9 4.5
-6 -2 4 713.33 48.8
-6 -2 4 745.03 50.69
-6 -2 4 767.52 51.09
-5 -2 4 35.6 7.5
-5 -2 4 28 6.2
-5 -2 4 27 6.8
-4 -2 4 43.5 7.4
-4 -2 4 46.6 7.9
3 2 -4 173.38 13.2
-3 -2 4 158.68 13
2 2 -4 364.76 24.1
-2 -2 4 401.86 24.4
1 2 -4 26.7 2.7
-1 -2 4 24.3 2.6
-1 -2 4 17 3.9
0 2 -4 124.39 10.1
0 2 -4 126.19 8.2
0 -2 4 119.39 10
-1 2 -4 246.08 16
-1 2 -4 222.18 15.3
1 -2 4 218.58 15.8
1 -2 4 198.18 15
-2 2 -4 291.27 19.1
-2 2 -4 258.57 17.5
2 -2 4 259.67 19
2 -2 4 248.88 17.5
-3 2 -4 5.6 1.9
-3 2 -4 1.9 2.1
3 -2 4 4.2 1.9
3 -2 4 0 2.2
-4 2 -4 4055.59 216.68
-4 2 -4 3715.33 220.28
4 -2 4 3646.74 220.58
4 -2 4 3782.62 216.98
-5 2 -4 495.65 37.5
-5 2 -4 547.75 33.4
5 -2 4 591.04 33.9
5 -2 4 574.24 38.9
-6 2 -4 15.4 2.4
-6 2 -4 21.3 5.8
6 -2 4 26.2 6.5
-7 2 -4 428.86 34
-7 2 -4 532.85 39.5
7 -2 4 469.05 35.4
-8 2 -4 15.6 6.4
-8 2 -4 24.3 8.7
8 -2 4 39 9
-9 2 -4 111.79 13.5
-9 2 -4 94.29 17.9
9 -2 4 112.29 14.9
-10 2 -4 201.08 25.4
-10 2 -4 194.08 19.8
10 -2 4 239.78 22.3
-11 2 -4 -0.9 4.9
-11 2 -4 12.2 9.1
11 -2 4 -12.5 7.7
-11 -1 4 30 7.5
-11 -1 4 39.5 9.7
-11 -1 4 52.29 13.3
-11 -1 4 24.2 9.4
-10 -1 4 534.75 37.7
-10 -1 4 488.05 44.2
-10 -1 4 567.24 43.3
-9 -1 4 195.88 18.4
-9 -1 4 187.78 22.4
-9 -1 4 275.77 29.1
-8 -1 4 13 5
-8 -1 4 2.8 5.2
-8 -1 4 6.8 6.1
-7 -1 4 250.17 21
-7 -1 4 276.87 24.5
-7 -1 4 266.17 24.5
-6 -1 4 29.5 6.2
-6 -1 4 23.1 6.7
-6 -1 4 41.8 9
-5 -1 4 1547.95 98.99
-5 -1 4 1759.62 101.19
-5 -1 4 1674.43 101.99
-4 -1 4 1706.03 103.29
-4 -1 4 1682.93 102.89
-4 -1 4 1818.82 105.09
-3 -1 4 1371.66 83.39
-3 -1 4 1393.46 84.29
-3 -1 4 1473.25 85.49
-2 -1 4 2019.5 120.09
-2 -1 4 2102.59 118.29
0 1 -4 1.4 1.7
0 -1 4 6.8 2.5
-1 1 -4 1198.78 68.79
1 -1 4 1152.58 68.79
1 -1 4 1134.89 68.39
-2 1 -4 1007.2 58.59
-2 1 -4 996.3 58.59
2 -1 4 940.51 58.59
2 -1 4 971.2 58.89
-3 1 -4 1175.28 65.19
-3 1 -4 1021.7 65.49
3 -1 4 1053.59 66.19
3 -1 4 1112.79 65.29
-4 1 -4 17.6 3.9
-4 1 -4 12.1 3.7
4 -1 4 20.5 4.3
4 -1 4 19.7 4.9
-5 1 -4 527.25 31.7
-5 1 -4 441.36 33.1
-5 1 -4 509.25 37
5 -1 4 478.95 31.5
5 -1 4 511.25 34.5
-6 1 -4 779.02 49.99
-6 1 -4 932.91 58.69
-6 1 -4 750.52 52.49
6 -1 4 887.01 54.59
-7 1 -4 109.09 11.9
-7 1 -4 113.99 17.8
-7 1 -4 104.69 9
7 -1 4 125.79 13.4
-8 1 -4 650.03 39.1
-8 1 -4 674.33 45.7
-8 1 -4 815.42 54.09
8 -1 4 565.94 79.19
-9 1 -4 -0.9 3.6
9 -1 4 3.2 5
-10 1 -4 63.29 15.7
-10 1 -4 62.79 25.6
10 -1 4 102.39 13.9
-11 1 -4 51.39 15.7
11 -1 4 58.69 11.1
-12 0 4 13.6 9.4
-12 0 4 7.2 7.5
-11 0 4 182.08 22.9
-11 0 4 157.98 25.3
-11 0 4 197.48 16.3
-11 0 4 189.28 17.5
-10 0 4 1.5 4.1
-10 0 4 -11.3 6.3
-10 0 4 5.1 6.7
-10 0 4 8.5 5.9
-9 0 4 24.8 10.3
-9 0 4 26.5 9.8
-9 0 4 29 6.8
-8 0 4 274.57 27.3
-8 0 4 226.38 23.2
-8 0 4 232.78 19.9
-7 0 4 32.9 6.8
-7 0 4 33 8.1
-7 0 4 40.3 9.7
-6 0 4 596.54 42.1
-6 0 4 593.54 43.7
-6 0 4 592.84 39.4
-5 0 4 1223.58 72.89
-5 0 4 1156.08 74.39
-5 0 4 1104.69 70.59
-4 0 4 2372.26 136.19
-4 0 4 2250.27 132.99
-4 0 4 2199.38 133.29
-3 0 4 52.69 7.4
-3 0 4 61.09 6.8
2 0 -4 12.4 3
-2 0 4 17.8 3.8
1 0 -4 1371.16 80.29
-1 0 4 1345.27 80.29
0 0 -4 181.98 14
0 0 4 193.78 14.4
-1 0 -4 501.45 30.4
-1 0 -4 439.96 28.7
1 0 4 446.56 29.9
-2 0 -4 950.4 56.29
-2 0 -4 899.21 56.39
2 0 4 948.21 56.49
2 0 4 892.21 54.99
-3 0 -4 2265.27 122.99
-3 0 -4 2145.29 124.39
-3 0 -4 1877.41 120.99
3 0 4 2051.49 121.99
3 0 4 2146.29 122.79
-4 0 -4 1672.13 105.99
-4 0 -4 1816.22 111.29
-4 0 -4 2019.6 107.79
4 0 4 1771.52 107.09
4 0 4 1806.82 107.39
-5 0 -4 34.8 6.4
-5 0 -4 34.8 5.9
-5 0 -4 33.2 8.3
5 0 4 41.8 7.1
5 0 4 40.7 6.6
-6 0 -4 78.49 13.3
-6 0 -4 74.49 8.4
-6 0 -4 55.89 7.6
6 0 4 66.99 10.2
-7 0 -4 675.13 47.7
-7 0 -4 592.74 40
-7 0 -4 565.54 39.4
7 0 4 651.73 42.1
-8 0 -4 -2.2 2.6
-8 0 -4 0.7 2.7
-8 0 -4 2.5 4.3
8 0 4 -4.2 4.1
-9 0 -4 302.27 19.6
-9 0 -4 306.47 31
-9 0 -4 306.57 22.8
9 0 4 318.47 25.1
-10 0 -4 105.49 20.2
10 0 4 129.89 13.5
-11 0 -4 33.6 14.7
-12 1 4 20.3 11
-12 1 4 26.6 11.9
-11 1 4 81.19 8.8
-11 1 4 112.49 20.5
-11 1 4 107.89 10.1
-11 1 4 92.49 18.2
-10 1 4 366.56 27.1
-10 1 4 332.27 33.7
-10 1 4 412.36 36.8
-10 1 4 394.56 28.6
-9 1 4 57.79 12.9
-9 1 4 67.59 15.6
-9 1 4 68.39 9.4
-8 1 4 590.64 45.5
-8 1 4 604.54 47.7
-8 1 4 610.54 40.7
-7 1 4 211.98 20.5
-7 1 4 195.88 16.9
6 -1 -4 15.8 5.8
-6 1 4 15.1 7
-6 1 4 13.8 5
-6 1 4 20.1 5.1
5 -1 -4 1218.18 71.79
-5 1 4 990 68.09
-5 1 4 1193.98 73.89
4 -1 -4 784.92 48.8
4 -1 -4 727.03 45.6
-4 1 4 750.92 49.9
-4 1 4 693.13 46.2
3 -1 -4 1380.96 89.19
-3 1 4 1581.14 90.59
-3 1 4 1614.74 93.09
2 -1 -4 3086.09 180.28
-2 1 4 3172.08 182.18
-2 1 4 3140.39 180.88
1 -1 -4 180.18 13.7
1 -1 -4 164.88 10.7
-1 1 4 174.78 13.9
-1 1 4 174.58 10.8
0 -1 -4 1293.27 76.79
0 -1 -4 1348.07 79.59
0 1 4 1329.87 79.69
0 1 4 1357.16 76.89
-1 -1 -4 1779.22 99.99
-1 -1 -4 1623.14 97.79
1 1 4 1636.14 99.69
1 1 4 1692.23 98.19
-2 -1 -4 231.18 17.4
-2 -1 -4 232.78 17.8
2 1 4 239.28 18.1
2 1 4 216.48 17.3
2 1 4 224.88 15.5
-3 -1 -4 6759.52 375.66
-3 -1 -4 6403.86 376.26
3 1 4 6664.63 375.86
3 1 4 6457.45 373.06
-4 -1 -4 483.35 34
-4 -1 -4 490.25 32.2
4 1 4 433.16 29.9
4 1 4 440.16 31.7
-5 -1 -4 378.76 26
-5 -1 -4 313.07 27.5
5 1 4 328.77 25.2
5 1 4 350.06 24.2
-6 -1 -4 -1.4 2.1
-6 -1 -4 4.2 4.5
-6 -1 -4 -3.2 2.5
6 1 4 3.9 3.2
-7 -1 -4 757.82 53.79
-7 -1 -4 869.91 60.89
7 1 4 902.71 53.59
-8 -1 -4 627.54 43.8
-8 -1 -4 804.82 76.39
8 1 4 670.83 43.4
-9 -1 -4 10.8 8.2
-9 -1 -4 4.1 3.7
9 1 4 0.4 3.6
-10 -1 -4 156.88 11.1
-10 -1 -4 143.79 10.6
-10 -1 -4 111.49 21.5
-12 2 4 141.79 24.2
-12 2 4 125.89 23.9
-11 2 4 284.97 31.5
-11 2 4 334.27 34.1
-10 2 4 14.5 9.9
-10 2 4 26.7 9.1
-10 2 4 16.2 4.6
-10 2 4 18.1 5.4
-9 2 4 600.94 39.9
-9 2 4 631.24 50.19
-9 2 4 556.84 46.2
8 -2 -4 43.7 10.3
-8 2 4 23.3 8.5
-8 2 4 28.8 6.4
-8 2 4 25.1 9.7
7 -2 -4 227.58 21.5
-7 2 4 209.58 17.8
-7 2 4 209.48 23.4
6 -2 -4 341.97 26.9
-6 2 4 320.37 28.8
-6 2 4 312.67 23.9
5 -2 -4 318.07 30.3
-5 2 4 322.47 24.3
-5 2 4 370.76 29.4
4 -2 -4 5989.1 338.57
4 -2 -4 5470.15 334.37
-4 2 4 6398.16 340.87
-4 2 4 5672.53 335.97
3 -2 -4 3716.73 218.18
3 -2 -4 3658.93 220.38
-3 2 4 4038.8 222.48
2 -2 -4 2206.98 132.89
2 -2 -4 2279.17 134.29
-2 2 4 2212.98 130.29
-2 2 4 2416.66 134.09
-2 2 4 2294.37 134.99
1 -2 -4 35.6 3.6
1 -2 -4 35.4 6
-1 2 4 33.5 3.6
-1 2 4 35 6
-1 2 4 35 6.2
-1 -2 -4 232.88 17.2
-1 -2 -4 254.97 19.3
1 2 4 252.07 19.5
1 2 4 244.48 17.5
-2 -2 -4 5079.19 285.97
-2 -2 -4 4690.63 284.27
2 2 4 5207.28 286.37
2 2 4 4874.51 284.67
-3 -2 -4 2955.4 169.58
-3 -2 -4 3091.69 169.88
3 2 4 2835.52 165.08
3 2 4 2652.93 170.28
3 2 4 2882.91 169.38
-4 -2 -4 1082.89 69.49
-4 -2 -4 1148.89 69.09
4 2 4 1061.19 68.29
4 2 4 1055.59 64.59
-5 -2 -4 114.49 13.8
-5 -2 -4 119.59 13.1
5 2 4 95.59 11.7
5 2 4 97.39 9.5
-6 -2 -4 1669.33 105.39
-6 -2 -4 1702.03 102.19
6 2 4 1604.94 97.39
-7 -2 -4 440.06 35.2
-7 -2 -4 547.05 41.3
7 2 4 502.05 31.9
-8 -2 -4 98.59 18.3
-8 -2 -4 101.19 13
8 2 4 124.69 10.1
-9 -2 -4 217.98 19.8
-9 -2 -4 235.68 26.5
-10 -2 -4 -2.7 7.5
-10 -2 -4 10.6 4.9
-11 -2 -4 83.69 18.8
-12 3 4 14.2 9.9
-12 3 4 42.6 15.2
-11 3 4 52.49 15.2
-11 3 4 50.79 13.5
-10 3 4 65.59 16.4
-10 3 4 80.29 15.9
-10 3 4 83.69 7.9
-10 3 4 77.39 8.2
9 -3 -4 69.09 13.1
-9 3 4 51.89 15.4
-9 3 4 64.09 8.5
-9 3 4 61.59 13.8
8 -3 -4 311.47 28.2
-8 3 4 275.57 31.6
-8 3 4 356.06 24.8
7 -3 -4 234.58 21.6
-7 3 4 203.48 22.9
-7 3 4 183.08 16.8
6 -3 -4 67.59 12.4
-6 3 4 74.99 9.1
-6 3 4 89.59 15.3
5 -3 -4 2417.36 138.09
5 -3 -4 2516.05 143.69
-5 3 4 2360.46 145.49
-5 3 4 2209.18 139.49
4 -3 -4 1469.05 92.29
4 -3 -4 1577.04 96.49
-4 3 4 1744.33 99.49
-4 3 4 1496.15 93.89
3 -3 -4 6.6 3.8
3 -3 -4 0.3 1.7
-3 3 4 9.9 4.8
-3 3 4 -0.3 1.8
-3 3 4 2.8 1.8
2 -3 -4 3609.74 218.08
2 -3 -4 3753.62 214.28
2 -3 -4 3604.04 216.98
-2 3 4 3902.21 219.48
-2 3 4 3990.5 218.48
-2 3 4 3717.23 214.18
1 -3 -4 5977.4 343.97
1 -3 -4 5747.73 343.37
-1 3 4 6246.98 344.77
-1 3 4 6052.69 344.07
0 3 4 9358.36 533.45
-1 -3 -4 2077.89 123.69
-1 -3 -4 2150.88 126.39
1 3 4 2121.69 123.89
1 3 4 2124.69 126.69
-2 -3 -4 4589.14 252.87
-2 -3 -4 4245.08 250.47
2 3 4 4325.87 252.67
2 3 4 4235.38 250.67
-3 -3 -4 56.39 9.7
-3 -3 -4 56.79 9.4
3 3 4 51.89 9.4
3 3 4 53.29 9.5
3 3 4 62.69 5.6
-4 -3 -4 164.08 16.4
-4 -3 -4 159.78 16.1
4 3 4 170.88 16.2
4 3 4 153.58 11.5
4 3 4 149.88 16.6
-5 -3 -4 698.43 46.1
-5 -3 -4 625.14 46
5 3 4 624.64 44.6
5 3 4 628.24 38.8
-6 -3 -4 3.7 6.1
-6 -3 -4 28.6 13.2
6 3 4 20.2 3.2
-7 -3 -4 25.4 9.3
-7 -3 -4 29 8.6
-8 -3 -4 20.2 9.4
-8 -3 -4 37 9.3
-9 -3 -4 168.08 22.3
-9 -3 -4 175.08 18.5
-10 -3 -4 -0.6 8.7
-10 -3 -4 28.2 20.8
-11 -3 -4 29 10.5
-12 4 4 225.38 30.3
-12 4 4 139.19 24.7
-11 4 4 24.8 11.8
-11 4 4 10.4 7.8
10 -4 -4 193.68 26.7
-10 4 4 221.28 28.2
-10 4 4 177.38 11.9
-10 4 4 186.88 23
-10 4 4 163.18 11.9
9 -4 -4 305.77 27.9
-9 4 4 276.67 31.2
-9 4 4 248.08 20
8 -4 -4 220.48 21.9
-8 4 4 165.48 23.1
-8 4 4 172.08 15.9
7 -4 -4 383.06 31.5
-7 4 4 332.77 33.3
-7 4 4 353.06 26.3
6 -4 -4 1246.28 72.99
6 -4 -4 1189.18 78.99
-6 4 4 1271.77 83.19
-6 4 4 1150.08 74.79
5 -4 -4 1294.97 80.49
5 -4 -4 1305.87 75.19
-5 4 4 1087.09 76.09
-5 4 4 1316.97 90.89
4 -4 -4 161.48 14
4 -4 -4 149.09 17.1
-4 4 4 181.78 14
-4 4 4 146.49 14.7
-4 4 4 215.08 19.9
3 -4 -4 104.59 12.4
3 -4 -4 111.69 11.3
-3 4 4 130.89 10
-3 4 4 97.99 11.4
-3 4 4 118.79 13.9
1 -4 -4 368.26 23.3
1 -4 -4 373.96 26.7
1 -4 -4 325.77 25.6
-1 4 4 366.36 27.3
-1 4 4 337.97 26.2
-1 4 4 366.76 23.6
0 -4 -4 1343.67 83.39
0 -4 -4 1464.65 87.49
0 4 4 1434.56 84.09
0 4 4 1373.96 85.39
0 4 4 1478.05 88.09
-1 -4 -4 1459.75 90.69
-1 -4 -4 1562.44 94.29
1 4 4 1524.65 91.19
1 4 4 1534.45 94.49
1 4 4 1545.05 90.49
-2 -4 -4 64.89 8.3
-2 -4 -4 61.09 10.6
2 4 4 52.79 10.1
2 4 4 70.79 7.1
2 4 4 54.39 9.2
-3 -4 -4 185.68 17.9
-3 -4 -4 157.08 16
3 4 4 174.98 11.9
3 4 4 186.58 12.8
3 4 4 167.18 16.5
3 4 4 178.48 17.6
-4 -4 -4 1558.74 106.39
-4 -4 -4 1691.13 100.29
4 4 4 1608.84 100.29
4 4 4 1537.05 99.89
4 4 4 1578.74 91.99
4 4 4 1643.64 92.09
-5 -4 -4 1345.47 84.79
-5 -4 -4 1267.17 84.49
-6 -4 -4 1751.82 108.29
-6 -4 -4 1657.13 108.89
-7 -4 -4 47 11.3
-7 -4 -4 64.59 12.3
-8 -4 -4 982 68.09
-8 -4 -4 979.3 71.39
-9 -4 -4 8.5 6.8
-9 -4 -4 2.9 6.8
-10 -4 -4 190.18 21.1
-10 -4 -4 171.48 27
-12 5 4 26.7 13.8
-12 5 4 -1.8 8
11 -5 -4 240.38 28.9
-11 5 4 224.98 26.8
-11 5 4 277.17 33.1
10 -5 -4 12.7 9.1
-10 5 4 10.2 8.5
9 -5 -4 1006.9 67.59
-9 5 4 873.91 56.69
-9 5 4 893.91 70.59
8 -5 -4 812.32 59.09
-8 5 4 827.12 52.19
-8 5 4 772.32 62.39
7 -5 -4 104.89 10.2
7 -5 -4 124.39 15.1
-7 5 4 116.99 20.6
-7 5 4 109.19 12.2
6 -5 -4 1995 120.09
6 -5 -4 2003.4 112.79
-6 5 4 1912.11 122.69
-6 5 4 1733.53 114.39
5 -5 -4 572.74 37.1
5 -5 -4 556.64 42.1
-5 5 4 471.25 37.9
-5 5 4 602.34 38.1
-5 5 4 641.24 45.4
4 -5 -4 2286.87 142.59
4 -5 -4 2330.37 138.89
-4 5 4 2272.17 140.39
-4 5 4 2387.16 137.59
-4 5 4 2522.35 145.49
3 -5 -4 844.32 60.69
3 -5 -4 949.21 59.29
3 -5 -4 962.1 57.09
-3 5 4 966.2 56.69
-3 5 4 913.81 60.09
2 -5 -4 134.29 10.7
2 -5 -4 126.59 13.4
2 -5 -4 109.39 12.5
-2 5 4 131.79 13.9
-2 5 4 123.29 10.6
-2 5 4 130.09 13.9
1 -5 -4 7.1 3.9
1 -5 -4 6.6 3.4
1 -5 -4 9.7 3
-1 5 4 6.8 3.7
-1 5 4 5.5 2.4
-1 5 4 1.8 2.4
0 -5 -4 446.36 30.3
0 -5 -4 432.66 28.8
0 -5 -4 441.96 32.5
0 5 4 422.96 32.7
0 5 4 411.76 29.1
0 5 4 435.16 30.5
-1 -5 -4 790.92 53.99
-1 -5 -4 800.22 50.49
1 5 4 782.72 54.19
1 5 4 806.12 50.19
1 5 4 799.12 50.89
-2 -5 -4 43.7 8
2 5 4 32.9 5.6
2 5 4 37.9 8.9
2 5 4 31.5 7.2
-3 -5 -4 345.77 28.5
-3 -5 -4 351.86 26.9
3 5 4 322.17 27.6
3 5 4 319.37 21.4
3 5 4 325.17 26.4
-4 -5 -4 954.4 60.89
-4 -5 -4 889.81 58.89
4 5 4 737.93 63.79
4 5 4 850.71 58.39
-5 -5 -4 20.3 7.9
-5 -5 -4 25.1 8.6
5 5 4 24 7.4
-6 -5 -4 -4.8 4.7
-6 -5 -4 12.4 6.4
-7 -5 -4 132.89 17
-7 -5 -4 91.19 30.8
-8 -5 -4 26.8 12.2
-8 -5 -4 32.1 10.7
-9 -5 -4 276.77 28.3
-9 -5 -4 258.57 29.8
-10 -5 -4 1.2 8.5
-10 -5 -4 0 8.5
-12 6 4 137.29 26.4
-12 6 4 113.29 22.2
-11 6 4 2.3 12.5
10 -6 -4 232.38 27.3
-10 6 4 300.87 33.2
9 -6 -4 1 7.3
-9 6 4 -9.1 7.9
-9 6 4 -2.4 3.4
8 -6 -4 716.83 55.09
-8 6 4 781.72 48.8
-8 6 4 676.03 58.39
7 -6 -4 528.35 34
7 -6 -4 496.85 40.9
-7 6 4 559.04 45.8
-7 6 4 486.15 36.3
6 -6 -4 710.23 44.9
6 -6 -4 659.43 50.89
-6 6 4 786.42 55.79
-6 6 4 598.94 46.4
-6 6 4 762.92 47.4
5 -6 -4 360.26 31
5 -6 -4 368.76 26.9
-5 6 4 424.36 34.4
-5 6 4 385.26 26.9
-5 6 4 324.37 28
4 -6 -4 627.84 41.7
4 -6 -4 620.44 44.7
-4 6 4 627.14 46.7
-4 6 4 576.14 42.6
-4 6 4 616.24 39.9
3 -6 -4 171.18 17.4
3 -6 -4 179.58 14.2
3 -6 -4 160.48 15.7
-3 6 4 163.98 13.7
-3 6 4 140.79 15.7
-3 6 4 184.28 18.5
2 -6 -4 1311.77 81.89
2 -6 -4 1269.87 77.49
2 -6 -4 1219.98 81.49
-2 6 4 1295.67 82.89
-2 6 4 1296.47 77.89
-2 6 4 1406.26 83.59
1 -6 -4 350.76 28.7
1 -6 -4 367.86 25.2
1 -6 -4 342.97 27.3
-1 6 4 350.76 28.1
-1 6 4 377.16 29.9
-1 6 4 403.16 25.9
0 -6 -4 6264.67 363.46
0 -6 -4 6246.57 361.96
0 6 4 6549.34 367.86
0 6 4 6161.78 363.96
0 6 4 6480.35 362.76
-1 -6 -4 13.3 4.7
-1 -6 -4 14.6 5.9
1 6 4 6.1 5.3
1 6 4 12 4.5
1 6 4 13.3 4.6
-2 -6 -4 4061.19 238.28
-2 -6 -4 4019.5 234.08
2 6 4 3938.01 230.98
2 6 4 4085.69 234.78
2 6 4 4007.6 238.08
-3 -6 -4 57.19 12.1
-3 -6 -4 42.2 9.5
3 6 4 55.19 6
3 6 4 50.09 11.4
3 6 4 54.19 10.4
-4 -6 -4 191.78 21.4
-4 -6 -4 188.58 19.9
4 6 4 194.28 21
4 6 4 198.28 19.8
-5 -6 -4 402.26 34.8
-5 -6 -4 403.26 33.6
5 6 4 400.06 49.6
-6 -6 -4 327.27 32
-6 -6 -4 400.36 34.2
-7 -6 -4 2.5 5
-7 -6 -4 4 7.2
-8 -6 -4 114.39 20.1
-8 -6 -4 89.49 17.2
-9 -6 -4 4.9 9
-9 -6 -4 4.5 9.4
-10 -6 -4 77.59 20.1
-12 7 4 5.3 7.7
-12 7 4 22.4 12.2
-11 7 4 485.25 51.19
-10 7 4 34.9 13.4
9 -7 -4 468.45 40.8
-9 7 4 457.85 45.5
-9 7 4 452.75 31.9
8 -7 -4 94.19 20.5
8 -7 -4 105.69 10.5
-8 7 4 120.19 17.4
-8 7 4 113.99 13.1
-8 7 4 108.39 22
7 -7 -4 512.65 42.4
7 -7 -4 519.45 34.9
-7 7 4 448.86 36.5
-7 7 4 578.64 38.7
-7 7 4 561.84 46.9
6 -7 -4 1377.86 84.79
6 -7 -4 1331.87 91.39
-6 7 4 1262.57 86.99
-6 7 4 1432.66 86.39
-6 7 4 1618.24 97.49
5 -7 -4 627.94 47.5
5 -7 -4 682.33 43.4
-5 7 4 631.44 42.2
-5 7 4 564.64 44.3
-5 7 4 698.13 50.89
4 -7 -4 1009.1 70.39
4 -7 -4 1068.29 67.69
-4 7 4 1003.1 68.99
-4 7 4 1141.89 73.89
-4 7 4 1067.79 65.29
3 -7 -4 52.29 10.1
3 -7 -4 72.39 12.3
3 -7 -4 61.49 7.9
-3 7 4 68.09 8.4
-3 7 4 80.99 16.6
-3 7 4 71.69 12.2
2 -7 -4 7268.77 445.86
2 -7 -4 7625.24 440.16
-2 7 4 8086.39 446.86
-2 7 4 7685.23 446.06
-2 7 4 7989.7 440.86
1 -7 -4 2682.43 152.68
1 -7 -4 2499.45 155.38
1 -7 -4 2558.54 157.38
-1 7 4 2556.34 156.28
-1 7 4 2652.53 158.68
-1 7 4 2707.03 153.08
0 -7 -4 143.69 17.3
0 -7 -4 182.68 16.5
0 -7 -4 178.28 15.2
0 7 4 193.78 16
0 7 4 176.08 16.7
0 7 4 181.98 19.1
-1 -7 -4 494.55 38.7
1 7 4 473.95 34.2
1 7 4 482.75 34.9
1 7 4 545.55 40.5
-2 -7 -4 99.09 13.8
-2 -7 -4 109.49 12.6
2 7 4 112.89 13.1
2 7 4 103.79 10.4
2 7 4 105.89 14.5
-3 -7 -4 1638.04 99.39
-3 -7 -4 1563.44 95.49
3 7 4 1432.46 94.99
3 7 4 1517.05 98.39
3 7 4 1441.16 88.29
-4 -7 -4 369.26 30.6
-4 -7 -4 362.46 32.2
4 7 4 347.27 30
4 7 4 340.17 31.3
-5 -7 -4 62.99 14.5
-5 -7 -4 37.5 11.2
5 7 4 57.29 11.8
-6 -7 -4 26.1 10.4
-6 -7 -4 19.3 7.8
-7 -7 -4 379.66 34.3
-7 -7 -4 277.77 31.1
-8 -7 -4 5.7 8.5
-8 -7 -4 8.8 6.2
-9 -7 -4 102.79 21.5
-9 -7 -4 102.59 20.8
-12 8 4 68.19 22.1
-11 8 4 245.28 34.1
9 -8 -4 21.6 10.6
-9 8 4 7 6.5
-9 8 4 10.2 5.5
-9 8 4 16.1 11.4
8 -8 -4 463.15 32
8 -8 -4 459.15 40.5
-8 8 4 467.75 34.7
-8 8 4 485.45 45.1
-8 8 4 489.65 38.1
7 -8 -4 269.47 21.7
7 -8 -4 246.08 27.1
-7 8 4 314.37 24.6
-7 8 4 288.77 31.6
-7 8 4 285.57 24.4
6 -8 -4 60.19 13.6
6 -8 -4 63.49 8.8
-6 8 4 49.99 10.1
-6 8 4 61.69 15.7
-6 8 4 55.19 9.8
5 -8 -4 1051.59 72.99
5 -8 -4 1011.7 72.19
-5 8 4 1198.08 77.19
-5 8 4 1150.48 67.49
-5 8 4 938.21 69.59
4 -8 -4 65.99 13.2
4 -8 -4 51.09 10.1
4 -8 -4 51.39 11.2
-4 8 4 67.89 8.7
-4 8 4 67.19 12
-4 8 4 63.39 13.7
3 -8 -4 12.7 6
3 -8 -4 9.7 4.1
3 -8 -4 10.4 4.7
-3 8 4 4.9 4.4
-3 8 4 10.5 5.5
-3 8 4 9.4 4.2
2 -8 -4 2307.07 144.59
2 -8 -4 2342.27 139.79
2 -8 -4 2335.37 144.39
-2 8 4 2352.86 145.59
-2 8 4 2518.35 146.89
-2 8 4 2411.26 140.29
1 -8 -4 1530.25 113.69
1 -8 -4 1793.92 111.89
1 -8 -4 1770.22 106.29
-1 8 4 1832.52 114.99
-1 8 4 1784.42 110.39
-1 8 4 1911.01 107.19
0 -8 -4 2336.37 140.89
0 -8 -4 1985.2 138.99
0 -8 -4 2388.06 136.99
0 8 4 2286.27 137.09
0 8 4 2322.37 141.49
0 8 4 2305.67 135.69
-1 -8 -4 436.66 30.8
-1 -8 -4 419.86 35.1
-1 -8 -4 418.66 31.1
1 8 4 404.66 30.6
1 8 4 431.06 31.9
1 8 4 430.16 36
-2 -8 -4 667.53 48.9
-2 -8 -4 587.94 43.8
2 8 4 616.44 41.4
2 8 4 651.03 45.1
2 8 4 663.43 48.9
-3 -8 -4 152.28 19.1
-3 -8 -4 175.58 18.2
3 8 4 173.78 20.9
3 8 4 167.88 18.4
3 8 4 169.48 13
-4 -8 -4 331.57 29.5
-4 -8 -4 337.37 31.8
4 8 4 324.27 31.2
-5 -8 -4 149.19 20.1
-5 -8 -4 107.39 17.8
5 8 4 107.19 17.5
-6 -8 -4 1.8 6.5
-6 -8 -4 5.2 9.9
-7 -8 -4 51.19 15.5
-7 -8 -4 38.5 12.6
-8 -8 -4 -0.1 6.4
-8 -8 -4 3.6 8.6
-9 -8 -4 12.5 10
-9 -8 -4 -9.3 11.7
-12 9 4 -4.6 10.8
-11 9 4 61.49 21
-10 9 4 164.68 30.6
9 -9 -4 88.49 9.5
-9 9 4 112.99 28.9
-9 9 4 86.89 11.7
-9 9 4 97.29 22.4
8 -9 -4 624.34 41.3
8 -9 -4 659.33 51.89
-8 9 4 697.93 46.4
-8 9 4 551.94 43.7
-8 9 4 604.24 54.59
7 -9 -4 1003 68.79
7 -9 -4 983.1 75.69
-7 9 4 1096.69 67.79
-7 9 4 947.21 67.69
-7 9 4 1156.38 79.79
6 -9 -4 61.89 13.7
6 -9 -4 53.69 9.6
-6 9 4 53.99 14.8
-6 9 4 49.5 10.8
-6 9 4 49.9 9.4
5 -9 -4 1053.19 68.69
5 -9 -4 983.2 72.19
-5 9 4 1089.19 66.79
-5 9 4 981.8 70.09
-5 9 4 1164.98 76.99
4 -9 -4 110.29 15.3
4 -9 -4 121.09 14.4
4 -9 -4 129.69 13.2
-4 9 4 118.69 12.6
-4 9 4 85.59 18.4
-4 9 4 127.69 17.4
3 -9 -4 57.49 9
3 -9 -4 40.4 9.8
3 -9 -4 43.8 9.9
-3 9 4 28.9 9.3
-3 9 4 47.4 8.5
-3 9 4 47.9 10.5
2 -9 -4 405.96 33.3
2 -9 -4 433.86 29.9
2 -9 -4 405.76 33.6
-2 9 4 394.76 33.8
-2 9 4 392.76 34
-2 9 4 413.06 29.8
1 -9 -4 361.86 31.7
1 -9 -4 356.76 29.9
1 -9 -4 354.26 27.2
-1 9 4 416.76 33.8
-1 9 4 352.26 30.2
-1 9 4 380.66 28
0 -9 -4 232.08 19.8
0 -9 -4 219.88 20.5
0 -9 -4 249.08 24.4
0 9 4 215.28 19.6
0 9 4 233.28 21.6
0 9 4 227.38 24.3
-1 -9 -4 1510.55 101.29
-1 -9 -4 1564.44 96.29
-1 -9 -4 1613.64 95.69
1 9 4 1468.65 95.29
1 9 4 1567.44 97.09
1 9 4 1594.24 102.69
-2 -9 -4 117.29 13.9
-2 -9 -4 111.09 18.6
2 9 4 124.89 14.4
2 9 4 97.49 18
2 9 4 101.59 11.5
-3 -9 -4 1578.24 100.19
-3 -9 -4 1449.55 93.99
3 9 4 1432.26 94.39
3 9 4 1459.05 86.99
3 9 4 1464.45 98.89
-4 -9 -4 32 11.7
-4 -9 -4 30 10.6
4 9 4 36.4 10.5
-5 -9 -4 5.7 6.1
-5 -9 -4 10.5 9.4
-6 -9 -4 62.59 14.5
-6 -9 -4 44.4 14.2
-7 -9 -4 -12.5 8.3
-7 -9 -4 6.8 7.7
-8 -9 -4 58.69 27.6
-9 -9 -4 1 6.9
-12 10 4 35.1 14.5
-11 10 4 16.2 14.9
-10 10 4 -2.6 12.2
9 -10 -4 26.9 5.7
-9 10 4 6.6 6.2
-9 10 4 14.1 11
8 -10 -4 8.1 9.3
8 -10 -4 7.9 7.4
-8 10 4 18.1 7.2
-8 10 4 0.4 6.7
-8 10 4 2 5.6
7 -10 -4 15.2 10
7 -10 -4 25.9 7.5
-7 10 4 31 10.5
-7 10 4 28.2 8.7
-7 10 4 35.4 8.3
6 -10 -4 469.65 36
6 -10 -4 485.25 41.5
-6 10 4 495.65 35.6
-6 10 4 540.05 45.6
-6 10 4 405.26 53.09
5 -10 -4 82.49 13.8
5 -10 -4 107.39 18.1
-5 10 4 82.99 15.2
-5 10 4 76.29 11.8
-5 10 4 82.99 17.6
4 -10 -4 535.15 41.5
4 -10 -4 517.65 42.8
4 -10 -4 540.45 38.5
-4 10 4 527.65 37.8
-4 10 4 558.44 43.3
-4 10 4 601.34 46.6
3 -10 -4 848.92 61.09
3 -10 -4 882.01 56.29
3 -10 -4 873.01 60.89
-3 10 4 897.61 56.59
-3 10 4 896.81 62.99
-3 10 4 777.32 60.79
2 -10 -4 625.54 43.2
2 -10 -4 606.84 47
2 -10 -4 626.04 48.2
-2 10 4 687.23 50.49
-2 10 4 650.73 43.6
-2 10 4 639.94 48.6
1 -10 -4 798.42 52.99
1 -10 -4 801.82 56.09
1 -10 -4 837.92 58.99
-1 10 4 789.42 53.39
-1 10 4 781.12 59.19
-1 10 4 795.32 63.39
0 -10 -4 27 9.7
0 -10 -4 42 9.5
0 -10 -4 29.3 7.6
0 10 4 34.5 10.9
0 10 4 37.6 8.9
0 10 4 36.5 8.4
-1 -10 -4 194.28 18.8
-1 -10 -4 197.68 18.8
-1 -10 -4 203.78 23.2
1 10 4 217.08 19.9
1 10 4 183.28 23
1 10 4 197.38 18.9
-2 -10 -4 1621.94 104.69
-2 -10 -4 1777.82 112.39
2 10 4 1654.43 111.39
2 10 4 1705.73 106.39
2 10 4 1655.93 101.69
-3 -10 -4 32 8.8
-3 -10 -4 2 7.5
3 10 4 30.8 5.5
3 10 4 24.7 7.6
3 10 4 23.3 9.7
-4 -10 -4 343.37 37.5
-4 -10 -4 369.66 32.7
4 10 4 374.76 32.6
-5 -10 -4 582.84 49.6
-5 -10 -4 520.15 43.9
-6 -10 -4 8.4 7.7
-6 -10 -4 34.9 13.4
-7 -10 -4 12.9 9
-8 -10 -4 0.3 5.4
-12 11 4 4 10.9
-11 11 4 26 13.1
10 -11 -4 198.58 16
-10 11 4 189.08 33.9
-9 11 4 84.29 13.8
-9 11 4 93.29 22.3
8 -11 -4 340.67 26.2
-8 11 4 374.36 29.6
-8 11 4 299.07 36.4
-8 11 4 269.27 31.4
7 -11 -4 -1.3 5.2
7 -11 -4 2 3.7
-7 11 4 -8 4.3
-7 11 4 4.9 7.8
-7 11 4 -0.6 4.6
6 -11 -4 6.8 5.6
6 -11 -4 9.1 8
-6 11 4 4.5 7.8
-6 11 4 12.2 5.6
-6 11 4 9.3 6.3
5 -11 -4 382.66 36.4
5 -11 -4 432.56 34.6
-5 11 4 469.35 33
-5 11 4 368.96 35.2
-5 11 4 464.15 41
4 -11 -4 6.8 6.4
4 -11 -4 30.2 7.7
4 -11 -4 8.9 6
-4 11 4 12.7 5.5
-4 11 4 7.7 6.5
3 -11 -4 668.93 50.69
3 -11 -4 630.74 50.09
3 -11 -4 692.23 46.1
-3 11 4 659.93 51.89
-3 11 4 710.53 52.99
-3 11 4 664.03 46
2 -11 -4 68.59 11.5
2 -11 -4 70.69 14.8
2 -11 -4 80.89 14.7
-2 11 4 80.29 15.2
-2 11 4 85.59 16.9
-2 11 4 81.39 10.5
1 -11 -4 97.39 16.9
1 -11 -4 90.69 13.3
1 -11 -4 82.29 14.7
-1 11 4 94.79 11.6
-1 11 4 86.79 15.5
-1 11 4 90.19 17.1
0 -11 -4 9.3 5.4
0 -11 -4 21.2 6.3
0 -11 -4 3.6 4.1
0 11 4 6 5.6
0 11 4 18.9 8
0 11 4 8.6 5.1
-1 -11 -4 1554.94 93.49
-1 -11 -4 1499.85 99.99
-1 -11 -4 1374.76 97.49
1 11 4 1454.05 92.29
1 11 4 1473.35 93.99
1 11 4 1449.65 99.79
-2 -11 -4 868.31 66.39
-2 -11 -4 862.41 59.69
2 11 4 871.71 66.49
2 11 4 829.92 55.89
2 11 4 899.41 66.39
-3 -11 -4 187.38 24.8
-3 -11 -4 167.08 19.5
3 11 4 194.38 15.1
3 11 4 201.78 22
3 11 4 189.08 23.5
-4 -11 -4 17.2 8.7
-4 -11 -4 24 9.3
-5 -11 -4 40.1 14.8
-5 -11 -4 60.49 13.4
-6 -11 -4 16.1 9.4
-7 -11 -4 45 14.4
-8 -11 -4 39.2 14.5
-11 12 4 -4.6 12.3
10 -12 -4 136.79 13.3
-10 12 4 112.69 27.7
9 -12 -4 111.29 12.9
-9 12 4 103.09 29.9
-9 12 4 109.69 23.9
8 -12 -4 5.3 4.9
-8 12 4 -7.4 4.5
-8 12 4 -8.3 5.5
7 -12 -4 41.2 9.8
-7 12 4 39.8 10.5
-7 12 4 31.3 12.9
-7 12 4 29.9 8.4
6 -12 -4 566.84 42.6
6 -12 -4 567.94 47.8
-6 12 4 599.24 55.69
-6 12 4 572.14 50.79
-6 12 4 503.85 44.2
5 -12 -4 263.67 28.9
5 -12 -4 305.07 28
5 -12 -4 319.17 26
-5 12 4 284.37 24.3
-5 12 4 233.58 27.2
-5 12 4 292.87 31.1
4 -12 -4 95.99 15.9
4 -12 -4 90.99 11.7
4 -12 -4 82.69 16.2
-4 12 4 87.79 17.6
-4 12 4 90.29 18.4
-4 12 4 99.89 12.3
3 -12 -4 452.65 37.5
3 -12 -4 435.26 32.6
3 -12 -4 404.56 36.3
-3 12 4 442.76 38.4
-3 12 4 373.16 37
-3 12 4 426.16 32.6
2 -12 -4 413.56 31.7
2 -12 -4 398.86 36.4
2 -12 -4 386.56 34.7
-2 12 4 392.86 36.7
-2 12 4 412.66 36.2
-2 12 4 415.56 31.9
1 -12 -4 340.37 33.8
1 -12 -4 381.16 32.3
1 -12 -4 352.66 29
-1 12 4 336.47 33.9
-1 12 4 388.16 30.5
-1 12 4 372.96 32.7
0 -12 -4 425.16 34.4
0 -12 -4 426.46 33.3
0 -12 -4 411.16 38
0 12 4 423.16 34.3
0 12 4 392.06 38.2
0 12 4 400.06 33.3
-1 -12 -4 247.08 27.8
-1 -12 -4 253.37 23.5
-1 -12 -4 255.57 23.4
1 12 4 226.98 22.1
1 12 4 221.08 26.5
1 12 4 240.28 27.9
-2 -12 -4 67.49 16.4
-2 -12 -4 60.99 12.3
2 12 4 52.79 9.8
2 12 4 69.09 14.4
2 12 4 65.29 16.6
-3 -12 -4 2.5 4.7
-3 -12 -4 3.5 6.7
3 12 4 -4.3 2.6
-4 -12 -4 98.49 18.2
-5 -12 -4 7.6 6.7
-6 -12 -4 106.29 19.4
-7 -12 -4 80.79 17
-11 13 4 155.88 30.5
10 -13 -4 23.3 7
-10 13 4 5.9 9.6
9 -13 -4 134.09 15.7
-9 13 4 160.48 19.5
-9 13 4 191.28 33
8 -13 -4 163.18 17.3
-8 13 4 127.89 26.4
-8 13 4 128.69 18.4
7 -13 -4 117.09 16
-7 13 4 110.69 14.2
-7 13 4 71.39 16.8
6 -13 -4 88.79 18.9
6 -13 -4 94.79 16.3
-6 13 4 100.99 21.3
-6 13 4 78.49 13.2
-6 13 4 91.59 17.4
5 -13 -4 264.77 27.7
5 -13 -4 239.08 23.2
5 -13 -4 273.27 26.4
-5 13 4 243.88 28.7
-5 13 4 191.98 24.8
-5 13 4 235.78 30.4
4 -13 -4 96.49 17.5
4 -13 -4 97.79 12.5
-4 13 4 94.29 19.4
-4 13 4 86.79 17.4
-4 13 4 135.29 14.8
3 -13 -4 558.74 44.2
3 -13 -4 542.25 38.8
3 -13 -4 445.26 41.8
-3 13 4 527.25 44.9
-3 13 4 472.65 43.8
-3 13 4 534.35 38.7
2 -13 -4 17.7 9.1
2 -13 -4 23.4 9.9
2 -13 -4 27.4 7.7
-2 13 4 17.2 8.7
-2 13 4 17 6.8
-2 13 4 23.5 9.8
1 -13 -4 859.81 76.39
1 -13 -4 916.41 61.49
1 -13 -4 862.61 64.29
-1 13 4 902.91 69.29
-1 13 4 939.41 62.69
-1 13 4 944.61 65.49
0 -13 -4 44.6 12.3
0 -13 -4 26.2 8.2
0 -13 -4 37.3 10.2
0 13 4 30.5 9.8
0 13 4 36 13
0 13 4 20.8 8.3
-1 -13 -4 281.97 26.6
-1 -13 -4 326.97 33.2
-1 -13 -4 302.27 26.5
1 13 4 280.17 27
1 13 4 261.57 34.5
1 13 4 237.68 29.6
-2 -13 -4 88.59 19.3
-2 -13 -4 104.29 16.6
2 13 4 90.89 11.8
2 13 4 118.89 22.2
2 13 4 100.79 19.8
-3 -13 -4 483.05 39.7
3 13 4 466.05 31.9
-4 -13 -4 121.99 19.4
-5 -13 -4 168.68 22.3
-6 -13 -4 -0.9 6.7
-7 -13 -4 100.49 21.6
11 -14 -4 49.9 8.9
-11 14 4 50.29 20.1
10 -14 -4 61.79 10.9
-10 14 4 43 16.2
9 -14 -4 8.2 6.6
-9 14 4 -5.9 8.9
8 -14 -4 23.4 7.2
-8 14 4 7.6 12.2
-8 14 4 8.9 8
7 -14 -4 238.58 23.8
-7 14 4 224.38 29.7
-7 14 4 215.58 25.2
6 -14 -4 132.19 20.4
-6 14 4 145.09 26.1
-6 14 4 146.19 23.5
-6 14 4 157.98 17.5
5 -14 -4 372.26 31.1
5 -14 -4 362.46 34
5 -14 -4 355.26 35.6
-5 14 4 383.56 30.8
-5 14 4 317.37 34.4
-5 14 4 440.16 40.7
4 -14 -4 15.3 8.8
4 -14 -4 42.4 9.6
4 -14 -4 54.39 13.2
-4 14 4 31.8 8.9
-4 14 4 41.6 13.3
-4 14 4 35.8 12.6
3 -14 -4 13.6 6.9
3 -14 -4 8.9 6.2
3 -14 -4 -0.3 3.4
-3 14 4 -7 3.9
-3 14 4 -5.3 5.2
-3 14 4 -7.6 6.2
2 -14 -4 192.08 19.1
2 -14 -4 167.48 23.2
2 -14 -4 162.98 21.1
-2 14 4 122.49 22.9
-2 14 4 132.59 22.3
-2 14 4 162.38 18.2
1 -14 -4 25.3 11.3
1 -14 -4 36.9 9.2
1 -14 -4 35.5 10.9
-1 14 4 26.8 10.1
-1 14 4 44.6 10.2
-1 14 4 14.1 10.3
0 -14 -4 565.54 44.2
0 -14 -4 541.65 42.9
0 -14 -4 552.74 49.9
0 14 4 563.94 44.6
0 14 4 549.45 43.4
0 14 4 582.64 50.89
-1 -14 -4 120.59 16.9
-1 -14 -4 154.88 17.8
1 14 4 160.68 26.9
1 14 4 125.09 16.4
1 14 4 115.09 30.6
-2 -14 -4 7.8 6.4
2 14 4 -1.7 4.9
-3 -14 -4 60.89 13.8
3 14 4 39.9 6.8
-4 -14 -4 34.9 12.4
-6 -14 -4 73.29 15.8
11 -15 -4 317.77 25.2
10 -15 -4 19 8.3
-10 15 4 16.4 14.1
9 -15 -4 232.78 23.7
-9 15 4 273.47 36.8
8 -15 -4 353.56 31.5
-8 15 4 320.07 33.9
-8 15 4 377.06 41.9
7 -15 -4 25.4 10.1
-7 15 4 22.9 13.2
-7 15 4 37.7 11.4
6 -15 -4 199.78 41.8
-6 15 4 224.08 30
-6 15 4 182.48 25.1
5 -15 -4 49.99 13.3
5 -15 -4 62.59 12.5
-5 15 4 54.09 17.4
-5 15 4 46.7 13.3
-5 15 4 49.4 12.4
4 -15 -4 9.3 7
4 -15 -4 5.5 5.7
-4 15 4 -3.9 5
-4 15 4 2.7 5.3
-4 15 4 -1 7.5
3 -15 -4 476.15 41.1
3 -15 -4 441.16 34.8
3 -15 -4 386.66 38.6
-3 15 4 378.66 40
-3 15 4 453.45 35.9
-3 15 4 438.16 41.1
2 -15 -4 92.49 20.2
2 -15 -4 86.59 18.5
2 -15 -4 113.59 17.6
-2 15 4 115.69 21
-2 15 4 99.19 21
-2 15 4 94.09 15.5
1 -15 -4 976 64.89
1 -15 -4 938.11 102.89
1 -15 -4 945.51 68.29
-1 15 4 936.91 67.89
-1 15 4 857.01 72.29
-1 15 4 905.71 64.89
0 -15 -4 832.62 58.79
0 -15 -4 746.63 55.79
0 15 4 772.62 66.99
0 15 4 747.93 56.99
-1 -15 -4 381.96 33.5
-1 -15 -4 408.66 33.9
1 15 4 331.87 31.3
-2 -15 -4 263.17 26.7
2 15 4 180.08 52.99
-3 -15 -4 271.87 28.9
3 15 4 266.47 20.6
-4 -15 -4 19.3 9.5
-5 -15 -4 16.5 10
-6 -15 -4 -1.4 9.2
10 -16 -4 195.48 21.6
-10 16 4 157.88 34
9 -16 -4 8.8 8
8 -16 -4 257.27 55.09
-8 16 4 277.37 36.7
7 -16 -4 209.58 24.6
-7 16 4 175.48 32.2
-7 16 4 168.98 24.1
6 -16 -4 62.39 15.5
-6 16 4 61.89 17.6
-6 16 4 43.5 15.2
5 -16 -4 307.67 49.3
5 -16 -4 367.46 34.7
-5 16 4 280.57 34
-5 16 4 374.06 39.5
4 -16 -4 17.5 10.7
4 -16 -4 50.69 11.1
-4 16 4 27.1 13.5
-4 16 4 54.89 16.5
3 -16 -4 48.1 15.4
3 -16 -4 74.09 13.8
-3 16 4 66.49 17.9
-3 16 4 95.39 19.8
2 -16 -4 506.95 42.5
2 -16 -4 474.65 37.7
-2 16 4 480.25 42.8
-2 16 4 337.37 40.6
1 -16 -4 2.8 9.7
1 -16 -4 -10.2 6.7
-1 16 4 -2.6 6.9
-1 16 4 7.2 6.9
0 -16 -4 254.17 27.2
0 -16 -4 304.17 29.8
0 16 4 315.67 29.9
-1 -16 -4 123.89 19.6
-1 -16 -4 113.49 16
1 16 4 118.19 16.1
-2 -16 -4 710.33 52.19
2 16 4 585.04 44.3
-3 -16 -4 51.39 13.5
3 16 4 72.19 9.3
-4 -16 -4 -4.4 4.6
10 -17 -4 2.5 8.5
-10 17 4 -6 12.5
9 -17 -4 151.58 20
-9 17 4 101.59 25.7
8 -17 -4 57.99 15.3
-8 17 4 77.39 21
7 -17 -4 230.48 24.9
-7 17 4 151.38 26.3
-7 17 4 213.38 36.3
6 -17 -4 445.06 50.29
-6 17 4 659.03 56.39
-6 17 4 491.05 47.5
5 -17 -4 17 8.3
-5 17 4 16.8 10
-5 17 4 21.5 13
4 -17 -4 647.34 47.4
-4 17 4 510.15 87.69
-4 17 4 563.54 55.89
3 -17 -4 15.9 8.9
-3 17 4 29.3 12.6
-3 17 4 1.9 8.8
2 -17 -4 72.09 18.2
2 -17 -4 100.49 16.6
-2 17 4 63.69 17.5
-2 17 4 78.49 18.8
1 -17 -4 67.39 16.6
1 -17 -4 98.19 17
-1 17 4 94.89 18.9
0 -17 -4 154.28 20.4
0 -17 -4 135.89 17.6
0 17 4 125.89 20.5
-1 -17 -4 143.39 22
-1 -17 -4 108.69 17.9
1 17 4 103.69 17.3
-2 -17 -4 136.09 22.5
2 17 4 115.69 15
-3 -17 -4 44.1 12.6
-4 -17 -4 110.09 20.5
9 -18 -4 14.8 10.6
-9 18 4 7 9.7
-8 18 4 322.17 41.4
-7 18 4 30.5 14.5
6 -18 -4 276.37 28.1
-6 18 4 248.08 35
5 -18 -4 218.08 23.6
-5 18 4 249.38 31.7
-5 18 4 133.19 26.5
4 -18 -4 19.8 8.7
-4 18 4 12 11.2
-4 18 4 7.2 10.1
3 -18 -4 628.94 48.8
-3 18 4 607.44 62.79
2 -18 -4 228.68 50.19
2 -18 -4 109.59 19.4
-2 18 4 147.69 25.3
1 -18 -4 395.46 38.9
1 -18 -4 414.16 37.3
-1 18 4 437.76 39.8
0 -18 -4 162.58 29.2
0 -18 -4 185.08 23.2
0 18 4 185.78 23
-1 -18 -4 -0.1 6.3
-1 -18 -4 -4.4 7.1
1 18 4 -2.6 5.5
-2 -18 -4 47.3 13.4
2 18 4 30.8 8.8
-3 -18 -4 20.8 10.6
3 18 4 20.5 6.1
-4 -18 -4 17.4 10.1
-9 19 4 16.8 13.7
-8 19 4 28.6 14.1
-7 19 4 329.07 42.2
6 -19 -4 176.98 22
-6 19 4 174.68 32.5
5 -19 -4 197.98 24.1
-5 19 4 195.18 33
4 -19 -4 328.67 31.4
-4 19 4 320.97 37.3
3 -19 -4 6.8 6.6
-3 19 4 21.4 11.8
2 -19 -4 213.18 24.4
-2 19 4 186.18 48.8
1 -19 -4 47.3 13.9
1 -19 -4 61.69 17.9
-1 19 4 57.49 17
0 -19 -4 37.1 14.5
0 -19 -4 79.79 17.2
0 19 4 75.29 16
-1 -19 -4 177.78 23.2
-2 -19 -4 48.2 13.8
2 19 4 35.1 9.5
-3 -19 -4 36.9 12.6
3 19 4 38 7.5
-8 20 4 140.89 30
-7 20 4 7.8 7.6
6 -20 -4 218.88 26.3
-6 20 4 197.08 33.9
5 -20 -4 117.39 21.2
-5 20 4 100.69 24.9
4 -20 -4 97.99 18.2
-4 20 4 140.39 25.8
3 -20 -4 177.78 22.6
-3 20 4 194.18 31.2
2 -20 -4 -1.3 6.9
-2 20 4 -18.5 6.5
1 -20 -4 374.36 36.8
-1 20 4 365.76 60.69
0 -20 -4 47 13.5
0 -20 -4 18.6 16.3
0 20 4 32.7 12.9
-1 -20 -4 371.66 37.6
1 20 4 322.37 31.7
-2 -20 -4 56.99 15.9
2 20 4 36.5 9.9
-7 21 4 119.09 28.2
6 -21 -4 -2.4 8.2
-6 21 4 -10.9 10.6
5 -21 -4 346.37 33.6
-5 21 4 305.27 38.4
4 -21 -4 106.29 19.9
-4 21 4 102.49 22.2
3 -21 -4 114.79 20.3
-3 21 4 144.09 26.1
2 -21 -4 165.28 22.2
-2 21 4 206.08 27.6
1 -21 -4 -0.3 9.6
-1 21 4 32.3 12.4
0 -21 -4 306.27 34.3
0 21 4 269.57 29.8
6 -22 -4 142.79 24.3
5 -22 -4 -16.8 37.4
-5 22 4 1 8.6
4 -22 -4 366.86 58.19
-4 22 4 288.17 37.5
3 -22 -4 47.7 33.8
2 -22 -4 58.69 15
-2 22 4 67.99 18.3
1 -22 -4 108.09 21.5
-1 22 4 138.49 23.3
0 23 -5 108.89 19.5
0 -23 5 80.59 19.3
1 -23 5 41.7 38.8
-2 23 -5 298.57 32.9
2 -23 5 273.77 36.8
-3 23 -5 114.79 22.2
3 -23 5 79.09 18.7
-4 23 -5 97.19 21.5
4 -23 5 84.79 29.9
-5 23 -5 162.18 28.3
5 -23 5 81.19 19.1
-6 23 -5 98.69 23.9
1 22 -5 3.1 7.1
-1 -22 5 7.5 11.1
0 22 -5 99.89 17.4
0 -22 5 80.19 18.3
-1 22 -5 170.28 22.2
1 -22 5 134.19 23.3
-2 22 -5 -1.2 8.3
2 -22 5 13.1 8.6
-3 22 -5 83.29 19.4
3 -22 5 108.89 19.4
-4 22 -5 106.59 21.2
4 -22 5 66.79 16.8
-5 22 -5 286.07 33.2
5 -22 5 164.98 27.7
-6 22 -5 182.58 31.9
-7 22 -5 8.3 10.5
-3 -21 5 108.09 19.8
-3 -21 5 123.99 21.4
2 21 -5 13.2 6.1
-2 -21 5 11.4 10.3
1 21 -5 148.39 17.3
-1 -21 5 120.99 21.4
-1 -21 5 164.98 26.9
0 21 -5 75.09 18.8
0 -21 5 79.19 16.5
-1 21 -5 71.09 14.9
1 -21 5 43.6 12.3
-2 21 -5 148.59 24.8
2 -21 5 136.59 22
-3 21 -5 24.8 10.5
3 -21 5 9.5 7.5
-4 21 -5 177.68 24.4
4 -21 5 122.29 21.7
5 -21 5 110.99 19.6
-6 21 -5 114.89 25.7
-7 21 -5 252.37 33.3
-8 21 -5 22.6 12.5
-4 -20 5 16.3 10.2
-3 -20 5 75.49 15.4
-3 -20 5 54.69 12.4
2 20 -5 94.89 14.5
-2 -20 5 54.39 27.7
-2 -20 5 97.39 18.8
1 20 -5 30.2 8.7
-1 -20 5 15.6 9.5
-1 -20 5 15.7 11.4
0 20 -5 253.07 26.6
0 -20 5 241.18 27.5
0 -20 5 310.47 33.2
-1 20 -5 26 13.4
1 -20 5 33.5 11.3
-2 20 -5 4 7.2
2 -20 5 10.4 7.5
-3 20 -5 20.7 11.2
3 -20 5 26.9 10.6
-4 20 -5 0.4 6.1
4 -20 5 5.5 5
-5 20 -5 150.88 26.5
-6 20 -5 275.07 34.1
-7 20 -5 138.19 27.6
7 -20 5 140.99 24.1
-8 20 -5 57.19 19
8 -20 5 77.49 18.7
-9 20 -5 20.5 12.3
9 -20 5 45.3 14.8
-4 -19 5 41.1 14.2
-4 -19 5 35.7 11.3
-3 -19 5 -13.1 8.1
-3 -19 5 -2.5 7.3
2 19 -5 99.19 13.4
-2 -19 5 81.29 16.7
-2 -19 5 84.89 16.7
1 19 -5 51.39 11.4
-1 -19 5 70.69 18.1
-1 -19 5 62.49 14.3
0 19 -5 185.58 21.7
0 -19 5 230.78 29.9
0 -19 5 196.68 22.6
-1 19 -5 40.6 11.8
1 -19 5 10.6 11.9
1 -19 5 17.8 8.2
-2 19 -5 21.6 9.9
2 -19 5 7.1 8.1
-3 19 -5 5.8 7.8
3 -19 5 4.2 6.7
-4 19 -5 121.59 23.3
4 -19 5 154.58 19.8
-5 19 -5 7.2 9
5 -19 5 31.8 24.8
-6 19 -5 32.7 11.4
6 -19 5 20.1 12
-7 19 -5 39.3 15.7
7 -19 5 36.6 13.4
-8 19 -5 122.79 25.6
8 -19 5 112.99 19.3
-9 19 -5 28.4 43.3
9 -19 5 45.1 13.3
-5 -18 5 17.3 10
-5 -18 5 35.8 6.8
-4 -18 5 35 12.7
-4 -18 5 40.2 9.1
-3 -18 5 156.48 24
-3 -18 5 129.69 20
2 18 -5 57.99 10.5
-2 -18 5 36.5 11.6
-2 -18 5 32.5 11.2
1 18 -5 204.78 20.6
-1 -18 5 174.88 24
-1 -18 5 155.98 20.5
0 18 -5 62.69 12.5
0 -18 5 27.5 9.5
0 -18 5 40.2 14
-1 18 -5 43.4 12
1 -18 5 30.2 10.6
1 -18 5 41.8 14.7
-2 18 -5 240.38 26.1
2 -18 5 240.28 29.9
2 -18 5 176.58 22.3
-3 18 -5 140.39 23.5
3 -18 5 120.89 19.7
-4 18 -5 69.49 16.5
4 -18 5 86.89 17.1
4 -18 5 42.5 11.5
-5 18 -5 181.48 25.5
5 -18 5 217.18 26.3
-6 18 -5 0.6 9.3
6 -18 5 -10.7 7
-7 18 -5 8.7 8.3
7 -18 5 16.7 10.3
-8 18 -5 142.79 28.8
8 -18 5 196.78 22.1
-9 18 -5 17.6 10.6
9 -18 5 40.2 11.2
-10 18 -5 202.38 35.5
10 -18 5 259.47 19.3
10 -18 5 196.48 20.7
-6 -17 5 58.99 13.6
-5 -17 5 41.5 13.2
-5 -17 5 39.6 7.4
-4 -17 5 240.48 27.1
-4 -17 5 224.48 22.4
-3 -17 5 11.3 6.3
-3 -17 5 1.7 5.8
2 17 -5 238.68 21.7
-2 -17 5 274.77 27.9
-2 -17 5 208.98 24.5
1 17 -5 26.4 8.5
-1 -17 5 25.2 9.1
-1 -17 5 7.8 9.5
0 17 -5 23.5 8.1
0 -17 5 26.5 9.3
0 -17 5 -1.1 8.9
-1 17 -5 4.5 6.4
1 -17 5 13.9 7.1
1 -17 5 12.7 8.9
-2 17 -5 2.6 6.7
2 -17 5 24.9 12.6
2 -17 5 3.4 8.7
2 -17 5 -6.2 5.4
-3 17 -5 165.58 22.5
3 -17 5 217.58 27.8
3 -17 5 191.68 21
3 -17 5 185.28 25.2
-4 17 -5 -5.4 6.6
4 -17 5 8.5 8.4
4 -17 5 -10.2 8
-5 17 -5 262.37 29.2
5 -17 5 190.08 32.2
-6 17 -5 122.99 24
6 -17 5 96.99 18
-7 17 -5 160.68 27.9
7 -17 5 161.18 20.2
-8 17 -5 146.59 28.4
8 -17 5 213.98 21.8
-9 17 -5 96.59 22.3
9 -17 5 82.19 13.5
-10 17 -5 59.89 20.9
10 -17 5 90.89 9.7
10 -17 5 94.79 9
-6 -16 5 66.29 16.1
-5 -16 5 -2.3 4.4
-5 -16 5 7.5 8
-4 -16 5 76.29 12.1
-4 -16 5 67.59 15.1
-3 -16 5 261.37 27.1
-3 -16 5 242.38 24.4
2 16 -5 62.29 10.8
-2 -16 5 77.29 15
-2 -16 5 51.09 21.3
1 16 -5 846.32 77.59
1 16 -5 829.52 56.19
-1 -16 5 871.31 62.09
-1 -16 5 749.62 58.09
0 16 -5 615.24 46.5
0 16 -5 678.13 47
0 -16 5 645.64 50.99
0 -16 5 699.93 64.79
0 -16 5 502.35 45.2
-1 16 -5 287.27 26.8
-1 16 -5 317.67 29
1 -16 5 272.27 30.3
1 -16 5 325.27 33.8
1 -16 5 275.87 26.4
-2 16 -5 27.3 11
-2 16 -5 26.5 8.5
2 -16 5 35.9 10
2 -16 5 0.4 9.8
2 -16 5 22.5 10.8
-3 16 -5 8.6 6.1
-3 16 -5 6 4.9
3 -16 5 -3.1 4.5
3 -16 5 9.1 8.6
3 -16 5 2 6.5
-4 16 -5 235.98 24.5
-4 16 -5 296.67 29.9
4 -16 5 301.47 32.3
4 -16 5 202.08 24.1
4 -16 5 270.77 28.6
-5 16 -5 15.6 9.2
5 -16 5 11.6 7.5
-6 16 -5 52.99 15.4
6 -16 5 56.49 13.8
-7 16 -5 533.85 52.69
7 -16 5 651.83 47
-8 16 -5 41.5 15.2
8 -16 5 71.09 11.8
-9 16 -5 168.28 30.4
9 -16 5 178.28 17.6
-10 16 -5 126.89 25.8
-7 -15 5 45.2 13.4
-6 -15 5 31.2 11.7
-5 -15 5 3.4 4.5
-5 -15 5 12.9 8.3
-4 -15 5 57.59 13.4
-3 -15 5 428.56 36.2
-3 -15 5 488.25 39.7
2 15 -5 108.19 17.1
2 15 -5 118.89 13
-2 -15 5 112.99 17.7
-2 -15 5 93.89 16.7
1 15 -5 25 7.1
1 15 -5 25.9 9
-1 -15 5 8.9 6.9
-1 -15 5 25.2 8.5
-1 -15 5 15.3 12.2
0 15 -5 147.99 17.1
0 15 -5 155.88 17.9
0 -15 5 153.28 17.7
0 -15 5 184.58 21.5
0 -15 5 145.89 26
-1 15 -5 18.1 7
-1 15 -5 21.7 7.7
1 -15 5 9.6 7.3
1 -15 5 30.1 9.9
1 -15 5 18.3 11.3
-2 15 -5 64.29 14
-2 15 -5 66.89 12.2
2 -15 5 62.99 14.9
2 -15 5 72.39 16.3
2 -15 5 46.1 10.6
-3 15 -5 1114.09 77.99
-3 15 -5 1118.79 73.29
3 -15 5 1066.09 78.99
3 -15 5 1156.68 74.69
3 -15 5 1081.59 80.49
-4 15 -5 155.78 17.9
-4 15 -5 177.58 22.7
4 -15 5 154.48 20.4
4 -15 5 168.18 22.9
4 -15 5 177.48 20.1
-5 15 -5 406.96 38
-5 15 -5 384.36 31.5
5 -15 5 359.96 34.3
5 -15 5 347.77 37.6
-6 15 -5 67.79 25.1
6 -15 5 99.89 16.5
-7 15 -5 32.3 12.1
7 -15 5 29.1 9.6
-8 15 -5 358.06 40.1
8 -15 5 402.26 30.8
-9 15 -5 95.89 22.8
9 -15 5 105.09 11.3
9 -15 5 111.79 10.5
-10 15 -5 112.19 24.3
-11 15 -5 51.19 16.1
-8 -14 5 49.99 14.6
-7 -14 5 68.49 16
-6 -14 5 38.3 12.4
-5 -14 5 47.9 8
-5 -14 5 38.2 11.1
-4 -14 5 286.37 29.2
-4 -14 5 272.07 23.9
3 14 -5 42.8 10.5
-3 -14 5 51.39 11.1
-3 -14 5 48.2 11.1
2 14 -5 221.28 21.5
2 14 -5 196.58 18.2
-2 -14 5 171.98 20.8
-2 -14 5 208.98 27.3
-2 -14 5 208.98 21.7
1 14 -5 637.84 45.7
1 14 -5 592.34 57.39
-1 -14 5 754.52 58.59
-1 -14 5 601.84 47.3
-1 -14 5 732.53 51.19
0 14 -5 -2.4 4
0 14 -5 4.3 4.2
0 -14 5 -0.7 8.6
0 -14 5 -2.9 4
0 -14 5 1.6 4.8
-1 14 -5 55.79 11.8
-1 14 -5 47.1 9.8
1 -14 5 78.59 18.1
1 -14 5 66.19 14.9
1 -14 5 74.29 12.6
-2 14 -5 1195.08 78.79
-2 14 -5 1066.39 73.99
2 -14 5 1139.49 75.19
2 -14 5 1181.68 81.99
2 -14 5 1188.18 81.79
-3 14 -5 600.34 44.9
-3 14 -5 605.04 48.9
3 -14 5 697.83 47.1
3 -14 5 597.74 49.7
3 -14 5 648.64 51.79
-4 14 -5 1540.45 101.59
-4 14 -5 1492.15 95.09
4 -14 5 1505.45 99.39
4 -14 5 1475.55 96.49
4 -14 5 1496.55 103.29
-5 14 -5 417.26 39.5
-5 14 -5 462.15 35.2
5 -14 5 464.25 37.3
5 -14 5 418.16 41.2
-6 14 -5 351.16 35.4
-6 14 -5 378.76 37.8
6 -14 5 396.06 32.3
6 -14 5 405.26 68.19
-7 14 -5 30.9 12.6
7 -14 5 57.19 11.2
-8 14 -5 26.1 12
8 -14 5 27.4 7.1
-9 14 -5 71.39 19.2
9 -14 5 68.19 6.5
9 -14 5 69.39 6.9
-10 14 -5 0.3 9.6
-11 14 -5 183.88 32.1
-8 -13 5 195.68 24.1
-7 -13 5 10.7 6.7
-6 -13 5 -5.8 3.6
-5 -13 5 82.09 10.2
-5 -13 5 80.19 19.7
4 13 -5 146.49 18.2
-4 -13 5 152.58 19.2
-4 -13 5 175.08 32.7
-4 -13 5 155.88 16.2
3 13 -5 134.69 16
-3 -13 5 141.99 16.7
-3 -13 5 110.79 14.8
-3 -13 5 125.19 23.4
2 13 -5 384.06 33.6
2 13 -5 456.05 42.3
-2 -13 5 478.95 36.4
-2 -13 5 475.35 43.2
-2 -13 5 427.46 34.9
1 13 -5 144.69 15.5
1 13 -5 138.09 14.1
-1 -13 5 153.58 21.3
-1 -13 5 118.29 16.8
-1 -13 5 99.69 16.2
0 13 -5 1929.71 128.09
0 13 -5 2051.59 129.19
0 -13 5 2295.07 134.89
0 -13 5 2103.09 129.69
0 -13 5 2290.97 139.69
-1 13 -5 162.28 18
-1 13 -5 149.99 15.7
1 -13 5 152.48 19.6
1 -13 5 148.09 20.5
1 -13 5 181.78 17.4
-2 13 -5 1011.4 68.59
-2 13 -5 1025.4 72.09
2 -13 5 1054.99 69.49
2 -13 5 1156.58 76.79
2 -13 5 1095.49 75.69
-3 13 -5 675.33 51.89
-3 13 -5 640.44 47
3 -13 5 747.63 49.4
3 -13 5 689.73 53.99
3 -13 5 693.93 52.39
-4 13 -5 739.33 52.99
-4 13 -5 850.61 59.89
4 -13 5 770.72 60.29
4 -13 5 778.62 56.49
-5 13 -5 1065.59 72.29
-5 13 -5 1190.48 79.99
5 -13 5 1057.59 79.59
5 -13 5 1127.79 74.49
-6 13 -5 648.24 47.4
-6 13 -5 690.13 54.89
6 -13 5 644.34 54.49
6 -13 5 651.73 47.1
-7 13 -5 299.17 33.1
7 -13 5 321.37 25.9
-8 13 -5 57.19 16.6
8 -13 5 75.59 8.1
8 -13 5 58.49 8.4
-9 13 -5 43.3 15.2
-10 13 -5 188.08 26.2
-11 13 -5 -2.2 8.5
-8 -12 5 -7.4 6.3
-7 -12 5 57.19 15.4
-6 -12 5 25.7 9.9
5 12 -5 583.04 45.1
-5 -12 5 530.75 37.1
-5 -12 5 548.65 43.7
4 12 -5 264.67 25.2
-4 -12 5 292.87 33
-4 -12 5 278.87 26.1
-4 -12 5 257.67 22.5
3 12 -5 242.08 22.5
-3 -12 5 253.17 30
-3 -12 5 214.18 22
-3 -12 5 203.58 21.2
2 12 -5 98.69 10.9
2 12 -5 92.29 12.3
-2 -12 5 106.69 19.9
-2 -12 5 112.09 14.2
-2 -12 5 89.89 14.3
1 12 -5 39.2 8.7
1 12 -5 33.6 7.7
-1 -12 5 37.1 11.7
-1 -12 5 28.8 7.8
-1 -12 5 36.3 9.6
0 12 -5 9.2 4.8
0 12 -5 6.1 4.6
0 -12 5 15.5 7.2
0 -12 5 22.7 6.8
-1 12 -5 616.34 46.7
-1 12 -5 701.43 49.7
1 -12 5 713.73 52.19
1 -12 5 687.13 53.79
1 -12 5 788.42 48.9
-2 12 -5 290.57 25.5
-2 12 -5 266.07 22
2 -12 5 264.37 26.4
2 -12 5 212.38 25.3
2 -12 5 244.68 22.1
-3 12 -5 1137.49 75.79
-3 12 -5 1097.29 70.69
3 -12 5 1119.29 71.79
3 -12 5 1120.69 77.29
3 -12 5 1038.8 74.49
-4 12 -5 535.75 37.9
-4 12 -5 489.95 42
4 -12 5 561.04 41.2
4 -12 5 489.05 43.7
-5 12 -5 -3.5 2.8
-5 12 -5 -6.3 3.3
5 -12 5 5.4 6.1
5 -12 5 -4.3 4.1
-6 12 -5 1932.01 117.09
-6 12 -5 1943.11 124.39
6 -12 5 1833.72 124.19
6 -12 5 1824.42 114.89
-7 12 -5 150.58 25.8
-7 12 -5 229.68 39.6
7 -12 5 220.78 18.9
7 -12 5 225.88 27.7
-8 12 -5 302.17 34.9
8 -12 5 333.97 21.4
8 -12 5 317.87 21.9
-9 12 -5 18.6 12.3
-10 12 -5 94.59 20.9
-11 12 -5 1.1 10.2
-9 -11 5 4.7 6.3
-8 -11 5 57.79 15
-7 -11 5 3.4 6.8
-6 -11 5 386.56 25.3
-6 -11 5 515.95 45.1
-6 -11 5 394.96 35.3
-6 -11 5 374.46 25.3
5 11 -5 146.69 17
-5 -11 5 135.99 17.7
-5 -11 5 110.29 12.2
-5 -11 5 173.28 24
4 11 -5 534.55 41.2
-4 -11 5 625.64 60.09
-4 -11 5 583.44 42.3
-4 -11 5 490.25 37.4
3 11 -5 166.18 17.4
-3 -11 5 159.38 17.1
-3 -11 5 150.78 16.3
2 11 -5 15.9 5.8
2 11 -5 18 5
-2 -11 5 14.1 8.9
-2 -11 5 18.4 6.6
1 11 -5 9.8 5.3
1 11 -5 19.5 5.9
-1 -11 5 14.1 5.6
-1 -11 5 15.2 6.2
0 11 -5 0.3 3
0 11 -5 3.1 3.5
0 -11 5 4.2 4.5
0 -11 5 1.9 4.3
-1 11 -5 298.07 25.3
-1 11 -5 261.57 22.7
1 -11 5 298.77 27.3
1 -11 5 311.37 24.1
-2 11 -5 109.09 14.2
-2 11 -5 111.79 12.4
2 -11 5 106.49 12.9
2 -11 5 101.19 17
-3 11 -5 30.5 8.8
-3 11 -5 30.5 7.2
3 -11 5 28.7 8.6
3 -11 5 28.1 9
3 -11 5 26.3 7.2
-4 11 -5 80.49 12.5
-4 11 -5 101.69 17.1
4 -11 5 108.79 14.1
4 -11 5 89.89 17.2
-5 11 -5 706.43 50.09
-5 11 -5 775.12 56.49
5 -11 5 766.92 50.89
5 -11 5 693.53 55.99
-6 11 -5 360.66 30.4
-6 11 -5 376.06 35.9
6 -11 5 379.06 51.69
6 -11 5 404.96 29.1
-7 11 -5 3946.41 220.78
-7 11 -5 3632.54 225.88
7 -11 5 3573.04 212.78
7 -11 5 3668.43 226.88
7 -11 5 3616.84 211.48
-8 11 -5 298.57 32.5
8 -11 5 294.07 32.3
-9 11 -5 447.76 51.69
-10 11 -5 4.1 9.7
-11 11 -5 197.48 32
-9 -10 5 31 11.9
-8 -10 5 396.16 37.9
-7 -10 5 174.08 22.2
-7 -10 5 230.68 31.7
6 10 -5 6.2 8
-6 -10 5 17.2 4.3
-6 -10 5 6 7
-6 -10 5 19.6 4.2
-6 -10 5 34.4 13.5
5 10 -5 178.98 23
-5 -10 5 134.59 17.2
-5 -10 5 137.39 13.3
4 10 -5 64.59 12.2
-4 -10 5 73.29 12.8
-4 -10 5 60.19 9.8
3 10 -5 543.75 39.7
-3 -10 5 548.95 40.1
-3 -10 5 547.05 38.5
2 10 -5 10.4 4.9
-2 -10 5 21.7 6.1
-2 -10 5 5.1 4.3
1 10 -5 373.06 28.4
1 10 -5 366.26 27.7
-1 -10 5 402.36 29.3
-1 -10 5 402.96 35.2
0 10 -5 188.58 16.5
0 10 -5 149.09 14.6
0 -10 5 162.08 15.4
0 -10 5 140.29 16.6
-1 10 -5 1944.51 122.89
-1 10 -5 2003.8 120.19
1 -10 5 2034.6 120.59
1 -10 5 2069.49 125.49
-2 10 -5 295.87 25.9
-2 10 -5 287.17 23
2 -10 5 276.77 26.6
2 -10 5 330.17 24.1
-3 10 -5 985.3 64.79
-3 10 -5 1052.69 69.69
3 -10 5 1055.49 71.09
-4 10 -5 249.08 24.4
-4 10 -5 217.28 19.7
4 -10 5 238.88 21.6
4 -10 5 237.18 24.8
-5 10 -5 873.51 59.49
-5 10 -5 1001 66.09
5 -10 5 842.82 64.79
5 -10 5 915.31 59.09
-6 10 -5 396.16 35
-6 10 -5 364.36 30.1
6 -10 5 363.06 26.3
6 -10 5 318.17 32.6
-7 10 -5 -2.7 7.1
-7 10 -5 6.2 5.7
7 -10 5 4.6 3
7 -10 5 1 4.3
7 -10 5 3.3 2.4
-8 10 -5 325.77 34.3
8 -10 5 327.17 33.9
-9 10 -5 12.8 8.8
-10 10 -5 531.75 48.7
-11 10 -5 -9.9 8
-10 -9 5 1.5 8.7
-9 -9 5 65.19 15.5
-8 -9 5 57.19 14.8
-8 -9 5 86.89 21.1
-7 -9 5 4.1 10.1
-7 -9 5 -0.9 7.1
6 9 -5 779.52 53.89
-6 -9 5 701.43 45.3
-6 -9 5 939.11 71.99
-6 -9 5 681.93 45.6
-6 -9 5 689.13 53.29
5 9 -5 18.9 7.4
-5 -9 5 14.8 4
-5 -9 5 20.3 6.7
4 9 -5 953.8 60.09
-4 -9 5 800.92 55.79
-4 -9 5 933.21 60.19
3 9 -5 318.47 26
-3 -9 5 348.27 25.3
-3 -9 5 293.47 25.6
2 9 -5 1864.11 113.69
-2 -9 5 1961 114.49
-2 -9 5 1832.02 113.89
1 9 -5 1052.89 67.49
1 9 -5 1146.59 67.59
-1 -9 5 971.2 67.29
-1 -9 5 1165.08 70.19
0 9 -5 102.19 10.8
0 9 -5 120.39 12.2
0 -9 5 109.99 11.4
0 -9 5 112.69 18.5
-1 9 -5 6.1 4.3
-1 9 -5 7.3 3.9
1 -9 5 5.3 3.7
1 -9 5 6 4.7
-2 9 -5 5.7 4.1
-2 9 -5 5.2 3.8
2 -9 5 6.4 3.6
2 -9 5 0.6 4.8
-3 9 -5 863.01 57.69
-3 9 -5 853.51 53.59
3 -9 5 771.92 58.09
-4 9 -5 1954.9 120.89
-4 9 -5 2110.09 126.39
4 -9 5 1976.9 126.79
-5 9 -5 1.7 3.4
-5 9 -5 -3 3.5
5 -9 5 1.9 3.3
5 -9 5 0.7 3.2
-6 9 -5 945.91 61.09
-6 9 -5 907.91 64.69
6 -9 5 896.81 65.29
6 -9 5 871.71 55.19
6 -9 5 866.21 53.79
-7 9 -5 77.29 17.3
7 -9 5 97.29 6.9
7 -9 5 95.39 17.7
7 -9 5 100.79 6.9
-8 9 -5 52.99 13.9
8 -9 5 55.19 13.6
-9 9 -5 471.15 42.8
9 -9 5 473.25 43.5
-10 9 -5 19.1 11.6
-11 9 -5 381.36 38.5
-10 -8 5 74.29 15.7
-10 -8 5 83.29 17.3
-9 -8 5 22.4 12
-9 -8 5 -7.5 6.3
-8 -8 5 223.98 30.1
-8 -8 5 257.57 26.5
-7 -8 5 14.6 9.4
-7 -8 5 2.4 5.7
-7 -8 5 8.2 3.2
-7 -8 5 12.6 3.9
-6 -8 5 0.9 3.2
-6 -8 5 -0.3 2.1
-6 -8 5 -1.1 4.8
5 8 -5 114.29 13.7
-5 -8 5 91.09 14.4
-5 -8 5 92.69 9.6
4 8 -5 2.2 3.4
-4 -8 5 4.3 3
-4 -8 5 -0.7 3.2
3 8 -5 2008 119.69
-3 -8 5 1866.01 119.19
-3 -8 5 2070.39 118.19
2 8 -5 668.03 44.3
-2 -8 5 710.23 44.5
-2 -8 5 622.94 43.8
1 8 -5 31.5 6.1
1 8 -5 34.2 6.7
-1 -8 5 35.5 7
-1 -8 5 36.5 7.3
0 8 -5 2481.65 146.69
0 8 -5 2435.26 147.89
0 -8 5 2561.74 150.08
0 -8 5 2566.34 147.19
-1 8 -5 214.88 18.7
-1 8 -5 195.48 16.4
1 -8 5 197.18 22.3
1 -8 5 228.78 17.3
-2 8 -5 6980.8 385.56
-2 8 -5 6527.05 382.16
2 -8 5 6612.64 382.16
2 -8 5 6598.94 386.36
-3 8 -5 337.47 27.4
-3 8 -5 325.27 24.1
3 -8 5 306.87 27.6
-4 8 -5 144.09 14.3
-4 8 -5 177.18 18
4 -8 5 133.19 17
-5 8 -5 289.97 23.9
-5 8 -5 275.57 26.3
5 -8 5 302.97 21.4
5 -8 5 287.77 27.1
5 -8 5 259.47 19.4
-6 8 -5 263.77 27.1
6 -8 5 285.27 18.9
6 -8 5 300.27 28.3
6 -8 5 291.37 19.7
-7 8 -5 809.72 60.99
7 -8 5 837.12 61.39
-8 8 -5 12.2 8.2
8 -8 5 28.9 10.6
-9 8 -5 0.8 6.6
9 -8 5 -3.6 7.2
-10 8 -5 591.64 50.59
10 -8 5 608.74 51.09
-11 8 -5 54.49 15.4
-12 8 -5 134.99 24.6
-12 8 -5 151.38 25.3
-10 -7 5 44.1 12.3
-10 -7 5 61.59 20.7
-10 -7 5 64.79 16.2
-9 -7 5 337.87 35.2
-9 -7 5 217.48 27.1
-8 -7 5 -0.7 2.1
-8 -7 5 -0.7 2.6
-8 -7 5 6.6 10
-8 -7 5 -5.1 11.4
-7 -7 5 732.63 48.1
-7 -7 5 793.22 58.09
-7 -7 5 860.61 51.19
6 7 -5 282.97 24.5
-6 -7 5 250.87 24.1
-6 -7 5 253.77 19.9
-6 -7 5 224.28 17.6
5 7 -5 171.88 17.2
-5 -7 5 153.38 13
-5 -7 5 165.08 17.3
4 7 -5 2170.68 122.39
-4 -7 5 1826.22 117.89
-4 -7 5 2078.89 122.49
3 7 -5 136.79 13.4
-3 -7 5 132.49 11.9
-3 -7 5 112.99 12.4
2 7 -5 3951.8 225.88
-2 -7 5 3710.83 225.68
-2 -7 5 4047.4 225.88
1 7 -5 947.51 58.09
1 7 -5 931.31 58.29
-1 -7 5 886.41 58.09
-1 -7 5 1009.6 59.99
0 7 -5 181.58 14.8
0 7 -5 185.48 16
0 -7 5 210.98 15.6
0 -7 5 187.78 17
-1 7 -5 2479.85 146.49
-1 7 -5 2477.55 148.89
1 -7 5 2513.85 150.18
1 -7 5 2602.64 146.89
-2 7 -5 215.18 18.7
-2 7 -5 192.78 15.5
2 -7 5 177.68 21.4
-3 7 -5 1801.82 109.09
-3 7 -5 1688.43 105.19
3 -7 5 1809.12 110.19
-4 7 -5 568.44 39.1
-4 7 -5 487.45 35.2
4 -7 5 467.65 38.3
-5 7 -5 41.1 9.5
5 -7 5 32.8 4.6
5 -7 5 50.29 11.2
-6 7 -5 1039.5 70.59
6 -7 5 1012.3 59.69
6 -7 5 1005.4 70.79
6 -7 5 1041.2 59.49
-7 7 -5 107.89 18.4
7 -7 5 136.09 18.3
-8 7 -5 93.29 17.7
8 -7 5 120.49 19.8
-9 7 -5 47 12.9
9 -7 5 28.8 13.6
-10 7 -5 45.3 12.4
10 -7 5 22.4 11.5
-11 7 -5 199.08 25.3
-11 7 -5 153.78 25.7
-12 7 -5 1.3 8.6
-10 -6 5 1.3 7.6
-10 -6 5 6.3 16.5
-10 -6 5 2.8 7.9
-9 -6 5 1.1 4.9
-9 -6 5 0.9 5.3
-9 -6 5 3.9 3.1
-9 -6 5 2 2.3
-8 -6 5 98.19 9.2
-8 -6 5 109.19 11.9
-8 -6 5 143.29 22.5
-8 -6 5 111.79 18.7
-7 -6 5 106.49 17.3
-7 -6 5 134.39 13.1
-7 -6 5 103.09 9.8
6 6 -5 175.58 17.6
-6 -6 5 127.19 12
-6 -6 5 156.28 18.1
-6 -6 5 199.68 16
5 6 -5 14.7 6.6
-5 -6 5 22.6 5.5
-5 -6 5 13.8 6.4
-5 -6 5 24.5 4.8
4 6 -5 160.28 15.8
-4 -6 5 150.18 18.5
-4 -6 5 178.98 13.5
3 6 -5 1749.82 105.99
-3 -6 5 1843.32 104.29
-3 -6 5 1701.43 105.69
2 6 -5 580.64 37.8
-2 -6 5 548.25 37.6
-2 -6 5 609.44 37.8
1 6 -5 2321.47 137.69
-1 -6 5 2439.76 138.29
-1 -6 5 2358.66 139.19
0 6 -5 508.65 34.2
0 6 -5 528.15 33
0 -6 5 479.65 34.9
0 -6 5 545.15 33.2
-1 6 -5 57.99 7.5
-1 6 -5 57.09 6.3
1 -6 5 50.89 7.2
1 -6 5 57.79 6.4
-2 6 -5 634.94 42.8
-2 6 -5 611.74 39.8
2 -6 5 637.44 43.5
-3 6 -5 902.01 57.99
-3 6 -5 864.31 64.49
3 -6 5 852.61 58.39
-4 6 -5 617.24 42.2
4 -6 5 567.14 42
4 -6 5 549.35 35.6
-5 6 -5 195.58 20.1
5 -6 5 209.98 14.4
5 -6 5 216.58 21.6
-6 6 -5 54.59 11.6
6 -6 5 60.29 13
-7 6 -5 20.3 7.2
7 -6 5 7.7 6.7
-8 6 -5 3.8 5.3
8 -6 5 3.9 5.1
-9 6 -5 -4.7 4.5
9 -6 5 0.1 7.8
-10 6 -5 66.59 14.9
10 -6 5 66.79 14.7
-11 6 -5 0.1 7
-11 6 -5 -10.4 7.7
11 -6 5 -0.8 9.2
-12 6 -5 16.5 11
-12 6 -5 25.2 11.4
-11 -5 5 28 11.7
-11 -5 5 21.1 10
-10 -5 5 90.39 16
-10 -5 5 125.99 22.4
-10 -5 5 107.79 20.1
-10 -5 5 97.39 8.9
-10 -5 5 111.99 10.8
-9 -5 5 40 12.2
-9 -5 5 44.6 12.4
-9 -5 5 17 5.9
-9 -5 5 25.8 9
-8 -5 5 22.4 11.1
-8 -5 5 23.7 10.2
-8 -5 5 33.9 8.4
-7 -5 5 614.84 41.4
-7 -5 5 535.85 43.8
-6 -5 5 56.29 11.3
-6 -5 5 62.49 10.3
5 5 -5 1387.56 84.89
-5 -5 5 1202.08 81.99
-5 -5 5 1488.45 85.69
4 5 -5 37.1 7.4
-4 -5 5 44.2 8.2
3 5 -5 156.98 13.9
-3 -5 5 164.38 14.1
2 5 -5 1171.08 69.79
-2 -5 5 1175.48 69.69
-2 -5 5 1134.59 69.79
1 5 -5 18.9 3.7
-1 -5 5 12.4 3.1
-1 -5 5 6.4 2.5
0 5 -5 198.78 15.9
0 5 -5 228.58 15
0 -5 5 210.48 16.6
0 -5 5 202.58 14.8
-1 5 -5 1680.83 95.69
-1 5 -5 1634.24 97.89
1 -5 5 1610.84 95.89
1 -5 5 1618.74 98.49
-2 5 -5 129.39 12.7
-2 5 -5 135.79 11.1
2 -5 5 110.89 12.4
-3 5 -5 1695.43 97.49
3 -5 5 1487.95 92.39
3 -5 5 1574.44 97.39
-4 5 -5 475.55 35
4 -5 5 488.85 36
4 -5 5 461.95 29.7
-5 5 -5 8.3 6.5
5 -5 5 17.3 6.3
5 -5 5 13.7 3
-6 5 -5 70.89 12.7
6 -5 5 62.09 12.3
-7 5 -5 376.86 32.3
7 -5 5 387.96 32.8
-8 5 -5 188.28 21.4
8 -5 5 207.48 22.1
-9 5 -5 13.1 7.4
9 -5 5 14.5 8
-10 5 -5 170.48 20.4
-10 5 -5 113.79 21.4
10 -5 5 162.98 21.5
-11 5 -5 24.8 11.3
-11 5 -5 23.1 9.3
11 -5 5 26 10.3
-11 -4 5 109.59 20.2
-11 -4 5 97.59 19.7
-11 -4 5 115.49 16.3
-11 -4 5 124.39 12
-10 -4 5 5.4 9.5
-10 -4 5 8.8 6
-10 -4 5 31.4 12.5
-10 -4 5 4.8 5.7
-9 -4 5 89.69 14.8
-9 -4 5 88.29 13.7
-9 -4 5 97.19 30.2
-9 -4 5 91.99 17.6
-8 -4 5 89.99 16
-8 -4 5 99.69 13.5
-8 -4 5 88.99 14.7
-7 -4 5 148.29 16.3
-7 -4 5 160.28 17.9
-6 -4 5 671.43 47.4
-6 -4 5 733.73 49.6
-5 -4 5 392.76 28.8
-5 -4 5 384.96 29.7
4 4 -5 1016.9 60.59
-4 -4 5 893.61 59.99
3 4 -5 61.09 7.5
-3 -4 5 57.39 7.4
2 4 -5 7.4 2.6
-2 -4 5 9.5 2.9
1 4 -5 89.39 7.5
-1 -4 5 90.79 7.6
-1 -4 5 88.99 8.5
0 4 -5 13.7 3.4
0 4 -5 13.4 2.7
0 -4 5 20.1 3.3
0 -4 5 13.9 3.6
-1 4 -5 5521.35 302.17
-1 4 -5 5557.94 304.37
1 -4 5 4960.3 303.27
1 -4 5 5223.98 304.57
-2 4 -5 1763.52 100.39
2 -4 5 1703.13 100.89
2 -4 5 1561.94 97.69
-3 4 -5 149.59 13.7
3 -4 5 132.39 10.6
3 -4 5 124.99 13.4
-4 4 -5 762.02 51.59
4 -4 5 800.32 47.2
4 -4 5 768.62 52.39
-5 4 -5 557.14 41.1
5 -4 5 590.14 42
5 -4 5 590.64 35.2
-6 4 -5 265.87 33.6
6 -4 5 311.57 26.4
-7 4 -5 67.59 12.7
7 -4 5 103.29 13.3
-8 4 -5 -0.4 4.8
8 -4 5 3.1 3.8
-9 4 -5 -4.1 5.4
-9 4 -5 8 5.9
9 -4 5 6.6 6.4
-10 4 -5 5.6 5.7
-10 4 -5 1.8 6.9
10 -4 5 0.2 7.2
-11 4 -5 56.79 15.6
-11 4 -5 64.49 13
11 -4 5 70.49 14.8
-11 -3 5 80.39 15.3
-11 -3 5 72.49 12.1
-11 -3 5 55.19 15.3
-11 -3 5 76.39 13.9
-10 -3 5 -18.3 7.2
-10 -3 5 2.6 5.4
-10 -3 5 7.8 7.4
-10 -3 5 -1.5 4.6
-9 -3 5 109.59 14.7
-9 -3 5 94.19 17.5
-9 -3 5 104.19 13.7
-9 -3 5 130.39 19.2
-8 -3 5 41.5 11.8
-8 -3 5 41.1 10.1
-8 -3 5 46.7 10.3
-7 -3 5 322.47 27.9
-7 -3 5 344.07 28.3
-7 -3 5 311.77 28.3
-6 -3 5 45.9 9.6
-6 -3 5 34.4 8
-6 -3 5 28.5 7.5
-5 -3 5 1155.78 70.09
-5 -3 5 1045.5 69.29
-4 -3 5 46.3 8
-4 -3 5 63.09 7.9
3 3 -5 1572.54 92.59
-3 -3 5 1560.94 92.79
2 3 -5 1692.43 100.99
-2 -3 5 1794.02 101.29
1 3 -5 14.2 2.4
-1 -3 5 7.6 2.8
-1 -3 5 20.8 2.6
0 3 -5 2012.7 113.29
0 -3 5 1930.51 115.89
0 -3 5 1977.5 115.49
0 -3 5 1997.8 113.39
-1 3 -5 213.48 15.8
1 -3 5 190.68 14.9
1 -3 5 216.18 16
-2 3 -5 6686.43 362.46
-2 3 -5 6190.88 360.56
2 -3 5 5985.7 360.36
2 -3 5 6525.95 362.86
-3 3 -5 93.79 8.4
-3 3 -5 102.09 10.3
3 -3 5 96.09 8.7
3 -3 5 101.49 10.9
-4 3 -5 1222.68 69.39
-4 3 -5 1117.49 72.99
4 -3 5 1192.58 74.19
4 -3 5 1169.08 69.69
-5 3 -5 69.59 10.1
5 -3 5 84.59 11.1
5 -3 5 90.69 7.7
-6 3 -5 118.09 13.9
6 -3 5 129.09 14.4
-7 3 -5 671.13 51.79
7 -3 5 685.03 48.5
-8 3 -5 104.59 18.6
-8 3 -5 115.49 14.8
8 -3 5 130.59 15.9
-9 3 -5 174.18 21.2
-9 3 -5 103.29 14.7
9 -3 5 145.49 17
-10 3 -5 97.99 19
-10 3 -5 83.59 14
10 -3 5 85.69 14.8
-11 3 -5 21.2 9.9
-11 3 -5 6.5 6.6
11 -3 5 14.9 9.5
-11 -2 5 14.7 10.1
-11 -2 5 21.6 10
-11 -2 5 10.6 6.7
-11 -2 5 11.5 6.5
-10 -2 5 169.58 19.6
-10 -2 5 172.58 17.4
-10 -2 5 147.19 19.5
-10 -2 5 124.99 21.5
-9 -2 5 39 9.2
-9 -2 5 41.6 10.1
-9 -2 5 13.7 14.4
-8 -2 5 5 5.6
-8 -2 5 -10.1 5.3
-8 -2 5 -1.5 4.3
-7 -2 5 58.49 10
-7 -2 5 47.2 10.3
-7 -2 5 52.69 11.6
-6 -2 5 41 8.2
-6 -2 5 48.1 9.6
-6 -2 5 51.69 10.2
-5 -2 5 5.9 3.3
-5 -2 5 15.1 4.8
-5 -2 5 12.9 4.9
-4 -2 5 241.78 19.7
-4 -2 5 254.17 20.2
-4 -2 5 245.68 19.1
-3 -2 5 79.39 8.6
-3 -2 5 51.69 6.5
2 2 -5 1448.16 87.99
-2 -2 5 1597.14 88.29
-2 -2 5 1528.25 90.99
1 2 -5 1018.1 59.39
-1 -2 5 1095.19 59.49
-1 -2 5 982.8 62.69
-1 2 -5 1365.16 81.69
1 -2 5 1370.16 81.79
1 -2 5 1414.76 82.09
-2 2 -5 2305.97 134.59
-2 2 -5 2349.06 133.99
2 -2 5 2265.77 134.09
2 -2 5 2332.07 135.19
-3 2 -5 4.2 2.2
-3 2 -5 0.6 2.1
3 -2 5 3.1 2.7
3 -2 5 3.7 2.2
-4 2 -5 115.49 9.8
-4 2 -5 111.99 11.3
4 -2 5 114.39 12.2
4 -2 5 116.19 10.1
-5 2 -5 606.44 37.3
-5 2 -5 525.05 39.9
5 -2 5 652.83 42.3
5 -2 5 627.14 37.9
-6 2 -5 133.69 10.6
-6 2 -5 152.68 17.3
-6 2 -5 140.49 14.1
6 -2 5 180.78 16.6
-7 2 -5 88.19 6.5
-7 2 -5 87.59 11.3
-7 2 -5 91.49 15.9
7 -2 5 94.89 12.7
-8 2 -5 405.96 36
-8 2 -5 355.06 41.8
8 -2 5 439.56 33.1
-9 2 -5 -5.8 3.4
-9 2 -5 5 4.9
9 -2 5 0.6 5.9
-10 2 -5 123.19 21.5
-10 2 -5 130.79 14.8
10 -2 5 153.78 17.7
-11 2 -5 150.18 15.8
-11 2 -5 127.39 23.4
11 -2 5 168.88 19.8
-11 -1 5 29.2 9.1
-11 -1 5 39.6 10.9
-11 -1 5 36.4 13.2
-11 -1 5 19.2 7.4
-10 -1 5 7.1 7.4
-10 -1 5 2.6 8.1
-10 -1 5 10.3 9
-10 -1 5 25.1 6.8
-9 -1 5 10.4 6.9
-9 -1 5 10.1 7.1
-9 -1 5 12.9 5.7
-8 -1 5 648.14 50.59
-8 -1 5 612.84 47.4
-8 -1 5 628.04 43.8
-7 -1 5 29.1 8.5
-7 -1 5 24.8 7.5
-7 -1 5 20.2 5.7
-6 -1 5 1510.85 95.29
-6 -1 5 1482.65 93.09
-6 -1 5 1490.25 91.49
-5 -1 5 -0.3 2.2
-5 -1 5 2.9 3.6
-5 -1 5 -0.8 2
-4 -1 5 147.79 14.9
-4 -1 5 152.98 13.8
-4 -1 5 163.48 13.6
-3 -1 5 2274.37 138.09
-3 -1 5 2513.55 140.49
2 1 -5 787.92 52.09
-2 -1 5 872.61 52.89
-2 -1 5 882.71 49.7
1 1 -5 4333.37 252.87
-1 -1 5 4504.45 253.37
0 1 -5 690.13 43.8
0 -1 5 716.03 44
-1 1 -5 1276.97 73.69
1 -1 5 1235.88 72.99
1 -1 5 1176.48 73.49
-2 1 -5 1922.21 109.19
2 -1 5 1809.62 109.19
2 -1 5 1849.61 108.99
-3 1 -5 572.04 39.5
-3 1 -5 687.73 40.2
3 -1 5 613.24 40.4
3 -1 5 646.44 40.3
-4 1 -5 2172.38 148.29
-4 1 -5 2229.48 162.78
-4 1 -5 2931.21 148.99
4 -1 5 2570.34 150.18
4 -1 5 2782.42 149.29
-5 1 -5 276.57 19.7
-5 1 -5 257.37 20.4
-5 1 -5 260.77 23.4
5 -1 5 272.87 19.9
5 -1 5 285.27 22
-6 1 -5 168.98 14
-6 1 -5 194.48 20
-6 1 -5 175.98 15.9
6 -1 5 203.08 17.6
-7 1 -5 156.38 12.2
-7 1 -5 146.79 14.4
-7 1 -5 152.78 18.9
7 -1 5 144.59 15.6
-8 1 -5 42.6 11.3
-8 1 -5 19.5 6.2
-8 1 -5 27.6 3.8
8 -1 5 32.6 8.5
-9 1 -5 89.29 10.7
-9 1 -5 88.59 17.7
9 -1 5 83.59 13.4
-10 1 -5 88.39 18.4
10 -1 5 114.49 14.9
-11 1 -5 9.8 7.2
11 -1 5 12.7 7.3
-12 0 5 7.7 4
-12 0 5 3.4 7.5
-12 0 5 8.5 9.8
-12 0 5 6 5.1
-11 0 5 311.97 26.4
-11 0 5 305.07 32.2
-11 0 5 335.67 32.5
-11 0 5 298.17 24.9
-10 0 5 218.38 20.1
-10 0 5 236.08 26.8
-10 0 5 253.17 55.09
-10 0 5 238.38 26.4
-9 0 5 92.89 16.5
-9 0 5 86.19 16.7
-9 0 5 73.89 11.7
-8 0 5 42.8 11.7
-8 0 5 33.7 7.9
-8 0 5 40.8 10.4
-7 0 5 201.28 17.6
-7 0 5 173.58 18.4
-6 0 5 24.2 7.8
-6 0 5 24.7 6.4
-6 0 5 20.5 5.5
-5 0 5 286.97 23
-5 0 5 330.07 24
-5 0 5 304.47 25.8
-4 0 5 421.96 31.5
-4 0 5 429.76 28.7
-4 0 5 405.86 29.2
3 0 -5 172.48 14.5
-3 0 5 190.28 16.3
-3 0 5 193.68 15.3
2 0 -5 796.52 50.39
-2 0 5 836.62 51.09
1 0 -5 1235.28 74.69
-1 0 5 1255.27 75.19
0 0 -5 1068.69 65.39
0 0 -5 1044.9 62.19
0 0 5 1129.69 66.09
-1 0 -5 3619.14 215.78
-1 0 -5 4004.1 217.98
1 0 5 3723.33 217.88
-2 0 -5 6800.92 398.36
-2 0 -5 7270.87 399.16
2 0 5 6939.41 397.36
2 0 5 6977.9 398.96
-3 0 -5 1527.75 88.19
-3 0 -5 1369.36 88.59
3 0 5 1442.36 86.89
3 0 5 1512.25 88.39
-4 0 -5 54.69 9.9
-4 0 -5 60.69 7.8
4 0 5 53.39 7.3
4 0 5 55.99 7.8
-5 0 -5 145.99 16.1
-5 0 -5 147.49 12.7
-5 0 -5 148.49 13.5
5 0 5 158.28 13.8
5 0 5 141.49 13.6
-6 0 -5 0.5 2.8
-6 0 -5 3 3.9
-6 0 -5 7.5 3.3
6 0 5 2.1 3.1
-7 0 -5 2 3.2
-7 0 -5 2.3 2.4
-7 0 -5 -5.6 4.2
7 0 5 2.2 3.5
-8 0 -5 363.26 27.6
-8 0 -5 414.16 27.2
8 0 5 406.96 30
-9 0 -5 65.89 6.7
-9 0 -5 75.89 16.9
9 0 5 79.29 10.5
-10 0 -5 98.19 20
10 0 5 109.49 12.8
-12 1 5 113.69 21.9
-12 1 5 130.99 22.9
-11 1 5 6.6 10
-11 1 5 20.4 5.6
-11 1 5 17.8 9.9
-11 1 5 22.8 6.2
-10 1 5 4.1 4.3
-10 1 5 2.3 6.7
-10 1 5 -2.1 6.4
-9 1 5 143.29 15.2
-9 1 5 140.69 23
-9 1 5 153.78 19.2
-8 1 5 65.19 10.3
-8 1 5 52.29 11.6
-8 1 5 50.99 12.8
-7 1 5 297.87 23.5
-7 1 5 268.17 25
-7 1 5 315.57 29.1
-6 1 5 456.35 32.6
-6 1 5 472.15 34.3
-6 1 5 466.15 37.4
-5 1 5 32 6.2
-5 1 5 36 8.6
4 -1 -5 652.03 41.8
-4 1 5 681.03 45.9
-4 1 5 629.04 42.5
3 -1 -5 3375.86 207.08
-3 1 5 3699.53 208.58
-3 1 5 3728.33 210.68
2 -1 -5 271.77 20.4
-2 1 5 282.47 21.2
-2 1 5 281.37 17.5
-2 1 5 303.87 22.3
0 -1 -5 1254.57 74.19
0 -1 -5 1208.38 70.59
0 1 5 1228.78 70.79
0 1 5 1172.08 73.99
-1 -1 -5 5036.2 300.97
-1 -1 -5 5498.15 303.67
1 1 5 5348.96 301.57
1 1 5 5280.67 303.67
-2 -1 -5 2 2.3
-2 -1 -5 0.8 2.2
2 1 5 1.5 1.5
2 1 5 1.1 2
-3 -1 -5 807.02 55.19
-3 -1 -5 893.61 55.49
3 1 5 925.71 55.99
3 1 5 847.02 52.69
-4 -1 -5 5.7 3.6
-4 -1 -5 15.6 5.6
4 1 5 12.5 4.5
4 1 5 33.9 5.6
-5 -1 -5 83.89 13.7
-5 -1 -5 97.49 10.9
5 1 5 93.99 9.5
5 1 5 73.49 9.9
-6 -1 -5 2519.95 147.79
-6 -1 -5 2222.18 141.69
6 1 5 2449.66 140.89
-7 -1 -5 267.37 24.7
-7 -1 -5 190.68 18
7 1 5 212.98 17.7
-8 -1 -5 34.6 7.5
-8 -1 -5 63.19 14.6
8 1 5 42.2 7.6
-9 -1 -5 153.98 24.7
-9 -1 -5 159.08 15
9 1 5 196.38 15.6
-10 -1 -5 -0.8 6.1
-10 -1 -5 2 2.9
-11 -1 -5 21.8 11.1
-12 2 5 5.1 8
-12 2 5 15.8 10.8
-11 2 5 65.39 9
-11 2 5 93.79 17.9
-11 2 5 77.19 9.7
-11 2 5 80.09 18
-10 2 5 81.09 18
-10 2 5 69.69 25.1
-10 2 5 75.19 10.1
-9 2 5 9.7 8.2
-9 2 5 5.7 6.3
-9 2 5 24.5 6.1
-8 2 5 388.26 28.7
-8 2 5 335.17 31.2
-8 2 5 400.56 36.3
7 -2 -5 515.25 37.9
-7 2 5 466.75 34.1
-7 2 5 456.05 40
6 -2 -5 1101.59 65.99
-6 2 5 913.11 67.19
-6 2 5 921.81 61.99
5 -2 -5 4054.59 221.98
5 -2 -5 3806.72 217.18
-5 2 5 3439.26 218.38
-5 2 5 3768.12 223.68
4 -2 -5 159.98 15.6
4 -2 -5 163.98 13.7
-4 2 5 172.98 17.2
-4 2 5 151.08 14.7
3 -2 -5 475.15 32.5
-3 2 5 503.65 33.8
-3 2 5 484.15 35.4
2 -2 -5 9.1 3.2
-2 2 5 13.8 4.4
-2 2 5 12.2 2.2
-2 2 5 9.2 3.8
1 -2 -5 22.1 5
1 -2 -5 17.5 2.7
-1 2 5 15.8 4.5
-1 2 5 17.3 2.9
-1 2 5 18.8 4.9
0 -2 -5 3.8 1.7
0 -2 -5 2.1 2.5
0 2 5 2 2.4
0 2 5 2.7 1.6
-1 -2 -5 1893.71 111.99
-1 -2 -5 1759.32 108.99
1 2 5 1930.21 109.79
1 2 5 1889.11 112.29
-2 -2 -5 1.6 2.5
-2 -2 -5 -0.4 2.3
2 2 5 2 3.2
2 2 5 3.5 2.7
-3 -2 -5 1857.61 112.89
-3 -2 -5 2007.3 113.99
3 2 5 1824.52 113.19
3 2 5 1819.42 109.19
3 2 5 1899.31 113.89
-4 -2 -5 331.37 25.7
-4 -2 -5 328.07 25
4 2 5 284.37 21
4 2 5 300.97 24.4
-5 -2 -5 2191.68 134.89
-5 -2 -5 2386.96 133.49
5 2 5 2107.19 132.29
5 2 5 2141.89 128.59
-6 -2 -5 71.69 12.9
-6 -2 -5 48.4 9.6
6 2 5 44.5 7.1
-7 -2 -5 48.8 9.5
-7 -2 -5 39.4 11.4
7 2 5 45.3 7
-8 -2 -5 10 7
-8 -2 -5 12.5 5.4
8 2 5 1.9 3
-9 -2 -5 168.98 16.4
-9 -2 -5 115.79 21.2
-10 -2 -5 106.39 21
-10 -2 -5 146.39 14.3
-11 -2 -5 -6.9 8.6
-12 3 5 38.5 15.5
-12 3 5 51.49 14.8
-11 3 5 12.1 3.7
-11 3 5 0.3 6.8
-11 3 5 5.9 2.8
-11 3 5 11.8 9.7
-10 3 5 140.39 25.5
-10 3 5 131.29 13.1
-10 3 5 130.69 32
-9 3 5 190.58 22.4
-9 3 5 204.78 18.3
-9 3 5 245.88 28
8 -3 -5 -1.8 4.7
-8 3 5 8.1 4.3
-8 3 5 5.1 5.9
7 -3 -5 469.45 35.7
-7 3 5 457.25 39.1
-7 3 5 391.16 31.1
6 -3 -5 190.58 15.1
6 -3 -5 190.08 18.5
-6 3 5 150.38 15.9
-6 3 5 179.88 20.8
5 -3 -5 248.98 21.3
5 -3 -5 215.08 17.2
-5 3 5 199.28 23.2
-5 3 5 209.58 18.7
4 -3 -5 1108.89 76.59
4 -3 -5 1191.38 72.79
-4 3 5 1342.37 79.29
-4 3 5 1151.88 74.29
3 -3 -5 3614.64 214.78
3 -3 -5 3529.65 212.28
-3 3 5 3650.83 209.68
-3 3 5 3727.43 216.38
-3 3 5 3836.62 214.28
2 -3 -5 3125.59 180.98
2 -3 -5 3165.18 184.88
2 -3 -5 3085.79 185.68
-2 3 5 3321.07 186.28
-2 3 5 3153.88 181.08
-2 3 5 3182.38 186.68
1 -3 -5 1743.43 105.89
1 -3 -5 1773.62 101.79
-1 3 5 1721.73 105.89
-1 3 5 1783.32 101.99
-1 3 5 1779.82 106.69
0 -3 -5 359.26 26.5
0 -3 -5 340.27 22.9
0 3 5 367.06 26.9
0 3 5 326.77 24.8
0 3 5 354.26 23.3
-1 -3 -5 1393.56 85.09
-1 -3 -5 1337.77 81.89
1 3 5 1341.77 82.09
1 3 5 1421.76 85.69
-2 -3 -5 1277.37 76.79
-2 -3 -5 1134.39 73.79
2 3 5 1259.87 76.99
2 3 5 1166.08 74.19
-3 -3 -5 5.2 7.9
-3 -3 -5 23.6 6.5
3 3 5 19.7 3.6
3 3 5 19.4 6.4
3 3 5 15.4 5
-4 -3 -5 2299.37 133.19
-4 -3 -5 2164.38 132.49
4 3 5 2107.19 126.39
4 3 5 2188.28 132.49
-5 -3 -5 375.36 42.3
-5 -3 -5 369.26 30.4
5 3 5 384.86 29.3
5 3 5 331.97 23.5
-6 -3 -5 8.8 6.2
-6 -3 -5 16.6 7.1
6 3 5 7.1 2.7
-7 -3 -5 139.79 21.5
-7 -3 -5 121.19 15.7
7 3 5 160.48 10.4
-8 -3 -5 285.97 29.4
-8 -3 -5 251.37 24.1
-9 -3 -5 27.2 10.9
-9 -3 -5 20.6 7.9
-10 -3 -5 -14.7 7.5
-10 -3 -5 6.5 6.5
-12 4 5 19.3 8.6
-11 4 5 239.78 31.9
-11 4 5 204.78 25.5
-10 4 5 121.09 24.3
-10 4 5 94.49 20.8
-10 4 5 115.89 11.8
9 -4 -5 54.89 13
-9 4 5 59.79 16.1
-9 4 5 43.5 8.6
8 -4 -5 808.02 58.79
-8 4 5 888.91 54.59
-8 4 5 735.63 62.19
7 -4 -5 150.28 18.6
-7 4 5 170.38 16.4
-7 4 5 189.38 22.3
6 -4 -5 2490.05 146.89
6 -4 -5 2641.94 153.68
-6 4 5 2681.63 157.58
-6 4 5 2271.17 148.89
5 -4 -5 170.68 14.7
5 -4 -5 165.48 17.8
-5 4 5 182.18 20.3
-5 4 5 154.38 15.6
4 -4 -5 328.77 25.2
4 -4 -5 322.17 27.7
-4 4 5 381.16 30.7
-4 4 5 361.06 27.1
-4 4 5 348.37 23.9
3 -4 -5 6159.98 353.96
3 -4 -5 5779.72 355.86
-3 4 5 6169.78 355.36
-3 4 5 6281.47 350.76
-3 4 5 6458.35 358.16
2 -4 -5 33.8 4.4
2 -4 -5 37.6 7.1
2 -4 -5 25.5 6.3
-2 4 5 32.9 7.8
-2 4 5 37.4 7.5
-2 4 5 28.4 4.6
1 -4 -5 1259.87 75.29
1 -4 -5 1260.97 79.79
-1 4 5 1285.77 80.59
-1 4 5 1309.57 75.79
-1 4 5 1274.77 79.49
0 -4 -5 3938.71 236.98
0 -4 -5 3985.5 232.88
0 4 5 4187.28 233.68
0 4 5 4148.88 238.18
0 4 5 4077.49 235.48
-1 -4 -5 6531.75 367.56
-1 -4 -5 6214.18 363.46
1 4 5 6194.98 363.76
1 4 5 6608.04 368.36
1 4 5 6288.27 363.66
-2 -4 -5 5402.86 309.37
-2 -4 -5 5244.78 306.27
2 4 5 5297.77 309.67
2 4 5 5391.16 304.27
2 4 5 5271.17 306.87
-3 -4 -5 427.16 30.4
-3 -4 -5 414.36 36.7
3 4 5 384.56 31.4
3 4 5 368.06 29.8
3 4 5 402.46 25.3
-4 -4 -5 189.08 18.2
-4 -4 -5 182.28 18.5
4 4 5 162.58 17.3
4 4 5 157.18 17.3
4 4 5 150.18 11.8
-5 -4 -5 258.07 24.1
-5 -4 -5 293.77 25.6
5 4 5 266.67 16.9
5 4 5 264.87 16.8
5 4 5 200.38 26.3
-6 -4 -5 429.66 37.3
-6 -4 -5 468.65 36.8
-7 -4 -5 1424.76 88.19
-7 -4 -5 1180.98 95.69
-8 -4 -5 8.5 7.3
-8 -4 -5 10.9 7.7
-9 -4 -5 48.6 13.6
-9 -4 -5 71.29 13.2
-10 -4 -5 27.3 10.2
-10 -4 -5 38.3 12.6
-12 5 5 139.29 26.6
-12 5 5 116.09 21.6
-11 5 5 32.1 13.3
-11 5 5 26.2 11.9
10 -5 -5 114.49 19.5
-10 5 5 110.39 11.3
-10 5 5 123.29 23.7
9 -5 -5 255.57 32
-9 5 5 254.87 30.5
-9 5 5 246.58 21
8 -5 -5 263.37 25.5
-8 5 5 243.98 20.8
-8 5 5 191.18 26.3
7 -5 -5 1303.37 77.79
7 -5 -5 1286.57 85.39
-7 5 5 1360.46 90.09
-7 5 5 1190.28 80.19
6 -5 -5 14.4 4.4
6 -5 -5 16.9 7.3
-6 5 5 -2.9 5.1
-6 5 5 13.6 5.3
5 -5 -5 1960.4 122.19
5 -5 -5 1882.51 116.79
-5 5 5 2077.99 116.89
-5 5 5 2258.37 126.89
-5 5 5 1713.73 118.69
4 -5 -5 1987.5 121.69
4 -5 -5 1975.1 118.39
-4 5 5 2071.39 116.09
-4 5 5 1794.62 144.79
-4 5 5 1953.4 120.09
3 -5 -5 2436.16 151.78
3 -5 -5 2593.94 150.58
3 -5 -5 2604.54 147.19
-3 5 5 2536.85 153.58
-3 5 5 2467.75 146.69
-3 5 5 2542.75 151.78
2 -5 -5 2490.35 150.38
2 -5 -5 2430.76 145.79
2 -5 -5 2458.25 150.58
-2 5 5 2506.85 151.88
-2 5 5 2610.24 146.49
-2 5 5 2657.03 152.08
1 -5 -5 65.29 7
1 -5 -5 56.89 9.6
1 -5 -5 50.39 9.5
-1 5 5 63.19 10.5
-1 5 5 67.49 7.3
-1 5 5 76.69 10.4
0 -5 -5 1606.44 96.99
0 -5 -5 1501.55 91.89
0 5 5 1613.74 97.79
0 5 5 1531.85 94.29
0 5 5 1498.05 92.49
-1 -5 -5 5093.59 291.37
-1 -5 -5 5006.8 302.07
1 5 5 4983 291.47
1 5 5 5290.27 296.67
1 5 5 4980.3 291.87
-2 -5 -5 133.59 14.3
-2 -5 -5 152.08 16.6
2 5 5 141.79 12.4
2 5 5 137.49 13.9
2 5 5 120.69 15
-3 -5 -5 1485.65 89.89
-3 -5 -5 1399.76 86.89
3 5 5 1383.76 81.99
3 5 5 1306.87 90.59
3 5 5 1338.57 86.89
-4 -5 -5 124.69 14.5
-4 -5 -5 120.29 15.4
4 5 5 111.89 9.1
4 5 5 113.79 15.1
4 5 5 140.99 15.4
4 5 5 111.69 8.7
-5 -5 -5 204.28 20.8
-5 -5 -5 199.08 21.5
5 5 5 198.08 21
5 5 5 176.88 20.3
-6 -5 -5 95.89 16.7
-6 -5 -5 81.19 15.9
-7 -5 -5 108.99 18.7
-7 -5 -5 113.19 18.8
-8 -5 -5 299.57 29.4
-8 -5 -5 307.07 31.4
-9 -5 -5 -2.1 5.1
-9 -5 -5 -10.8 8.4
-10 -5 -5 26.7 11.1
-10 -5 -5 13.3 9.7
-12 6 5 22.4 13.4
-12 6 5 20.7 9.1
-11 6 5 372.96 42.6
10 -6 -5 92.39 18.6
-10 6 5 92.89 10.2
-10 6 5 85.49 21.2
9 -6 -5 374.46 35.1
-9 6 5 389.46 28.9
-9 6 5 368.26 39.5
8 -6 -5 -4.4 5.2
-8 6 5 -9.2 6.4
-8 6 5 -4.4 4.2
7 -6 -5 1063.69 64.49
7 -6 -5 1011.5 71.89
-7 6 5 1091.89 67.59
-7 6 5 938.61 66.59
-7 6 5 1085.49 76.99
6 -6 -5 1299.37 79.49
6 -6 -5 1218.98 85.19
-6 6 5 1381.46 80.69
-6 6 5 1190.18 81.79
-6 6 5 1404.86 90.69
5 -6 -5 141.59 17.1
5 -6 -5 153.28 14.5
-5 6 5 174.38 14.4
-5 6 5 141.99 16.1
-5 6 5 178.68 20.6
4 -6 -5 1785.52 118.69
4 -6 -5 1952.4 116.39
-4 6 5 1836.62 117.89
-4 6 5 2069.19 122.69
-4 6 5 1981.7 113.69
3 -6 -5 1329.77 89.39
3 -6 -5 1450.05 88.89
3 -6 -5 1448.06 85.19
-3 6 5 1480.25 85.29
-3 6 5 1356.96 89.89
-3 6 5 1458.85 92.19
2 -6 -5 1987.7 134.29
2 -6 -5 2168.18 124.59
2 -6 -5 1897.61 134.29
-2 6 5 2170.98 130.99
-2 6 5 2355.26 131.69
-2 6 5 2175.88 125.19
1 -6 -5 146.49 13
1 -6 -5 150.28 15.1
1 -6 -5 151.58 16.7
-1 6 5 159.98 17.4
-1 6 5 152.28 13.3
-1 6 5 165.28 16.3
0 -6 -5 59.39 7.9
0 -6 -5 73.69 12.5
0 6 5 54.39 9.7
0 6 5 58.59 11.8
0 6 5 74.09 8.7
-1 -6 -5 7332.87 423.56
-1 -6 -5 7222.28 418.56
1 6 5 7345.56 424.76
1 6 5 7278.07 418.86
1 6 5 7424.46 419.46
-2 -6 -5 255.27 25
-2 -6 -5 279.47 22.9
2 6 5 262.67 25.6
2 6 5 294.67 21.2
-3 -6 -5 573.34 43.7
-3 -6 -5 598.44 41.6
3 6 5 548.25 43.5
3 6 5 562.64 36.3
3 6 5 566.34 41.5
-4 -6 -5 482.35 36.3
-4 -6 -5 397.86 32.6
4 6 5 424.36 34.9
4 6 5 379.36 24.4
4 6 5 432.96 33.8
4 6 5 388.36 24.9
-5 -6 -5 81.39 15
-5 -6 -5 74.89 13.7
5 6 5 60.99 13.3
5 6 5 82.29 15.4
-6 -6 -5 722.63 53.49
-6 -6 -5 643.74 51.49
-7 -6 -5 286.77 31.1
-7 -6 -5 357.86 32.7
-8 -6 -5 11.7 9.2
-8 -6 -5 17.5 9
-9 -6 -5 45.1 12.5
-9 -6 -5 39.9 13.6
-10 -6 -5 7.5 10.6
-10 -6 -5 2.2 10
-12 7 5 4.8 7
-12 7 5 13.6 12.8
-11 7 5 208.68 34.4
-10 7 5 147.59 28.1
-10 7 5 177.08 15.6
9 -7 -5 15.9 8.4
-9 7 5 6.4 8.5
-9 7 5 5.8 6.4
-9 7 5 3.7 5
8 -7 -5 304.87 31.5
8 -7 -5 359.86 25
-8 7 5 372.96 28.8
-8 7 5 300.07 34.4
-8 7 5 296.77 26.7
7 -7 -5 127.49 16.8
7 -7 -5 114.59 12.2
-7 7 5 133.89 14.3
-7 7 5 121.19 14.5
-7 7 5 106.49 20.7
6 -7 -5 416.46 30.3
6 -7 -5 401.86 35.3
-6 7 5 460.35 39.3
-6 7 5 426.56 30.5
-6 7 5 382.26 32.3
5 -7 -5 1499.25 118.09
5 -7 -5 1827.42 114.09
-5 7 5 1924.81 107.89
-5 7 5 2072.99 119.39
-5 7 5 1645.34 111.09
4 -7 -5 183.78 18.6
4 -7 -5 209.58 21.3
-4 7 5 198.18 20.1
-4 7 5 216.48 17
-4 7 5 226.78 23.6
3 -7 -5 4062.99 246.28
3 -7 -5 4115.79 245.08
3 -7 -5 4165.08 240.88
-3 7 5 4050.99 246.68
-3 7 5 4255.47 248.68
-3 7 5 4424.66 241.58
2 -7 -5 108.59 13.6
2 -7 -5 120.59 11.1
2 -7 -5 103.69 13.2
-2 7 5 109.59 11.1
-2 7 5 102.99 13.8
-2 7 5 106.89 14.3
1 -7 -5 5563.64 310.77
1 -7 -5 5282.77 314.27
1 -7 -5 5481.85 316.37
-1 7 5 5529.95 320.27
-1 7 5 5402.26 315.07
-1 7 5 5243.28 312.07
0 -7 -5 1296.27 87.89
0 -7 -5 1360.36 83.19
0 -7 -5 1360.76 84.89
0 7 5 1431.86 89.99
0 7 5 1384.26 83.99
0 7 5 1349.77 85.49
-1 -7 -5 44.2 8.5
-1 -7 -5 46.3 10.7
1 7 5 50.29 9
1 7 5 47.3 10.8
1 7 5 42 8.5
-2 -7 -5 32.7 7.7
-2 -7 -5 25.4 8
2 7 5 28.8 6.2
2 7 5 20.8 7.1
2 7 5 35.5 9.8
-3 -7 -5 703.23 52.69
-3 -7 -5 722.13 49.7
3 7 5 690.23 52.59
3 7 5 714.23 49.99
3 7 5 697.53 44.3
-4 -7 -5 -0.8 4.4
-4 -7 -5 -3.4 2.9
4 7 5 2.2 1.2
4 7 5 4.1 4.7
4 7 5 2.3 3.7
4 7 5 0.5 1.1
-5 -7 -5 1334.67 88.99
-5 -7 -5 1411.36 91.89
5 7 5 1288.57 89.29
-6 -7 -5 83.79 17.2
-7 -7 -5 259.77 28.4
-7 -7 -5 209.28 26.7
-8 -7 -5 26.3 10.9
-9 -7 -5 -17.3 9.8
-9 -7 -5 -14.1 6.5
-12 8 5 99.29 22.9
-11 8 5 25.3 16
-10 8 5 7.8 4.8
-10 8 5 -2.2 9.7
9 -8 -5 1064.89 66.59
9 -8 -5 1089.39 86.79
-9 8 5 1221.38 74.19
-9 8 5 1047.5 83.69
-9 8 5 1004.4 69.39
8 -8 -5 -5.3 4.8
8 -8 -5 2.4 3.9
-8 8 5 5 4.9
-8 8 5 9.6 7.1
-8 8 5 4.2 8
7 -8 -5 1234.98 94.69
7 -8 -5 1362.56 84.69
-7 8 5 1338.87 81.69
-7 8 5 1218.98 83.09
-7 8 5 1264.27 92.29
6 -8 -5 6.2 4
6 -8 -5 -0.1 5.4
-6 8 5 -4.2 4.4
-6 8 5 -2.1 4.1
-6 8 5 -2.4 2.8
5 -8 -5 346.87 31.1
5 -8 -5 328.17 27.4
-5 8 5 326.57 29.6
-5 8 5 373.96 26.4
-5 8 5 367.46 34.1
4 -8 -5 1110.19 70.89
4 -8 -5 1018.3 71.39
4 -8 -5 1025 72.59
-4 8 5 1127.59 76.09
-4 8 5 1052.59 72.69
-4 8 5 1129.89 67.59
3 -8 -5 485.75 38.8
3 -8 -5 530.85 34.8
3 -8 -5 521.15 38.5
-3 8 5 534.45 35
-3 8 5 428.16 54.49
-3 8 5 484.35 40.7
2 -8 -5 147.89 16.7
2 -8 -5 163.88 14.5
2 -8 -5 155.88 17.5
-2 8 5 138.19 23.9
-2 8 5 178.88 15.1
-2 8 5 167.48 19.5
1 -8 -5 9.4 4.3
1 -8 -5 0.1 3.4
1 -8 -5 1.6 4.5
-1 8 5 2.3 3.5
-1 8 5 11.3 5.9
-1 8 5 -0.1 2.6
0 -8 -5 8 4.7
0 -8 -5 2.7 4.3
0 -8 -5 2.1 5.1
0 8 5 4 4.3
0 8 5 1.4 3.6
0 8 5 12.2 5.3
-1 -8 -5 2862.71 173.98
-1 -8 -5 3008.6 180.48
1 8 5 2948.51 180.78
1 8 5 3020 175.38
1 8 5 2917.71 174.38
-2 -8 -5 462.75 34.6
-2 -8 -5 450.25 38.6
2 8 5 463.55 39.2
2 8 5 466.95 32.5
2 8 5 446.26 35.1
-3 -8 -5 355.66 31.8
-3 -8 -5 334.87 27.6
3 8 5 316.47 27.8
3 8 5 303.87 22.4
3 8 5 299.07 30.6
-4 -8 -5 80.89 14.5
-4 -8 -5 78.09 16.9
4 8 5 75.09 14.3
4 8 5 74.59 15.7
-5 -8 -5 441.36 39.3
-5 -8 -5 392.66 35
5 8 5 411.36 36.3
-6 -8 -5 52.69 14.1
-6 -8 -5 75.59 16.9
-7 -8 -5 25.2 11.3
-7 -8 -5 26.5 12.2
-8 -8 -5 6 8.1
-9 -8 -5 63.49 17.5
-9 -8 -5 86.49 20.8
-12 9 5 48.1 17.9
-10 9 5 -5.1 6
-10 9 5 3.4 4.8
9 -9 -5 242.98 19.8
-9 9 5 249.68 24.6
-9 9 5 217.98 36.5
-9 9 5 243.28 22.5
8 -9 -5 38.2 7.4
8 -9 -5 40.5 12.1
-8 9 5 23.7 8.4
-8 9 5 26.6 12.8
-8 9 5 36.4 8.7
7 -9 -5 618.14 49.4
7 -9 -5 576.04 41.7
-7 9 5 616.74 53.29
-7 9 5 650.83 43.2
-7 9 5 578.14 45.3
6 -9 -5 2037.9 137.79
6 -9 -5 2104.09 131.89
-6 9 5 2404.16 144.29
-6 9 5 2209.38 130.99
5 -9 -5 14.1 6.8
5 -9 -5 -0.4 3.3
-5 9 5 0 4.7
-5 9 5 4.9 5.6
-5 9 5 6.2 4.2
4 -9 -5 2.4 3.5
4 -9 -5 -0.8 3.6
4 -9 -5 -2 2.7
-4 9 5 10 5.3
-4 9 5 9.1 4.2
-4 9 5 -0.4 3.9
3 -9 -5 480.55 32.3
3 -9 -5 457.25 36.2
3 -9 -5 401.86 35.7
-3 9 5 462.55 32.4
-3 9 5 458.55 38.7
-3 9 5 435.26 37.4
2 -9 -5 33.1 7.2
2 -9 -5 40.6 10.3
2 -9 -5 31.7 8.6
-2 9 5 31 9.8
-2 9 5 46.9 8.3
-2 9 5 36 10.7
1 -9 -5 1823.32 116.39
1 -9 -5 1871.81 110.49
1 -9 -5 1825.72 113.89
-1 9 5 1741.73 116.39
-1 9 5 1873.61 118.09
-1 9 5 1831.42 111.09
0 -9 -5 2162.58 132.59
0 -9 -5 2238.38 136.39
0 -9 -5 2175.68 138.89
0 9 5 2214.98 135.59
0 9 5 2227.58 140.29
0 9 5 2274.87 133.99
-1 -9 -5 773.12 59.59
-1 -9 -5 836.62 55.19
1 9 5 836.92 55.29
1 9 5 857.01 61.49
1 9 5 811.82 55.79
-2 -9 -5 2157.68 130.49
-2 -9 -5 2213.38 136.79
2 9 5 2099.89 136.39
2 9 5 2086.29 127.49
2 9 5 2132.59 131.39
-3 -9 -5 1389.46 88.69
-3 -9 -5 1449.76 94.49
3 9 5 1301.67 82.09
3 9 5 1403.56 93.79
3 9 5 1345.07 89.59
-4 -9 -5 38.2 10.1
-4 -9 -5 22.4 9.2
4 9 5 38.9 11.8
4 9 5 10.2 7.9
-5 -9 -5 245.08 46.3
-5 -9 -5 320.77 33.5
-6 -9 -5 50.79 13.8
-6 -9 -5 33.8 11.2
-7 -9 -5 295.97 31.2
-7 -9 -5 292.17 34.7
-8 -9 -5 36.7 12.1
-9 -9 -5 16.7 11.2
-12 10 5 25.3 14.6
-11 10 5 31.5 17.3
-10 10 5 84.09 12
-10 10 5 71.09 20.1
9 -10 -5 54.89 9.3
-9 10 5 75.19 19.8
-9 10 5 54.59 11.6
8 -10 -5 2.1 4.5
-8 10 5 -2 8.3
-8 10 5 26.8 14.3
-8 10 5 5.1 6.1
7 -10 -5 40.7 9.5
7 -10 -5 49.4 14.1
-7 10 5 44 9
-7 10 5 30.9 8.9
-7 10 5 59.89 15.3
6 -10 -5 4.1 4.3
6 -10 -5 27.7 7.5
-6 10 5 9.9 5.4
-6 10 5 10.5 6.7
-6 10 5 3.6 6.2
5 -10 -5 1626.84 103.09
5 -10 -5 1587.04 106.79
-5 10 5 1439.56 104.29
-5 10 5 1697.63 100.29
-5 10 5 1816.72 112.29
4 -10 -5 95.39 12.5
4 -10 -5 112.19 14.5
4 -10 -5 101.19 17.6
-4 10 5 121.29 20
-4 10 5 90.69 16.7
-4 10 5 117.89 12.7
3 -10 -5 2.3 4.5
3 -10 -5 9.4 4.8
3 -10 -5 -0.6 4.9
-3 10 5 10.7 4.5
-3 10 5 4.1 5.2
-3 10 5 12.1 6.9
2 -10 -5 670.13 46.2
2 -10 -5 689.93 51.79
2 -10 -5 633.54 49.8
-2 10 5 734.53 47.3
-2 10 5 696.03 51.99
-2 10 5 723.83 53.79
1 -10 -5 285.47 25.6
1 -10 -5 260.87 27
1 -10 -5 300.07 23.8
-1 10 5 296.97 29.2
-1 10 5 264.27 23.5
-1 10 5 296.77 26.8
0 -10 -5 959.1 70.59
0 -10 -5 1020.8 66.69
0 -10 -5 1050.59 65.29
0 10 5 966 66.69
0 10 5 1007.7 65.79
0 10 5 958.7 71.49
-1 -10 -5 94.89 18.2
-1 -10 -5 109.69 13.6
1 10 5 93.29 15
1 10 5 92.69 12.2
1 10 5 150.88 19.6
-2 -10 -5 275.27 25.4
-2 -10 -5 352.06 31.9
2 10 5 294.47 26.6
2 10 5 271.97 22.9
2 10 5 276.17 30.3
-3 -10 -5 113.39 16.9
-3 -10 -5 113.29 24.5
3 10 5 91.89 18.8
3 10 5 96.39 16
3 10 5 77.69 9.3
-4 -10 -5 516.75 42.7
-4 -10 -5 453.75 37.3
4 10 5 341.17 38
4 10 5 435.46 55.79
-5 -10 -5 739.43 56.79
-5 -10 -5 747.83 60.99
-6 -10 -5 67.29 15.5
-6 -10 -5 88.89 22.6
-7 -10 -5 -4.2 7
-8 -10 -5 66.99 20.6
-12 11 5 53.19 21.6
-11 11 5 17.8 13.5
-10 11 5 11.7 6.2
-10 11 5 5 9.7
9 -11 -5 35.1 7.7
-9 11 5 27.2 13.8
8 -11 -5 32.4 7.8
-8 11 5 26.5 8.7
-8 11 5 43.4 9.4
7 -11 -5 7.8 5.1
7 -11 -5 8.9 6.9
-7 11 5 26.4 7.4
-7 11 5 6.1 6.6
-7 11 5 0.3 7.3
6 -11 -5 440.46 36.1
6 -11 -5 449.06 41.3
-6 11 5 540.95 46.5
-6 11 5 491.95 35.2
-6 11 5 415.66 38
5 -11 -5 379.26 37.4
5 -11 -5 408.16 33.8
-5 11 5 465.95 40.5
-5 11 5 427.66 31.1
-5 11 5 337.57 34.4
4 -11 -5 1137.79 78.09
4 -11 -5 1163.78 79.99
4 -11 -5 1202.98 74.09
-4 11 5 1014.7 78.79
-4 11 5 1177.58 82.59
-4 11 5 1215.48 74.09
3 -11 -5 -4.5 3.2
3 -11 -5 1 4.6
3 -11 -5 0.5 5.9
-3 11 5 -2.1 3
-3 11 5 -1.5 4.5
-3 11 5 0.6 2.6
2 -11 -5 23.4 9.2
2 -11 -5 10.5 5.9
2 -11 -5 20.4 6
-2 11 5 10 5.9
-2 11 5 19.5 6.8
-2 11 5 8.6 7.2
1 -11 -5 157.08 16.2
1 -11 -5 134.19 18
1 -11 -5 156.18 17.5
-1 11 5 142.59 20.2
-1 11 5 147.69 18.3
-1 11 5 149.88 16.2
0 -11 -5 14.1 6.4
0 -11 -5 27 9.3
0 -11 -5 16.3 6.8
0 11 5 10 5.4
0 11 5 8.6 7
0 11 5 22.6 7.2
-1 -11 -5 162.38 17.5
-1 -11 -5 129.19 21.9
1 11 5 148.69 17.1
1 11 5 151.68 16.7
1 11 5 180.98 23
-2 -11 -5 54.39 11.6
-2 -11 -5 43.7 13.2
2 11 5 52.69 11.8
2 11 5 39.8 8.5
2 11 5 42.9 13.5
-3 -11 -5 3.4 4.1
-3 -11 -5 4.7 7.3
3 11 5 5.9 3.7
3 11 5 8.4 6.2
3 11 5 -2.9 5.7
-4 -11 -5 881.21 73.39
-4 -11 -5 1008 74.39
-5 -11 -5 14.4 8.5
-6 -11 -5 51.49 13.6
-7 -11 -5 2.9 7.9
-8 -11 -5 105.29 20.3
-11 12 5 114.09 25.9
10 -12 -5 189.98 17.2
-10 12 5 168.78 20.2
-10 12 5 167.48 33.4
9 -12 -5 169.38 16
-9 12 5 134.59 28.2
-9 12 5 121.89 18.1
8 -12 -5 -1.8 4.2
-8 12 5 7.9 8.5
-8 12 5 -4 5.6
-8 12 5 -7.1 5.6
7 -12 -5 46.4 10.2
-7 12 5 43.2 10.2
-7 12 5 39.8 11.7
-7 12 5 66.69 18.6
6 -12 -5 818.92 64.09
6 -12 -5 812.02 58.99
-6 12 5 709.13 60.69
-6 12 5 992.7 71.19
-6 12 5 1009.7 76.29
5 -12 -5 87.79 14.3
5 -12 -5 96.49 18.9
5 -12 -5 112.09 15.4
-5 12 5 101.19 13.4
-5 12 5 121.89 21.7
-5 12 5 67.19 15.6
4 -12 -5 14.6 7.6
4 -12 -5 15.2 7.4
4 -12 -5 21.4 7.3
-4 12 5 14.3 8.2
-4 12 5 3.2 6.5
-4 12 5 22.3 7.2
3 -12 -5 736.53 50.99
3 -12 -5 751.82 56.99
3 -12 -5 698.33 55.89
-3 12 5 836.82 60.19
-3 12 5 783.02 51.89
-3 12 5 714.53 58.19
2 -12 -5 60.89 13.3
2 -12 -5 76.49 12.2
2 -12 -5 61.29 14.2
-2 12 5 50.19 14.1
-2 12 5 67.49 14.1
-2 12 5 66.39 11.6
1 -12 -5 22.6 7.4
1 -12 -5 18.8 7.3
1 -12 -5 26.5 9.2
-1 12 5 34.9 8.8
-1 12 5 35.2 11.3
-1 12 5 33.5 9.9
0 -12 -5 526.75 38.9
0 -12 -5 426.66 48.6
0 -12 -5 464.95 36.6
0 12 5 469.75 37.3
0 12 5 484.75 38.4
0 12 5 453.95 42.9
-1 -12 -5 12.4 5.2
-1 -12 -5 13.9 9.1
-1 -12 -5 18.1 6.5
1 12 5 3.8 6.1
1 12 5 5.7 5.6
1 12 5 15.3 7.5
-2 -12 -5 462.55 43
-2 -12 -5 503.45 38
2 12 5 453.35 33.8
2 12 5 419.56 42.2
2 12 5 416.46 36.9
-3 -12 -5 264.17 26.3
-3 -12 -5 290.57 32
3 12 5 253.87 20.1
3 12 5 238.98 29.8
-4 -12 -5 210.88 24.4
-5 -12 -5 137.29 22
-6 -12 -5 3 8.7
-7 -12 -5 211.28 26.2
11 -13 -5 91.89 17.1
-11 13 5 85.09 22.7
10 -13 -5 11 6.6
-10 13 5 4 6.4
9 -13 -5 8.6 7.1
-9 13 5 11 11.5
-9 13 5 31.9 9.1
8 -13 -5 88.99 12.5
-8 13 5 71.39 16.1
-8 13 5 49.6 17.5
7 -13 -5 780.72 54.89
-7 13 5 661.93 56.79
-7 13 5 764.32 64.59
-7 13 5 782.32 53.19
6 -13 -5 99.09 17.6
-6 13 5 122.59 15
-6 13 5 120.09 24.8
-6 13 5 117.49 21
5 -13 -5 39.1 12.1
5 -13 -5 41.5 10
5 -13 -5 29.8 9.3
-5 13 5 37.8 11.3
-5 13 5 38.8 12.9
-5 13 5 29.5 11.2
4 -13 -5 324.87 34.5
4 -13 -5 392.46 31.2
4 -13 -5 388.56 35.3
-4 13 5 395.36 38.4
-4 13 5 384.76 37.5
-4 13 5 421.66 32
3 -13 -5 318.17 32
3 -13 -5 372.66 33.9
3 -13 -5 363.86 29.1
-3 13 5 392.26 36.2
-3 13 5 313.17 34.3
-3 13 5 342.17 29
2 -13 -5 752.62 51.49
2 -13 -5 739.23 55.59
2 -13 -5 681.93 65.39
-2 13 5 727.83 59.39
-2 13 5 730.83 56.79
-2 13 5 736.83 51.69
1 -13 -5 185.18 23.3
1 -13 -5 187.78 21.5
1 -13 -5 227.58 20.8
-1 13 5 174.88 21.7
-1 13 5 186.78 33.4
-1 13 5 190.58 25.5
0 -13 -5 262.17 24.9
0 -13 -5 290.57 26.5
0 -13 -5 265.47 29.9
0 13 5 269.57 25.6
0 13 5 272.67 31
0 13 5 255.57 26.4
-1 -13 -5 925.01 65.49
-1 -13 -5 973.4 73.99
-1 -13 -5 1039.1 66.09
1 13 5 923.01 65.09
1 13 5 997.7 74.99
1 13 5 894.31 65.99
-2 -13 -5 2.4 4
2 13 5 3.7 7.6
2 13 5 9.5 4.8
-3 -13 -5 373.96 32.6
3 13 5 331.37 25.1
-4 -13 -5 288.97 29
-5 -13 -5 14.2 9
-6 -13 -5 112.29 20.3
-7 -13 -5 -0.8 9.9
11 -14 -5 31.9 8.3
-11 14 5 4.8 14.4
10 -14 -5 10.5 7.3
-10 14 5 27.5 12.6
9 -14 -5 61.49 11.8
-9 14 5 80.69 16.3
-9 14 5 51.89 17.4
8 -14 -5 217.68 21.9
-8 14 5 211.48 35.4
-8 14 5 189.28 24.5
7 -14 -5 224.18 24
-7 14 5 174.98 23.5
-7 14 5 201.98 33.6
6 -14 -5 267.67 27.6
-6 14 5 263.07 24.6
-6 14 5 241.58 28.6
-6 14 5 243.48 59.09
5 -14 -5 -6.4 7
5 -14 -5 0.9 5.4
5 -14 -5 -6.4 7.5
-5 14 5 6.8 8.8
-5 14 5 8 6.4
-5 14 5 -1.5 4.9
4 -14 -5 69.69 12.9
4 -14 -5 56.99 13.6
4 -14 -5 93.49 18
-4 14 5 67.19 16
-4 14 5 82.59 19.5
-4 14 5 66.69 12.7
3 -14 -5 -3.4 5.7
3 -14 -5 6.2 5.3
3 -14 -5 -6.2 6.2
-3 14 5 7.1 5.9
-3 14 5 -0.3 4.2
-3 14 5 9 7.3
2 -14 -5 18 6.8
2 -14 -5 13.1 7.3
2 -14 -5 -3.3 6.3
-2 14 5 5.1 7
-2 14 5 1.5 5.6
-2 14 5 -0.1 5.9
1 -14 -5 13.1 7.9
1 -14 -5 24.9 10.6
1 -14 -5 25.3 9.1
-1 14 5 33.7 10.7
-1 14 5 13.2 8.9
-1 14 5 16.8 8.7
0 -14 -5 105.49 17.7
0 -14 -5 71.79 28.5
0 -14 -5 80.99 15.1
0 14 5 90.49 16.7
0 14 5 67.09 14.3
0 14 5 91.99 20.3
-1 -14 -5 12.7 6.1
-1 -14 -5 -3.1 6.1
1 14 5 2.9 5.2
1 14 5 29.3 12.7
-2 -14 -5 218.78 23
2 14 5 190.28 19.5
2 14 5 204.48 28.1
-3 -14 -5 19.6 9.8
3 14 5 16.8 5
-4 -14 -5 337.77 33.2
-5 -14 -5 30.3 11.1
-6 -14 -5 2.4 15.2
11 -15 -5 10.7 8
-11 15 5 15.4 16.9
10 -15 -5 203.58 21.6
-10 15 5 230.48 40.6
9 -15 -5 28.5 10
-9 15 5 38.8 15.5
-9 15 5 17.2 11.9
8 -15 -5 136.59 17.7
-8 15 5 129.19 27
-8 15 5 111.39 21.3
7 -15 -5 250.77 28.2
-7 15 5 216.38 35.9
-7 15 5 275.67 30.9
6 -15 -5 117.39 19.8
-6 15 5 93.79 20.6
-6 15 5 114.29 24.1
5 -15 -5 177.38 22.2
5 -15 -5 149.59 17.6
-5 15 5 147.39 16.8
-5 15 5 104.59 21.6
-5 15 5 154.98 33.8
4 -15 -5 109.89 19.5
4 -15 -5 101.59 15.7
4 -15 -5 80.89 18.2
-4 15 5 98.09 20.8
-4 15 5 89.89 15
-4 15 5 76.69 18.1
3 -15 -5 1419.66 97.99
3 -15 -5 1499.15 91.99
3 -15 -5 1443.76 99.59
-3 15 5 1224.58 98.89
-3 15 5 1436.56 92.19
-3 15 5 1442.76 99.99
2 -15 -5 1310.37 82.49
2 -15 -5 1237.08 118.89
2 -15 -5 1149.19 111.69
-2 15 5 1237.08 87.89
-2 15 5 1276.47 82.79
-2 15 5 1140.69 89.89
1 -15 -5 119.19 20.8
1 -15 -5 142.99 17.8
-1 15 5 144.09 24.8
-1 15 5 159.58 20.3
-1 15 5 135.09 26.3
0 -15 -5 419.56 37.8
0 -15 -5 452.55 38.4
0 15 5 407.66 36.6
0 15 5 439.16 44.9
-1 -15 -5 18.1 9
-1 -15 -5 8.7 7.5
1 15 5 28.8 9.3
1 15 5 25 12.6
-2 -15 -5 12.3 8
2 15 5 5.5 5.3
-3 -15 -5 447.26 38.5
3 15 5 403.16 29.6
-4 -15 -5 21.7 11.1
-5 -15 -5 117.89 20.9
-6 -15 -5 19.9 10.8
10 -16 -5 54.29 13.4
-10 16 5 80.09 23.9
9 -16 -5 128.59 22.4
-9 16 5 101.19 27
-9 16 5 130.99 22.1
8 -16 -5 21 10.4
-8 16 5 28.1 12.1
-8 16 5 7.2 9.1
7 -16 -5 145.49 20.4
-7 16 5 147.69 30.5
-7 16 5 127.59 23.3
6 -16 -5 460.35 41
-6 16 5 402.76 45.8
-6 16 5 412.56 41.2
5 -16 -5 -15.5 9
5 -16 -5 -16.3 8.3
-5 16 5 25.2 12.6
-5 16 5 2.6 7.5
4 -16 -5 509.85 38.7
-4 16 5 513.35 46.9
-4 16 5 370.56 41.8
3 -16 -5 245.58 24.3
3 -16 -5 262.57 28.7
-3 16 5 226.98 29.6
-3 16 5 150.28 29.8
2 -16 -5 3.2 8.8
2 -16 -5 -8.2 5.7
-2 16 5 13.5 9.1
-2 16 5 0 7
1 -16 -5 377.36 34.1
1 -16 -5 381.06 43
-1 16 5 327.77 39.7
-1 16 5 450.95 38.6
0 -16 -5 217.78 24.9
0 -16 -5 262.97 26.5
0 16 5 227.48 25.2
0 16 5 245.48 32.7
-1 -16 -5 173.08 21.2
-1 -16 -5 163.88 21.7
1 16 5 199.08 21.5
-2 -16 -5 272.27 29
2 16 5 261.67 24.1
-3 -16 -5 81.09 17.5
3 16 5 61.19 9.6
-4 -16 -5 93.49 17.8
-5 -16 -5 2.1 7.1
10 -17 -5 112.49 18.3
-10 17 5 98.59 27.9
9 -17 -5 6.7 9.9
-9 17 5 -2.9 10
8 -17 -5 510.95 45.1
-8 17 5 571.84 56.19
-8 17 5 479.45 47.4
-7 17 5 41.3 15.3
-7 17 5 22.3 11.2
6 -17 -5 426.36 37.1
-6 17 5 557.54 50.29
-6 17 5 324.57 40.4
5 -17 -5 211.28 21.8
-5 17 5 107.99 40.3
-5 17 5 148.89 29.2
4 -17 -5 26.4 10
-4 17 5 19.5 12.5
3 -17 -5 249.58 25.2
-3 17 5 244.98 31.1
-3 17 5 176.48 31.5
2 -17 -5 16.2 9.9
2 -17 -5 11.9 8.3
-2 17 5 1.7 6.4
-2 17 5 12.4 9.9
1 -17 -5 254.57 26.6
1 -17 -5 242.18 28.6
-1 17 5 240.28 27.7
-1 17 5 187.98 32.9
0 -17 -5 305.67 32.5
0 -17 -5 330.37 31.2
0 17 5 322.07 31
-1 -17 -5 84.09 16.7
1 17 5 88.29 15.2
-2 -17 -5 337.37 33.6
2 17 5 320.37 27.7
-3 -17 -5 34.4 11.1
3 17 5 35.7 7
-4 -17 -5 202.48 48.1
-9 18 5 129.39 34.6
-8 18 5 10.6 13.8
-7 18 5 286.37 35.1
-7 18 5 307.77 39.1
6 -18 -5 31.5 10.1
-6 18 5 30.2 14.2
-6 18 5 37.1 17.1
5 -18 -5 325.87 31.2
-5 18 5 251.37 34.4
-5 18 5 343.17 39.3
4 -18 -5 401.86 34.5
-4 18 5 393.76 42
-4 18 5 314.97 39.6
3 -18 -5 3.4 5.2
-3 18 5 -0.5 4.9
-3 18 5 -2.6 9.2
2 -18 -5 563.84 44.3
-2 18 5 409.26 48.3
-2 18 5 623.94 50.19
1 -18 -5 150.08 22.9
1 -18 -5 169.18 26
-1 18 5 164.18 23
0 -18 -5 22.3 9.5
0 -18 -5 49.8 14.3
0 18 5 28.9 10.7
-1 -18 -5 151.18 24.1
1 18 5 155.38 20.2
-2 -18 -5 5.1 7.3
2 18 5 15.7 7.7
-3 -18 -5 306.87 37.6
3 18 5 272.57 21.8
-9 19 5 65.09 23.7
-8 19 5 115.39 30.7
-7 19 5 8.1 13.5
6 -19 -5 438.26 37.7
-6 19 5 297.57 39
-6 19 5 403.76 44.6
5 -19 -5 98.59 17.7
-5 19 5 43.7 19
-5 19 5 37.9 16.8
4 -19 -5 88.59 17
-4 19 5 96.49 22
-4 19 5 50.59 18.3
3 -19 -5 293.07 28.5
-3 19 5 208.68 30.4
-3 19 5 237.48 31.5
2 -19 -5 5.6 6.8
-2 19 5 19.3 10
1 -19 -5 527.45 44.1
-1 19 5 513.25 46.8
0 -19 -5 4.9 8.5
0 -19 -5 6.9 11.2
0 19 5 6.3 8.1
-1 -19 -5 35.6 12.2
1 19 5 32.2 11.1
-2 -19 -5 301.87 36.2
2 19 5 253.47 24.4
-8 20 5 -19.4 12.1
-7 20 5 246.38 42.5
6 -20 -5 -2.6 7.5
-6 20 5 -5.2 7.4
5 -20 -5 254.87 28.5
-5 20 5 281.97 35.8
4 -20 -5 16.5 10.8
-4 20 5 -12 9.4
3 -20 -5 239.08 27
-3 20 5 302.17 35.1
2 -20 -5 83.09 16.8
-2 20 5 65.49 18
1 -20 -5 -3.9 8.1
-1 20 5 2.4 10.8
0 -20 -5 54.29 19.6
0 -20 -5 76.69 16.4
0 20 5 90.79 17.6
-1 -20 -5 52.09 18.2
1 20 5 79.99 16.3
-7 21 5 77.49 21.6
6 -21 -5 64.69 14.8
-6 21 5 96.29 23.7
5 -21 -5 -6 7.2
-5 21 5 9.6 9.9
4 -21 -5 102.99 18.7
-4 21 5 88.29 20.6
3 -21 -5 61.79 15.6
-3 21 5 48.7 17.6
2 -21 -5 7 9.3
-2 21 5 12 13
1 -21 -5 280.17 36
-1 21 5 250.67 32.1
0 -21 -5 -4.4 8.4
5 -22 -5 64.09 14.8
-5 22 5 14.1 16.1
-4 22 5 12.4 13.8
3 -22 -5 230.08 27.9
-3 22 5 232.88 31.6
2 -22 -5 24.2 12.6
0 23 -6 418.06 37.3
0 -23 6 352.76 38.3
-1 23 -6 65.89 15.5
1 -23 6 54.59 21.2
-2 23 -6 4.4 8.6
2 -23 6 2.3 8.4
-3 23 -6 292.27 32.6
3 -23 6 215.08 28
-4 23 -6 4.9 9.4
4 -23 6 14.1 13.3
-5 23 -6 73.29 18.7
-6 23 -6 188.08 32.6
1 22 -6 186.88 21.5
-1 -22 6 145.59 24.3
0 22 -6 84.69 16.3
0 -22 6 58.49 15.1
-1 22 -6 81.69 16.5
1 -22 6 56.29 14.9
-2 22 -6 307.87 33
2 -22 6 314.07 32.1
-3 22 -6 7.3 10.9
3 -22 6 8.2 7.8
-4 22 -6 159.18 26.6
4 -22 6 146.19 24
-5 22 -6 96.59 20.7
-6 22 -6 -16 6.1
-7 22 -6 319.57 40
-3 -21 6 15.9 11.4
-3 -21 6 13.4 12.5
-2 -21 6 203.38 28.4
-2 -21 6 183.18 23.9
1 21 -6 -6.4 6.3
-1 -21 6 -11.9 6.9
0 21 -6 179.58 23.9
0 -21 6 165.98 21.9
-1 21 -6 28.6 10.5
1 -21 6 31.5 11.5
-2 21 -6 195.98 25.4
2 -21 6 188.08 23.7
-3 21 -6 362.16 36.3
3 -21 6 274.57 30.9
-4 21 -6 15 10.4
4 -21 6 -1.6 4.9
-5 21 -6 5.3 8.2
-6 21 -6 44.4 14.8
-7 21 -6 67.49 19.2
-8 21 -6 116.79 24.7
-4 -20 6 233.28 54.89
-4 -20 6 232.88 52.79
-3 -20 6 16.7 11.1
-3 -20 6 30 12
-2 -20 6 42.5 13.1
-2 -20 6 39.9 13.8
1 20 -6 13.9 8.3
-1 -20 6 -0.1 7.4
-1 -20 6 32.6 10.9
0 20 -6 6.4 7.7
0 -20 6 -3.2 6.5
-1 20 -6 151.88 27.4
1 -20 6 159.48 20.6
-2 20 -6 466.15 40.2
2 -20 6 355.96 35.9
-3 20 -6 107.59 20
3 -20 6 89.59 17.7
-4 20 -6 154.58 26.3
4 -20 6 135.59 22.4
-5 20 -6 63.09 18
-6 20 -6 22.4 13
-7 20 -6 28 12.3
7 -20 6 31.4 13.8
-8 20 -6 34.1 12.8
8 -20 6 14.9 13.1
-4 -19 6 -4.4 8.1
-4 -19 6 0.6 9.7
-3 -19 6 135.89 20.5
-3 -19 6 144.79 23.6
-2 -19 6 159.28 21.2
-2 -19 6 155.48 25
1 19 -6 336.27 29
-1 -19 6 388.56 36.3
-1 -19 6 251.37 29.5
0 19 -6 71.29 14.4
0 -19 6 83.69 16.7
0 -19 6 115.99 22
-1 19 -6 11.1 7.6
1 -19 6 1.1 6.3
2 -19 6 151.48 19.4
-3 19 -6 1.8 4.8
3 -19 6 5.3 5.6
-4 19 -6 112.99 21
4 -19 6 86.59 17.6
-5 19 -6 8.1 8.3
5 -19 6 -4.5 17.2
-6 19 -6 18.7 9.3
6 -19 6 14.3 9.6
-7 19 -6 -13 5.7
7 -19 6 -19.4 9
-8 19 -6 49.9 17.4
8 -19 6 72.99 15.5
-9 19 -6 14.8 11.3
9 -19 6 2.8 10.6
-5 -18 6 108.99 14.4
-5 -18 6 117.59 21.2
-4 -18 6 94.09 14.8
-4 -18 6 70.59 17.1
-3 -18 6 3.3 7.6
-3 -18 6 5.9 5.6
2 18 -6 173.28 18.1
-2 -18 6 128.89 21.4
-2 -18 6 220.38 24.1
1 18 -6 3.9 4.3
-1 -18 6 1.3 5.9
-1 -18 6 -7.6 9.1
0 18 -6 462.65 37.1
0 -18 6 467.35 42.6
0 -18 6 402.76 36.9
-1 18 -6 514.65 42.7
1 -18 6 577.44 49.5
1 -18 6 483.95 41.8
-2 18 -6 59.19 14.7
2 -18 6 34.6 10.6
2 -18 6 44.4 26.2
-3 18 -6 129.09 32.1
3 -18 6 86.59 16.3
-4 18 -6 105.19 19.7
4 -18 6 99.59 21.8
4 -18 6 58.49 13.9
-5 18 -6 63.29 15.3
5 -18 6 91.29 19.3
-6 18 -6 242.58 29.2
6 -18 6 214.18 26.2
-7 18 -6 2.3 6.1
7 -18 6 24.1 10.4
-8 18 -6 39.4 13.2
8 -18 6 86.99 16.2
-9 18 -6 5.3 10.3
9 -18 6 20.1 9.7
-10 18 -6 76.99 21.8
10 -18 6 45.6 16.7
10 -18 6 53.79 8.2
-6 -17 6 119.99 21
-5 -17 6 67.69 15.6
-5 -17 6 42.3 9.5
-4 -17 6 48.1 12.2
-4 -17 6 74.59 16.5
-3 -17 6 228.38 25.3
-3 -17 6 301.17 29.3
2 17 -6 171.98 18.4
-2 -17 6 185.08 22.3
-2 -17 6 199.38 23.4
1 17 -6 244.88 23.3
-1 -17 6 284.87 29.1
-1 -17 6 224.98 30.6
0 17 -6 74.19 14.1
0 -17 6 110.29 22.6
0 -17 6 72.19 14
-1 17 -6 326.17 30.1
1 -17 6 351.36 34.6
1 -17 6 259.87 27.2
-2 17 -6 53.89 14
2 -17 6 44 12.2
2 -17 6 57.39 14.6
2 -17 6 63.19 16.1
-3 17 -6 94.79 18.5
3 -17 6 113.39 21.6
3 -17 6 107.09 26
3 -17 6 81.19 15.7
-4 17 -6 58.09 21.5
4 -17 6 34.9 13.2
4 -17 6 52.09 21.5
-5 17 -6 41.3 13.1
5 -17 6 43.7 22.2
-6 17 -6 -2.5 6.6
6 -17 6 5 8.1
-7 17 -6 382.96 41.2
7 -17 6 422.06 36.8
-8 17 -6 2.7 7.6
8 -17 6 -9.7 7.5
-9 17 -6 85.99 21.1
9 -17 6 92.99 14.3
-10 17 -6 113.49 25.7
10 -17 6 151.58 11.2
10 -17 6 137.19 11.4
-6 -16 6 20.2 9.8
-5 -16 6 159.58 24.4
-5 -16 6 139.39 15.1
-4 -16 6 80.19 17.4
-4 -16 6 108.19 16.4
-3 -16 6 36.1 11.3
-3 -16 6 48 11.3
2 16 -6 77.89 12.4
-2 -16 6 40.5 13
-2 -16 6 93.59 17.2
1 16 -6 74.69 13.3
1 16 -6 97.19 15.9
-1 -16 6 78.69 15.9
-1 -16 6 82.99 18.2
0 16 -6 772.22 58.09
0 16 -6 866.01 59.39
0 -16 6 855.61 64.59
0 -16 6 937.11 98.69
0 -16 6 857.41 60.29
-1 16 -6 533.65 39.5
-1 16 -6 540.25 41.4
1 -16 6 417.16 38.1
1 -16 6 516.95 48
1 -16 6 512.45 46.1
-2 16 -6 204.68 23.1
-2 16 -6 173.38 19.1
2 -16 6 221.78 27.1
2 -16 6 191.48 25.3
2 -16 6 177.08 20.3
-3 16 -6 15.4 6.4
-3 16 -6 21.9 9.6
3 -16 6 1.7 7.8
3 -16 6 4.9 6.2
3 -16 6 14.8 7.4
-4 16 -6 18.8 8.6
-4 16 -6 25.2 9.9
4 -16 6 3.7 7.7
4 -16 6 0.6 5.4
4 -16 6 7.2 12.4
5 -16 6 497.05 42.6
-6 16 -6 26.1 12
6 -16 6 38 11.5
-7 16 -6 18.3 9.6
7 -16 6 2.7 6.8
-8 16 -6 213.28 28.9
8 -16 6 216.48 21.8
-9 16 -6 2.8 9.9
9 -16 6 17.7 5.9
9 -16 6 20 6.5
-10 16 -6 78.19 21.4
-7 -15 6 67.69 17.1
-6 -15 6 134.19 21.6
-5 -15 6 26.1 7.1
-5 -15 6 26.5 10.8
-4 -15 6 172.28 21.2
-4 -15 6 158.98 18
-3 -15 6 101.59 16.2
-3 -15 6 80.49 15.1
2 15 -6 68.69 14.1
2 15 -6 84.59 11.4
-2 -15 6 74.29 14.7
-2 -15 6 70.09 14.7
1 15 -6 1591.34 105.19
1 15 -6 1657.23 103.69
-1 -15 6 1577.24 105.89
-1 -15 6 1715.03 109.79
-1 -15 6 1840.22 118.79
0 15 -6 86.29 13.8
0 15 -6 82.99 13.9
0 -15 6 84.99 16.7
0 -15 6 76.59 17.9
0 -15 6 75.09 13.7
-1 15 -6 2594.94 164.18
-1 15 -6 2647.83 162.48
1 -15 6 2785.92 170.18
1 -15 6 2883.31 173.98
1 -15 6 2583.14 162.68
-2 15 -6 11.8 6.4
-2 15 -6 26.5 9.4
2 -15 6 26.7 11.2
2 -15 6 18.2 6.9
2 -15 6 20.3 10.6
-3 15 -6 225.48 22.6
-3 15 -6 226.08 25.1
3 -15 6 200.78 22.1
3 -15 6 240.68 27.5
3 -15 6 298.67 29.2
-4 15 -6 240.48 23.9
-4 15 -6 295.77 29.5
4 -15 6 274.57 28.3
4 -15 6 290.57 30.9
-5 15 -6 88.09 13.9
-5 15 -6 92.09 18.6
5 -15 6 47.1 21.3
5 -15 6 72.79 16.1
-6 15 -6 302.77 35.7
6 -15 6 385.46 32.3
-7 15 -6 4.7 5.6
7 -15 6 14.5 6.6
-8 15 -6 -1.5 8.1
8 -15 6 0.6 5.1
-9 15 -6 171.58 29.7
9 -15 6 186.48 14.4
9 -15 6 164.88 14.8
-10 15 -6 -3.5 11
-8 -14 6 74.79 18.3
-7 -14 6 9 9.4
-6 -14 6 35.9 5
-6 -14 6 43.9 12.8
-6 -14 6 29.5 5.6
-5 -14 6 255.57 26.6
-5 -14 6 242.78 21
-4 -14 6 7.6 5
-4 -14 6 12.9 7.7
3 14 -6 110.39 17.1
-3 -14 6 137.59 17.4
-3 -14 6 109.39 17.1
2 14 -6 1023 71.89
2 14 -6 1031.9 68.79
-2 -14 6 1132.29 74.59
-2 -14 6 1054.69 72.89
-2 -14 6 1237.08 84.89
1 14 -6 433.76 33.3
1 14 -6 391.76 33.7
-1 -14 6 454.35 37.5
-1 -14 6 461.25 35.4
-1 -14 6 444.96 42.8
0 14 -6 874.81 60.59
0 14 -6 885.91 61.09
0 -14 6 979.1 66.69
0 -14 6 867.71 61.49
0 -14 6 948.11 72.59
-1 14 -6 302.77 26
-1 14 -6 264.57 22.9
1 -14 6 240.88 27.7
1 -14 6 258.47 23.5
1 -14 6 230.68 27.7
-2 14 -6 390.06 32.8
-2 14 -6 343.07 28.8
2 -14 6 362.06 35.3
2 -14 6 322.77 33.4
2 -14 6 365.66 29.9
-3 14 -6 94.19 12.7
-3 14 -6 94.89 17.5
3 -14 6 104.69 19.1
3 -14 6 114.79 20.8
3 -14 6 102.89 15.9
-4 14 -6 236.88 22.5
-4 14 -6 218.58 24.9
4 -14 6 236.58 25.1
4 -14 6 243.08 28
-5 14 -6 128.09 15.7
-5 14 -6 152.08 20.2
5 -14 6 153.58 25.2
5 -14 6 127.29 16.8
-6 14 -6 80.79 17.7
6 -14 6 74.19 13.6
-7 14 -6 490.05 45
7 -14 6 491.85 37.4
-8 14 -6 110.29 22.6
8 -14 6 97.99 12.2
8 -14 6 120.59 11.8
-9 14 -6 78.19 20.7
9 -14 6 97.99 8.1
9 -14 6 104.99 8
-10 14 -6 290.27 35.5
-11 14 -6 12.6 11.2
-8 -13 6 9.2 9.4
-7 -13 6 34.2 12.3
-6 -13 6 14.1 4.2
-6 -13 6 15.8 5.1
-6 -13 6 6.1 8.9
-5 -13 6 12.7 7.6
-5 -13 6 15 5.7
4 13 -6 205.78 22.2
-4 -13 6 193.18 27
-4 -13 6 195.88 21.8
3 13 -6 -1.9 5
-3 -13 6 6.5 5.5
-3 -13 6 -1 3.8
-3 -13 6 -1.2 7.1
2 13 -6 133.09 15.3
-2 -13 6 104.99 14.2
-2 -13 6 130.49 23.3
-2 -13 6 115.19 18
1 13 -6 138.39 15.7
1 13 -6 149.69 15.4
-1 -13 6 133.09 16.1
-1 -13 6 159.88 18.9
0 13 -6 36.4 8.1
0 13 -6 33.2 8.3
0 -13 6 28 8.7
0 -13 6 19.6 8.1
-1 13 -6 1441.56 91.19
-1 13 -6 1416.96 93.29
1 -13 6 1493.05 97.49
1 -13 6 1488.75 91.99
-2 13 -6 123.69 16.9
-2 13 -6 136.99 14.8
2 -13 6 153.08 16.3
2 -13 6 128.29 21.6
2 -13 6 122.09 20.6
-3 13 -6 636.64 44.6
-3 13 -6 641.34 48.9
3 -13 6 660.03 51.59
3 -13 6 647.64 49.6
3 -13 6 586.34 44.9
-4 13 -6 1.2 4.5
4 -13 6 2.8 6.2
4 -13 6 5.1 5.1
-5 13 -6 249.78 26.8
-5 13 -6 208.08 21.4
5 -13 6 256.27 24.2
5 -13 6 230.88 26.9
-6 13 -6 12.1 8
-6 13 -6 19.6 8
6 -13 6 30.7 12
6 -13 6 21.7 7.6
-7 13 -6 280.57 33.2
7 -13 6 429.36 30.1
-8 13 -6 436.96 43.9
8 -13 6 521.35 32.3
8 -13 6 478.75 33.2
-9 13 -6 143.99 26.5
-10 13 -6 47.1 16
-11 13 -6 3.2 7.8
-8 -12 6 31.9 11.3
-7 -12 6 18.4 10.3
-6 -12 6 514.85 34.8
-6 -12 6 549.85 44.1
-6 -12 6 544.05 35.7
5 12 -6 35.8 10.5
-5 -12 6 17.1 8.9
-5 -12 6 31.4 7.3
-5 -12 6 47.6 21.5
4 12 -6 65.69 13.5
-4 -12 6 75.79 14.1
-4 -12 6 96.99 20.5
-4 -12 6 83.29 11
3 12 -6 538.15 40.9
-3 -12 6 530.15 41
-3 -12 6 568.34 40.9
2 12 -6 47.1 9.7
-2 -12 6 27.5 8.3
-2 -12 6 27.1 7.8
1 12 -6 1324.07 87.89
1 12 -6 1414.96 87.79
-1 -12 6 1548.95 92.79
-1 -12 6 1370.76 88.79
0 12 -6 147.79 15.6
0 12 -6 153.18 15.4
0 -12 6 144.69 15.5
0 -12 6 142.69 18.2
-1 12 -6 161.98 17.7
-1 12 -6 151.08 15.6
1 -12 6 169.98 16.4
1 -12 6 158.48 19.4
-2 12 -6 2209.28 138.89
-2 12 -6 2196.18 135.09
2 -12 6 2305.17 136.29
2 -12 6 2307.77 142.29
-3 12 -6 5.7 3.8
-3 12 -6 4.2 4.4
3 -12 6 3.2 3.1
3 -12 6 3.7 6.5
-4 12 -6 816.52 58.09
-4 12 -6 760.92 52.89
4 -12 6 753.22 59.29
4 -12 6 805.32 56.19
-5 12 -6 62.89 11.8
-5 12 -6 62.29 13.7
5 -12 6 59.29 11.2
-6 12 -6 1200.18 76.39
-6 12 -6 1093.99 81.59
6 -12 6 1146.39 75.59
6 -12 6 1193.38 83.79
-7 12 -6 158.28 23.5
7 -12 6 227.98 17.5
7 -12 6 210.98 18.7
7 -12 6 228.68 27.8
-8 12 -6 51.69 22.1
8 -12 6 66.09 6.8
8 -12 6 62.49 7.2
-9 12 -6 65.99 18
-10 12 -6 5.7 10.7
-11 12 -6 -3.9 9.1
-9 -11 6 101.49 19.3
-8 -11 6 305.57 32.4
-7 -11 6 505.55 42.8
-6 -11 6 29.2 13.9
-6 -11 6 1.7 6.4
-6 -11 6 4.8 3.3
-6 -11 6 5.4 3.5
5 11 -6 225.08 22.8
-5 -11 6 285.67 32.6
-5 -11 6 240.88 20.1
-5 -11 6 196.08 22.1
4 11 -6 -2.8 4.8
-4 -11 6 0.5 3.3
-4 -11 6 -3 4.6
3 11 -6 148.39 16.4
-3 -11 6 150.48 19.2
-3 -11 6 143.79 16.4
2 11 -6 284.47 24.6
-2 -11 6 304.07 25.1
-2 -11 6 307.97 25.8
1 11 -6 134.99 14.4
1 11 -6 155.78 26.1
-1 -11 6 148.39 16.8
-1 -11 6 138.19 14.7
0 11 -6 2153.08 131.69
0 11 -6 2211.88 132.99
0 -11 6 2304.47 136.89
0 -11 6 2164.08 132.49
-1 11 -6 6.5 5
-1 11 -6 7 3.9
1 -11 6 16 5.3
1 -11 6 10.4 5.5
-2 11 -6 113.19 14.3
-2 11 -6 103.89 11.4
2 -11 6 96.29 11.5
2 -11 6 84.29 15.6
-3 11 -6 764.52 52.49
-3 11 -6 875.41 58.39
3 -11 6 774.22 58.39
-4 11 -6 623.34 47.1
-4 11 -6 599.54 42.1
4 -11 6 585.24 48.1
-5 11 -6 2080.09 124.09
-5 11 -6 1882.61 117.59
5 -11 6 1783.42 124.09
5 -11 6 1940.81 119.59
-6 11 -6 25.3 7.4
-6 11 -6 38.3 12.5
6 -11 6 35 8.1
6 -11 6 29.6 10.9
-7 11 -6 345.07 34.4
-7 11 -6 362.26 32.2
7 -11 6 364.46 25.1
7 -11 6 388.56 26.8
7 -11 6 382.86 37.2
-8 11 -6 332.97 34.3
8 -11 6 293.07 58.29
-9 11 -6 10.7 8.2
-10 11 -6 515.05 48.8
-11 11 -6 64.49 17.3
-9 -10 6 205.18 26.4
-8 -10 6 25.1 11.9
-7 -10 6 85.29 21.1
-7 -10 6 58.09 6.9
-7 -10 6 67.89 7.5
-7 -10 6 63.59 17.2
6 10 -6 165.08 19.1
-6 -10 6 178.08 19.9
-6 -10 6 202.18 25.6
-6 -10 6 149.88 14
-6 -10 6 154.08 14.3
5 10 -6 186.38 20.2
-5 -10 6 165.78 15.1
-5 -10 6 141.39 17.4
4 10 -6 352.26 28.3
-4 -10 6 323.67 25.9
-4 -10 6 341.67 28.6
3 10 -6 -0.9 2.8
-3 -10 6 5.6 4.2
-3 -10 6 1.8 3.3
2 10 -6 297.37 25
-2 -10 6 313.77 25.6
-2 -10 6 343.67 27.6
1 10 -6 289.07 22
1 10 -6 247.08 21.5
-1 -10 6 272.47 24.1
-1 -10 6 276.77 22.4
0 10 -6 9.5 4.1
0 -10 6 3.8 3.8
0 -10 6 15.5 6.3
-1 10 -6 3312.67 192.58
-1 10 -6 3259.57 189.58
1 -10 6 3112.69 189.88
1 -10 6 3317.07 195.18
-2 10 -6 348.97 26.3
-2 10 -6 372.16 29.6
2 -10 6 333.87 26.8
2 -10 6 369.16 31.2
-3 10 -6 482.15 35.7
-3 10 -6 412.76 30.6
3 -10 6 382.56 34.8
-4 10 -6 55.49 9.3
-4 10 -6 64.49 12.7
4 -10 6 34.8 10.4
-5 10 -6 12.9 7.1
-5 10 -6 9.2 5.2
5 -10 6 17.4 5.7
5 -10 6 18.9 9
-6 10 -6 1067.09 76.09
6 -10 6 1066.49 66.19
6 -10 6 1119.29 68.39
6 -10 6 1101.69 77.79
-7 10 -6 187.28 24
-7 10 -6 246.28 23.1
7 -10 6 221.78 15.5
7 -10 6 199.18 24.7
7 -10 6 209.58 16.2
-8 10 -6 615.04 52.69
8 -10 6 692.53 54.99
-9 10 -6 367.96 37.4
-10 10 -6 -1.3 8
-11 10 -6 132.99 24.6
-10 -9 6 144.69 26
-10 -9 6 170.08 22.2
-9 -9 6 34.2 13.3
-8 -9 6 609.54 53.19
-8 -9 6 830.42 63.59
-7 -9 6 3.9 8.8
-7 -9 6 8.6 7.6
-7 -9 6 6.5 3.2
-7 -9 6 -0.2 3.6
6 9 -6 416.96 32.5
-6 -9 6 367.36 32.3
-6 -9 6 377.86 26.2
-6 -9 6 330.17 26.4
5 9 -6 470.05 34.6
-5 -9 6 410.66 33.8
-5 -9 6 398.06 29.5
4 9 -6 168.08 17.5
-4 -9 6 178.18 18.3
-4 -9 6 188.78 16.4
3 9 -6 3707.73 220.08
-3 -9 6 3913.61 219.58
-3 -9 6 3652.03 220.18
2 9 -6 244.28 20.4
-2 -9 6 236.78 21.2
-2 -9 6 244.88 20.9
1 9 -6 2377.56 139.09
1 9 -6 2331.17 138.59
-1 -9 6 2314.77 147.19
-1 -9 6 2362.96 139.29
0 9 -6 564.44 38.9
0 9 -6 557.54 37.2
0 -9 6 546.75 37.7
0 -9 6 571.64 40.8
-1 9 -6 615.34 41.2
1 -9 6 610.24 41.5
1 -9 6 672.53 46.1
-2 9 -6 1068.59 67.09
-2 9 -6 1016.9 63.19
2 -9 6 954.7 64.49
2 -9 6 997.5 67.89
-3 9 -6 490.35 36.6
-3 9 -6 438.86 32.2
3 -9 6 465.35 37.6
-4 9 -6 150.78 14.6
-4 9 -6 146.99 17.7
4 -9 6 145.19 17.8
-5 9 -6 941.61 63.29
-5 9 -6 891.91 58.69
5 -9 6 908.71 64.19
5 -9 6 815.52 54.49
-6 9 -6 70.89 12.4
-6 9 -6 61.19 13.8
6 -9 6 63.49 14.8
6 -9 6 70.99 8.5
-7 9 -6 346.07 33.5
7 -9 6 359.86 22.5
7 -9 6 361.56 22.2
7 -9 6 350.26 33.8
-8 9 -6 28.7 11.4
8 -9 6 35.9 12.5
-9 9 -6 12.3 9.2
9 -9 6 18.8 10.4
-11 9 -6 0.3 9.1
-10 -8 6 116.79 19.9
-10 -8 6 143.09 23.7
-9 -8 6 29 15.3
-9 -8 6 58.29 15
-8 -8 6 3.5 6.1
-8 -8 6 5.7 3.2
-8 -8 6 -2.3 3.2
-8 -8 6 0.3 11.2
-7 -8 6 115.69 11.1
-7 -8 6 144.39 13.8
-7 -8 6 109.39 18.3
6 8 -6 46.4 10.8
-6 -8 6 42.9 7
-6 -8 6 35.8 7.5
-6 -8 6 28.8 9.1
5 8 -6 28.8 8
-5 -8 6 9.9 4.2
-5 -8 6 20 7.5
4 8 -6 1644.74 95.29
-4 -8 6 1418.86 94.09
-4 -8 6 1506.25 91.69
3 8 -6 442.36 33
-3 -8 6 440.96 33.2
-3 -8 6 501.05 32.7
2 8 -6 3234.78 191.58
-2 -8 6 3224.68 191.88
-2 -8 6 3405.46 192.58
1 8 -6 65.99 8.6
1 8 -6 73.69 8.6
-1 -8 6 69.09 8.7
-1 -8 6 79.89 10.1
0 8 -6 4782.72 272.87
0 8 -6 4920.71 274.87
0 -8 6 4614.44 293.17
0 -8 6 4674.03 272.97
-1 8 -6 120.09 11.3
-1 8 -6 112.39 12.5
1 -8 6 106.79 11
1 -8 6 132.29 14.1
-2 8 -6 564.54 38.1
2 -8 6 602.24 42.9
-3 8 -6 241.58 18.6
-3 8 -6 233.08 21.3
3 -8 6 192.78 21.1
-4 8 -6 1486.65 89.29
-4 8 -6 1297.17 84.09
4 -8 6 1321.87 88.99
-5 8 -6 70.49 13.2
5 -8 6 68.79 14.6
5 -8 6 72.39 7.8
-6 8 -6 197.28 22
6 -8 6 175.18 13.5
6 -8 6 204.08 22.1
6 -8 6 180.58 14.4
-7 8 -6 95.09 16.8
7 -8 6 83.09 15.8
-8 8 -6 470.85 40.5
8 -8 6 428.56 60.99
-9 8 -6 151.08 21.1
9 -8 6 154.28 24
-10 8 -6 8.9 9.2
10 -8 6 7 15.8
-11 8 -6 96.59 19.1
-10 -7 6 135.19 23.8
-10 -7 6 42.3 14.6
-10 -7 6 57.89 14.1
-9 -7 6 156.98 23.7
-9 -7 6 120.39 19.4
-9 -7 6 123.89 11.4
-9 -7 6 135.39 22.3
-9 -7 6 126.59 10.3
-8 -7 6 425.06 28.7
-8 -7 6 451.25 38.9
-8 -7 6 435.66 31.7
-7 -7 6 289.87 27.6
-7 -7 6 265.37 19.9
-7 -7 6 273.27 22.8
6 7 -6 1179.78 69.99
-6 -7 6 1057.59 65.29
-6 -7 6 953.5 68.19
-6 -7 6 937.41 62.39
5 7 -6 0.3 3.7
-5 -7 6 3.5 2.9
-5 -7 6 0.6 3.2
4 7 -6 1216.58 74.49
-4 -7 6 1083.49 73.99
-4 -7 6 1228.28 72.09
3 7 -6 193.28 16.9
-3 -7 6 198.18 17.1
-3 -7 6 200.78 16.4
2 7 -6 460.45 31
-2 -7 6 423.06 30.6
-2 -7 6 460.45 31.2
1 7 -6 1685.13 99.49
-1 -7 6 1714.13 101.69
-1 -7 6 1646.54 99.69
0 7 -6 2010.7 118.49
0 7 -6 2061.99 120.69
0 -7 6 1980.1 118.69
0 -7 6 2052.69 121.89
-1 7 -6 1075.89 63.19
-1 7 -6 1081.99 65.89
1 -7 6 957.3 62.99
-2 7 -6 2662.93 159.48
-2 7 -6 2790.02 163.08
2 -7 6 2782.12 164.28
-3 7 -6 118.49 11.6
-3 7 -6 119.49 25.7
3 -7 6 114.99 14.3
-4 7 -6 4979.5 260.67
4 -7 6 3969.7 252.27
4 -7 6 4341.27 260.37
-5 7 -6 4.8 5.1
5 -7 6 -5 3.7
5 -7 6 1.5 2.1
-6 7 -6 7.8 5.2
6 -7 6 6.6 4.5
6 -7 6 7.9 2.4
-7 7 -6 192.38 22.6
7 -7 6 259.57 25.3
-8 7 -6 16.1 8.3
8 -7 6 32.4 9.9
-9 7 -6 116.89 20.4
9 -7 6 137.39 22.1
-10 7 -6 9.6 8.7
10 -7 6 33.8 11.6
-11 7 -6 4.4 7.7
-11 7 -6 8.4 9.4
-10 -6 6 74.79 7.5
-10 -6 6 104.59 21.2
-10 -6 6 87.19 8.9
-10 -6 6 79.19 14.7
-10 -6 6 76.49 17.7
-9 -6 6 44 17.4
-9 -6 6 31.5 9.6
-9 -6 6 27.9 7.2
-9 -6 6 39.8 12
-9 -6 6 21 4.9
-8 -6 6 64.39 13.3
-8 -6 6 51.89 12.6
-8 -6 6 54.99 10.4
-7 -6 6 140.59 15.5
-7 -6 6 119.99 19
-6 -6 6 8.9 4.6
-6 -6 6 -1.9 4.1
5 6 -6 2551.24 143.99
-5 -6 6 2226.68 143.29
4 6 -6 131.89 13.6
-4 -6 6 139.49 12.1
-4 -6 6 130.39 13.7
3 6 -6 17 4.6
-3 -6 6 5.7 2.7
-3 -6 6 13.6 4.4
2 6 -6 3327.07 192.58
-2 -6 6 3276.87 192.58
-2 -6 6 3396.26 193.28
1 6 -6 219.68 16.3
-1 -6 6 221.48 17.7
-1 -6 6 221.68 16.5
0 6 -6 8557.54 471.95
0 6 -6 8352.56 469.55
0 -6 6 7731.63 469.45
0 -6 6 8486.35 472.75
-1 6 -6 606.54 39.3
-1 6 -6 599.84 36.8
1 -6 6 555.84 37
1 -6 6 566.54 39.9
-2 6 -6 5429.06 307.57
-2 6 -6 5226.98 304.47
-3 6 -6 28 7.2
3 -6 6 33.6 5.8
3 -6 6 39.3 9.1
-4 6 -6 1.6 4.2
4 -6 6 -6 2.7
4 -6 6 2.4 2
-5 6 -6 221.28 21.7
5 -6 6 227.88 16.1
5 -6 6 212.08 21.8
-6 6 -6 502.65 40.7
6 -6 6 539.65 32.2
6 -6 6 547.15 41.9
-7 6 -6 76.19 14.5
7 -6 6 66.99 13.5
-8 6 -6 48.2 11.8
8 -6 6 75.69 14.9
-9 6 -6 -2.1 5.4
9 -6 6 -2.1 7
-10 6 -6 54.89 12.9
-10 6 -6 33.3 11.5
10 -6 6 40.6 11.5
-11 6 -6 9.9 7.2
-11 6 -6 11.1 8.6
11 -6 6 -9.2 10
-11 -5 6 94.29 19.6
-11 -5 6 79.49 9.1
-11 -5 6 97.19 16.9
-11 -5 6 96.09 8.3
-10 -5 6 11.9 6
-10 -5 6 8.2 7.4
-9 -5 6 330.97 30.8
-9 -5 6 380.16 29.6
-9 -5 6 337.37 33.4
-8 -5 6 17.8 7.4
-8 -5 6 22.5 7.3
-8 -5 6 9.6 7.2
-7 -5 6 240.58 22.6
-7 -5 6 254.37 24.7
-6 -5 6 62.79 10.8
-6 -5 6 63.19 11.9
5 5 -6 158.58 15.4
-5 -5 6 131.99 14.8
-5 -5 6 140.89 14.4
4 5 -6 1456.95 89.69
-4 -5 6 1360.16 85.99
3 5 -6 421.96 28.9
-3 -5 6 417.26 28.9
2 5 -6 2755.42 158.28
-2 -5 6 2690.63 159.18
-2 -5 6 2769.62 158.48
1 5 -6 1696.73 96.99
-1 -5 6 1586.64 96.99
-1 -5 6 1712.13 99.29
0 5 -6 853.91 50.89
0 -5 6 843.22 50.89
0 -5 6 846.52 53.49
-1 5 -6 4.2 2
-1 5 -6 2.6 2.3
1 -5 6 2.6 3
-2 5 -6 1670.13 94.89
-2 5 -6 1686.53 97.29
2 -5 6 1578.34 97.39
2 -5 6 1465.75 94.39
-3 5 -6 1967.4 107.09
3 -5 6 1510.55 117.29
3 -5 6 1706.93 102.49
-4 5 -6 2.9 3
4 -5 6 1 4
-5 5 -6 471.95 36.7
5 -5 6 484.95 31
5 -5 6 509.45 37.9
-6 5 -6 231.58 23.4
6 -5 6 275.77 16.8
6 -5 6 256.87 24.7
-7 5 -6 431.06 35.2
7 -5 6 441.26 35.9
-8 5 -6 175.18 20.4
8 -5 6 192.68 21.9
-9 5 -6 363.66 31.6
9 -5 6 312.77 30.8
-10 5 -6 7.2 6.1
-10 5 -6 13.4 7.2
10 -5 6 -4.7 8.5
-11 5 -6 24.9 9.9
-11 5 -6 49 14.8
11 -5 6 64.09 15.1
-11 -4 6 6.6 7.3
-11 -4 6 18.9 13.1
-11 -4 6 4.2 7.8
-11 -4 6 14 6.7
-10 -4 6 17.3 6.9
-10 -4 6 12.4 10.8
-10 -4 6 24.7 7.9
-10 -4 6 22.8 10.8
-9 -4 6 1 6
-9 -4 6 -1.2 5
-9 -4 6 -6.3 6.1
-8 -4 6 172.78 20.7
-8 -4 6 187.88 20.2
-8 -4 6 191.88 19.4
-7 -4 6 326.37 27.9
-7 -4 6 322.47 28.3
-7 -4 6 312.27 27.7
-6 -4 6 1072.39 69.89
-6 -4 6 1060.09 70.59
-6 -4 6 1097.49 70.79
-5 -4 6 464.65 37.8
-5 -4 6 473.55 34.1
4 4 -6 636.64 38.2
-4 -4 6 493.75 37
3 4 -6 376.26 25.1
-3 -4 6 349.17 24.9
2 4 -6 125.79 10.2
-2 -4 6 128.79 10.4
1 4 -6 1645.04 96.09
-1 -4 6 1626.14 98.39
-1 -4 6 1713.73 96.19
0 4 -6 236.08 16
0 -4 6 242.08 16.2
0 -4 6 260.17 18.8
0 -4 6 241.28 18.8
-1 4 -6 27.4 4.5
-1 4 -6 33.9 6
1 -4 6 25.2 5.4
1 -4 6 32.4 5.7
-2 4 -6 718.93 44.1
2 -4 6 610.24 41.7
2 -4 6 690.13 44.6
-3 4 -6 2375.16 130.59
3 -4 6 2029 126.79
3 -4 6 2157.58 130.79
-4 4 -6 2269.57 133.49
4 -4 6 2152.88 139.59
4 -4 6 2240.48 129.49
-5 4 -6 2199.48 140.39
5 -4 6 2391.96 135.49
5 -4 6 2422.46 142.19
-6 4 -6 275.57 24.3
6 -4 6 284.17 18.2
6 -4 6 279.47 25.5
-7 4 -6 277.67 25.4
7 -4 6 301.07 26.8
-8 4 -6 63.79 12
8 -4 6 76.59 14.2
-9 4 -6 266.47 25.3
-9 4 -6 266.77 28.7
9 -4 6 270.77 26.8
-10 4 -6 2.3 6
-10 4 -6 0.3 5.6
10 -4 6 0 8.6
-11 4 -6 -0.7 5.5
-11 4 -6 5.5 6.3
11 -4 6 -13 8.9
-11 -3 6 12.7 9.4
-11 -3 6 25.9 8.7
-11 -3 6 31.5 9.2
-11 -3 6 47.4 13.1
-10 -3 6 80.99 15.9
-10 -3 6 49.6 13.5
-10 -3 6 76.89 13.5
-10 -3 6 57.59 13
-9 -3 6 118.69 22.4
-9 -3 6 91.99 16.7
-9 -3 6 90.09 15
-8 -3 6 168.88 20
-8 -3 6 170.58 18.3
-8 -3 6 182.78 20.1
-7 -3 6 501.35 36.5
-7 -3 6 459.85 37.5
-7 -3 6 453.55 36.8
-6 -3 6 29.4 8.4
-6 -3 6 39 10.3
-6 -3 6 31 8
-5 -3 6 212.68 19.6
-5 -3 6 211.58 19.4
-5 -3 6 220.78 18.8
-4 -3 6 925.21 59.19
-4 -3 6 973.7 61.49
3 3 -6 166.88 13.6
-3 -3 6 203.48 17
-3 -3 6 169.78 13.7
2 3 -6 2529.75 150.18
-2 -3 6 2701.63 150.48
-2 -3 6 2645.54 154.38
1 3 -6 1803.62 100.29
-1 -3 6 1686.33 103.99
-1 -3 6 1751.62 100.19
0 3 -6 127.29 8.7
0 -3 6 121.09 10.9
0 -3 6 120.69 11.1
-1 3 -6 2033.4 118.69
1 -3 6 1954 118.39
1 -3 6 2074.39 119.09
-2 3 -6 122.59 10.9
-2 3 -6 105.79 9.8
2 -3 6 96.99 9.5
2 -3 6 103.69 10.6
-3 3 -6 680.63 41.6
-3 3 -6 671.63 43.4
3 -3 6 622.24 43.7
3 -3 6 661.93 41.9
-4 3 -6 2130.19 132.39
-4 3 -6 2339.77 129.69
4 -3 6 2218.48 133.69
4 -3 6 2214.88 129.99
-5 3 -6 611.54 45.9
-5 3 -6 657.93 42.3
5 -3 6 772.02 43.7
5 -3 6 735.63 48.8
-6 3 -6 298.47 25.5
6 -3 6 319.27 27.1
6 -3 6 327.27 21.3
-7 3 -6 6.6 4.3
-7 3 -6 12.1 6.9
7 -3 6 12.3 6.1
-8 3 -6 239.68 25.3
-8 3 -6 183.18 19.5
8 -3 6 217.28 22.3
-9 3 -6 95.29 13.3
-9 3 -6 103.89 19.4
9 -3 6 110.69 15.1
-10 3 -6 0.2 4.2
-10 3 -6 1.4 5.2
10 -3 6 -0.5 7.8
-11 3 -6 141.29 16.8
-11 3 -6 113.49 22
11 -3 6 186.88 21.1
-11 -2 6 11.8 10.4
-11 -2 6 10.8 9.2
-11 -2 6 3 8.1
-11 -2 6 10.7 6.9
-10 -2 6 117.29 15.2
-10 -2 6 94.89 19.1
-10 -2 6 92.99 17.9
-10 -2 6 131.49 16.9
-9 -2 6 208.88 22.6
-9 -2 6 202.18 23.5
-9 -2 6 181.38 19.5
-8 -2 6 156.18 19.3
-8 -2 6 139.59 17.8
-8 -2 6 156.18 16.7
-7 -2 6 164.48 29.5
-7 -2 6 138.59 17.4
-7 -2 6 137.59 16.6
-6 -2 6 51.89 10.8
-6 -2 6 48.5 9.4
-6 -2 6 62.69 10.5
-5 -2 6 169.18 15.8
-5 -2 6 166.88 16.2
-5 -2 6 179.48 17.2
-4 -2 6 2177.58 124.59
-4 -2 6 2130.09 123.69
-4 -2 6 1887.41 120.89
-3 -2 6 2.8 2.3
-3 -2 6 -0.4 1.7
2 2 -6 1211.68 71.29
-2 -2 6 1239.98 75.19
-2 -2 6 1241.58 71.29
1 2 -6 1681.63 94.19
1 2 -6 1568.74 98.39
-1 -2 6 1609.14 98.59
-1 -2 6 1753.52 94.19
0 2 -6 2 1.1
0 2 -6 2 2.1
0 -2 6 4.1 2.4
-2 2 -6 34.2 5.9
2 -2 6 50.59 6.5
2 -2 6 32.4 5.8
-3 2 -6 190.78 14.1
-3 2 -6 156.38 14.1
3 -2 6 158.88 13.8
3 -2 6 164.18 14.9
-4 2 -6 155.08 14.9
-4 2 -6 196.58 14.6
4 -2 6 186.48 14.9
4 -2 6 171.98 16.1
-5 2 -6 150.08 14.9
-5 2 -6 167.58 13.6
5 -2 6 191.08 14.6
5 -2 6 176.58 16.8
-6 2 -6 57.79 6.7
-6 2 -6 66.69 10.5
-6 2 -6 60.49 11.7
6 -2 6 70.29 7.7
6 -2 6 77.69 12.7
-7 2 -6 334.27 22
-7 2 -6 310.97 26.2
-7 2 -6 365.96 31.4
7 -2 6 368.76 28.8
-8 2 -6 18.3 5.7
-8 2 -6 10.7 7
8 -2 6 27.4 7.9
-9 2 -6 126.29 14.4
-9 2 -6 148.19 23
9 -2 6 123.79 16.2
-10 2 -6 21 9.9
-10 2 -6 20.4 6.8
10 -2 6 17.1 8.3
-11 2 -6 14.1 9.8
11 -2 6 8.6 9.5
-11 -1 6 3 8.6
-11 -1 6 12.8 21.3
-11 -1 6 5.7 8.4
-10 -1 6 36.7 10.3
-10 -1 6 29.4 10.4
-10 -1 6 24.2 7.9
-9 -1 6 -6 3.5
-9 -1 6 7.9 5
-9 -1 6 -3.9 6.1
-8 -1 6 384.76 33.4
-8 -1 6 343.87 30.1
-8 -1 6 282.97 37.5
-7 -1 6 177.98 21.6
-7 -1 6 163.58 16.5
-7 -1 6 159.68 17.6
-6 -1 6 360.16 28.4
-6 -1 6 360.16 28
-6 -1 6 375.26 31
-5 -1 6 360.46 26.8
-5 -1 6 326.67 28
-5 -1 6 363.86 26.4
-4 -1 6 17.5 5.3
-4 -1 6 17.4 5.1
-4 -1 6 12.4 4
-3 -1 6 1682.03 98.29
-3 -1 6 1580.24 94.89
2 1 -6 46.2 6.2
-2 -1 6 47.9 4
-2 -1 6 43.7 7.3
1 1 -6 994.7 60.79
-1 -1 6 980.9 61.09
0 1 -6 1045.3 62.19
0 -1 6 978.2 62.09
-1 1 -6 1288.97 78.39
1 -1 6 1312.97 78.89
-2 1 -6 1901.31 109.99
2 -1 6 1895.41 110.29
2 -1 6 1776.52 109.09
-3 1 -6 1546.55 97.19
-3 1 -6 1698.93 96.49
3 -1 6 1571.74 96.29
3 -1 6 1625.04 96.49
-4 1 -6 2780.52 152.18
-4 1 -6 2567.34 154.78
4 -1 6 2565.24 152.18
4 -1 6 2480.65 152.78
-5 1 -6 880.41 57.09
-5 1 -6 740.03 52.09
-5 1 -6 852.91 52.19
5 -1 6 839.22 54.29
5 -1 6 850.71 52.69
-6 1 -6 51.59 10.8
-6 1 -6 33.5 6.8
-6 1 -6 33.9 6
6 -1 6 42 7.1
6 -1 6 38.4 8.4
-7 1 -6 556.64 36.8
-7 1 -6 661.63 46.3
-7 1 -6 542.25 38.7
-8 1 -6 91.99 11
-8 1 -6 89.49 8.3
-8 1 -6 89.09 20.6
8 -1 6 91.69 14.1
-9 1 -6 35.1 11.4
9 -1 6 37.7 8.5
-10 1 -6 29.3 10.2
10 -1 6 9.8 7.7
-11 1 -6 23.3 21.5
11 -1 6 3.3 7.5
-12 0 6 -1.7 4.8
-12 0 6 -6.7 9.3
-12 0 6 -2.4 6.2
-12 0 6 6.7 20.7
-11 0 6 124.99 22.1
-11 0 6 92.19 19.5
-11 0 6 129.39 15.2
-11 0 6 122.29 16.1
-10 0 6 3.5 8.3
-10 0 6 -3.7 5.5
-10 0 6 1.3 4.7
-9 0 6 548.85 44.8
-9 0 6 489.45 37.5
-9 0 6 488.35 40.8
-8 0 6 54.89 12
-8 0 6 58.39 10.8
-8 0 6 60.39 13.6
-7 0 6 126.39 14.9
-7 0 6 129.39 17.3
-7 0 6 129.39 13.9
-6 0 6 -1.9 4.2
-6 0 6 6.4 4
-5 0 6 82.99 13.4
-5 0 6 73.39 9.7
-5 0 6 76.19 9.3
-4 0 6 614.64 41
-4 0 6 655.53 43.6
-4 0 6 566.94 38.8
3 0 -6 2.2 2
-3 0 6 0.5 1.8
-3 0 6 2.1 2.8
2 0 -6 1142.59 70.39
-2 0 6 1166.18 71.09
1 0 -6 2616.64 151.48
-1 0 6 2567.94 151.78
0 0 -6 3514.75 202.88
0 0 -6 3445.36 198.98
0 0 6 3555.94 203.38
-1 0 -6 122.19 12
-1 0 -6 144.19 10.8
1 0 6 131.89 12.5
-2 0 -6 3.9 2.9
-2 0 -6 1.2 1.7
2 0 6 1 2.6
2 0 6 0 1.6
-3 0 -6 614.44 44
-3 0 -6 722.33 44.6
3 0 6 688.23 44.4
3 0 6 661.93 42.7
-4 0 -6 625.74 43
-4 0 -6 624.24 41.3
4 0 6 623.24 40.7
4 0 6 602.84 41.5
-5 0 -6 765.12 51.69
-5 0 -6 734.53 48.1
5 0 6 718.43 48
5 0 6 735.13 48.2
-6 0 -6 272.77 25
-6 0 -6 253.27 20.8
6 0 6 267.07 21.5
6 0 6 261.97 21
-7 0 -6 270.37 23.7
-7 0 -6 406.66 32.5
7 0 6 356.66 26.3
-8 0 -6 9.4 8.2
-8 0 -6 4.4 3.3
8 0 6 -5.8 3.6
-9 0 -6 21.8 11.2
-9 0 -6 43.5 5.9
9 0 6 36.8 8.3
-10 0 -6 7.9 9.3
10 0 6 -1.1 5.5
-11 0 -6 90.09 19.3
11 0 6 96.59 11.7
-12 1 6 25.4 11.6
-12 1 6 -5.3 3.9
-12 1 6 -4.7 5.1
-12 1 6 9.6 8.6
-11 1 6 6.9 7.8
-11 1 6 13 10.7
-11 1 6 -2.9 6.1
-11 1 6 8.3 5.5
-10 1 6 6.5 7.7
-10 1 6 -3.8 4.5
-10 1 6 10.8 10.4
-9 1 6 240.48 28
-9 1 6 227.08 24.4
-9 1 6 233.28 21.7
-8 1 6 99.39 18.7
-8 1 6 75.79 13.9
-8 1 6 84.29 11.5
-7 1 6 548.05 44
-7 1 6 522.25 39.8
-7 1 6 554.24 38.9
-6 1 6 13.9 5.1
-6 1 6 15.5 6.6
-6 1 6 9.9 4.3
-5 1 6 608.54 43.5
-5 1 6 701.83 48.1
4 -1 -6 35.8 6.4
-4 1 6 23.9 7.2
-4 1 6 21.4 5.9
3 -1 -6 73.59 8.4
-3 1 6 76.89 9.1
-3 1 6 66.19 11.1
2 -1 -6 519.85 36.5
-2 1 6 568.34 32.5
-2 1 6 561.34 37.9
1 -1 -6 3.7 2.7
1 -1 -6 6.4 1.4
-1 1 6 7 1.6
-1 1 6 6.7 3.4
0 -1 -6 185.78 15.5
0 -1 -6 163.68 12
0 1 6 187.48 15.8
0 1 6 167.48 12.2
-1 -1 -6 28.6 4.8
-1 -1 -6 30.2 6.2
1 1 6 33.9 6.9
1 1 6 30.8 5.2
-2 -1 -6 48.3 8.2
-2 -1 -6 46.1 7.3
2 1 6 50.19 8.6
-3 -1 -6 66.29 9.9
-3 -1 -6 58.29 9.4
3 1 6 53.69 6.6
3 1 6 62.79 10.1
-4 -1 -6 740.53 45.6
-4 -1 -6 669.33 46
4 1 6 631.64 44.7
4 1 6 619.84 42.2
-5 -1 -6 873.81 59.39
-5 -1 -6 919.91 57.09
5 1 6 817.52 54.39
5 1 6 859.61 56.59
-6 -1 -6 135.99 17.6
-6 -1 -6 150.08 14.8
6 1 6 112.99 12.7
6 1 6 146.69 14.7
-7 -1 -6 25.2 8.9
-7 -1 -6 10.9 5.1
7 1 6 14.2 5.1
-8 -1 -6 19 5.9
-8 -1 -6 29.3 10
8 1 6 24.6 6.3
-9 -1 -6 16.9 5
-9 -1 -6 22.2 10.8
9 1 6 19.3 5.7
-10 -1 -6 57.69 14.8
-10 -1 -6 61.89 7
10 1 6 57.59 7.7
-11 -1 -6 44 15.1
-12 2 6 21.7 6.9
-12 2 6 24.7 4.2
-12 2 6 35.3 13.2
-12 2 6 1.5 10.1
-11 2 6 12.7 6.1
-11 2 6 -0.3 7.4
-11 2 6 32.3 13.1
-11 2 6 25.7 6.7
-10 2 6 221.18 26.2
-10 2 6 209.18 22.9
-10 2 6 168.88 17.6
-9 2 6 234.08 24.4
-9 2 6 215.28 20.7
-9 2 6 240.68 27.9
-8 2 6 6 5
-8 2 6 8 6.5
-8 2 6 10.2 6.4
-7 2 6 792.82 53.39
-7 2 6 795.32 59.59
-6 2 6 32.7 7.4
-6 2 6 23.7 9.1
5 -2 -6 1130.09 66.19
-5 2 6 1051.99 67.99
-5 2 6 931.31 89.69
4 -2 -6 1154.78 72.79
-4 2 6 1319.37 78.49
-4 2 6 1116.09 74.19
3 -2 -6 455.05 33.9
-3 2 6 552.24 37.8
-3 2 6 515.95 31.2
-3 2 6 514.05 35.9
2 -2 -6 136.89 13.2
-2 2 6 139.49 14
-2 2 6 152.48 10.2
-2 2 6 135.49 14.1
1 -2 -6 2334.67 136.59
1 -2 -6 2210.98 131.29
-1 2 6 2360.36 131.79
-1 2 6 2295.17 136.99
0 -2 -6 705.33 43.7
0 -2 -6 755.02 48
0 2 6 715.03 44
-1 -2 -6 3350.26 191.08
-1 -2 -6 3174.48 187.38
1 2 6 3277.87 191.18
1 2 6 3215.18 187.78
-2 -2 -6 104.09 11
-2 -2 -6 110.49 12.2
2 2 6 103.89 11.1
2 2 6 115.79 12.8
-3 -2 -6 758.52 49.9
-3 -2 -6 721.53 48.6
3 2 6 712.33 45.4
3 2 6 760.92 50.19
-4 -2 -6 1722.53 109.69
-4 -2 -6 1975.5 110.59
4 2 6 1752.42 105.19
4 2 6 1706.23 109.19
-5 -2 -6 55.09 11
-5 -2 -6 63.59 12.8
5 2 6 55.09 10.4
5 2 6 60.49 7.5
-6 -2 -6 364.96 30.3
6 2 6 327.47 26.8
6 2 6 307.17 23.3
-7 -2 -6 32.9 9.1
-7 -2 -6 65.49 13.8
7 2 6 54.49 8.1
-8 -2 -6 718.63 53.49
-8 -2 -6 943.61 61.89
8 2 6 743.73 48.1
-9 -2 -6 -1.4 6.7
9 2 6 2.9 2.5
-10 -2 -6 65.09 9.9
-10 -2 -6 64.19 17.3
-12 3 6 -18 9.6
-11 3 6 33.1 14.4
-11 3 6 54.59 13.8
-11 3 6 51.99 8.9
-10 3 6 30.7 10.2
-10 3 6 10.1 11.7
-10 3 6 32.4 7.5
-9 3 6 880.31 56.99
-9 3 6 847.22 67.19
-9 3 6 807.12 60.39
-8 3 6 169.18 17
-8 3 6 166.08 22.3
7 -3 -6 275.67 25.5
-7 3 6 257.87 22.7
-7 3 6 251.17 28
6 -3 -6 126.79 14.9
6 -3 -6 121.99 12.1
-6 3 6 126.89 17.3
-6 3 6 107.49 12.9
5 -3 -6 127.99 14.2
5 -3 -6 115.89 11.4
-5 3 6 112.59 15.8
-5 3 6 102.09 12.6
4 -3 -6 1006.7 66.19
4 -3 -6 994.1 62.99
-4 3 6 976.2 60.59
-4 3 6 1112.99 68.99
-4 3 6 970.2 64.69
3 -3 -6 3385.26 207.08
-3 3 6 3570.04 208.98
-3 3 6 3681.03 203.58
-3 3 6 3608.34 210.98
2 -3 -6 623.04 42.2
2 -3 -6 582.64 37.4
-2 3 6 603.44 43.1
-2 3 6 625.14 43
-2 3 6 671.63 38
1 -3 -6 1664.83 99.49
1 -3 -6 1697.63 104.39
-1 3 6 1816.42 100.19
-1 3 6 1672.73 104.29
-1 3 6 1749.12 105.39
0 -3 -6 9.8 4.1
0 -3 -6 7.5 2.6
0 3 6 10.2 4.3
0 3 6 9.4 3.1
-1 -3 -6 23.7 6.2
-1 -3 -6 7.2 3.2
1 3 6 9.9 3.7
1 3 6 8.1 4.3
-2 -3 -6 1436.56 85.19
-2 -3 -6 1276.27 81.59
2 3 6 1325.57 83.19
2 3 6 1322.77 84.69
-3 -3 -6 101.59 12.9
-3 -3 -6 87.89 11.2
3 3 6 98.59 12.7
3 3 6 101.39 12.1
3 3 6 89.89 8.3
-4 -3 -6 1978 122.89
-4 -3 -6 2119.29 123.89
4 3 6 1959.5 123.09
4 3 6 1991 117.29
-5 -3 -6 53.09 10.7
-5 -3 -6 49.99 11.2
5 3 6 49.4 6.6
5 3 6 46.3 9.7
-6 -3 -6 4.7 5.4
-6 -3 -6 3.2 4.7
6 3 6 -0.3 4.2
6 3 6 4.9 3.2
-7 -3 -6 19.6 9.4
-7 -3 -6 12.6 6.7
7 3 6 17 3.9
-8 -3 -6 14.4 7
-8 -3 -6 1.8 6.8
-9 -3 -6 149.69 24.1
-9 -3 -6 143.99 17.2
-10 -3 -6 30.7 8.4
-10 -3 -6 64.09 15.8
-12 4 6 74.59 16.7
-12 4 6 120.39 24.6
-11 4 6 13.3 9.7
-11 4 6 5.8 4.6
-11 4 6 -10.8 9.3
-10 4 6 329.57 33.1
-10 4 6 364.26 28.3
-10 4 6 420.96 40.7
-9 4 6 11.9 10.4
-9 4 6 22.1 7
8 -4 -6 116.59 16.4
-8 4 6 134.19 15
-8 4 6 91.09 19.4
7 -4 -6 270.47 25.2
7 -4 -6 247.78 19.7
-7 4 6 243.38 26.6
-7 4 6 213.38 21
6 -4 -6 3.5 3.4
6 -4 -6 -1.5 2.7
-6 4 6 3.1 3.5
-6 4 6 -4.8 4.5
5 -4 -6 83.79 9.9
5 -4 -6 103.89 13.2
-5 4 6 120.59 16.4
-5 4 6 78.49 12.9
-5 4 6 105.79 10.1
4 -4 -6 1550.14 94.89
4 -4 -6 1526.75 91.59
-4 4 6 1454.85 93.29
-4 4 6 1512.35 88.49
-4 4 6 1403.36 103.39
3 -4 -6 1512.25 95.59
3 -4 -6 1473.15 93.89
-3 4 6 1554.64 97.39
-3 4 6 1589.64 90.09
-3 4 6 1529.55 95.59
2 -4 -6 2491.35 152.98
2 -4 -6 2546.35 148.29
-2 4 6 2710.03 155.08
-2 4 6 2592.74 154.98
-2 4 6 2566.54 148.79
1 -4 -6 123.19 10.3
1 -4 -6 131.99 14
-1 4 6 126.79 13.5
-1 4 6 131.89 10.9
-1 4 6 123.59 14.3
0 -4 -6 424.26 28
0 -4 -6 441.56 32.5
0 4 6 386.66 28
0 4 6 443.56 30.9
0 4 6 411.86 32.3
-1 -4 -6 1245.48 75.89
-1 -4 -6 1140.79 88.79
1 4 6 1314.77 80.69
1 4 6 1234.88 76.19
1 4 6 1266.27 76.79
-2 -4 -6 1788.22 105.19
-2 -4 -6 1723.13 107.99
2 4 6 1692.53 108.29
2 4 6 1747.13 105.69
-3 -4 -6 388.26 29.8
-3 -4 -6 360.66 31
3 4 6 411.96 30.3
3 4 6 382.26 31.3
-4 -4 -6 18.6 7.3
-4 -4 -6 13.2 5.7
4 4 6 9.6 3.2
4 4 6 11.7 5.5
-5 -4 -6 684.33 50.59
-5 -4 -6 746.73 51.59
5 4 6 713.73 50.89
5 4 6 673.53 42.8
-6 -4 -6 1088.89 71.69
-6 -4 -6 1101.79 70.79
6 4 6 978 59.79
6 4 6 998 59.59
6 4 6 1024.9 69.39
-7 -4 -6 175.58 19.5
-7 -4 -6 141.79 19.4
-8 -4 -6 317.97 30.8
-8 -4 -6 223.58 24.5
-9 -4 -6 17.2 8.8
-9 -4 -6 11.3 8.1
-10 -4 -6 240.88 23.8
-10 -4 -6 165.58 35.7
-12 5 6 16.3 9.6
-12 5 6 20.6 13.4
-11 5 6 134.99 22.6
-11 5 6 143.89 13.6
-10 5 6 0 8.8
-10 5 6 -0.9 4.2
9 -5 -6 260.37 27.3
-9 5 6 205.48 33
-9 5 6 269.37 23
8 -5 -6 203.48 22.4
-8 5 6 182.18 18.5
-8 5 6 176.08 24.4
7 -5 -6 686.43 45
7 -5 -6 682.93 51.09
-7 5 6 751.02 56.59
-7 5 6 625.54 47.3
6 -5 -6 1775.32 107.79
6 -5 -6 1780.32 113.79
-6 5 6 1581.14 109.99
-6 5 6 2076.89 119.89
-6 5 6 1820.72 108.19
5 -5 -6 94.89 10.6
5 -5 -6 94.79 15.6
-5 5 6 95.79 10.2
-5 5 6 84.49 11.7
-5 5 6 67.69 14.5
4 -5 -6 4074.49 245.78
4 -5 -6 4077.19 242.98
-4 5 6 4359.46 248.98
-4 5 6 4276.67 239.68
-4 5 6 4086.79 245.28
3 -5 -6 -1.5 2.7
3 -5 -6 4 4
3 -5 -6 5.2 2.8
-3 5 6 0.2 2.2
-3 5 6 -1 2.6
-3 5 6 -2.7 2.5
2 -5 -6 109.29 13.9
2 -5 -6 89.79 21.1
2 -5 -6 99.39 9.6
-2 5 6 123.49 14.4
-2 5 6 152.98 15.7
-2 5 6 120.19 10.5
1 -5 -6 2743.73 166.38
1 -5 -6 2642.24 159.08
-1 5 6 2859.71 166.38
-1 5 6 2690.43 164.28
-1 5 6 2840.12 160.18
0 -5 -6 6.3 3.2
0 -5 -6 6.2 4.1
0 5 6 -2.3 2.4
0 5 6 3.4 3.2
0 5 6 3.4 3.5
-1 -5 -6 2954.7 177.78
-1 -5 -6 2937.81 172.98
1 5 6 3012.3 173.98
1 5 6 2938.61 178.48
-2 -5 -6 19.1 7
-2 -5 -6 2.4 3.8
2 5 6 1 2.7
2 5 6 4.5 3.2
-3 -5 -6 13.3 6.3
-3 -5 -6 3.3 4.8
3 5 6 15.5 4.4
3 5 6 5.6 3.4
3 5 6 9.5 6.7
-4 -5 -6 2033.1 122.29
-4 -5 -6 2049.89 124.29
4 5 6 1964.6 115.09
4 5 6 1926.71 114.09
4 5 6 1924.01 122.39
4 5 6 1954.8 123.79
-5 -5 -6 -4.5 4.9
-5 -5 -6 -1 5.1
5 5 6 0.8 4.3
5 5 6 5.6 5.5
5 5 6 1.5 1.6
5 5 6 1.1 1.7
-6 -5 -6 44.8 12
-6 -5 -6 64.79 14.1
-7 -5 -6 112.79 18.5
-7 -5 -6 110.89 19.3
-8 -5 -6 30.4 10
-8 -5 -6 36.7 12.4
-9 -5 -6 160.08 20.5
-9 -5 -6 117.19 22.1
-10 -5 -6 22.7 10.9
-10 -5 -6 35.6 12.5
-12 6 6 1.4 9
-12 6 6 32.9 16
-11 6 6 19.1 14.2
-11 6 6 9.4 4.9
-10 6 6 377.06 41.7
-10 6 6 384.16 29.3
9 -6 -6 24.4 10
-9 6 6 21.2 7.5
-9 6 6 27.4 11.9
8 -6 -6 554.74 53.39
8 -6 -6 617.54 41.3
-8 6 6 592.44 43.8
-8 6 6 663.83 44.4
-8 6 6 549.15 51.19
7 -6 -6 367.06 33.6
-7 6 6 326.77 29.6
-7 6 6 414.66 37.9
-7 6 6 392.36 29
6 -6 -6 2029.8 125.69
6 -6 -6 2113.19 131.19
-6 6 6 1835.72 126.99
-6 6 6 2284.87 136.59
-6 6 6 2188.98 124.59
5 -6 -6 303.27 24.2
5 -6 -6 288.77 26.9
-5 6 6 327.27 22.7
-5 6 6 334.07 30.8
-5 6 6 247.58 24.9
4 -6 -6 357.56 32.6
4 -6 -6 451.25 32.2
-4 6 6 394.86 33.1
-4 6 6 465.75 36.6
-4 6 6 422.86 28.6
3 -6 -6 803.32 60.99
3 -6 -6 922.61 56.69
3 -6 -6 921.81 60.99
-3 6 6 1004 63.59
-3 6 6 930.51 63.89
-3 6 6 942.71 56.99
2 -6 -6 553.94 37.4
2 -6 -6 571.34 42.1
2 -6 -6 603.94 42.8
-2 6 6 605.94 38.2
-2 6 6 578.54 43.5
-2 6 6 623.44 44.4
1 -6 -6 341.57 25.1
1 -6 -6 347.57 29.5
-1 6 6 325.67 30
-1 6 6 427.76 26.9
-1 6 6 377.86 29.7
0 -6 -6 5381.16 311.07
0 -6 -6 5289.37 316.57
0 6 6 5456.55 314.27
0 6 6 5556.24 312.47
-1 -6 -6 31.3 6.9
-1 -6 -6 21.3 7.3
1 6 6 31.5 7.5
1 6 6 28.3 7.1
1 6 6 28.3 8.6
-2 -6 -6 3834.52 227.68
-2 -6 -6 3991 232.58
2 6 6 3831.92 228.38
2 6 6 3897.81 232.58
2 6 6 3936.71 226.18
-3 -6 -6 148.49 18.4
-3 -6 -6 145.19 16.6
3 6 6 146.69 18.7
3 6 6 178.98 18
3 6 6 158.48 13.7
-4 -6 -6 580.54 42.4
-4 -6 -6 631.94 45.3
4 6 6 512.25 41.6
4 6 6 547.55 34.8
4 6 6 545.65 43.5
4 6 6 527.35 33.7
-5 -6 -6 199.18 22.2
-5 -6 -6 224.98 24.5
5 6 6 199.88 22.8
5 6 6 219.78 23.3
-6 -6 -6 0 5.8
-6 -6 -6 11 7.9
-7 -6 -6 56.09 15.3
-7 -6 -6 58.09 14.8
-8 -6 -6 27.5 12.5
-8 -6 -6 35.8 11.5
-9 -6 -6 7.7 13.1
-9 -6 -6 25.2 12.3
-12 7 6 16.4 11.3
-12 7 6 40.9 16.8
-11 7 6 54.69 19.4
-11 7 6 63.79 9.3
-10 7 6 51.79 22.4
-10 7 6 56.69 10.6
9 -7 -6 144.79 19.6
-9 7 6 106.59 14.2
-9 7 6 120.29 15.5
-9 7 6 116.39 23.5
8 -7 -6 109.89 12.2
8 -7 -6 94.69 17.9
-8 7 6 67.39 18.7
-8 7 6 119.79 14.1
-8 7 6 92.39 15.5
7 -7 -6 565.64 40
7 -7 -6 607.54 47.1
-7 7 6 666.73 41.9
-7 7 6 565.74 50.29
-7 7 6 518.75 42.7
6 -7 -6 215.78 23.9
6 -7 -6 211.08 19.3
-6 7 6 278.67 28.9
-6 7 6 200.78 21.7
-6 7 6 236.68 19.4
5 -7 -6 337.27 27.8
5 -7 -6 334.77 31
-5 7 6 369.66 26.1
-5 7 6 332.77 29.9
-5 7 6 405.86 35.1
4 -7 -6 863.91 58.79
4 -7 -6 828.62 60.49
-4 7 6 972.5 64.79
-4 7 6 839.12 60.99
-4 7 6 879.71 55.09
3 -7 -6 1575.04 103.39
3 -7 -6 1617.54 102.69
3 -7 -6 1611.24 97.69
-3 7 6 1783.22 106.99
-3 7 6 1633.34 99.09
2 -7 -6 2730.33 157.78
2 -7 -6 2711.43 163.68
2 -7 -6 2597.94 162.58
-2 7 6 2494.55 178.98
-2 7 6 2809.52 165.58
-2 7 6 2819.02 158.48
1 -7 -6 412.76 34
1 -7 -6 407.86 32.6
1 -7 -6 450.75 29.7
-1 7 6 426.36 33.4
-1 7 6 405.06 33.2
-1 7 6 431.06 35.9
0 -7 -6 433.36 35.2
0 -7 -6 431.86 30.6
0 7 6 429.96 36.3
0 7 6 454.45 31.7
0 7 6 402.16 32.6
-1 -7 -6 7.7 4.6
-1 -7 -6 15.4 6.4
1 7 6 16.4 5.6
1 7 6 27.5 7.1
1 7 6 13.6 7.2
-2 -7 -6 63.79 11.3
-2 -7 -6 69.29 13.9
2 7 6 73.59 12.1
2 7 6 61.29 13.3
2 7 6 75.09 9.6
-3 -7 -6 2352.86 140.79
-3 -7 -6 2307.57 144.69
3 7 6 2269.37 135.59
3 7 6 2306.87 144.89
3 7 6 2309.77 141.49
-4 -7 -6 35.6 10.1
-4 -7 -6 28.7 8.2
4 7 6 21.5 4.4
4 7 6 32.3 14.2
4 7 6 42.1 10.9
4 7 6 20.1 3.5
-5 -7 -6 93.89 18
-5 -7 -6 90.69 16.1
5 7 6 110.19 19.7
5 7 6 105.49 17.4
-6 -7 -6 528.85 44.7
-6 -7 -6 501.45 43
-7 -7 -6 83.09 17.1
-7 -7 -6 67.19 17
-8 -7 -6 197.98 25.8
-8 -7 -6 141.89 24.1
-9 -7 -6 32.5 32.1
-9 -7 -6 24.2 14.6
-12 8 6 -21.7 11.3
-11 8 6 174.68 16.2
-11 8 6 259.47 34.4
-10 8 6 64.69 11.2
-10 8 6 90.69 21.1
9 -8 -6 146.79 15.6
-9 8 6 145.59 17.4
-9 8 6 118.39 25.2
-9 8 6 140.79 17.1
8 -8 -6 1376.86 95.59
8 -8 -6 1289.27 85.79
-8 8 6 1529.15 89.59
-8 8 6 1347.07 90.29
-8 8 6 1477.85 102.09
7 -8 -6 45.8 8.7
7 -8 -6 43 11.7
-7 8 6 32.8 11.6
-7 8 6 34.8 13.1
-7 8 6 45.6 9.4
6 -8 -6 257.77 22.1
6 -8 -6 262.27 26.2
-6 8 6 259.37 28.8
-6 8 6 253.27 20.8
-6 8 6 208.48 23.6
5 -8 -6 147.79 18
5 -8 -6 168.88 16.6
-5 8 6 148.69 14.2
-5 8 6 162.38 20.8
-5 8 6 120.69 16.4
4 -8 -6 129.79 16.8
4 -8 -6 129.29 22.8
4 -8 -6 112.59 14.8
-4 8 6 123.79 16.5
-4 8 6 132.29 17.9
-4 8 6 141.29 13
3 -8 -6 1032.1 74.09
3 -8 -6 1107.99 69.09
3 -8 -6 1091.39 74.09
-3 8 6 1189.38 77.29
-3 8 6 1180.08 69.99
-3 8 6 1115.19 76.99
2 -8 -6 67.89 13.4
2 -8 -6 83.19 14.3
2 -8 -6 97.29 10.4
-2 8 6 109.29 17.2
-2 8 6 113.59 15.4
-2 8 6 92.19 10.4
1 -8 -6 3081.29 190.98
1 -8 -6 3092.79 188.48
-1 8 6 3296.97 193.48
-1 8 6 3132.29 189.88
-1 8 6 3210.98 185.68
0 -8 -6 55.89 9.8
0 -8 -6 90.59 15.5
0 8 6 63.79 11.6
0 8 6 87.69 10.7
0 8 6 40.4 10.9
-1 -8 -6 623.84 48.4
-1 -8 -6 598.84 43
1 8 6 634.74 44.1
1 8 6 623.34 48.9
1 8 6 648.84 44.6
-2 -8 -6 118.99 14.5
-2 -8 -6 115.09 19.3
2 8 6 132.59 13.2
2 8 6 81.49 16.8
2 8 6 126.29 15.3
-3 -8 -6 146.39 18.8
-3 -8 -6 136.49 15.9
3 8 6 139.49 19.3
3 8 6 128.49 16.3
3 8 6 129.09 12.6
-4 -8 -6 183.18 20.3
-4 -8 -6 201.18 23.3
4 8 6 174.38 12.3
4 8 6 204.58 21.1
4 8 6 167.88 21.8
4 8 6 179.88 13.2
-5 -8 -6 591.04 46.6
-5 -8 -6 483.25 41.6
5 8 6 473.45 43.2
-6 -8 -6 251.87 28.1
-6 -8 -6 213.38 24.8
-7 -8 -6 261.87 29.1
-7 -8 -6 208.18 26.1
-8 -8 -6 -9.4 11
-8 -8 -6 20 10.7
-9 -8 -6 14.5 9
-12 9 6 -9.8 12.7
-11 9 6 2.4 4.7
-11 9 6 -18.3 7.8
-10 9 6 425.36 47.4
-10 9 6 449.66 34.9
9 -9 -6 32.6 7.4
-9 9 6 34.1 9.5
-9 9 6 15.4 9.7
-9 9 6 47.7 11.4
8 -9 -6 188.28 17.3
8 -9 -6 155.08 26.1
-8 9 6 183.78 18.9
-8 9 6 186.58 31.2
-8 9 6 175.88 21
7 -9 -6 165.18 20.6
7 -9 -6 169.28 16.8
-7 9 6 145.09 25.7
-7 9 6 165.28 16.6
-7 9 6 141.19 18.7
6 -9 -6 18.3 13.3
6 -9 -6 8.4 5.5
-6 9 6 9.3 5.3
-6 9 6 3.8 6.4
-6 9 6 1 4.4
5 -9 -6 435.36 39.5
5 -9 -6 515.45 38.3
-5 9 6 547.25 45.1
-5 9 6 418.96 39.1
-5 9 6 543.05 35.5
4 -9 -6 0.1 3.3
4 -9 -6 4.3 4
4 -9 -6 -0.3 6
-4 9 6 0 4.3
-4 9 6 8.8 4.7
-4 9 6 3.9 5.2
3 -9 -6 992.6 69.29
3 -9 -6 989.1 68.89
3 -9 -6 1011 63.59
-3 9 6 1023 64.29
-3 9 6 1038.7 71.59
-3 9 6 988 71.19
2 -9 -6 121.79 17.1
2 -9 -6 158.18 14.3
2 -9 -6 137.99 16.4
-2 9 6 163.58 15.3
-2 9 6 141.69 18.9
-2 9 6 144.09 18.5
1 -9 -6 61.69 13.2
1 -9 -6 63.49 10.4
1 -9 -6 59.59 11.5
-1 9 6 61.29 13.8
-1 9 6 69.59 11.4
-1 9 6 60.19 12.4
0 -9 -6 1067.39 70.29
0 -9 -6 1090.99 76.29
0 9 6 1105.99 73.29
0 9 6 1149.98 72.09
0 9 6 1120.89 78.09
-1 -9 -6 390.16 34.3
-1 -9 -6 360.36 29.2
1 9 6 375.86 29.8
1 9 6 346.47 29.9
1 9 6 380.76 35.4
-2 -9 -6 9 6.5
-2 -9 -6 3 5.7
2 9 6 8.7 6
2 9 6 6.1 7.2
-3 -9 -6 386.66 35
-3 -9 -6 316.17 28.8
3 9 6 323.17 33
3 9 6 329.67 31
3 9 6 352.26 25.3
-4 -9 -6 35.1 9.8
4 9 6 38.8 10.4
4 9 6 31.2 11.2
4 9 6 34.5 4.4
4 9 6 31.2 3.9
-5 -9 -6 512.95 42.8
-5 -9 -6 531.75 47
-6 -9 -6 21.6 8.1
-6 -9 -6 27 11.6
-7 -9 -6 20.8 22.5
-7 -9 -6 1.6 6.4
-8 -9 -6 11.5 9.8
-12 10 6 29.3 15.9
-11 10 6 8.4 6.1
-11 10 6 12.6 12.6
10 -10 -6 28.2 6.6
-10 10 6 12.2 7.5
-10 10 6 31.3 15.5
9 -10 -6 223.88 19.6
-9 10 6 194.68 21.7
-9 10 6 190.78 32.8
8 -10 -6 193.68 19.1
-8 10 6 166.98 20.6
-8 10 6 226.28 20.4
-8 10 6 200.28 27.1
7 -10 -6 7 5.4
7 -10 -6 -2.2 3.5
-7 10 6 -1 3.4
-7 10 6 11.5 6.7
-7 10 6 0.9 7.3
6 -10 -6 16.3 8.8
6 -10 -6 14.4 5.8
-6 10 6 14.2 5.3
5 -10 -6 -1.6 3.8
5 -10 -6 -2.5 3
-5 10 6 -4.5 4.6
-5 10 6 -7.6 2.7
-5 10 6 -2.4 4
4 -10 -6 1636.14 107.09
4 -10 -6 1727.43 102.69
4 -10 -6 1543.25 107.99
-4 10 6 1730.73 102.59
-4 10 6 1567.74 109.39
-4 10 6 1848.81 113.59
3 -10 -6 70.59 11
3 -10 -6 78.59 14.8
3 -10 -6 60.69 12.7
-3 10 6 89.19 17.2
-3 10 6 82.89 11.9
-3 10 6 67.39 15.1
2 -10 -6 375.46 32.4
2 -10 -6 398.06 28.7
2 -10 -6 366.46 33.1
-2 10 6 341.87 28.1
-2 10 6 396.26 35.5
-2 10 6 376.26 33.9
1 -10 -6 87.09 16.5
1 -10 -6 89.29 11.4
1 -10 -6 100.39 16.2
-1 10 6 85.59 17.8
-1 10 6 109.29 12.7
-1 10 6 119.49 16
0 -10 -6 38.5 9.1
0 -10 -6 41.3 9
0 -10 -6 27.3 9.5
0 10 6 26.6 9.6
0 10 6 6.3 7.9
0 10 6 38.2 8.6
-1 -10 -6 789.92 54.39
-1 -10 -6 795.62 60.69
1 10 6 801.02 55.69
1 10 6 799.62 61.29
1 10 6 784.02 54.59
-2 -10 -6 117.79 15
-2 -10 -6 137.09 18.7
2 10 6 111.99 21.2
2 10 6 126.79 13.8
2 10 6 126.69 18.9
-3 -10 -6 437.46 40.1
-3 -10 -6 430.86 35.5
3 10 6 434.86 30.6
3 10 6 436.56 36.7
3 10 6 424.16 39.7
-4 -10 -6 265.57 28.7
-4 -10 -6 221.98 23.2
4 10 6 212.28 26.5
4 10 6 211.48 13.7
4 10 6 191.78 14.1
-5 -10 -6 42.5 14.7
-5 -10 -6 33.2 11.4
-6 -10 -6 123.89 21.4
-7 -10 -6 287.17 31.2
-8 -10 -6 47.8 15.9
-11 11 6 129.49 27.7
-11 11 6 123.39 15.8
10 -11 -6 193.38 18.1
-10 11 6 166.68 31.7
-10 11 6 170.28 43.8
9 -11 -6 -4.1 4.1
-9 11 6 -0.5 4.6
-9 11 6 2.6 6.8
8 -11 -6 205.78 20.5
-8 11 6 265.27 22.5
-8 11 6 192.68 32.6
-8 11 6 204.88 23.8
7 -11 -6 219.78 20.9
-7 11 6 177.48 22.3
-7 11 6 180.18 30.1
-7 11 6 185.58 21
6 -11 -6 40.1 12.9
6 -11 -6 66.99 12.5
-6 11 6 48.1 10
-6 11 6 65.79 16.4
-6 11 6 30.9 11.3
5 -11 -6 -3.5 5
5 -11 -6 -2.9 6.1
5 -11 -6 1.2 4.3
-5 11 6 1.2 5.1
-5 11 6 3.3 4
-5 11 6 -9 4.8
4 -11 -6 160.78 21.1
4 -11 -6 212.38 23.3
4 -11 -6 210.38 18.5
-4 11 6 212.28 25.4
-4 11 6 197.68 23.5
-4 11 6 209.08 19.2
3 -11 -6 519.55 42.9
3 -11 -6 486.45 41.8
3 -11 -6 524.25 37.2
-3 11 6 493.45 44.1
-3 11 6 539.05 38.1
-3 11 6 556.34 45.1
2 -11 -6 83.69 15.4
2 -11 -6 61.69 13.2
2 -11 -6 68.89 11.4
-2 11 6 50.89 13
-2 11 6 85.69 13.1
-2 11 6 81.69 17
1 -11 -6 527.95 38
1 -11 -6 474.45 39.9
1 -11 -6 482.75 42.2
-1 11 6 524.15 41.9
-1 11 6 549.15 45.9
-1 11 6 517.35 38.6
0 -11 -6 50.09 12.7
0 -11 -6 38.6 9.8
0 -11 -6 26.8 8.2
0 11 6 40.2 9.6
0 11 6 36.2 12.1
0 11 6 34.7 9.3
-1 -11 -6 20.2 7.5
-1 -11 -6 30.6 10.4
1 11 6 7.4 8.6
1 11 6 27.3 7.8
1 11 6 34.3 9
-2 -11 -6 338.07 34.8
-2 -11 -6 342.77 29.4
2 11 6 357.56 30.8
2 11 6 302.17 26.7
2 11 6 370.66 36.2
-3 -11 -6 73.69 13.7
-3 -11 -6 42.1 14.1
3 11 6 58.99 15.4
3 11 6 56.89 9.2
3 11 6 59.49 15.2
-4 -11 -6 99.09 24.6
-4 -11 -6 63.29 14.5
4 11 6 69.49 6
4 11 6 80.69 18.8
-5 -11 -6 592.24 48.6
-6 -11 -6 9.7 10.4
-7 -11 -6 63.89 17.3
-11 12 6 80.59 21.9
10 -12 -6 36.3 8.7
-10 12 6 22.6 11.9
-10 12 6 31 10.2
9 -12 -6 89.99 13.9
-9 12 6 108.79 18.3
-9 12 6 108.99 24.6
8 -12 -6 11.4 6
-8 12 6 -1 6.9
-8 12 6 6.7 4.7
-8 12 6 7.2 6.1
7 -12 -6 184.18 20.5
-7 12 6 190.18 23.5
-7 12 6 222.48 20.4
6 -12 -6 139.19 24.2
6 -12 -6 214.48 21.9
-6 12 6 161.28 22.2
-6 12 6 231.68 28.3
-6 12 6 185.38 32.9
5 -12 -6 153.38 20.3
5 -12 -6 115.29 19
5 -12 -6 134.79 15.7
-5 12 6 115.09 21.4
-5 12 6 126.29 15.6
-5 12 6 150.18 25.4
4 -12 -6 518.35 64.39
4 -12 -6 623.74 51.29
4 -12 -6 725.73 48.1
-4 12 6 707.73 48
-4 12 6 712.03 55.69
-4 12 6 724.03 56.99
3 -12 -6 1.9 4.8
3 -12 -6 -3.7 4.7
3 -12 -6 11.7 6
-3 12 6 9.2 6.9
-3 12 6 9.8 8.2
-3 12 6 7.9 4.1
2 -12 -6 1401.96 92.39
2 -12 -6 1430.86 87.09
2 -12 -6 1281.77 93.19
-2 12 6 1369.26 87.59
-2 12 6 1378.66 93.89
-2 12 6 1359.26 96.19
1 -12 -6 27.8 9.7
1 -12 -6 18.1 7.9
1 -12 -6 19.5 7.7
-1 12 6 6.4 7.8
-1 12 6 20.9 7.1
-1 12 6 22.2 7.9
0 -12 -6 50.99 12
0 -12 -6 23.9 7.1
0 -12 -6 27.2 8.5
0 12 6 31 9.6
0 12 6 33.5 11.5
0 12 6 26.7 8.8
-1 -12 -6 29.5 9.1
-1 -12 -6 9.3 8
1 12 6 23.2 7.8
1 12 6 15.8 9.3
1 12 6 17.4 6.8
-2 -12 -6 22.9 8.8
-2 -12 -6 30.5 10.7
2 12 6 22.9 7.1
2 12 6 17.3 8.9
2 12 6 16.3 10.9
-3 -12 -6 89.89 19.6
3 12 6 77.89 18.8
3 12 6 79.19 10.2
-4 -12 -6 73.29 15.8
4 12 6 59.19 5.3
-5 -12 -6 119.19 19.7
-6 -12 -6 37.3 12.6
-7 -12 -6 39.4 13.1
11 -13 -6 42.8 9.3
-11 13 6 57.59 18.6
10 -13 -6 7.9 5.9
-10 13 6 -1.2 8.6
-10 13 6 6.2 7.4
9 -13 -6 219.38 21.1
-9 13 6 186.48 24.1
-9 13 6 165.68 33.5
8 -13 -6 5.1 6
-8 13 6 6.8 9.9
-8 13 6 2.3 5.9
7 -13 -6 7.4 5.2
-7 13 6 0.6 8.3
-7 13 6 8.4 7.1
-7 13 6 -5.4 5.1
6 -13 -6 1.9 6.6
-6 13 6 2.2 3.7
-6 13 6 6.4 7.1
-6 13 6 6.3 7.5
5 -13 -6 1131.69 82.59
5 -13 -6 1137.19 80.59
5 -13 -6 1222.18 76.69
-5 13 6 1290.77 89.19
-5 13 6 1157.18 77.19
-5 13 6 1047 82.49
4 -13 -6 187.88 25.2
4 -13 -6 239.18 37.7
4 -13 -6 241.08 21.8
-4 13 6 193.68 26.3
-4 13 6 243.78 22.4
-4 13 6 231.58 27.7
3 -13 -6 415.96 32.2
3 -13 -6 399.46 38.4
3 -13 -6 384.76 36.9
-3 13 6 454.75 40.3
-3 13 6 388.36 32.2
-3 13 6 401.86 39.9
2 -13 -6 65.29 14.6
2 -13 -6 43.6 14.6
2 -13 -6 41.4 9.9
-2 13 6 71.59 17.2
-2 13 6 62.39 12.4
-2 13 6 56.59 14.8
1 -13 -6 1456.05 91.59
1 -13 -6 1375.46 98.69
1 -13 -6 1364.96 94.69
-1 13 6 1513.05 93.59
-1 13 6 1454.65 96.89
-1 13 6 1396.26 101.09
0 -13 -6 141.09 17.9
0 -13 -6 96.39 19.8
0 -13 -6 112.89 17.2
0 13 6 134.99 17.4
0 13 6 101.19 16.7
0 13 6 136.69 24.4
-1 -13 -6 748.93 151.48
-1 -13 -6 671.13 49.5
1 13 6 647.84 56.49
1 13 6 642.54 50.09
1 13 6 673.43 49.4
-2 -13 -6 24.2 10.9
2 13 6 33.4 17.7
2 13 6 43.1 9.4
-3 -13 -6 49.7 12.4
3 13 6 65.79 17
3 13 6 45 8.3
-4 -13 -6 -10.6 3.6
4 13 6 3.4 1.5
-5 -13 -6 199.98 25
-6 -13 -6 3.7 6.1
11 -14 -6 25.3 8.5
-11 14 6 33.8 22.5
10 -14 -6 241.78 23.3
-10 14 6 196.28 36.7
-10 14 6 212.58 26.3
9 -14 -6 30.1 9.2
-9 14 6 19.2 10.5
-9 14 6 21.8 14.7
8 -14 -6 7.1 6.7
-8 14 6 -1.3 7.5
-8 14 6 -5.2 7.5
7 -14 -6 161.88 27.2
-7 14 6 202.88 25
-7 14 6 122.19 25.4
6 -14 -6 9.8 8.9
-6 14 6 31.4 13.7
-6 14 6 19.2 7.2
-6 14 6 22.7 10.3
5 -14 -6 101.29 15.8
5 -14 -6 72.39 15.6
-5 14 6 82.19 20.4
-5 14 6 76.69 18.2
-5 14 6 79.69 13.8
4 -14 -6 26.7 11.2
4 -14 -6 17.9 9.8
4 -14 -6 16.6 7.2
-4 14 6 28.1 12.5
-4 14 6 21 10.7
-4 14 6 21.9 7.5
3 -14 -6 38.4 11.3
3 -14 -6 55.39 11.4
3 -14 -6 31.8 11.8
-3 14 6 32.1 8.4
-3 14 6 32.6 13.1
-3 14 6 39.8 12.5
2 -14 -6 50.99 11.6
2 -14 -6 38.9 11.8
2 -14 -6 21.6 10.1
-2 14 6 31.4 11.8
-2 14 6 56.79 14.6
-2 14 6 54.39 11.3
1 -14 -6 824.52 89.09
1 -14 -6 839.82 57.69
1 -14 -6 785.22 60.29
-1 14 6 836.72 61.79
-1 14 6 709.73 64.09
-1 14 6 884.71 59.29
0 -14 -6 527.85 41
0 -14 -6 563.34 43.5
0 14 6 502.85 48.6
0 14 6 485.05 42.7
0 14 6 519.75 42.9
-1 -14 -6 4 8.9
1 14 6 31.7 9.7
1 14 6 28.9 13.9
-2 -14 -6 261.17 26.5
2 14 6 253.77 32
2 14 6 232.48 36.1
-3 -14 -6 13.5 10.2
3 14 6 23.8 6.2
-4 -14 -6 4 7.6
-5 -14 -6 83.19 17.6
-6 -14 -6 19.6 10.8
10 -15 -6 -15 7.1
-10 15 6 0 8.8
-10 15 6 -8.3 6.7
9 -15 -6 101.49 27
-9 15 6 81.19 23.4
-9 15 6 66.79 16.7
8 -15 -6 36.7 11.5
-8 15 6 41.5 13.8
-8 15 6 35.4 15.8
7 -15 -6 454.65 39.8
-7 15 6 554.34 51.79
-7 15 6 394.06 41.5
6 -15 -6 176.88 21.6
-6 15 6 145.39 28.9
-6 15 6 131.69 24.9
5 -15 -6 90.79 17.5
5 -15 -6 62.09 12.9
-5 15 6 56.69 16.3
-5 15 6 56.59 15.7
-5 15 6 70.29 18.1
4 -15 -6 618.44 53.39
4 -15 -6 701.83 48.1
-4 15 6 513.15 53.09
-4 15 6 668.03 56.59
-4 15 6 669.03 47.9
3 -15 -6 -7.9 7
3 -15 -6 -1.9 5.7
-3 15 6 8.7 6.5
-3 15 6 -0.1 7.8
-3 15 6 8.2 7.4
2 -15 -6 182.08 23.6
2 -15 -6 166.58 20
-2 15 6 200.38 25.4
-2 15 6 185.58 30.4
-2 15 6 180.38 21.3
1 -15 -6 163.38 21.2
1 -15 -6 139.09 20.5
-1 15 6 163.58 21.8
-1 15 6 128.49 25.3
0 -15 -6 292.37 30.5
0 -15 -6 321.07 30.6
0 15 6 316.07 36.5
0 15 6 315.47 30.5
-1 -15 -6 73.39 15.5
1 15 6 93.29 16.8
1 15 6 87.39 22.8
-2 -15 -6 121.19 19.8
2 15 6 123.49 25.8
2 15 6 106.49 16.2
-3 -15 -6 288.67 29.1
3 15 6 250.57 21.1
-4 -15 -6 70.09 16.2
-5 -15 -6 -2.1 6.9
10 -16 -6 85.49 16.8
-10 16 6 92.79 43.1
9 -16 -6 24.1 10.9
-9 16 6 27 12.1
-9 16 6 -1.5 12.1
8 -16 -6 239.28 26
-8 16 6 187.18 26.4
-8 16 6 196.08 34.9
7 -16 -6 82.19 17.1
-7 16 6 67.79 17.9
-7 16 6 81.99 21.4
-6 16 6 117.49 24.1
-6 16 6 166.48 31.1
5 -16 -6 383.16 34.3
-5 16 6 339.47 38.1
-5 16 6 400.26 42.2
4 -16 -6 50.69 18.8
-4 16 6 24 23
-4 16 6 16.3 20.2
3 -16 -6 303.67 38.4
3 -16 -6 317.77 32
-3 16 6 210.48 30.9
-3 16 6 310.07 33.5
2 -16 -6 169.08 22.2
2 -16 -6 161.08 20.5
-2 16 6 161.68 26
-2 16 6 142.09 26.6
1 -16 -6 674.93 52.29
1 -16 -6 743.13 50.19
-1 16 6 495.25 54.29
-1 16 6 598.54 51.19
0 -16 -6 89.09 19.4
0 -16 -6 89.39 16.4
0 16 6 121.59 20
0 16 6 98.09 23.4
-1 -16 -6 67.89 14
1 16 6 49.3 13.3
1 16 6 62.69 18.4
-2 -16 -6 217.08 25.4
2 16 6 194.28 20.3
-3 -16 -6 -1.7 7.3
3 16 6 1.4 4.9
-4 -16 -6 1.4 5.6
-5 -16 -6 8.2 8.6
10 -17 -6 10.7 11.8
-10 17 6 -2.6 13.6
9 -17 -6 15 13.1
-9 17 6 44.1 19.6
-9 17 6 16.4 12.5
-8 17 6 19.6 10.4
-8 17 6 0.7 11.3
-7 17 6 356.56 44.7
6 -17 -6 137.09 21
-6 17 6 185.08 32.3
-6 17 6 105.79 23.1
5 -17 -6 218.18 22.6
-5 17 6 143.49 27.4
-5 17 6 145.19 28
4 -17 -6 639.54 47
-4 17 6 477.65 51.69
-4 17 6 692.53 58.09
3 -17 -6 111.69 18.1
-3 17 6 75.29 20.8
2 -17 -6 463.35 45.1
2 -17 -6 546.05 40.8
-2 17 6 493.95 45.1
-2 17 6 341.27 43.5
1 -17 -6 95.89 17
1 -17 -6 77.19 18.2
-1 17 6 77.29 17.2
-1 17 6 70.19 22
0 -17 -6 41 11.5
0 17 6 36.2 14.7
0 17 6 30.7 11.7
-1 -17 -6 79.69 16.2
1 17 6 75.89 14.8
-2 -17 -6 10.6 8.3
2 17 6 19.6 7.5
-3 -17 -6 7.8 7.5
3 17 6 -3.3 4.3
-4 -17 -6 1.4 9.4
-9 18 6 36.8 19
-8 18 6 74.29 22.4
-8 18 6 74.49 20.1
-7 18 6 53.19 16.2
-7 18 6 38.6 15.2
6 -18 -6 444.76 39.1
-6 18 6 346.47 43.4
-6 18 6 551.84 53.09
5 -18 -6 90.79 16.5
-5 18 6 74.39 21.2
4 -18 -6 276.17 27.3
-4 18 6 203.88 35.9
-4 18 6 311.97 36.6
3 -18 -6 373.46 32.4
-3 18 6 236.68 34.8
-3 18 6 329.57 37.9
2 -18 -6 10.3 7.9
-2 18 6 21.2 11.3
-2 18 6 12.5 15.3
1 -18 -6 266.47 27.6
1 -18 -6 241.98 29.5
-1 18 6 181.68 34.9
-1 18 6 248.18 29.7
0 -18 -6 32.6 10.8
0 -18 -6 31 13.3
0 18 6 41.1 13.4
-1 -18 -6 65.09 15.6
1 18 6 79.29 15
-2 -18 -6 16.3 8.4
2 18 6 4.7 6.8
-3 -18 -6 -5.7 6.4
3 18 6 7.5 5.3
-8 19 6 35.8 22.6
-7 19 6 148.89 29.4
-7 19 6 192.18 35.8
6 -19 -6 -6.7 7.2
-6 19 6 -12.8 8.2
-6 19 6 25.1 15.1
5 -19 -6 205.28 24.5
-5 19 6 269.47 34.6
-5 19 6 163.18 31.2
4 -19 -6 109.69 18.2
-4 19 6 103.49 23.3
-4 19 6 79.19 22.8
3 -19 -6 460.95 38
-3 19 6 329.37 42.8
-3 19 6 413.16 44.3
2 -19 -6 291.87 29.4
-2 19 6 247.68 31.7
1 -19 -6 14.3 9.7
-1 19 6 12.2 11.2
0 -19 -6 317.87 31.7
0 19 6 245.18 29.3
-1 -19 -6 64.99 15.6
1 19 6 64.99 13.6
-2 -19 -6 23.6 10.6
2 19 6 37.1 10.2
6 -20 -6 8.9 7.3
-6 20 6 -8.9 12.4
-6 20 6 25.6 13.7
-5 20 6 -16.5 10.1
-5 20 6 -15.4 7.4
4 -20 -6 164.28 20.6
-4 20 6 102.69 25.2
-4 20 6 124.69 24.6
3 -20 -6 104.29 19.5
-3 20 6 73.69 20.8
-3 20 6 133.09 26.4
2 -20 -6 71.09 16.3
-2 20 6 101.09 22.1
1 -20 -6 271.77 29.2
-1 20 6 266.77 33.2
0 -20 -6 -3.5 8.7
0 20 6 0.7 11.1
-1 -20 -6 80.99 17.2
1 20 6 81.09 16.4
6 -21 -6 14.9 10
-6 21 6 -0.4 13
5 -21 -6 101.89 18.2
-5 21 6 85.49 22.8
4 -21 -6 72.49 16.4
-4 21 6 108.19 23.5
3 -21 -6 118.59 20.5
-3 21 6 115.49 24.7
2 -21 -6 35.2 12.3
-2 21 6 15.8 12.6
1 -21 -6 26.9 12.2
-1 21 6 28.5 13.9
0 23 -7 58.29 14.2
0 -23 7 39 12.2
-1 23 -7 13.5 10.3
1 -23 7 -7.5 8.1
-2 23 -7 173.88 27.5
2 -23 7 173.38 26.5
-3 23 -7 97.89 19.6
3 -23 7 83.69 18.2
-4 23 -7 377.06 39.6
4 -23 7 318.37 41
-5 23 -7 9 21.2
1 22 -7 2.8 7.2
-1 -22 7 1.6 8.7
0 22 -7 134.49 18.1
0 -22 7 75.49 18
-1 22 -7 74.49 16.2
1 -22 7 36.9 13.4
-2 22 -7 22.1 10.5
2 -22 7 25 10
-3 22 -7 284.27 31.8
3 -22 7 208.18 26.6
-4 22 -7 16.7 10.1
4 -22 7 46.8 13.2
-5 22 -7 235.48 32.1
-6 22 -7 98.09 25.6
-7 22 -7 45.4 16
-3 -21 7 54.19 25.5
-2 -21 7 44.6 15.9
-2 -21 7 32 11.4
1 21 -7 261.57 26.1
-1 -21 7 267.77 30.1
0 21 -7 -6.9 5.9
0 -21 7 -0.8 6.8
-1 21 -7 61.59 14
1 -21 7 49.6 13.1
-2 21 -7 129.99 21.9
2 -21 7 72.39 16.3
-3 21 -7 56.89 16.3
3 -21 7 35.6 13
4 -21 7 301.27 32
-5 21 -7 3.1 9.9
-6 21 -7 127.99 25.1
-7 21 -7 34.1 15.6
-8 21 -7 147.49 27
8 -21 7 209.18 48.9
-4 -20 7 42.6 15.3
-3 -20 7 66.79 18.5
-3 -20 7 95.19 18
-2 -20 7 80.49 20.3
-2 -20 7 86.89 17.1
1 20 -7 144.69 17.5
-1 -20 7 103.29 19.6
-1 -20 7 126.69 22.4
0 20 -7 316.47 29.5
0 -20 7 267.47 29.7
-1 20 -7 14.8 9.1
1 -20 7 33.2 11.1
-2 20 -7 2 7.7
2 -20 7 -13.3 5.3
-3 20 -7 254.77 29.1
3 -20 7 228.98 26.5
-4 20 -7 -9.2 7.4
4 -20 7 19.5 8.2
-5 20 -7 287.67 32.7
-6 20 -7 8.1 7.8
-7 20 -7 134.19 26.4
7 -20 7 207.58 27.1
-8 20 -7 -9.4 14.8
8 -20 7 28 15.2
-4 -19 7 137.29 20.6
-4 -19 7 142.29 23
-3 -19 7 44.5 13.6
-3 -19 7 29.8 11.2
-2 -19 7 304.67 32.9
-2 -19 7 391.86 38.1
1 19 -7 -2.4 4.9
-1 -19 7 10.5 7.8
-1 -19 7 25.3 12.3
0 19 -7 -0.7 6.9
0 -19 7 -4 10.9
0 -19 7 0.5 5.4
-1 19 -7 46.1 12.5
1 -19 7 52.19 13.4
-2 19 -7 73.89 16.2
2 -19 7 45.1 12
-3 19 -7 157.38 21.6
3 -19 7 159.18 21
-4 19 -7 157.88 26
4 -19 7 102.29 19.1
-5 19 -7 37.9 13.8
-6 19 -7 181.08 30
6 -19 7 149.09 24.6
-7 19 -7 -4.9 5.1
7 -19 7 -14 7.7
-8 19 -7 223.08 31.2
8 -19 7 254.87 28.3
-9 19 -7 -20.4 9.7
9 -19 7 13.7 10.4
-5 -18 7 16 7.2
-5 -18 7 3.9 6.9
-4 -18 7 101.09 19.4
-4 -18 7 96.19 16.8
-3 -18 7 84.59 17.8
-3 -18 7 83.09 17
-2 -18 7 5.7 7.3
-2 -18 7 4.7 9.5
1 18 -7 292.47 26.6
-1 -18 7 272.57 28.9
-1 -18 7 360.56 34.1
0 18 -7 157.48 19.8
0 -18 7 148.49 20.2
0 -18 7 197.28 24.1
-1 18 -7 372.36 32.6
1 -18 7 289.77 29.9
1 -18 7 356.06 36.4
-2 18 -7 751.82 54.69
2 -18 7 603.34 50.29
-3 18 -7 151.48 24
3 -18 7 114.69 19.4
-4 18 -7 96.09 19
4 -18 7 68.99 17.8
4 -18 7 43.1 12.1
-5 18 -7 214.98 27.3
5 -18 7 255.27 30.7
-6 18 -7 63.89 16.6
6 -18 7 76.59 18.4
-7 18 -7 99.79 21.6
7 -18 7 141.89 21.6
-8 18 -7 15.7 12.6
8 -18 7 20.5 10.9
-9 18 -7 41.1 15.1
9 -18 7 22.4 7.4
9 -18 7 15.5 9.6
-6 -17 7 -13.7 7.4
-6 -17 7 5.1 3.2
-6 -17 7 11.2 4.2
-5 -17 7 117.09 17.3
-5 -17 7 154.78 23.6
-4 -17 7 21.9 8
-4 -17 7 13.7 7.8
-3 -17 7 17.4 8.1
-3 -17 7 29.4 10.6
-2 -17 7 131.39 18.1
-2 -17 7 99.09 18.2
1 17 -7 -4.9 4.4
-1 -17 7 -8.7 8.7
0 17 -7 268.17 26.6
0 -17 7 312.27 31.9
0 -17 7 270.17 27
-1 17 -7 226.98 23.5
1 -17 7 160.28 21
1 -17 7 184.78 24.3
-2 17 -7 -3.6 4.8
2 -17 7 21.4 9
2 -17 7 8.8 6
2 -17 7 -9.4 8.4
-3 17 -7 211.18 23.6
3 -17 7 189.28 24.8
3 -17 7 130.59 18.3
-4 17 -7 14.9 7.6
4 -17 7 5.4 9.3
4 -17 7 20.9 10
-5 17 -7 162.38 22.2
5 -17 7 111.29 35.6
-6 17 -7 442.86 43.1
6 -17 7 436.86 39
-7 17 -7 22.5 11.6
7 -17 7 54.29 13.4
-8 17 -7 126.59 25.9
8 -17 7 171.18 19.5
-9 17 -7 -0.6 6.7
9 -17 7 7.1 6.6
9 -17 7 8.1 13
-10 17 -7 61.49 26.4
-6 -16 7 5.9 7.3
-5 -16 7 2.3 5.7
-5 -16 7 -3 4.7
-4 -16 7 209.38 25.3
-4 -16 7 233.08 23
-3 -16 7 41.1 11.6
-3 -16 7 24.8 10
-2 -16 7 229.88 25
-2 -16 7 213.98 23.8
1 16 -7 973.2 66.59
1 16 -7 1002.3 65.39
-1 -16 7 869.11 66.59
-1 -16 7 1033.6 71.89
0 16 -7 152.98 17.6
0 16 -7 114.19 17.6
0 -16 7 118.59 18.4
0 -16 7 162.18 21.7
-1 16 -7 123.99 15.8
-1 16 -7 128.79 17.6
1 -16 7 135.39 19.9
1 -16 7 140.09 25
1 -16 7 122.19 22.5
-2 16 -7 82.59 15.6
-2 16 -7 64.09 12.4
2 -16 7 61.39 12.6
2 -16 7 59.19 16.4
2 -16 7 60.09 16.7
-3 16 -7 10.4 5.7
-3 16 -7 2.5 6.9
3 -16 7 15.5 7.1
3 -16 7 0.9 8.1
3 -16 7 4.8 6.6
-4 16 -7 359.56 34.4
-4 16 -7 296.17 40.7
4 -16 7 354.56 34.6
-5 16 -7 15 8.8
5 -16 7 24.3 11.2
-6 16 -7 53.29 15.7
6 -16 7 79.39 17
-7 16 -7 22.2 11.1
7 -16 7 40 10.8
-8 16 -7 74.49 20.2
8 -16 7 87.99 14.3
-9 16 -7 140.99 27.5
9 -16 7 187.48 15.4
9 -16 7 151.98 16.2
-10 16 -7 10.8 8.4
-6 -15 7 13.9 6.6
-6 -15 7 23.1 10.5
-5 -15 7 34.2 10.5
-5 -15 7 34.9 9.3
-4 -15 7 -7.7 4.9
-4 -15 7 -10 4.6
-3 -15 7 17.8 8.9
-3 -15 7 1.5 7.5
2 15 -7 386.56 33.3
-2 -15 7 413.66 35.6
-2 -15 7 391.26 34.1
1 15 -7 244.58 22.5
1 15 -7 223.28 22.8
-1 -15 7 233.78 24
-1 -15 7 274.87 33.2
-1 -15 7 245.18 26.7
0 15 -7 3.6 5.7
0 15 -7 23.1 7.4
0 -15 7 10.7 7.8
0 -15 7 11.8 6.4
0 -15 7 26.4 9.4
-1 15 -7 521.25 39.9
-1 15 -7 489.05 39.6
1 -15 7 466.75 38.5
1 -15 7 554.64 45.2
1 -15 7 524.75 46.4
-2 15 -7 1122.29 75.39
-2 15 -7 1196.88 79.49
2 -15 7 1153.58 85.79
2 -15 7 1131.29 102.89
2 -15 7 1166.48 76.89
-3 15 -7 547.85 44.9
-3 15 -7 541.65 40.5
3 -15 7 492.35 40.8
3 -15 7 563.24 46.9
3 -15 7 550.64 48
-4 15 -7 552.24 45.4
-4 15 -7 510.45 40.1
4 -15 7 545.35 47.6
4 -15 7 517.25 44.4
-5 15 -7 60.49 14
-5 15 -7 58.79 14.7
5 -15 7 51.99 12.9
-6 15 -7 91.39 20.5
6 -15 7 123.29 16.4
-7 15 -7 101.89 21.8
7 -15 7 177.18 18.8
-8 15 -7 19.2 11.1
8 -15 7 27.6 8.1
8 -15 7 31 7
-9 15 -7 -2.2 6.5
9 -15 7 5.2 3.5
9 -15 7 8.8 4.5
-10 15 -7 82.69 19.5
-7 -14 7 54.89 13.6
-6 -14 7 97.09 11.5
-6 -14 7 92.79 17.9
-5 -14 7 4.9 7
-5 -14 7 20.9 9.9
-4 -14 7 260.37 24.6
-4 -14 7 278.47 27.1
3 14 -7 10.8 5.7
-3 -14 7 7.5 6
-3 -14 7 2.9 5.7
2 14 -7 198.68 20.6
-2 -14 7 213.58 22
-2 -14 7 185.88 20.6
1 14 -7 40.4 9.8
1 14 -7 48.7 9.7
-1 -14 7 64.19 13.2
-1 -14 7 51.19 11.7
0 14 -7 82.09 14.2
0 14 -7 79.39 12.9
0 -14 7 83.89 16.8
0 -14 7 79.79 13.9
-1 14 -7 674.13 49.8
-1 14 -7 664.23 47.7
1 -14 7 760.22 55.39
1 -14 7 674.93 48.8
-2 14 -7 452.45 34.1
-2 14 -7 442.76 36.7
2 -14 7 435.76 39.4
2 -14 7 416.56 34
-3 14 -7 896.61 63.79
-3 14 -7 862.51 58.79
3 -14 7 806.62 59.69
3 -14 7 941.81 65.89
3 -14 7 866.31 69.09
-4 14 -7 1020.7 71.89
-4 14 -7 948.71 65.79
4 -14 7 979 73.89
4 -14 7 1023.5 70.89
-5 14 -7 268.97 24.9
-5 14 -7 318.37 30.7
5 -14 7 262.67 26.5
5 -14 7 231.98 30
-6 14 -7 372.66 37.9
6 -14 7 434.06 34.6
-7 14 -7 11.5 10.3
7 -14 7 36.7 8.7
-8 14 -7 63.19 16.7
8 -14 7 61.69 8.5
8 -14 7 50.49 9.3
-9 14 -7 14.7 9.9
9 -14 7 19.8 3.4
9 -14 7 19.4 3
-10 14 -7 -17.8 8.3
-11 14 -7 122.09 25.9
-8 -13 7 24.9 11.6
-7 -13 7 -6.8 6.4
-6 -13 7 63.39 10.1
-6 -13 7 67.39 14.3
-5 -13 7 29.8 9.8
4 13 -7 183.78 20.2
-4 -13 7 180.48 19.1
-4 -13 7 181.98 20.8
3 13 -7 149.19 32.1
-3 -13 7 168.78 19.6
-3 -13 7 224.28 21.3
2 13 -7 253.57 23.7
-2 -13 7 283.67 24.8
-2 -13 7 258.27 25.4
1 13 -7 342.77 26.3
1 13 -7 276.67 25.3
-1 -13 7 363.76 30.2
-1 -13 7 284.47 26
0 13 -7 243.08 21.4
0 13 -7 218.38 21.6
0 -13 7 241.28 21.8
0 -13 7 248.38 25.3
-1 13 -7 3 5.2
-1 13 -7 0.7 4.3
1 -13 7 1.2 3
1 -13 7 1.3 5.8
-2 13 -7 452.55 36.8
-2 13 -7 456.95 34
2 -13 7 442.76 34.4
2 -13 7 446.76 39.4
-3 13 -7 22.9 7.5
3 -13 7 30.8 8.4
3 -13 7 22.4 8.1
-4 13 -7 733.83 52.39
-4 13 -7 833.22 58.89
4 -13 7 752.82 60.49
4 -13 7 771.72 56.39
-5 13 -7 1188.88 74.49
-5 13 -7 939.31 65.49
5 -13 7 906.11 72.39
5 -13 7 944.11 67.69
-6 13 -7 2082.69 130.79
-6 13 -7 2078.99 137.19
6 -13 7 2066.39 139.19
6 -13 7 2218.98 130.99
-7 13 -7 81.59 22.9
7 -13 7 98.79 12.8
7 -13 7 90.89 11.3
-8 13 -7 213.78 26.4
8 -13 7 203.68 16.2
8 -13 7 206.48 17.2
-9 13 -7 163.08 27.4
-10 13 -7 0.2 9.8
-11 13 -7 42.7 13
-8 -12 7 157.18 24.1
-7 -12 7 32.6 10.7
-7 -12 7 28.7 5.5
-7 -12 7 34.2 6
-6 -12 7 -4.7 3.9
5 12 -7 717.63 49.9
-5 -12 7 626.54 49.3
-5 -12 7 611.84 56.79
4 12 -7 106.59 20.3
-4 -12 7 100.19 16
-4 -12 7 84.89 12.1
3 12 -7 7.3 4.9
-3 -12 7 10.2 6.1
-3 -12 7 -0.8 4.5
2 12 -7 351.06 30
-2 -12 7 415.56 31.7
-2 -12 7 404.56 32.5
1 12 -7 233.88 20.7
1 12 -7 215.68 20.5
-1 -12 7 241.68 21.8
-1 -12 7 269.77 24.4
0 12 -7 49.4 10
0 12 -7 61.39 10.3
0 -12 7 48.6 10.1
0 -12 7 63.99 13
-1 12 -7 1112.59 70.79
-1 12 -7 1015.3 67.59
1 -12 7 1022.4 68.49
1 -12 7 1116.69 74.29
-2 12 -7 1600.84 100.49
-2 12 -7 1640.84 104.39
2 -12 7 1662.33 101.69
2 -12 7 1655.63 107.59
-3 12 -7 1141.99 75.09
-3 12 -7 1064.19 69.79
3 -12 7 1075.69 76.69
-4 12 -7 4.3 4.6
-4 12 -7 3.9 4.7
4 -12 7 3.1 5.4
-5 12 -7 536.85 44.5
5 -12 7 500.35 40.1
5 -12 7 580.64 47
-6 12 -7 1101.69 69.49
-6 12 -7 968.3 73.39
6 -12 7 1029.7 75.99
6 -12 7 965.9 82.69
-7 12 -7 55.29 13.8
7 -12 7 67.29 9.5
7 -12 7 59.69 8.3
7 -12 7 48.7 16.8
-8 12 -7 122.99 23.1
8 -12 7 110.19 9.6
8 -12 7 104.99 10.2
-9 12 -7 5.7 8.7
-10 12 -7 143.79 25.9
-11 12 -7 87.29 19.7
-9 -11 7 9 10.3
-8 -11 7 -4.4 7.6
-7 -11 7 2.1 3.5
-7 -11 7 6.5 8.1
-7 -11 7 7.1 3.9
6 11 -7 737.63 50.59
-6 -11 7 570.74 42.2
-6 -11 7 635.34 48.6
5 11 -7 394.26 33.3
-5 -11 7 401.76 30.2
-5 -11 7 383.86 33.1
4 11 -7 613.64 44
-4 -11 7 625.14 42.6
-4 -11 7 540.65 43.4
3 11 -7 635.34 46.5
-3 -11 7 722.43 47.6
-3 -11 7 638.14 46.9
2 11 -7 2170.48 133.29
-2 -11 7 2307.47 135.69
-2 -11 7 2162.88 133.79
1 11 -7 912.81 62.19
1 11 -7 1022.6 63.29
-1 -11 7 910.71 62.79
-1 -11 7 1059.99 66.89
0 11 -7 142.99 14.3
0 11 -7 154.68 15.5
0 -11 7 150.38 14.9
0 -11 7 122.39 16.4
-1 11 -7 727.33 50.39
-1 11 -7 722.73 48
1 -11 7 720.13 48.5
1 -11 7 718.83 52.89
-2 11 -7 6.3 4.9
-2 11 -7 6.6 4.5
2 -11 7 0.3 3
2 -11 7 2.9 2.7
-3 11 -7 29 6.9
-3 11 -7 36.4 9.9
3 -11 7 28.6 9.3
-4 11 -7 412.26 31.4
-4 11 -7 474.65 36.9
4 -11 7 357.96 35.2
-5 11 -7 9.9 5.9
-5 11 -7 19.6 8
5 -11 7 10 6.5
-6 11 -7 465.15 40.9
-6 11 -7 479.35 37.4
6 -11 7 475.05 32.9
6 -11 7 489.85 42.4
6 -11 7 475.95 34.9
-7 11 -7 347.27 34.7
-7 11 -7 351.06 46.8
7 -11 7 378.36 25.7
7 -11 7 381.36 36.6
7 -11 7 368.96 26.8
-8 11 -7 536.95 48.4
8 -11 7 583.94 33.9
-9 11 -7 192.78 25.8
-10 11 -7 9.5 10.9
-11 11 -7 159.08 28.2
-9 -10 7 5.4 10.1
-8 -10 7 108.69 9.4
-8 -10 7 136.19 21.3
-8 -10 7 110.99 9.6
-7 -10 7 268.57 21.8
-7 -10 7 287.47 29.9
-7 -10 7 270.97 20.9
6 10 -7 278.47 26
-6 -10 7 251.07 20.8
-6 -10 7 242.78 21.1
-6 -10 7 280.17 26.6
5 10 -7 313.07 27.1
-5 -10 7 294.27 26.7
-5 -10 7 281.57 23.1
4 10 -7 45.3 9.6
-4 -10 7 34.5 12.8
-4 -10 7 20 7.9
3 10 -7 1055.69 65.49
-3 -10 7 1095.79 65.59
-3 -10 7 850.31 64.09
2 10 -7 -6.3 2.8
-2 -10 7 12.3 5.2
-2 -10 7 3.4 3
1 10 -7 642.14 42
1 10 -7 579.14 46.2
-1 -10 7 647.44 45.2
-1 -10 7 615.94 42.4
0 10 -7 -1 2.7
0 10 -7 2.4 2.9
0 -10 7 6.3 4.8
0 -10 7 0.2 3
-1 10 -7 568.54 40.3
-1 10 -7 559.34 37.7
1 -10 7 585.14 42.7
1 -10 7 515.95 37.9
-2 10 -7 770.42 49.5
-2 10 -7 792.52 53.29
2 -10 7 710.03 49.8
2 -10 7 755.12 54.59
-3 10 -7 398.86 29
-3 10 -7 449.06 34.1
3 -10 7 327.87 32.4
-4 10 -7 516.95 37.6
-4 10 -7 573.84 42.7
4 -10 7 513.25 42.7
-5 10 -7 1289.17 80.49
-5 10 -7 1291.07 84.99
5 -10 7 1194.58 76.99
5 -10 7 1266.47 86.49
-6 10 -7 586.84 40.4
-6 10 -7 502.15 42.5
6 -10 7 483.85 44
6 -10 7 511.35 34.1
6 -10 7 500.45 36
-7 10 -7 258.17 24.1
-7 10 -7 241.98 26
7 -10 7 228.48 16.9
7 -10 7 233.48 17.8
7 -10 7 214.08 26.3
-8 10 -7 371.96 36.4
8 -10 7 379.36 37.6
-9 10 -7 191.08 33.8
-10 10 -7 107.39 21.5
-11 10 -7 15.3 10.1
-10 -9 7 97.69 20.3
-10 -9 7 89.49 19.4
-9 -9 7 58.79 15.1
-8 -9 7 28.2 10.1
-8 -9 7 14.5 4.8
-8 -9 7 28.6 6.9
7 9 -7 605.14 43.3
-7 -9 7 463.85 35.4
-7 -9 7 470.15 40.7
-7 -9 7 490.75 33.8
6 9 -7 769.12 50.79
-6 -9 7 664.73 48.2
-6 -9 7 594.74 42.2
-6 -9 7 596.44 43.3
5 9 -7 534.65 37.1
-5 -9 7 472.05 36.3
-5 -9 7 408.96 32
4 9 -7 360.46 28.4
-4 -9 7 319.97 27.9
-4 -9 7 386.56 28.4
3 9 -7 34.2 7.6
-3 -9 7 22.5 8
-3 -9 7 19.2 6.4
2 9 -7 1301.17 80.29
-2 -9 7 1391.76 82.09
-2 -9 7 1188.48 84.09
1 9 -7 2235.88 133.99
-1 -9 7 2251.87 134.59
-1 -9 7 2327.27 137.19
0 9 -7 673.03 42.6
0 -9 7 684.13 46.5
0 -9 7 597.44 42.3
-1 9 -7 1729.73 100.29
-1 9 -7 1745.13 103.49
1 -9 7 1505.15 99.99
1 -9 7 1721.13 105.29
-2 9 -7 360.96 25.6
-2 9 -7 371.86 29.1
2 -9 7 370.66 30.4
2 -9 7 294.57 28.4
-3 9 -7 1671.73 102.69
-3 9 -7 1597.64 98.19
3 -9 7 1595.54 103.89
-4 9 -7 604.84 43.1
-4 9 -7 691.53 48.3
4 -9 7 619.34 48.5
-5 9 -7 75.39 14.4
-5 9 -7 95.29 12.1
5 -9 7 81.29 9.2
5 -9 7 94.99 17.1
-6 9 -7 9.9 6.9
6 -9 7 14.9 4.2
6 -9 7 26.9 9.1
-7 9 -7 143.69 21.2
7 -9 7 210.28 46.5
7 -9 7 189.48 13.7
7 -9 7 204.88 14.2
-8 9 -7 354.56 36.1
8 -9 7 436.56 38.8
-9 9 -7 329.67 34.7
9 -9 7 360.46 41.5
-10 9 -7 44.8 14.5
-11 9 -7 123.69 21.7
-10 -8 7 7.7 10.9
-10 -8 7 17.5 12.7
-9 -8 7 113.59 11.8
-9 -8 7 134.09 21.8
-9 -8 7 120.69 10.4
-9 -8 7 141.19 22.3
-8 -8 7 174.58 16.6
-8 -8 7 135.99 13.3
-8 -8 7 215.98 31
-7 -8 7 -0.9 3
-7 -8 7 -5.2 4.9
-7 -8 7 8.3 4.6
6 8 -7 139.49 16.6
-6 -8 7 113.69 13
-6 -8 7 118.49 11.9
-6 -8 7 124.59 16.1
5 8 -7 294.77 24.7
-5 -8 7 244.18 23.6
-5 -8 7 276.07 21.2
4 8 -7 6.5 4.1
-4 -8 7 9.7 5.6
-4 -8 7 16 4.7
3 8 -7 435.76 30.3
-3 -8 7 438.66 30.1
-3 -8 7 341.27 32.2
2 8 -7 0 3
-2 -8 7 -0.4 2.6
1 8 -7 4420.86 255.47
-1 -8 7 4436.96 255.97
-1 -8 7 4473.25 258.47
0 8 -7 14.7 5.2
0 8 -7 14.2 4.5
0 -8 7 11 4
0 -8 7 12 5.1
-1 8 -7 605.54 38.1
-1 8 -7 586.64 50.99
1 -8 7 551.44 38.1
1 -8 7 584.64 42
-2 8 -7 1816.62 108.09
-2 8 -7 1748.93 104.09
2 -8 7 1678.53 108.79
-3 8 -7 15.5 5
-3 8 -7 23.3 7.1
3 -8 7 31.9 8.4
-4 8 -7 199.88 19.9
-4 8 -7 174.48 16.6
4 -8 7 159.78 18.8
4 -8 7 169.08 14.8
-5 8 -7 297.67 27.2
5 -8 7 262.97 26.9
5 -8 7 282.97 20.6
-6 8 -7 21.1 7.1
6 -8 7 28 10
6 -8 7 23.9 4.8
-7 8 -7 492.45 41.1
7 -8 7 455.05 41.3
7 -8 7 519.45 29.6
7 -8 7 481.25 29.4
-8 8 -7 4.2 7.9
8 -8 7 10.3 8.5
-9 8 -7 13.4 8.9
9 -8 7 1.7 8.9
-10 8 -7 245.28 27.8
-11 8 -7 33.3 13.1
-10 -7 7 117.19 10.9
-10 -7 7 127.89 21.9
-10 -7 7 102.89 9.5
-10 -7 7 140.59 19.3
-10 -7 7 129.49 31.3
-9 -7 7 31.8 12.2
-9 -7 7 23 7
-9 -7 7 5.4 10.3
-9 -7 7 22.7 9.1
-9 -7 7 18.2 4.7
-8 -7 7 590.14 45
-8 -7 7 498.85 35.5
-8 -7 7 575.44 45
-8 -7 7 528.45 39.4
-7 -7 7 945.01 61.89
-7 -7 7 1046 66.19
-7 -7 7 1029.7 69.59
6 7 -7 31 8.3
-6 -7 7 13.6 5.6
-6 -7 7 20.4 5
-6 -7 7 25 7.9
5 7 -7 808.82 50.59
-5 -7 7 685.33 46.5
-5 -7 7 704.63 50.09
4 7 -7 188.38 17.4
-4 -7 7 203.28 16.5
-4 -7 7 171.68 17
3 7 -7 671.53 47.9
-3 -7 7 743.23 44.8
-3 -7 7 613.04 44
2 7 -7 1384.76 81.79
-2 -7 7 1299.57 81.59
-2 -7 7 1371.56 82.89
1 7 -7 1277.47 75.09
-1 -7 7 1228.28 75.29
-1 -7 7 1242.88 78.39
0 7 -7 3497.95 202.78
0 7 -7 3651.73 205.58
0 -7 7 3402.76 202.98
0 -7 7 3558.34 206.98
-1 7 -7 1234.58 73.89
-1 7 -7 1242.28 70.89
1 -7 7 1179.48 74.79
1 -7 7 1039 70.49
-2 7 -7 142.49 12.7
-2 7 -7 146.59 18.4
2 -7 7 157.08 16.5
-3 7 -7 1121.39 68.09
-3 7 -7 1192.88 71.59
3 -7 7 1042.1 71.79
3 -7 7 1028.5 67.09
-4 7 -7 337.17 28.1
4 -7 7 339.57 29.1
4 -7 7 313.87 23.2
-5 7 -7 1021.2 70.09
5 -7 7 1085.79 71.99
5 -7 7 1033.4 63.49
-6 7 -7 253.47 26.1
6 -7 7 298.47 19.9
6 -7 7 287.07 27.8
-7 7 -7 46.2 11.6
7 -7 7 42.4 11.8
-8 7 -7 73.99 15.7
8 -7 7 95.89 17.6
-9 7 -7 -1.3 5.7
9 -7 7 10.5 9.5
-10 7 -7 170.28 22.1
10 -7 7 175.78 23.9
-11 7 -7 29.9 13.1
-11 7 -7 51.79 15.7
-10 -6 7 -11.2 10.9
-10 -6 7 3.1 5.1
-10 -6 7 -1.4 3.1
-10 -6 7 3.2 6.9
-10 -6 7 2.1 8.2
-9 -6 7 101.29 13.3
-9 -6 7 99.39 17.3
-9 -6 7 73.89 16.3
-8 -6 7 285.87 28.7
-8 -6 7 275.37 25.8
-8 -6 7 324.87 29.2
-7 -6 7 423.66 33.8
-7 -6 7 346.37 32.3
-7 -6 7 374.56 30.6
-6 -6 7 212.78 20.3
-6 -6 7 239.08 21.8
5 6 -7 125.39 14.1
-5 -6 7 114.39 13.7
4 6 -7 2.3 2.9
-4 -6 7 3.7 3.2
3 6 -7 695.93 43
-3 -6 7 596.84 42.4
-3 -6 7 688.73 43.2
2 6 -7 1543.45 88.99
-2 -6 7 1349.36 88.59
-2 -6 7 1596.14 90.69
1 6 -7 1965.3 114.29
-1 -6 7 2002.4 114.69
-1 -6 7 1916.31 116.79
0 6 -7 131.99 10.5
0 -6 7 128.19 12.5
0 -6 7 112.69 10.2
-1 6 -7 200.98 15.2
-1 6 -7 207.78 17.5
1 -6 7 209.28 21.7
-2 6 -7 5480.95 307.07
-2 6 -7 5263.97 303.77
2 -6 7 5384.06 307.87
2 -6 7 5122.19 304.77
-3 6 -7 2782.92 196.18
3 -6 7 3139.39 180.48
3 -6 7 3358.66 186.08
-4 6 -7 2438.86 138.09
4 -6 7 2139.59 132.19
4 -6 7 2236.48 138.59
-5 6 -7 -3.1 4
5 -6 7 0.6 4.7
5 -6 7 -1.8 2.3
-6 6 -7 479.65 40
6 -6 7 549.95 33.5
6 -6 7 547.35 42.2
-7 6 -7 173.18 20.2
7 -6 7 220.18 22.8
-8 6 -7 5.7 6.7
8 -6 7 31.5 9.9
-9 6 -7 202.28 22.2
9 -6 7 161.08 22.9
-10 6 -7 110.69 19.7
-10 6 -7 148.49 24.1
10 -6 7 143.99 22.7
-11 6 -7 24.4 13.4
-11 6 -7 54.29 12.5
11 -6 7 56.49 16.2
-11 -5 7 -13.5 13
-11 -5 7 15.6 6.3
-11 -5 7 18.5 9.8
-11 -5 7 15.2 9.2
-10 -5 7 23.7 23.7
-10 -5 7 55.29 14
-10 -5 7 47.4 10.6
-10 -5 7 28.4 10.5
-9 -5 7 -4.3 5.3
-9 -5 7 -3.5 8.9
-9 -5 7 0.2 5.6
-8 -5 7 1.3 5
-8 -5 7 6.5 4.8
-8 -5 7 2.3 5.6
-7 -5 7 915.61 63.09
-7 -5 7 934.81 64.59
-7 -5 7 936.51 63.89
-6 -5 7 44.2 9.3
-6 -5 7 44.2 9.6
-6 -5 7 51.39 11.4
5 5 -7 3551.34 195.28
-5 -5 7 3082.99 194.88
4 5 -7 521.65 33.5
-4 -5 7 438.66 32.9
3 5 -7 459.95 29.5
-3 -5 7 404.16 28.9
2 5 -7 324.77 21.4
-2 -5 7 296.97 21.2
1 5 -7 2457.45 139.89
-1 -5 7 2429.96 140.09
-1 -5 7 2402.76 142.59
0 5 -7 2975.9 169.18
0 -5 7 3065.79 172.88
0 -5 7 2773.12 169.18
0 -5 7 3006.8 173.28
-1 5 -7 71.39 8.4
-1 5 -7 55.09 6.2
1 -5 7 49.3 8.1
1 -5 7 59.89 8.2
-2 5 -7 1421.46 81.09
2 -5 7 1237.28 78.29
2 -5 7 1237.78 85.29
-3 5 -7 629.64 41.8
3 -5 7 571.94 38.4
3 -5 7 586.04 42.2
4 -5 7 404.46 28
4 -5 7 426.26 32.9
-5 5 -7 2274.17 141.49
5 -5 7 2446.76 143.89
5 -5 7 2306.07 136.29
-6 5 -7 92.39 13
6 -5 7 126.59 15.6
6 -5 7 115.89 9.7
-7 5 -7 168.98 18.5
7 -5 7 166.48 19.3
-8 5 -7 41.6 10.5
8 -5 7 42.2 10.8
-9 5 -7 126.09 21.4
-9 5 -7 133.09 16.6
9 -5 7 104.29 17.9
-10 5 -7 81.79 18.3
-10 5 -7 79.59 15.3
10 -5 7 102.79 31.1
-11 5 -7 52.19 10.9
-11 5 -7 34.7 11.1
11 -5 7 36.8 14.5
-11 -4 7 -31.2 11.2
-11 -4 7 1.9 8
-11 -4 7 17.3 7.3
-11 -4 7 -13.5 15
-10 -4 7 59.19 12.7
-10 -4 7 56.09 14.9
-10 -4 7 53.79 15.9
-10 -4 7 57.99 12.6
-9 -4 7 33.6 10.9
-9 -4 7 40.8 10.6
-9 -4 7 32.2 9.2
-8 -4 7 72.39 13.3
-8 -4 7 54.89 12.7
-7 -4 7 484.45 38.4
-7 -4 7 488.85 38.9
-7 -4 7 529.85 39.3
-6 -4 7 531.95 39.1
-6 -4 7 572.04 41.1
-6 -4 7 505.25 39.3
-5 -4 7 414.46 33.1
-5 -4 7 488.75 33.1
-5 -4 7 440.96 34.4
4 4 -7 1010.3 59.59
-4 -4 7 893.01 59.19
3 4 -7 699.13 41.5
-3 -4 7 684.73 45.4
-3 -4 7 593.84 41
2 4 -7 4069.99 229.38
-2 -4 7 3841.62 229.28
-2 -4 7 4163.78 234.58
1 4 -7 1428.66 82.59
-1 -4 7 1451.15 87.39
-1 -4 7 1401.76 82.59
0 4 -7 344.47 21.4
0 -4 7 314.67 24.5
0 -4 7 347.77 24.5
-1 4 -7 2477.95 139.39
1 -4 7 2441.86 142.39
1 -4 7 2324.57 141.49
-2 4 -7 27.7 6.1
2 -4 7 26.5 6.4
2 -4 7 21.5 5
-3 4 -7 1477.65 86.19
3 -4 7 1358.26 89.99
3 -4 7 1335.07 83.29
-4 4 -7 4840.82 289.77
4 -4 7 5059.99 287.07
4 -4 7 5120.99 291.67
-5 4 -7 1289.37 93.49
5 -4 7 1458.65 85.29
5 -4 7 1517.35 91.39
-6 4 -7 998.6 70.29
6 -4 7 1143.09 65.59
6 -4 7 1110.59 72.69
-7 4 -7 7.8 5.4
7 -4 7 10.4 6
-8 4 -7 35.9 10.1
-8 4 -7 56.59 16.2
8 -4 7 49.3 12.2
-9 4 -7 84.99 17.4
-9 4 -7 88.09 14.6
9 -4 7 92.09 15.5
-10 4 -7 117.29 21.1
-10 4 -7 99.29 15.7
10 -4 7 99.79 17.3
-11 4 -7 66.99 15.8
11 -4 7 103.79 19.5
-11 -3 7 35.5 13.4
-11 -3 7 21.4 10.2
-11 -3 7 29.3 8.9
-11 -3 7 34.5 13.3
-10 -3 7 65.69 12.9
-10 -3 7 80.99 16.7
-10 -3 7 69.99 15.4
-9 -3 7 251.77 24.4
-9 -3 7 289.47 27
-9 -3 7 218.18 25
-8 -3 7 -2.5 5.7
-8 -3 7 9.2 5.6
-8 -3 7 2.2 4.8
-7 -3 7 185.38 19.4
-7 -3 7 172.48 18.4
-6 -3 7 51.49 9.5
-6 -3 7 36.6 8.7
-6 -3 7 53.39 10.7
-5 -3 7 176.88 20.9
-5 -3 7 160.28 16.6
-5 -3 7 180.58 15.8
-4 -3 7 51.49 9.6
-4 -3 7 53.69 7
3 3 -7 6153.58 360.56
-3 -3 7 6174.08 360.76
-3 -3 7 6723.33 365.56
2 3 -7 236.38 15.9
-2 -3 7 242.28 15.9
-2 -3 7 251.77 20.2
1 3 -7 3709.43 196.68
-1 -3 7 3466.95 201.48
-1 -3 7 3226.68 196.38
0 3 -7 1494.45 83.69
0 3 -7 1425.16 87.59
0 -3 7 1429.76 87.59
-1 3 -7 87.29 9.6
1 -3 7 104.29 10.3
1 -3 7 91.39 9.6
-2 3 -7 1904.11 110.09
2 -3 7 1764.02 109.59
2 -3 7 1896.31 110.99
-3 3 -7 46.6 6.4
-3 3 -7 40.7 7.7
3 -3 7 47.6 7.7
3 -3 7 53.89 9.2
-4 3 -7 636.64 39.4
-4 3 -7 575.34 41.2
4 -3 7 640.84 40.1
4 -3 7 566.44 46.4
-5 3 -7 404.16 29.4
-5 3 -7 444.66 32.8
5 -3 7 484.05 30.8
5 -3 7 475.85 34.8
-6 3 -7 100.09 9.3
-6 3 -7 111.29 13.4
6 -3 7 132.39 14.3
6 -3 7 99.39 9.9
-7 3 -7 911.71 61.59
-7 3 -7 766.22 55.69
7 -3 7 859.51 58.59
-8 3 -7 8.3 5
8 -3 7 2.7 6.6
-9 3 -7 75.89 17.2
-9 3 -7 78.99 13.5
9 -3 7 98.59 15.7
-10 3 -7 63.49 11
-10 3 -7 41.4 12.4
10 -3 7 47.3 12.7
-11 3 -7 34.3 20.2
11 -3 7 15.8 10.4
-11 -2 7 -4.5 8.8
-11 -2 7 13.9 7.9
-11 -2 7 5.2 9.9
-10 -2 7 164.58 22.5
-10 -2 7 147.49 17.6
-10 -2 7 181.28 22.5
-9 -2 7 92.99 18
-9 -2 7 123.09 15.1
-9 -2 7 117.89 18.6
-8 -2 7 40.7 10
-8 -2 7 28.6 9.9
-8 -2 7 33.5 9.1
-7 -2 7 21.2 6.5
-7 -2 7 5.5 5.1
-7 -2 7 2.4 6.1
-6 -2 7 1.1 3.1
-6 -2 7 -5.7 2.8
-6 -2 7 -0.6 2.6
-5 -2 7 37.8 8.2
-5 -2 7 35.8 7.1
-5 -2 7 44 9.6
-4 -2 7 1350.56 81.19
-4 -2 7 1240.78 77.59
-3 -2 7 720.43 46.1
-3 -2 7 657.03 41.7
2 2 -7 100.99 10.6
-2 -2 7 105.49 7.4
-2 -2 7 101.09 11.1
1 2 -7 445.76 32.4
1 2 -7 490.95 27.7
-1 -2 7 491.65 33
0 2 -7 391.96 27.8
0 -2 7 401.86 28.1
-1 2 -7 171.48 14.5
1 -2 7 164.18 14.6
1 -2 7 167.18 14.2
-2 2 -7 794.22 49.1
2 -2 7 776.82 49.2
2 -2 7 735.43 49.1
-3 2 -7 5773.22 320.97
3 -2 7 5512.95 321.87
3 -2 7 5510.05 321.17
-4 2 -7 664.43 50.99
-4 2 -7 930.61 51.89
4 -2 7 832.92 51.79
4 -2 7 813.92 53.39
-5 2 -7 301.97 24
-5 2 -7 317.67 25.6
-5 2 -7 387.86 29.6
5 -2 7 400.06 25.8
5 -2 7 347.37 31.3
-6 2 -7 57.89 7.5
-6 2 -7 85.69 14.6
-6 2 -7 82.09 9.7
6 -2 7 69.39 8.5
6 -2 7 65.39 11.6
-7 2 -7 17.6 8.5
-7 2 -7 9.9 6.1
-7 2 -7 21.3 4.3
7 -2 7 20.2 7.1
-8 2 -7 504.65 42.1
-8 2 -7 477.45 35.7
8 -2 7 490.05 38
-9 2 -7 10.2 5.5
-9 2 -7 11.7 8.9
9 -2 7 20.5 8
-10 2 -7 156.98 24.9
10 -2 7 143.99 18.2
-11 2 -7 -9.9 7.3
11 -2 7 7.2 9
-11 -1 7 248.48 24.5
-11 -1 7 236.08 28.7
-11 -1 7 306.17 31.6
-11 -1 7 233.88 26.4
-10 -1 7 35.3 12.2
-10 -1 7 30.8 10.6
-10 -1 7 24.5 8.1
-9 -1 7 38.3 11.4
-9 -1 7 22.5 9
-9 -1 7 35.4 8.6
-8 -1 7 300.37 29.5
-8 -1 7 289.07 26.5
-8 -1 7 293.07 26
-7 -1 7 701.23 50.99
-7 -1 7 756.82 54.69
-7 -1 7 752.22 51.39
-6 -1 7 708.73 53.29
-6 -1 7 729.13 49.8
-6 -1 7 739.53 54.69
-5 -1 7 258.07 22.8
-5 -1 7 229.68 20.6
-5 -1 7 249.38 19.8
-4 -1 7 1350.16 85.69
-4 -1 7 1414.16 84.39
-4 -1 7 1301.57 80.79
3 1 -7 8.4 4.1
-3 -1 7 30.9 6.6
-3 -1 7 13.5 3
2 1 -7 1617.04 100.59
-2 -1 7 1701.13 95.19
-2 -1 7 1706.43 101.39
1 1 -7 5122.99 293.47
-1 -1 7 5087.99 293.77
0 1 -7 1342.87 79.79
0 1 -7 1429.46 84.29
0 -1 7 1394.16 84.49
-1 1 -7 1044 63.69
-1 1 -7 1091.09 66.39
1 -1 7 1072.89 66.69
-2 1 -7 400.76 28.7
-2 1 -7 423.46 29.7
2 -1 7 437.46 30.3
2 -1 7 428.56 29
-3 1 -7 188.88 16.8
-3 1 -7 206.98 16.7
3 -1 7 185.48 16.1
3 -1 7 198.88 17.1
-4 1 -7 622.34 45.7
-4 1 -7 733.43 44.8
4 -1 7 673.73 44.9
4 -1 7 652.13 44.4
-5 1 -7 69.19 9
-5 1 -7 79.79 13
5 -1 7 82.89 10
5 -1 7 90.99 10.7
-6 1 -7 63.19 12.7
-6 1 -7 44.1 7.7
6 -1 7 62.79 8.2
-7 1 -7 150.98 13.2
-7 1 -7 141.39 18.7
7 -1 7 158.38 16.7
-8 1 -7 311.97 29.6
-8 1 -7 232.38 18.4
8 -1 7 273.57 23.7
-9 1 -7 281.07 29.7
9 -1 7 257.07 23.7
-10 1 -7 6.9 5.9
10 -1 7 7.5 6.5
-11 1 -7 27.8 14.6
11 -1 7 37.4 10.2
-12 0 7 76.19 17.8
-12 0 7 44.3 14
-11 0 7 87.19 19.2
-11 0 7 49.5 14.4
-11 0 7 84.79 14.1
-10 0 7 132.69 24.4
-10 0 7 158.38 17.9
-10 0 7 159.78 25.6
-9 0 7 110.19 20.6
-9 0 7 104.09 18.2
-9 0 7 121.09 15
-8 0 7 123.29 15.7
-8 0 7 116.39 15.7
-8 0 7 156.98 20
-7 0 7 0 2.7
-7 0 7 3.5 4.2
-7 0 7 11.9 6.5
-6 0 7 43.4 9
-6 0 7 49 11.5
-6 0 7 55.29 9.4
-5 0 7 301.77 26
-5 0 7 268.87 20.9
-5 0 7 257.27 22.2
4 0 -7 1331.87 79.59
-4 0 7 1280.57 77.19
-4 0 7 1276.37 82.59
-4 0 7 1271.27 80.29
3 0 -7 246.28 19.9
-3 0 7 264.27 20.9
-3 0 7 241.88 16.6
2 0 -7 1112.39 70.39
-2 0 7 1171.78 71.59
-2 0 7 1174.88 64.89
-2 0 7 1104.09 64.99
1 0 -7 32.6 2.3
1 0 -7 30.4 6.2
-1 0 7 22.2 5.5
0 0 -7 1780.22 105.19
0 0 -7 1899.21 109.99
0 0 7 1824.12 110.29
-1 0 -7 1070.59 66.49
-1 0 -7 1035.5 63.39
1 0 7 1073.89 66.89
-2 0 -7 1942.91 120.09
-2 0 -7 2160.18 122.19
2 0 7 1991 122.09
2 0 7 2064.79 119.99
-3 0 -7 276.67 22
-3 0 -7 252.67 21.1
3 0 7 269.37 20.3
3 0 7 281.07 22.1
-4 0 -7 1064.09 61.89
-4 0 -7 885.21 61.69
4 0 7 924.11 60.99
4 0 7 924.31 59.59
-5 0 -7 1.8 3.8
-5 0 -7 5.3 4.3
5 0 7 -5.9 2.5
5 0 7 -4.5 2.4
-6 0 -7 1.3 3.4
-6 0 -7 -3.8 3.1
6 0 7 1.2 3.2
6 0 7 -2 3.8
-7 0 -7 348.27 26.9
-7 0 -7 393.16 33.8
7 0 7 358.36 28.2
-8 0 -7 356.76 31
-8 0 -7 237.68 20
8 0 7 237.68 30.1
-9 0 -7 17.3 4.4
-9 0 -7 19.2 9.9
-10 0 -7 4.8 6.9
10 0 7 -3.6 9.7
-11 0 -7 23.4 11.6
11 0 7 12.3 7.1
-12 1 7 114.79 21.3
-12 1 7 184.28 42.3
-12 1 7 128.09 24.2
-12 1 7 135.59 15.2
-11 1 7 156.68 19.8
-11 1 7 134.89 24.7
-11 1 7 174.58 22.1
-10 1 7 -6 5.6
-10 1 7 -9.1 8.3
-9 1 7 6.1 6.2
-9 1 7 6.2 7.5
-8 1 7 6.2 5.3
-8 1 7 13.7 9.2
-8 1 7 -3.5 5.3
-7 1 7 811.32 55.79
-7 1 7 796.92 55.99
-7 1 7 889.81 62.49
-6 1 7 7.7 4.8
-6 1 7 0.2 2.2
-6 1 7 4.7 3.9
5 -1 -7 28.8 8
-5 1 7 37.4 9.4
-5 1 7 27.4 7.2
4 -1 -7 2171.38 128.09
-4 1 7 2297.07 132.69
-4 1 7 2002.1 128.89
3 -1 -7 3609.84 217.38
-3 1 7 3790.22 218.98
-3 1 7 3643.84 212.88
-3 1 7 3965 221.08
2 -1 -7 5130.99 316.67
-2 1 7 5442.66 318.37
-2 1 7 5946 311.67
1 -1 -7 77.29 9.2
1 -1 -7 76.29 5.7
-1 1 7 82.09 6.1
-1 1 7 87.29 10.3
0 -1 -7 114.69 9.2
0 -1 -7 115.49 12.6
0 1 7 129.09 13
0 1 7 128.39 9.7
-1 -1 -7 430.76 29.7
-1 -1 -7 489.05 33.5
1 1 7 459.85 33.3
1 1 7 464.65 30.5
-2 -1 -7 65.29 8
-2 -1 -7 66.19 9.2
2 1 7 47.4 9.3
-3 -1 -7 2039.6 126.19
-3 -1 -7 2278.17 128.09
3 1 7 2064.39 127.59
3 1 7 2082.99 124.09
-4 -1 -7 840.82 53.99
-4 -1 -7 784.62 54.09
4 1 7 809.92 51.29
4 1 7 785.52 53.89
-5 -1 -7 497.95 34.5
-5 -1 -7 461.95 35.6
5 1 7 435.96 31.8
5 1 7 433.36 33.7
-6 -1 -7 304.77 27.8
-6 -1 -7 281.77 24.3
6 1 7 302.37 24.9
6 1 7 310.67 23.6
-7 -1 -7 58.89 10.1
-7 -1 -7 63.29 13.6
7 1 7 60.09 9.7
-8 -1 -7 44.5 12.3
-8 -1 -7 44.6 9.2
8 1 7 38.3 7.9
-9 -1 -7 117.19 21.8
-9 -1 -7 141.79 14.1
9 1 7 150.48 14.2
-10 -1 -7 -6.2 6.5
-10 -1 -7 5.7 3.3
10 1 7 5.4 4.3
-12 2 7 31.7 7.3
-12 2 7 51.19 8.9
-12 2 7 30.9 11.9
-12 2 7 38.2 14.7
-11 2 7 39.1 10.2
-11 2 7 54.89 15.2
-11 2 7 35.1 12.3
-10 2 7 -1.3 5.5
-10 2 7 7.1 4.6
-10 2 7 18.5 9.7
-9 2 7 143.79 16.6
-9 2 7 130.29 17.7
-9 2 7 158.18 26.5
-8 2 7 947.31 67.59
-8 2 7 1042.6 74.99
-8 2 7 1036.2 67.29
-7 2 7 6.8 6.4
-7 2 7 -1.9 3
-6 2 7 184.28 20.8
-6 2 7 165.28 17.4
5 -2 -7 276.67 23.9
-5 2 7 238.28 24
-5 2 7 223.98 21.4
4 -2 -7 3784.92 221.38
-4 2 7 4038.4 227.08
-4 2 7 3616.54 222.98
3 -2 -7 1227.68 77.89
-3 2 7 1236.38 73.39
-3 2 7 1303.77 79.89
-3 2 7 1283.97 81.09
2 -2 -7 221.08 18.8
2 -2 -7 210.98 14.3
-2 2 7 231.08 20
-2 2 7 234.08 14.6
-2 2 7 201.38 19.4
1 -2 -7 5129.09 309.17
1 -2 -7 5459.25 315.27
-1 2 7 5736.73 309.97
-1 2 7 5527.25 316.27
0 -2 -7 210.98 18.6
0 -2 -7 196.98 14.8
0 2 7 220.88 15.5
0 2 7 211.78 19
-1 -2 -7 20.7 4.6
-1 -2 -7 33.6 7.4
1 2 7 17.5 5.9
1 2 7 22.3 4.8
-2 -2 -7 500.25 34.6
-2 -2 -7 536.55 37.5
2 2 7 501.75 37.3
2 2 7 502.75 35.2
-3 -2 -7 144.29 15
-3 -2 -7 112.19 13.2
3 2 7 101.79 13.4
3 2 7 128.19 11.1
-4 -2 -7 108.49 17.7
-4 -2 -7 102.39 12.9
4 2 7 97.09 10.1
4 2 7 98.59 12.8
-5 -2 -7 539.65 38.5
-5 -2 -7 517.65 39.2
5 2 7 499.45 37.8
5 2 7 483.35 34.1
-6 -2 -7 42.5 9.2
-6 -2 -7 17.7 8.2
6 2 7 24.5 5.9
6 2 7 30.9 8.1
-7 -2 -7 503.95 41
-7 -2 -7 653.63 47.3
7 2 7 588.24 38.3
-8 -2 -7 2.4 6.8
-8 -2 -7 8.6 6
8 2 7 11.9 3.9
-9 -2 -7 282.57 25.8
-9 -2 -7 305.27 33
9 2 7 330.07 20.7
-10 -2 -7 79.29 10.8
-10 -2 -7 71.49 16.9
-12 3 7 15.2 5.7
-12 3 7 18.2 12.6
-12 3 7 -1.5 5.4
-12 3 7 33.3 10.9
-11 3 7 13.1 10.4
-11 3 7 6.9 6.5
-11 3 7 8.4 5.5
-10 3 7 178.08 30.7
-10 3 7 161.68 21.2
-10 3 7 176.18 18.5
-9 3 7 94.59 14.9
-9 3 7 86.79 19.4
-9 3 7 85.39 15.3
-8 3 7 21.7 10.1
-8 3 7 15.9 6.2
-7 3 7 447.16 39.2
-7 3 7 411.86 33.3
6 -3 -7 51.99 9
-6 3 7 53.49 10.6
-6 3 7 40.4 11.4
-5 3 7 304.27 27.1
-5 3 7 230.78 22.2
4 -3 -7 236.58 20.8
-4 3 7 236.58 21.6
-4 3 7 250.07 17.4
-4 3 7 239.18 23.5
3 -3 -7 846.82 58.29
-3 3 7 909.71 61.59
-3 3 7 897.21 54.19
-3 3 7 992.1 61.19
2 -3 -7 2454.85 150.98
2 -3 -7 2568.64 145.39
-2 3 7 2529.55 152.38
-2 3 7 2660.53 145.89
-2 3 7 2454.05 152.28
1 -3 -7 2675.93 154.78
1 -3 -7 2605.84 160.48
-1 3 7 2709.13 161.68
-1 3 7 2710.83 160.78
-1 3 7 2790.92 155.48
0 -3 -7 1058.69 63.79
0 -3 -7 1008.1 68.69
0 3 7 1082.09 64.39
0 3 7 1099.19 69.79
-1 -3 -7 4642.14 277.47
1 3 7 4987.2 282.87
1 3 7 4895.01 278.27
-2 -3 -7 2511.75 147.49
-2 -3 -7 2366.26 143.79
2 3 7 2412.56 144.39
2 3 7 2453.35 147.89
-3 -3 -7 40.8 8.3
-3 -3 -7 30.7 8.3
3 3 7 40.1 9.5
3 3 7 34.5 8.3
3 3 7 39.4 6.3
-4 -3 -7 120.19 14.6
-4 -3 -7 154.88 16.5
4 3 7 143.29 12.3
4 3 7 143.79 16.3
-5 -3 -7 9.4 5.9
-5 -3 -7 0.8 3.8
5 3 7 7.1 5.7
5 3 7 4.5 3.2
-6 -3 -7 5.4 5.6
-6 -3 -7 -1.5 5.9
6 3 7 4.9 5
6 3 7 8.1 3.6
-7 -3 -7 72.49 13.9
-7 -3 -7 90.59 17.6
7 3 7 109.99 9.8
-8 -3 -7 -8.2 5.8
-8 -3 -7 6.5 5.7
-9 -3 -7 21.6 7.4
-9 -3 -7 -3.1 6.2
-10 -3 -7 1.6 6.1
-10 -3 -7 1.6 7.3
-12 4 7 78.39 9.3
-12 4 7 70.99 15.8
-12 4 7 113.19 10.4
-12 4 7 99.09 23.2
-11 4 7 71.79 11.9
-11 4 7 80.69 26.1
-11 4 7 87.49 17.2
-10 4 7 -4.2 5.1
-10 4 7 -3.4 5.2
-10 4 7 1.4 8.3
-9 4 7 13.4 9.7
-9 4 7 1 5.3
-8 4 7 9.5 8.1
-8 4 7 9.3 6.1
7 -4 -7 17.4 5.7
-7 4 7 26.8 10.8
-7 4 7 18.3 6.3
6 -4 -7 1305.17 85.49
6 -4 -7 1324.77 80.29
-6 4 7 1376.26 79.69
-6 4 7 1088.19 81.69
-6 4 7 1378.96 89.59
5 -4 -7 38.8 7.5
5 -4 -7 34.5 9
-5 4 7 45 11.9
-5 4 7 44.3 6.7
-5 4 7 34.3 8.9
4 -4 -7 7249.67 436.16
-4 4 7 7811.62 432.36
-4 4 7 8019.2 442.46
-4 4 7 7369.26 438.56
3 -4 -7 85.29 12
-3 4 7 106.99 19.7
-3 4 7 103.59 13.4
-3 4 7 112.99 9.4
2 -4 -7 814.72 56.49
2 -4 -7 832.52 50.99
-2 4 7 895.61 51.69
-2 4 7 821.82 57.49
-2 4 7 878.31 58.09
1 -4 -7 1024.6 68.99
1 -4 -7 1039.6 63.49
-1 4 7 1088.39 64.29
-1 4 7 1081.69 69.09
-1 4 7 1084.49 70.39
0 -4 -7 157.08 16.2
0 -4 -7 143.59 12.4
0 4 7 147.19 13
0 4 7 151.38 15
0 4 7 143.19 16.6
-1 -4 -7 610.54 45.5
-1 -4 -7 655.53 41.9
1 4 7 609.54 46.1
1 4 7 670.03 42.6
1 4 7 635.14 43.1
-2 -4 -7 471.95 35.8
-2 -4 -7 447.66 32.7
2 4 7 454.95 33.2
2 4 7 442.26 37.4
-3 -4 -7 1093.99 69.49
-3 -4 -7 958.4 65.99
3 4 7 1021.8 67.09
3 4 7 1021.4 69.39
-4 -4 -7 2492.45 145.59
-4 -4 -7 2370.76 143.49
4 4 7 2278.27 143.79
4 4 7 2261.87 136.89
4 4 7 2398.46 145.09
-5 -4 -7 341.07 28.5
-5 -4 -7 262.67 26.1
5 4 7 285.87 20.2
5 4 7 251.17 25.4
-6 -4 -7 1713.93 109.89
-6 -4 -7 1884.91 110.29
6 4 7 1648.64 108.29
6 4 7 1596.64 99.09
-7 -4 -7 339.27 33.8
-7 -4 -7 392.56 33.1
-8 -4 -7 85.89 15.9
-8 -4 -7 119.19 20.3
-9 -4 -7 42.4 11.8
-9 -4 -7 42.9 10.5
-10 -4 -7 -4.2 8
-10 -4 -7 -3.7 7.7
-12 5 7 30.9 14
-12 5 7 7.9 9.5
-11 5 7 37.2 16.1
-11 5 7 41.5 9
-11 5 7 35.5 12.1
-10 5 7 192.58 19.9
-10 5 7 204.88 28.7
-9 5 7 1.7 4.9
-9 5 7 0.3 5.5
8 -5 -7 787.82 71.09
-8 5 7 669.43 58.49
-8 5 7 714.73 51.19
7 -5 -7 166.38 15.6
7 -5 -7 144.69 18.9
-7 5 7 177.38 16.3
-7 5 7 138.89 16.8
-7 5 7 149.09 24.5
6 -5 -7 1054.79 68.49
6 -5 -7 1130.09 74.79
-6 5 7 941.31 70.69
-6 5 7 1164.58 67.99
-6 5 7 1144.39 78.39
5 -5 -7 571.34 39.3
5 -5 -7 609.44 43.6
-5 5 7 474.75 44.9
-5 5 7 550.74 41.4
4 -5 -7 3.6 2.9
4 -5 -7 18.4 6.6
-4 5 7 6.6 3.3
-4 5 7 5.4 4
-4 5 7 5.7 5
3 -5 -7 986.1 66.69
3 -5 -7 1044.2 62.29
3 -5 -7 995.9 68.09
-3 5 7 1014.2 69.89
-3 5 7 1073.59 69.59
-3 5 7 1053.29 62.49
2 -5 -7 33.9 8.5
2 -5 -7 36.8 5.5
-2 5 7 35.7 9.5
-2 5 7 27.7 5.5
-2 5 7 35.9 8.7
1 -5 -7 1922.71 121.49
1 -5 -7 1921.31 115.69
-1 5 7 1964.9 121.39
-1 5 7 2062.29 116.79
-1 5 7 2010.1 123.39
0 -5 -7 1355.26 86.09
0 -5 -7 1259.57 79.89
0 5 7 1326.57 80.99
0 5 7 1387.56 84.19
-1 -5 -7 47.7 8
-1 -5 -7 47.6 10.5
1 5 7 44.9 10.5
1 5 7 40.4 7.8
1 5 7 38.6 8.3
-2 -5 -7 284.37 23.5
-2 -5 -7 295.57 26.5
2 5 7 300.37 22.9
2 5 7 302.27 27.5
2 5 7 268.27 23.8
-3 -5 -7 530.65 41.1
-3 -5 -7 617.54 45
3 5 7 579.54 44.6
3 5 7 624.14 42.9
3 5 7 573.84 38.8
-4 -5 -7 5.6 4.8
-4 -5 -7 -1.9 4.8
4 5 7 -4.6 3.1
4 5 7 6.7 6
4 5 7 4.9 3.4
4 5 7 6.7 2.8
-5 -5 -7 508.65 40.7
-5 -5 -7 577.74 42.6
5 5 7 493.05 32.6
5 5 7 505.55 32.9
5 5 7 528.55 41.3
-6 -5 -7 148.29 21.5
-6 -5 -7 138.69 21.2
6 5 7 98.29 17.4
-7 -5 -7 304.57 31.6
-7 -5 -7 361.56 32.7
-8 -5 -7 311.67 31
-8 -5 -7 358.86 35.3
-9 -5 -7 188.88 24.4
-9 -5 -7 174.88 23
-12 6 7 38.8 16.8
-12 6 7 42.3 12.7
-11 6 7 129.59 27.7
-11 6 7 103.89 13.5
-10 6 7 168.58 46.1
-10 6 7 186.38 19.7
9 -6 -7 97.99 18.1
-9 6 7 81.69 20.5
-9 6 7 111.69 16.3
-9 6 7 89.79 14.7
8 -6 -7 65.19 9.3
8 -6 -7 68.29 14.1
-8 6 7 69.29 16.3
-8 6 7 66.69 11.8
-8 6 7 65.79 13
7 -6 -7 464.75 40.7
7 -6 -7 516.65 35.5
-7 6 7 445.26 42.3
-7 6 7 543.05 45.8
-7 6 7 482.75 35.4
6 -6 -7 5.4 5.2
6 -6 -7 11.3 5.1
-6 6 7 18 9.6
-6 6 7 2.2 4.7
-6 6 7 3.4 3.7
5 -6 -7 30.1 7.5
5 -6 -7 22.6 7.4
-5 6 7 28.1 6.2
-5 6 7 13.6 12
-5 6 7 20.3 9.2
4 -6 -7 1041.3 73.49
4 -6 -7 1083.39 71.69
-4 6 7 1122.49 67.69
-4 6 7 1185.78 77.39
3 -6 -7 6.5 3.3
3 -6 -7 -2.7 1.7
3 -6 -7 3.8 2.8
-3 6 7 7.7 5.5
-3 6 7 -4.8 3.6
-3 6 7 1.7 2.9
2 -6 -7 2205.38 138.69
2 -6 -7 2241.68 132.69
-2 6 7 2254.27 146.59
-2 6 7 2361.66 133.69
-2 6 7 2293.37 140.79
1 -6 -7 964.6 68.69
1 -6 -7 1022.2 63.39
-1 6 7 994.3 68.39
-1 6 7 1072.49 64.49
-1 6 7 1110.99 71.49
0 -6 -7 315.87 23.9
0 -6 -7 318.47 28.4
0 6 7 369.56 30.6
0 6 7 318.57 26.9
0 6 7 308.47 25.2
-1 -6 -7 476.65 38.9
-1 -6 -7 507.05 40
1 6 7 487.95 36.3
1 6 7 535.15 36.6
1 6 7 521.55 40.9
-2 -6 -7 245.08 21.6
-2 -6 -7 255.47 25.3
2 6 7 226.48 21.8
2 6 7 261.67 26
2 6 7 259.47 21
-3 -6 -7 2481.15 150.38
-3 -6 -7 2333.27 145.49
3 6 7 2329.67 146.29
3 6 7 2452.95 150.18
3 6 7 2438.66 142.19
-4 -6 -7 343.87 30.3
-4 -6 -7 395.96 33.7
4 6 7 389.56 32
4 6 7 374.06 24
4 6 7 346.17 32.6
4 6 7 328.27 25
-5 -6 -7 863.41 58.89
-5 -6 -7 767.02 55.29
5 6 7 791.52 56.49
5 6 7 725.93 56.39
5 6 7 735.83 45.3
5 6 7 702.03 44.8
-6 -6 -7 88.69 16.6
-6 -6 -7 57.49 14.9
6 6 7 64.29 14
-7 -6 -7 38.6 12.9
-7 -6 -7 43 13.2
-8 -6 -7 64.69 17.2
-8 -6 -7 67.99 16.7
-9 -6 -7 68.79 16.3
-9 -6 -7 90.39 20.5
-12 7 7 26.9 9.9
-12 7 7 19.4 16.2
-11 7 7 238.48 22.1
-11 7 7 275.77 36.2
-10 7 7 8.8 5.6
-10 7 7 8.9 11.5
9 -7 -7 19.2 5.6
-9 7 7 3.8 6.9
-9 7 7 3.4 5.8
-9 7 7 7.7 9.6
8 -7 -7 45.2 11.3
8 -7 -7 60.89 10.3
-8 7 7 91.69 20.4
-8 7 7 62.49 11.6
-8 7 7 55.09 13.6
7 -7 -7 381.16 29.9
7 -7 -7 364.96 36
-7 7 7 414.36 30.1
-7 7 7 430.26 40.4
-7 7 7 382.26 33.4
6 -7 -7 1030.1 67.09
6 -7 -7 982 71.79
-6 7 7 956 69.99
-6 7 7 1045.8 65.19
-6 7 7 1188.38 78.69
5 -7 -7 577.64 43
5 -7 -7 643.04 47.1
-5 7 7 663.43 50.49
-5 7 7 492.65 44
-5 7 7 639.14 40.1
4 -7 -7 3558.34 219.08
4 -7 -7 3496.65 216.68
-4 7 7 3807.82 223.08
-4 7 7 3638.44 220.08
-4 7 7 3824.42 212.58
3 -7 -7 420.66 29.5
3 -7 -7 411.36 34.4
3 -7 -7 422.76 34.3
-3 7 7 472.65 37.3
-3 7 7 435.36 33.3
-3 7 7 452.05 37.4
2 -7 -7 65.69 12.5
2 -7 -7 76.49 8.7
2 -7 -7 58.79 11.6
-2 7 7 81.69 12.9
-2 7 7 81.59 15.3
-2 7 7 77.19 14.1
1 -7 -7 710.23 47.6
1 -7 -7 733.23 53.59
-1 7 7 766.62 49.1
-1 7 7 810.42 56.39
-1 7 7 717.43 54.59
0 -7 -7 242.58 24.8
0 -7 -7 257.37 27.3
0 7 7 275.67 26.9
0 7 7 266.97 23.6
0 7 7 266.07 21.9
-1 -7 -7 1587.14 99.59
-1 -7 -7 1712.73 106.39
1 7 7 1682.63 107.19
1 7 7 1625.04 100.89
1 7 7 1570.44 100.99
-2 -7 -7 457.05 33.4
-2 -7 -7 452.25 37.5
2 7 7 395.06 31.6
2 7 7 441.16 34.1
2 7 7 453.85 38.4
-3 -7 -7 9 6.7
-3 -7 -7 7.2 6.2
3 7 7 9.4 4.6
3 7 7 22.1 7.2
3 7 7 6.6 7
-4 -7 -7 1091.29 69.59
-4 -7 -7 909.61 63.99
4 7 7 911.11 64.79
4 7 7 875.31 66.39
4 7 7 919.51 57.19
4 7 7 895.21 55.39
-5 -7 -7 76.29 15.4
-5 -7 -7 81.99 17.3
5 7 7 67.19 14.9
5 7 7 72.69 15.5
-6 -7 -7 31.3 10.5
-6 -7 -7 61.39 16.1
-7 -7 -7 465.65 42.5
-7 -7 -7 482.15 43.1
-8 -7 -7 0.8 10.2
-8 -7 -7 27.8 11.4
-9 -7 -7 124.19 22.9
-9 -7 -7 119.09 23
-12 8 7 124.79 27.7
-11 8 7 2.3 5.3
-11 8 7 -10 9.9
-10 8 7 441.76 34.7
-10 8 7 395.86 44.1
9 -8 -7 241.98 20.4
-9 8 7 176.38 21.6
-9 8 7 244.88 22.7
8 -8 -7 58.89 14.2
8 -8 -7 40 9
-8 8 7 25.7 8.9
-8 8 7 31.6 14.1
-8 8 7 44.6 10.3
7 -8 -7 768.02 57.89
7 -8 -7 707.33 50.19
-7 8 7 791.62 62.59
-7 8 7 775.72 50.19
-7 8 7 678.23 54.09
6 -8 -7 6.3 5.4
6 -8 -7 9.7 4.7
-6 8 7 8.7 4.1
-6 8 7 21.5 9.3
-6 8 7 3.9 6.3
5 -8 -7 1398.06 88.99
5 -8 -7 1337.77 91.99
-5 8 7 1247.88 91.29
-5 8 7 1512.05 97.59
-5 8 7 1460.35 85.49
4 -8 -7 2122.89 137.29
4 -8 -7 1946.91 134.09
4 -8 -7 2233.28 135.89
-4 8 7 2152.88 138.09
-4 8 7 2404.46 131.29
-4 8 7 2329.27 141.49
3 -8 -7 566.24 43.8
3 -8 -7 589.34 38.8
3 -8 -7 493.65 42.9
-3 8 7 629.64 47.5
-3 8 7 565.64 45.7
-3 8 7 635.54 39.9
2 -8 -7 101.39 14.4
2 -8 -7 107.29 13.9
2 -8 -7 93.79 10.2
-2 8 7 82.29 16.3
-2 8 7 104.39 11.1
-2 8 7 74.19 14.8
1 -8 -7 42.1 8
1 -8 -7 56.29 12.4
-1 8 7 43.4 10.5
-1 8 7 31.3 9.8
-1 8 7 49.1 9.1
0 -8 -7 1094.49 78.09
0 -8 -7 1138.69 72.19
0 8 7 1121.69 79.89
0 8 7 1210.08 73.89
0 8 7 1167.48 75.79
-1 -8 -7 85.59 11
-1 -8 -7 103.49 17.4
1 8 7 81.19 13.1
1 8 7 74.99 12.7
1 8 7 92.89 16.9
-2 -8 -7 173.48 21.4
-2 -8 -7 140.59 16.6
2 8 7 192.58 21.5
2 8 7 161.18 17.7
2 8 7 147.99 15.8
-3 -8 -7 576.84 45.8
-3 -8 -7 538.55 41.4
3 8 7 535.25 42
3 8 7 542.45 45.7
3 8 7 542.25 37.6
-4 -8 -7 -8.1 6.3
-4 -8 -7 -3.6 3.4
4 8 7 -0.8 6.5
4 8 7 5.4 3.3
4 8 7 -0.9 1.9
4 8 7 1.2 4.5
-5 -8 -7 422.96 40.6
-5 -8 -7 486.35 55.59
5 8 7 348.17 35.7
-6 -8 -7 443.46 41.6
-6 -8 -7 389.36 37.6
-7 -8 -7 83.29 18.7
-7 -8 -7 123.49 22.1
-8 -8 -7 708.33 58.59
-12 9 7 85.99 25.2
-11 9 7 208.98 36.7
-11 9 7 193.28 20.7
-10 9 7 32.8 15
9 -9 -7 107.19 13.6
-9 9 7 135.89 27.4
-9 9 7 114.99 18.4
-9 9 7 136.19 17
8 -9 -7 74.59 12
-8 9 7 34.9 14.8
-8 9 7 67.49 13.5
-8 9 7 64.29 14.8
7 -9 -7 553.44 40.9
7 -9 -7 566.14 47.6
-7 9 7 553.54 45.2
-7 9 7 609.74 40.6
-7 9 7 511.25 50.09
6 -9 -7 164.28 18.3
6 -9 -7 171.28 21.2
-6 9 7 212.78 26.3
-6 9 7 151.48 20.3
-6 9 7 232.18 18.2
5 -9 -7 636.34 47.8
5 -9 -7 645.54 50.69
-5 9 7 736.23 55.59
-5 9 7 719.33 45
-5 9 7 558.74 49.6
4 -9 -7 159.18 20
4 -9 -7 145.09 17.9
4 -9 -7 164.88 15.5
-4 9 7 162.08 15.4
-4 9 7 154.48 20.8
-4 9 7 165.58 20.4
3 -9 -7 105.69 14.4
3 -9 -7 71.79 14.3
3 -9 -7 88.79 10.5
-3 9 7 82.69 10.9
-3 9 7 113.89 18.7
-3 9 7 101.19 18
2 -9 -7 13.8 6.2
2 -9 -7 20.1 7.9
2 -9 -7 22.4 5.8
-2 9 7 22.5 8.8
-2 9 7 27.6 9.3
-2 9 7 39.2 8.4
1 -9 -7 655.23 45
1 -9 -7 633.24 50.59
1 -9 -7 713.13 49.3
-1 9 7 645.74 49.8
-1 9 7 726.53 53.99
-1 9 7 641.94 45.7
0 -9 -7 118.29 16.6
0 -9 -7 98.09 12.5
0 9 7 93.39 18.1
0 9 7 101.09 12.8
0 9 7 97.29 19.6
-1 -9 -7 204.78 19.6
-1 -9 -7 188.78 22.6
1 9 7 199.68 20.2
1 9 7 190.68 24.1
1 9 7 217.78 20.6
-2 -9 -7 987.7 72.29
-2 -9 -7 964.8 66.09
2 9 7 1054.59 68.39
2 9 7 989.1 72.99
2 9 7 977.8 64.79
-3 -9 -7 286.77 26
-3 -9 -7 296.57 35.6
3 9 7 284.87 26.8
3 9 7 254.67 29.1
3 9 7 255.57 21.7
-4 -9 -7 629.44 50.19
-4 -9 -7 580.24 44.6
4 9 7 518.65 47.6
4 9 7 552.84 35
4 9 7 564.54 36.5
4 9 7 619.14 52.49
-5 -9 -7 67.69 14.3
-5 -9 -7 61.69 16.1
5 9 7 49.9 14.2
-6 -9 -7 483.85 44
-6 -9 -7 543.95 48.2
-7 -9 -7 31.4 13.2
-8 -9 -7 95.99 30.7
-11 10 7 188.38 20.4
-11 10 7 155.58 32.2
10 -10 -7 77.79 11.7
-10 10 7 87.09 23
-10 10 7 67.09 14
9 -10 -7 16.1 5.5
-9 10 7 9.9 7.5
-9 10 7 8.7 10.7
-9 10 7 16.4 8.4
8 -10 -7 223.08 21.3
-8 10 7 202.98 24.2
-8 10 7 237.28 22
-8 10 7 213.08 36.4
7 -10 -7 14.7 6.6
7 -10 -7 7.9 8.5
-7 10 7 13.4 8.3
-7 10 7 20.5 9
-7 10 7 16.4 6.3
6 -10 -7 6.2 7.1
6 -10 -7 2.5 4.3
-6 10 7 3.4 6.2
-6 10 7 8.8 8.5
-6 10 7 5.6 4.4
5 -10 -7 301.27 35.8
5 -10 -7 304.47 28.2
-5 10 7 277.77 29.9
-5 10 7 357.46 35.5
-5 10 7 302.47 24.6
4 -10 -7 66.19 12.8
4 -10 -7 56.39 9.6
4 -10 -7 47.7 12.7
-4 10 7 53.59 13.9
-4 10 7 48.3 13.9
-4 10 7 51.29 9.5
3 -10 -7 716.53 53.89
3 -10 -7 664.93 53.19
3 -10 -7 732.43 48.2
-3 10 7 756.02 57.19
-3 10 7 734.13 48.8
-3 10 7 715.33 56.19
2 -10 -7 422.66 37.4
2 -10 -7 376.56 35
2 -10 -7 479.35 32.5
-2 10 7 425.56 39.4
-2 10 7 467.15 33.4
-2 10 7 419.76 38
1 -10 -7 220.28 24.7
1 -10 -7 212.58 19.7
1 -10 -7 242.58 23
-1 10 7 219.18 25.7
-1 10 7 198.68 22.7
-1 10 7 235.58 21.2
0 -10 -7 334.77 26.3
0 -10 -7 277.47 29.7
0 10 7 323.97 32.5
0 10 7 307.67 28.2
0 10 7 289.97 26.5
-1 -10 -7 11.5 5.7
-1 -10 -7 3 5.6
1 10 7 0.9 7.2
1 10 7 3.7 5.7
1 10 7 2.3 3.8
-2 -10 -7 1425.36 98.99
-2 -10 -7 1397.16 92.09
2 10 7 1579.34 96.99
2 10 7 1383.56 90.49
2 10 7 1448.36 100.19
-3 -10 -7 322.77 33.6
-3 -10 -7 332.37 29.2
3 10 7 309.07 24.6
3 10 7 284.67 31.8
3 10 7 322.57 30
-4 -10 -7 419.56 37.5
-4 -10 -7 345.97 42.8
4 10 7 307.87 22.5
4 10 7 319.87 34.1
-5 -10 -7 50.19 13.4
5 10 7 63.79 16.2
-6 -10 -7 62.79 15.2
-7 -10 -7 139.59 24
-8 -10 -7 274.37 31.8
-11 11 7 159.28 32.5
10 -11 -7 136.79 14.8
-10 11 7 116.09 19
-10 11 7 90.19 25.6
9 -11 -7 114.59 14.7
-9 11 7 85.79 20.7
-9 11 7 98.79 17.9
8 -11 -7 6.9 6.3
-8 11 7 -0.3 6.2
-8 11 7 1.6 6.9
-8 11 7 6.3 5.4
7 -11 -7 38.2 9.6
-7 11 7 23.5 14
-7 11 7 30.4 11
-7 11 7 33 9.9
6 -11 -7 7.3 5.7
6 -11 -7 -2 5.4
-6 11 7 13.2 5.9
-6 11 7 -4.9 6
-6 11 7 7.7 7.1
5 -11 -7 8.9 6
5 -11 -7 20.2 9.9
5 -11 -7 27.3 8.5
-5 11 7 10.4 9.3
-5 11 7 16.6 10.1
-5 11 7 13.5 5.6
4 -11 -7 232.98 27.8
4 -11 -7 281.47 23.2
4 -11 -7 293.37 28.4
-4 11 7 295.27 24.1
-4 11 7 249.58 28.3
-4 11 7 298.47 31.7
3 -11 -7 148.89 14.8
3 -11 -7 118.29 17
3 -11 -7 111.19 19.1
-3 11 7 119.49 21.2
-3 11 7 123.79 14.1
-3 11 7 127.79 22.3
2 -11 -7 14.6 5.8
2 -11 -7 27.1 8.7
2 -11 -7 31.9 10.5
-2 11 7 11.1 7.6
-2 11 7 7.5 6.1
-2 11 7 16.5 6
1 -11 -7 1022.5 69.99
1 -11 -7 974.1 65.79
1 -11 -7 1001.5 73.39
-1 11 7 1071.69 67.89
-1 11 7 978.1 71.09
-1 11 7 995.4 74.89
0 -11 -7 194.28 19.6
0 -11 -7 194.08 24.5
0 11 7 226.68 21.7
0 11 7 182.68 25.2
0 11 7 233.48 23.5
-1 -11 -7 634.64 45.5
-1 -11 -7 652.93 52.29
1 11 7 595.54 45.7
1 11 7 648.14 53.49
1 11 7 542.65 57.99
-2 -11 -7 7.8 8.4
-2 -11 -7 16.8 8
2 11 7 10.2 6.1
2 11 7 9.4 6.9
2 11 7 14.7 7.5
-3 -11 -7 531.85 48.1
-3 -11 -7 542.05 42.2
3 11 7 546.65 48.3
3 11 7 516.55 37.3
-4 -11 -7 35.2 10.5
4 11 7 21.7 9.8
4 11 7 37.4 5.8
-5 -11 -7 91.89 17.4
-6 -11 -7 323.67 33.3
-7 -11 -7 58.69 14.9
11 -12 -7 34.2 9.3
-11 12 7 74.39 19.7
-11 12 7 26 10.2
10 -12 -7 90.19 13.2
-10 12 7 61.19 14.8
-10 12 7 59.39 19.4
9 -12 -7 106.79 14
-9 12 7 89.39 21.8
-9 12 7 86.79 17.4
8 -12 -7 136.89 17.2
-8 12 7 142.89 17
-8 12 7 151.78 21.3
-8 12 7 136.49 28.6
7 -12 -7 30 9.5
-7 12 7 30.2 10.8
-7 12 7 48.3 10.7
-7 12 7 17.3 12.8
6 -12 -7 150.68 18.9
-6 12 7 135.29 22.7
-6 12 7 146.29 27.4
-6 12 7 197.58 33.1
5 -12 -7 4 5.6
5 -12 -7 5.3 4.7
5 -12 -7 -6.2 4.6
-5 12 7 8.1 6.5
-5 12 7 -7.4 4.5
-5 12 7 20 6
4 -12 -7 418.56 38.7
4 -12 -7 436.16 32.7
4 -12 -7 420.66 37.8
-4 12 7 455.85 41.8
-4 12 7 444.06 33.6
-4 12 7 370.76 38.8
3 -12 -7 -9.6 5.6
3 -12 -7 2.1 13
3 -12 -7 0.1 4
-3 12 7 10.6 7.1
-3 12 7 5.5 4.4
-3 12 7 5.6 6.3
2 -12 -7 29.3 11.4
2 -12 -7 64.99 13.9
2 -12 -7 53.79 10.1
-2 12 7 34.2 11.5
-2 12 7 46.3 14.2
-2 12 7 43.9 10.3
1 -12 -7 211.18 25
1 -12 -7 208.78 20.1
1 -12 -7 181.58 21.5
-1 12 7 196.68 26.4
-1 12 7 198.38 20.9
-1 12 7 177.88 22.5
0 -12 -7 605.24 52.49
0 -12 -7 634.64 46.5
0 12 7 626.34 53.99
0 12 7 660.43 49.3
0 12 7 633.64 49.1
-1 -12 -7 200.28 26
-1 -12 -7 199.78 21.9
1 12 7 198.08 23
1 12 7 225.68 22.8
1 12 7 239.28 28.4
-2 -12 -7 589.04 43.2
2 12 7 523.95 39.9
2 12 7 521.45 64.39
2 12 7 497.15 48.5
-3 -12 -7 24.3 11.1
3 12 7 16.6 16.8
3 12 7 27.3 7
-4 -12 -7 191.18 22.4
4 12 7 190.28 27.1
4 12 7 176.38 13.4
-5 -12 -7 116.99 20
-6 -12 -7 148.59 24.4
-7 -12 -7 205.08 27.1
11 -13 -7 -11.2 6.8
-11 13 7 0.1 8.2
-11 13 7 5.8 13.4
10 -13 -7 95.19 14.6
-10 13 7 90.79 17.4
-10 13 7 76.49 23
9 -13 -7 102.59 16
-9 13 7 100.69 18.3
-9 13 7 105.19 25.8
8 -13 -7 12.1 6.9
-8 13 7 -2.7 6.9
7 -13 -7 517.75 43.7
-7 13 7 538.05 53.49
-7 13 7 617.34 42.9
-7 13 7 556.64 48.7
-6 13 7 10.7 13.5
-6 13 7 13.5 9.9
-6 13 7 27.2 8.1
5 -13 -7 420.86 46.5
5 -13 -7 442.06 34
5 -13 -7 418.06 37.8
-5 13 7 442.46 34.1
-5 13 7 503.75 45.8
-5 13 7 327.57 38
4 -13 -7 57.09 14.9
4 -13 -7 52.89 10.5
4 -13 -7 68.09 14.9
-4 13 7 41.9 14.5
-4 13 7 39.9 11.9
-4 13 7 93.59 20.4
3 -13 -7 256.17 29.7
3 -13 -7 266.87 28.3
3 -13 -7 292.67 24.9
-3 13 7 255.17 30.8
-3 13 7 294.07 31.4
-3 13 7 266.17 25.8
2 -13 -7 459.85 42.5
2 -13 -7 519.65 45.6
2 -13 -7 562.34 39.9
-2 13 7 520.25 56.69
-2 13 7 527.35 46
-2 13 7 520.65 47.4
1 -13 -7 536.45 39.7
1 -13 -7 527.25 43.6
1 -13 -7 475.55 44.9
-1 13 7 504.75 43.7
-1 13 7 533.45 41.2
-1 13 7 503.95 47.3
0 -13 -7 505.25 38.9
0 -13 -7 329.67 65.19
0 13 7 437.26 38.8
0 13 7 510.25 41.8
0 13 7 539.25 48.1
-1 -13 -7 154.38 18.7
1 13 7 157.98 18.8
1 13 7 163.08 27.4
1 13 7 148.89 27.6
-2 -13 -7 44.8 11.1
2 13 7 38.9 12.7
2 13 7 60.59 16.5
-3 -13 -7 962.8 68.19
3 13 7 959.7 75.19
3 13 7 911.71 60.59
-4 -13 -7 -2 6
4 13 7 4.7 2.5
-5 -13 -7 176.38 22.5
-6 -13 -7 37.3 14.7
11 -14 -7 32 10.5
-11 14 7 20.8 12.5
-11 14 7 11.2 16.4
10 -14 -7 -5 7.9
-10 14 7 -4.4 7.7
-10 14 7 -21.7 7.7
9 -14 -7 22.5 12
-9 14 7 42.5 17.2
-9 14 7 65.39 15.7
8 -14 -7 391.46 34.7
-8 14 7 403.36 45.6
-8 14 7 372.26 38.8
7 -14 -7 131.49 17.5
-7 14 7 120.89 25.5
-7 14 7 96.59 20.5
6 -14 -7 166.58 22.1
-6 14 7 226.28 35
-6 14 7 183.68 19.8
-6 14 7 156.78 26.6
5 -14 -7 -1.4 5.5
5 -14 -7 2.1 4.7
-5 14 7 -4.9 6.5
-5 14 7 -6.4 8.7
-5 14 7 2.9 5.6
4 -14 -7 166.68 21.8
4 -14 -7 180.68 19
4 -14 -7 160.68 25.3
-4 14 7 144.99 26.2
-4 14 7 162.48 18.5
-4 14 7 176.28 28.5
3 -14 -7 574.44 49.2
3 -14 -7 487.85 45.3
3 -14 -7 549.65 41.1
-3 14 7 609.14 51.09
-3 14 7 599.44 42.9
-3 14 7 444.16 47.4
2 -14 -7 3.6 9.1
2 -14 -7 21.1 7.7
-2 14 7 12.1 10
-2 14 7 1.4 7.8
-2 14 7 17.8 8.4
1 -14 -7 350.96 34
1 -14 -7 338.97 29.8
-1 14 7 379.06 35.2
-1 14 7 363.36 32.2
-1 14 7 306.37 37.4
0 -14 -7 179.78 20.9
0 14 7 182.98 26.3
0 14 7 204.38 22.9
-1 -14 -7 35.7 10.8
1 14 7 48 11.3
1 14 7 53.89 15.9
-2 -14 -7 9.7 6.6
2 14 7 14.6 6
2 14 7 11.3 11.3
-3 -14 -7 265.27 26.9
3 14 7 187.28 32.8
3 14 7 230.18 20
-4 -14 -7 45.6 13.2
4 14 7 43 4.5
-5 -14 -7 61.59 15.6
-6 -14 -7 25.4 10
10 -15 -7 402.76 34.2
-10 15 7 321.47 35.6
-10 15 7 352.96 47.7
9 -15 -7 20 9.5
-9 15 7 -2.5 8.2
-9 15 7 13.3 12.2
8 -15 -7 60.59 14.7
-8 15 7 79.49 21.8
-8 15 7 71.39 19.2
7 -15 -7 133.39 21.6
-7 15 7 189.08 32.6
-7 15 7 143.09 25
6 -15 -7 461.25 39.3
-6 15 7 385.66 43.9
-6 15 7 341.77 38.8
5 -15 -7 292.47 27.1
5 -15 -7 297.77 57.69
-5 15 7 367.26 38.2
-5 15 7 251.87 32.5
4 -15 -7 47 10.3
-4 15 7 30 10.5
-4 15 7 32.4 13
-4 15 7 44.2 16
3 -15 -7 -0.8 6.1
3 -15 -7 6.6 7.2
-3 15 7 11.9 7.8
-3 15 7 10.4 9.2
2 -15 -7 196.98 24.7
2 -15 -7 198.28 22
-2 15 7 150.08 28.2
-2 15 7 265.17 29
1 -15 -7 169.68 20.6
1 -15 -7 161.48 47.3
-1 15 7 147.59 27.2
-1 15 7 173.48 22.5
0 -15 -7 260.87 25.4
0 15 7 210.28 25.1
0 15 7 207.98 29.7
-1 -15 -7 1.4 7.3
1 15 7 17.4 11.5
1 15 7 6.7 7
-2 -15 -7 562.74 45.6
2 15 7 516.65 52.29
2 15 7 548.15 41.6
-3 -15 -7 219.78 27
3 15 7 258.27 21.4
-4 -15 -7 38.6 11.4
-5 -15 -7 18.8 8.6
10 -16 -7 112.09 18.1
-10 16 7 59.99 26
-10 16 7 88.59 21.7
9 -16 -7 125.19 20.1
-9 16 7 104.19 26.9
-9 16 7 168.98 26.3
-8 16 7 -1.4 6.7
-8 16 7 -12.7 6.9
-7 16 7 103.49 22.2
-7 16 7 97.69 23.7
6 -16 -7 273.97 26.7
-6 16 7 208.18 55.59
-6 16 7 284.97 37.1
5 -16 -7 170.38 18.8
-5 16 7 120.99 24.6
-5 16 7 91.39 22.4
4 -16 -7 499.15 44.5
-4 16 7 528.75 49.8
-4 16 7 423.86 46
3 -16 -7 22.5 10.4
-3 16 7 16.2 10.6
-3 16 7 25.8 10.8
2 -16 -7 99.69 17.3
2 -16 -7 100.69 19.6
-2 16 7 146.59 24.6
-2 16 7 93.99 22.5
1 -16 -7 12.8 8
1 -16 -7 41.7 12.7
-1 16 7 13.6 9.6
-1 16 7 29.4 11.2
0 -16 -7 365.86 33.1
0 16 7 365.26 35
0 16 7 334.07 40.4
-1 -16 -7 564.34 45.4
1 16 7 512.15 52.09
1 16 7 524.25 43.6
-2 -16 -7 54.49 15.2
2 16 7 80.69 20.9
2 16 7 56.49 11.1
-3 -16 -7 18.2 8.5
3 16 7 28.7 7.3
-8 17 7 143.19 27.1
-8 17 7 204.38 35.1
-7 17 7 -6.8 9.9
-7 17 7 -1 9.8
6 -17 -7 357.06 32
-6 17 7 258.57 35.6
-6 17 7 380.96 43
5 -17 -7 267.07 25.9
-5 17 7 253.67 33.4
-5 17 7 162.08 30.1
4 -17 -7 49 11.5
-4 17 7 41.9 14.4
-4 17 7 27.3 12.6
3 -17 -7 96.49 16.8
-3 17 7 65.49 19.1
-3 17 7 69.79 18.8
2 -17 -7 66.59 14.1
-2 17 7 63.19 17.4
-2 17 7 61.79 17.4
1 -17 -7 282.07 28.7
-1 17 7 269.37 32.5
-1 17 7 280.87 36
0 -17 -7 48.6 13.7
0 17 7 38.4 13.9
0 17 7 45.8 17.4
-1 -17 -7 20.2 9.4
1 17 7 30.9 10.8
1 17 7 46.5 15.3
-2 -17 -7 51.69 14.6
2 17 7 52.79 11.3
-3 -17 -7 -9.2 4.9
3 17 7 6.8 5.2
-9 18 7 17 11.6
-9 18 7 26.1 13.2
-8 18 7 49.4 17.6
-8 18 7 78.49 23.7
-7 18 7 438.96 48
-7 18 7 317.97 39.1
6 -18 -7 6.6 7.5
-6 18 7 15.9 12.9
-6 18 7 -7.4 9.6
5 -18 -7 328.27 30.4
-5 18 7 302.47 39.7
-5 18 7 323.97 37.6
4 -18 -7 13.1 7.6
-4 18 7 2.2 9.2
-4 18 7 41.9 17
3 -18 -7 54.49 12.3
-3 18 7 58.69 17.1
-3 18 7 24.2 12.9
2 -18 -7 360.66 31.7
-2 18 7 214.28 39
-2 18 7 306.07 34.9
1 -18 -7 63.49 15
-1 18 7 87.09 22.1
-1 18 7 49.1 17.4
0 -18 -7 141.99 22.1
0 18 7 137.99 23
0 18 7 102.89 25.9
-1 -18 -7 19.5 11.2
1 18 7 3 7
-2 -18 -7 98.39 18.4
2 18 7 81.59 14.2
-3 -18 -7 82.09 17.4
-8 19 7 -11.3 13.6
-8 19 7 5.9 13.2
-7 19 7 38.3 16.8
-7 19 7 46.1 17.2
6 -19 -7 220.18 24.8
-6 19 7 253.57 39.4
-6 19 7 130.49 28.2
5 -19 -7 2.4 6.7
-5 19 7 -6.6 9.8
-5 19 7 -2.2 10.9
4 -19 -7 154.18 19.9
-4 19 7 98.59 24.5
-4 19 7 163.78 29.9
3 -19 -7 31.2 11
-3 19 7 38.5 15.7
-3 19 7 -1.8 11.9
2 -19 -7 91.79 17.9
-2 19 7 87.39 20.1
1 -19 -7 362.76 33.7
-1 19 7 296.17 37.1
-1 19 7 287.47 40.3
0 -19 -7 11.9 9.2
0 19 7 -6.2 7.9
-1 -19 -7 346.37 35.3
1 19 7 329.17 32.4
-7 20 7 2 16.4
-7 20 7 -0.1 11.2
6 -20 -7 21.7 9.7
-6 20 7 15.3 15
-6 20 7 17.3 12.1
5 -20 -7 157.48 21.1
-5 20 7 154.88 31.6
-5 20 7 192.78 31.9
4 -20 -7 1.3 8.2
-4 20 7 26.9 16.6
-4 20 7 29.4 14.6
-3 20 7 253.77 42.3
-3 20 7 323.87 37.9
2 -20 -7 0.8 7.7
-2 20 7 -20.3 10.9
-2 20 7 -2.5 9.5
1 -20 -7 6.6 8.3
-1 20 7 14.8 10.8
0 -20 -7 181.28 57.79
0 20 7 110.59 25.3
5 -21 -7 67.19 14.4
-5 21 7 47.5 18
-5 21 7 68.79 21.4
4 -21 -7 193.48 24.5
-4 21 7 177.58 32.4
3 -21 -7 -7.2 8.3
-3 21 7 20.4 13
-2 21 7 40.6 14.3
0 23 -8 267.47 27
0 -23 8 207.88 37.3
-1 23 -8 47 13.8
1 -23 8 19.7 11
-2 23 -8 325.77 32.9
2 -23 8 233.48 29
-3 23 -8 47.2 15.1
3 -23 8 39 13.3
-4 23 -8 -3.6 9.2
4 -23 8 17.3 17.2
-5 23 -8 126.49 44.2
1 22 -8 198.78 21.2
-1 -22 8 149.79 24.6
0 22 -8 2.4 7.4
0 -22 8 2.9 8.1
-1 22 -8 272.37 29.2
1 -22 8 262.87 29.4
-2 22 -8 2.2 8.4
2 -22 8 -2.4 7.2
-3 22 -8 86.79 19.5
3 -22 8 62.19 15.1
-4 22 -8 208.48 31.6
4 -22 8 172.48 27.4
-5 22 -8 32.9 13.2
-6 22 -8 45.9 37.3
-2 -21 8 26.7 11.4
1 21 -8 79.39 14.8
-1 -21 8 50.09 14.2
0 21 -8 227.58 24.3
0 -21 8 187.68 24.6
-1 21 -8 32.2 12.9
1 -21 8 41.6 12.8
-2 21 -8 410.26 38.1
2 -21 8 348.27 35.3
-3 21 -8 2.7 7.5
3 -21 8 24.3 11.1
-4 21 -8 100.19 21.7
4 -21 8 76.39 17.4
-5 21 -8 207.48 27.7
-6 21 -8 6 6.9
-7 21 -8 22.4 22.4
-3 -20 8 -0.7 11
-3 -20 8 27.1 10.8
-2 -20 8 389.46 38.4
-2 -20 8 288.87 32.3
1 20 -8 8.1 7.4
0 20 -8 39.2 12.9
0 -20 8 9.5 9
-1 20 -8 674.23 51.39
1 -20 8 585.04 50.49
-2 20 -8 30.1 11.1
2 -20 8 18.6 10
-3 20 -8 295.67 32.2
3 -20 8 273.07 29.1
-4 20 -8 98.89 19.8
4 -20 8 74.19 17.1
-5 20 -8 71.09 17.9
-6 20 -8 301.67 35
-7 20 -8 9.7 8.3
7 -20 8 22.9 12.5
-8 20 -8 90.79 22.5
8 -20 8 127.39 22.4
-4 -19 8 73.19 16.2
-4 -19 8 51.39 13.7
-3 -19 8 175.58 22.5
-3 -19 8 196.08 32.1
-2 -19 8 7.4 8.9
-2 -19 8 13.2 10.2
1 19 -8 320.07 29.7
-1 -19 8 352.76 33.6
-1 -19 8 354.06 36.7
0 19 -8 158.18 19
0 -19 8 118.79 20.4
1 -19 8 180.38 21.5
-2 19 -8 383.46 35.5
2 -19 8 359.66 33.9
3 -19 8 -5 5.4
-4 19 -8 116.99 22
4 -19 8 87.99 17.7
-5 19 -8 381.36 39.1
-6 19 -8 180.88 25.8
6 -19 8 200.98 25.4
-7 19 -8 35.8 14.5
7 -19 8 28.4 13.3
-8 19 -8 110.49 23.3
8 -19 8 49.5 16.3
-9 19 -8 92.19 23.3
9 -19 8 119.49 15.6
9 -19 8 108.89 18.3
-5 -18 8 39.5 12.7
-5 -18 8 59.99 12.8
-4 -18 8 3.1 8.7
-4 -18 8 1.4 7.7
-3 -18 8 21.4 9.7
-3 -18 8 16.3 10.4
-2 -18 8 290.47 30.1
-2 -18 8 303.57 38.9
1 18 -8 45.9 11.4
-1 -18 8 64.09 15.8
-1 -18 8 39.8 12.5
0 18 -8 853.11 60.79
0 -18 8 773.52 61.19
0 -18 8 948.91 69.09
-1 18 -8 162.48 21.2
1 -18 8 183.28 21.3
1 -18 8 143.99 40.4
-2 18 -8 331.27 34.2
2 -18 8 367.66 32.9
-3 18 -8 372.86 34.9
3 -18 8 307.17 31.3
-4 18 -8 6.8 6.4
4 -18 8 -5.5 8.8
-5 18 -8 531.15 47.1
5 -18 8 460.75 44.2
-6 18 -8 -7.7 7.8
6 -18 8 -1.6 10
-7 18 -8 6.4 7.7
7 -18 8 -2 9.2
-8 18 -8 45 15.8
8 -18 8 64.29 14.3
-9 18 -8 23 14.8
9 -18 8 45.3 9.8
9 -18 8 39.8 11.2
-6 -17 8 162.08 25.6
-6 -17 8 195.58 18.5
-5 -17 8 23.5 9.2
-5 -17 8 7.2 10.1
-4 -17 8 34.4 11.2
-4 -17 8 41.9 12.5
-3 -17 8 10.6 7.8
-3 -17 8 1.2 7.2
-2 -17 8 163.88 21.2
-2 -17 8 208.08 24.9
1 17 -8 72.69 12.9
-1 -17 8 69.49 15
-1 -17 8 61.19 19.7
0 17 -8 7.6 6.4
0 -17 8 -6.2 8.8
0 -17 8 2 5.7
-1 17 -8 456.45 58.09
-1 17 -8 580.14 44
1 -17 8 568.04 48.9
1 -17 8 497.15 42
-2 17 -8 32.6 11.1
2 -17 8 31 9.6
2 -17 8 3 13.6
2 -17 8 20.6 11.8
-3 17 -8 48.6 13.1
3 -17 8 47.2 15.1
3 -17 8 53.49 12.8
-4 17 -8 173.08 22.8
4 -17 8 190.68 25
-5 17 -8 32 13.2
5 -17 8 60.19 15
-6 17 -8 36 13.1
6 -17 8 43 12.1
-7 17 -8 156.68 27.5
7 -17 8 216.28 24
-8 17 -8 5.1 8.7
8 -17 8 0.1 5.1
8 -17 8 3.9 7.4
-9 17 -8 93.69 21.5
9 -17 8 101.89 14.9
9 -17 8 92.89 18.8
-10 17 -8 2.1 15.2
-6 -16 8 126.69 21.9
-6 -16 8 134.89 16.9
-5 -16 8 22.3 8.7
-5 -16 8 43.6 14
-4 -16 8 10.9 7.6
-4 -16 8 -7.4 6
-3 -16 8 535.85 48.6
-3 -16 8 712.53 51.19
-2 -16 8 33.8 12.4
-2 -16 8 38.2 11.3
1 16 -8 110.99 14.4
1 16 -8 106.79 16.4
-1 -16 8 123.39 21.2
-1 -16 8 78.59 16.2
0 16 -8 314.07 27.7
0 16 -8 292.07 26.4
0 -16 8 282.57 27.3
-1 16 -8 142.59 17.1
-1 16 -8 137.19 18
1 -16 8 145.99 25.7
1 -16 8 150.48 21.1
1 -16 8 146.39 17.6
-2 16 -8 296.37 26.8
-2 16 -8 273.57 28.5
2 -16 8 323.87 28.4
2 -16 8 282.67 32
2 -16 8 302.87 33.1
-3 16 -8 30.5 8.9
-3 16 -8 23.1 10.3
3 -16 8 47.2 12.8
3 -16 8 12.3 7.2
3 -16 8 7.8 9.6
-4 16 -8 65.29 15.9
4 -16 8 98.49 19.9
-5 16 -8 259.27 30.1
5 -16 8 260.97 28.3
-6 16 -8 -4.6 6
6 -16 8 9.8 8.1
-7 16 -8 135.39 24.2
7 -16 8 145.69 18.9
-8 16 -8 154.38 26.5
8 -16 8 185.88 20.3
8 -16 8 176.98 17.6
-9 16 -8 40.3 14
9 -16 8 47.1 8
9 -16 8 30.7 8.6
-10 16 -8 18 11.3
-7 -15 8 86.89 17.9
-6 -15 8 21.7 10.6
-6 -15 8 33.2 12.7
-5 -15 8 -2.3 6
-5 -15 8 0.3 6.9
-4 -15 8 103.49 22.4
-4 -15 8 78.09 14.8
3 15 -8 149.39 18.5
-3 -15 8 137.59 19.2
-3 -15 8 136.39 20.6
2 15 -8 207.28 22
-2 -15 8 205.18 22.3
-2 -15 8 226.68 24.3
1 15 -8 15.8 7.3
1 15 -8 18.6 6.8
-1 -15 8 27.4 9.6
-1 -15 8 27.5 9.1
0 15 -8 29 8
0 15 -8 22.2 7.8
0 -15 8 26 9.3
0 -15 8 16.1 7.3
-1 15 -8 1069.79 71.59
-1 15 -8 933.61 72.69
1 -15 8 1163.08 85.59
1 -15 8 1035.2 70.19
-2 15 -8 56.79 11.3
-2 15 -8 71.39 14.5
2 -15 8 70.09 13.3
2 -15 8 78.19 16.7
-3 15 -8 430.26 33.2
-3 15 -8 410.16 36.8
3 -15 8 391.46 37.7
3 -15 8 423.66 40.3
3 -15 8 374.06 33.6
-4 15 -8 9.9 7.7
-4 15 -8 2 4.4
4 -15 8 -6.7 6.1
4 -15 8 1.4 6.1
-5 15 -8 -5.9 7.6
5 -15 8 11.8 8.7
-6 15 -8 143.19 23.9
6 -15 8 149.59 19.8
-7 15 -8 -4.5 7.1
7 -15 8 5.7 5.9
-8 15 -8 61.09 17.3
8 -15 8 90.69 13.8
8 -15 8 103.29 11.7
-9 15 -8 10.7 8.5
9 -15 8 32.6 6.6
9 -15 8 22 4.7
-10 15 -8 23.9 11.4
-7 -14 8 -6.6 3.3
-7 -14 8 -2.4 7.4
-7 -14 8 -3.7 3.3
-6 -14 8 0.8 6.2
-5 -14 8 4.4 6.2
-5 -14 8 -6.1 4.5
4 14 -8 434.96 36.2
-4 -14 8 442.26 36.6
-4 -14 8 387.36 34.3
3 14 -8 308.37 27.9
-3 -14 8 363.86 30.3
-3 -14 8 295.57 28.5
2 14 -8 12.6 10.8
-2 -14 8 -1.2 6
-2 -14 8 -7 4.6
1 14 -8 176.98 17.9
1 14 -8 200.88 18.9
-1 -14 8 149.99 17.7
-1 -14 8 171.48 21.2
0 14 -8 559.44 41.2
0 14 -8 581.14 42.7
0 -14 8 602.84 47.3
0 -14 8 550.34 42.1
-1 14 -8 1196.38 76.79
-1 14 -8 1196.58 79.29
1 -14 8 1139.19 77.39
1 -14 8 1245.58 84.29
-2 14 -8 232.98 21.6
-2 14 -8 248.38 24.5
2 -14 8 197.28 21.2
2 -14 8 256.47 28.3
-3 14 -8 43.6 10
-3 14 -8 60.19 13.2
3 -14 8 81.69 16.6
3 -14 8 61.19 12.4
-4 14 -8 301.57 25.7
-4 14 -8 293.67 29.8
4 -14 8 292.37 32
-5 14 -8 24.5 8.3
-5 14 -8 26.4 10.5
5 -14 8 48.7 11.9
5 -14 8 13.2 8.8
6 -14 8 147.89 18.5
-7 14 -8 131.89 23.7
7 -14 8 196.28 19.6
7 -14 8 193.38 26.2
-8 14 -8 32.9 12.6
8 -14 8 37.1 8.6
8 -14 8 45.4 7.9
-9 14 -8 155.78 28.5
9 -14 8 190.88 13.3
9 -14 8 205.88 13.3
-10 14 -8 108.79 21.6
-8 -13 8 6 8.5
-7 -13 8 5 4.4
-7 -13 8 18 10.1
-7 -13 8 3.3 4.9
-6 -13 8 145.29 22.4
5 13 -8 2.7 15.8
-5 -13 8 23.2 8.3
-5 -13 8 9.4 7.2
4 13 -8 272.57 25.4
-4 -13 8 253.67 24.2
-4 -13 8 238.68 24.9
3 13 -8 138.69 16.6
-3 -13 8 118.69 15.6
-3 -13 8 130.09 16
2 13 -8 356.56 28.7
-2 -13 8 308.77 28.3
-2 -13 8 360.76 30.8
1 13 -8 38.5 8.6
1 13 -8 23.6 6.4
-1 -13 8 31.7 8.6
-1 -13 8 22.9 8.6
0 13 -8 78.59 13.1
0 13 -8 81.49 12.3
0 -13 8 77.69 15.3
0 -13 8 75.29 12.8
-1 13 -8 496.65 35.2
-1 13 -8 432.26 36.3
1 -13 8 512.55 40.9
1 -13 8 454.55 35.3
-2 13 -8 79.89 14.3
-2 13 -8 88.99 11.6
2 -13 8 83.49 16.8
2 -13 8 75.09 12.8
-3 13 -8 533.35 40.9
-3 13 -8 447.46 35.3
3 -13 8 462.15 43
-4 13 -8 -4.9 3.5
-4 13 -8 2.2 3.7
4 -13 8 1.6 5.4
-5 13 -8 470.45 35.9
-5 13 -8 529.75 42.1
5 -13 8 426.76 36.9
5 -13 8 450.45 42.5
-6 13 -8 58.79 14.4
-6 13 -8 59.19 13.5
6 -13 8 91.09 14.7
-7 13 -8 237.78 28.7
7 -13 8 283.67 36.9
7 -13 8 289.37 22.5
-8 13 -8 131.09 25.3
8 -13 8 182.08 14.8
8 -13 8 175.68 16
-9 13 -8 17.3 12
-10 13 -8 40.9 16.7
-11 13 -8 -0.1 8.3
-8 -12 8 7.8 8.6
-7 -12 8 141.29 14.5
-7 -12 8 155.08 14.8
-7 -12 8 146.39 22.3
-6 -12 8 132.29 34.5
-6 -12 8 120.89 19.9
5 12 -8 48.2 11
-5 -12 8 47 11.9
-5 -12 8 39.1 9.3
4 12 -8 75.99 14.4
-4 -12 8 86.49 12
-4 -12 8 68.99 13.7
3 12 -8 11.9 6
-3 -12 8 23.9 7.5
2 12 -8 65.49 11.3
-2 -12 8 74.09 13.4
-2 -12 8 57.29 10.9
1 12 -8 624.64 45.3
1 12 -8 696.43 46.4
-1 -12 8 682.83 49.4
-1 -12 8 655.53 46.5
0 12 -8 249.58 21.3
0 12 -8 257.47 22.9
0 -12 8 244.18 25
0 -12 8 265.17 22.5
-1 12 -8 1147.69 75.89
-1 12 -8 1084.19 72.59
1 -12 8 1176.28 74.09
1 -12 8 1233.38 79.99
-2 12 -8 789.02 54.89
-2 12 -8 800.12 51.59
2 -12 8 712.13 51.69
2 -12 8 770.12 57.59
-3 12 -8 189.98 17.8
-3 12 -8 176.18 20.4
3 -12 8 202.98 23.7
-4 12 -8 793.82 56.09
-4 12 -8 723.63 50.09
4 -12 8 676.33 62.59
-5 12 -8 30.7 8.3
-5 12 -8 50.99 13.7
5 -12 8 22.8 11.6
-6 12 -8 181.18 22.8
-6 12 -8 189.68 19.7
6 -12 8 188.68 25.1
6 -12 8 163.48 16.2
6 -12 8 176.18 18.7
-7 12 -8 239.48 29.2
7 -12 8 305.87 24.1
7 -12 8 306.17 22.5
-8 12 -8 124.89 23.8
8 -12 8 169.58 13.4
8 -12 8 180.58 14.1
-9 12 -8 103.69 21.7
-10 12 -8 18.9 11.7
-11 12 -8 63.19 18
-9 -11 8 3.5 8.8
-8 -11 8 238.28 18.9
-8 -11 8 225.98 18
-8 -11 8 277.17 29
-7 -11 8 123.59 20
-7 -11 8 147.49 14.3
-7 -11 8 132.49 14.5
6 11 -8 87.79 15.4
-6 -11 8 99.89 16.6
-6 -11 8 66.09 13.3
5 11 -8 198.58 20.6
-5 -11 8 144.49 16.2
-5 -11 8 178.78 19.5
4 11 -8 129.59 15.7
-4 -11 8 122.49 15.8
-4 -11 8 139.99 15.2
3 11 -8 1736.33 105.69
-3 -11 8 1490.95 104.79
-3 -11 8 1889.41 107.49
2 11 -8 557.44 38.7
-2 -11 8 482.95 38.2
-2 -11 8 583.24 41.2
1 11 -8 85.09 10.5
-1 -11 8 78.29 12.6
-1 -11 8 95.69 15.3
0 11 -8 38.5 8.6
0 11 -8 33.7 7.2
0 -11 8 45.6 8.7
0 -11 8 42.9 10.2
-1 11 -8 234.28 20.1
-1 11 -8 258.27 23.2
1 -11 8 266.27 25.1
1 -11 8 242.48 21
-2 11 -8 578.94 40.3
-2 11 -8 648.14 44.7
2 -11 8 561.34 41.2
2 -11 8 572.44 45.8
-3 11 -8 147.29 15
-3 11 -8 159.88 18.6
3 -11 8 152.08 19.5
-4 11 -8 382.46 29.9
-4 11 -8 415.36 34.8
4 -11 8 378.16 34.9
-5 11 -8 1066.69 69.19
-5 11 -8 1123.19 74.69
5 -11 8 990.8 66.49
-6 11 -8 39.4 9.5
-6 11 -8 30.8 10.6
6 -11 8 20.3 5.8
6 -11 8 1.5 5.3
-7 11 -8 517.05 44.5
7 -11 8 508.95 34.2
7 -11 8 447.26 44
7 -11 8 550.44 36
-8 11 -8 302.37 34.9
8 -11 8 314.07 20.5
8 -11 8 322.07 20.3
-9 11 -8 201.68 26.1
-10 11 -8 73.09 19.3
-11 11 -8 0 9.1
-9 -10 8 109.59 20.8
-9 -10 8 109.89 20.4
-8 -10 8 6.9 4.3
-8 -10 8 5.1 7.6
-8 -10 8 -7.3 4.7
-7 -10 8 87.19 16.2
-7 -10 8 83.89 10.3
-7 -10 8 55.69 11
6 10 -8 21.6 9.1
-6 -10 8 12.5 7.5
-6 -10 8 14.1 5.5
5 10 -8 445.66 33
-5 -10 8 341.27 28.5
-5 -10 8 377.66 31.7
4 10 -8 562.04 40.5
-4 -10 8 602.24 40.1
-4 -10 8 490.05 39.6
3 10 -8 10.6 5.5
-3 -10 8 13.9 6.1
2 10 -8 7.6 4.6
-2 -10 8 11.3 5.4
-2 -10 8 12 5.1
1 10 -8 181.18 16
-1 -10 8 209.48 19.2
-1 -10 8 147.59 16.5
0 10 -8 282.87 21.7
0 10 -8 270.57 23.2
0 -10 8 286.87 25.5
-1 10 -8 425.06 29.4
-1 10 -8 426.66 32
1 -10 8 369.86 29.3
1 -10 8 411.86 33.5
-2 10 -8 730.13 48.2
-2 10 -8 742.43 51.79
2 -10 8 740.83 54.09
-3 10 -8 154.38 15.4
-3 10 -8 187.18 19.4
3 -10 8 155.28 19.7
-4 10 -8 474.75 38.2
-4 10 -8 489.75 34.1
4 -10 8 415.06 38.3
-5 10 -8 69.59 12.3
-5 10 -8 78.59 15.2
5 -10 8 76.59 9.1
5 -10 8 53.29 14.1
-6 10 -8 584.54 43.4
-6 10 -8 552.64 46.1
6 -10 8 597.04 38.5
6 -10 8 556.84 49.8
-7 10 -8 8.7 7.1
-7 10 -8 -0.1 6.1
7 -10 8 5 3.5
7 -10 8 9.4 4.2
7 -10 8 17.8 9.5
-8 10 -8 372.46 35.6
8 -10 8 365.36 38.7
-9 10 -8 18.3 10.3
-10 10 -8 80.99 18.4
-11 10 -8 45.5 15.8
-9 -9 8 21.7 6.1
-9 -9 8 15.5 9.4
-9 -9 8 13.7 8.2
-9 -9 8 22.3 4.4
-8 -9 8 307.17 29.5
-8 -9 8 263.57 23.8
-8 -9 8 279.17 21.7
7 9 -8 799.62 53.89
-7 -9 8 730.73 53.19
-7 -9 8 474.05 72.79
-7 -9 8 699.93 48.8
6 9 -8 634.24 42.5
-6 -9 8 446.76 35.2
-6 -9 8 512.85 40.5
5 9 -8 114.99 13.8
-5 -9 8 92.79 10.9
-5 -9 8 80.19 13.8
4 9 -8 912.61 58.19
-4 -9 8 766.52 57.39
-4 -9 8 938.21 57.69
3 9 -8 1474.45 90.09
-3 -9 8 1505.85 90.49
-3 -9 8 1387.06 89.89
2 9 -8 29.7 6.7
-2 -9 8 32.6 7.1
-2 -9 8 34.8 7.9
1 9 -8 176.58 15
-1 -9 8 177.38 17.5
-1 -9 8 153.38 14.8
0 9 -8 25.6 6.9
0 9 -8 20.6 5.4
0 -9 8 24 5.4
0 -9 8 22.3 7
-1 9 -8 14.2 4.3
-1 9 -8 12.2 5.5
1 -9 8 14.9 6
1 -9 8 6.1 3.4
-2 9 -8 1213.58 79.29
-2 9 -8 1219.58 75.49
2 -9 8 1266.57 81.49
-3 9 -8 13 4.4
-3 9 -8 5.7 4.1
3 -9 8 10.5 5.8
-4 9 -8 492.75 38
-4 9 -8 473.25 34
4 -9 8 504.65 39.3
4 -9 8 418.26 32.3
-5 9 -8 0.1 5.2
-5 9 -8 -0.6 3.8
5 -9 8 3.3 5.6
5 -9 8 -0.1 2.2
-6 9 -8 365.36 32.9
6 -9 8 330.17 32.7
6 -9 8 354.36 25
-7 9 -8 214.78 25.3
7 -9 8 234.48 17.4
7 -9 8 260.17 27.9
7 -9 8 250.27 18.1
-8 9 -8 194.18 23.5
8 -9 8 168.18 26.3
-9 9 -8 41.2 11.9
-10 9 -8 281.37 30.8
-11 9 -8 55.89 15.7
-10 -8 8 106.39 11.1
-10 -8 8 130.49 21.3
-10 -8 8 133.49 10.7
-10 -8 8 119.79 20.7
-9 -8 8 7.8 8.5
-9 -8 8 14.5 6.5
-9 -8 8 8.6 4.5
-9 -8 8 39.6 12.3
-8 -8 8 44.5 12.4
-8 -8 8 41.6 22.8
-8 -8 8 35.5 12
-8 -8 8 82.69 12.9
-7 -8 8 44.6 10.1
-7 -8 8 37.8 10.1
-7 -8 8 38.1 7.2
6 8 -8 102.79 16
-6 -8 8 110.29 11.5
-6 -8 8 97.39 12.6
-6 -8 8 133.89 16.6
5 8 -8 282.37 25.1
-5 -8 8 333.37 24.1
-5 -8 8 286.37 25.5
4 8 -8 301.77 23.7
-4 -8 8 228.28 22.2
-4 -8 8 316.57 23.2
3 8 -8 110.99 11.7
-3 -8 8 115.49 12
-3 -8 8 95.69 11.8
2 8 -8 866.11 54.09
-2 -8 8 783.42 53.59
-2 -8 8 899.51 55.89
1 8 -8 8.5 3.8
-1 -8 8 11.5 3.9
-1 -8 8 8.5 4.6
0 8 -8 3547.45 210.28
0 8 -8 3744.13 206.38
0 -8 8 3637.04 210.68
0 -8 8 3366.06 206.28
-1 8 -8 66.39 10.8
-1 8 -8 57.89 7.5
1 -8 8 64.49 11.3
1 -8 8 62.19 7.6
-2 8 -8 632.94 42.7
-2 8 -8 562.54 38.6
2 -8 8 579.54 43.4
-3 8 -8 90.69 12.3
-3 8 -8 79.79 9.6
3 -8 8 70.39 13.3
3 -8 8 76.29 9.6
-4 8 -8 47.2 10.4
-4 8 -8 40.4 8.2
4 -8 8 50.79 11.8
4 -8 8 43.9 7.5
-5 8 -8 92.59 15.4
5 -8 8 77.59 9.1
5 -8 8 82.99 15
-6 8 -8 1131.59 75.79
6 -8 8 1090.49 66.99
6 -8 8 1084.29 76.59
-7 8 -8 8.1 7
7 -8 8 17.6 9.4
7 -8 8 14.4 3.5
-8 8 -8 821.72 62.59
8 -8 8 880.71 64.79
-9 8 -8 -2.2 7
9 -8 8 13.7 11.4
-10 8 -8 29.8 13.6
-11 8 -8 118.69 20.1
-11 8 -8 69.49 27.7
-10 -7 8 2.2 8
-10 -7 8 12 8.5
-10 -7 8 -1.1 3.7
-10 -7 8 -7.9 5.2
-9 -7 8 170.38 18.5
-9 -7 8 178.58 22.9
-9 -7 8 181.38 31.4
-9 -7 8 179.88 22.3
-8 -7 8 40.5 10.8
-8 -7 8 53.99 12.6
-8 -7 8 42.6 7.5
-8 -7 8 27.5 11
-7 -7 8 272.87 22.3
-7 -7 8 284.37 28.1
-7 -7 8 305.97 27.5
-7 -7 8 279.67 25.4
6 7 -8 298.47 25.1
-6 -7 8 278.27 24.6
-6 -7 8 235.08 20.4
-6 -7 8 258.07 23.2
5 7 -8 0.5 3.6
-5 -7 8 0.4 2.6
-5 -7 8 2.5 3.6
4 7 -8 1103.29 66.49
-4 -7 8 885.21 68.99
-4 -7 8 1109.09 65.89
3 7 -8 45.6 7.6
-3 -7 8 43.8 7.8
-3 -7 8 24.9 6
2 7 -8 5.6 2.5
-2 -7 8 0 2.2
-2 -7 8 0.4 2.5
1 7 -8 153.78 12.5
-1 -7 8 125.99 11.9
-1 -7 8 165.18 15
0 7 -8 2.1 2.7
0 -7 8 4.7 2.8
0 -7 8 0.1 2.4
-1 7 -8 644.44 39.2
-1 7 -8 549.95 45.8
1 -7 8 622.64 43.2
-2 7 -8 48.3 9.5
-2 7 -8 49.1 7.6
2 -7 8 55.39 10.6
2 -7 8 58.99 8.3
-3 7 -8 306.07 25.1
-3 7 -8 282.67 22.1
3 -7 8 270.57 21.9
3 -7 8 299.57 26.1
-4 7 -8 1471.25 86.29
4 -7 8 1237.18 79.99
4 -7 8 1277.17 86.19
-5 7 -8 35.9 9.5
5 -7 8 74.99 13.9
5 -7 8 53.09 7.3
-6 7 -8 1810.32 112.39
6 -7 8 1755.72 113.89
6 -7 8 1734.13 104.09
-7 7 -8 199.08 21.7
7 -7 8 200.38 13.9
7 -7 8 191.38 23.2
-8 7 -8 20.8 9.2
-9 7 -8 241.18 25.8
9 -7 8 223.58 27.2
-10 7 -8 -3.4 6.4
10 -7 8 -4.7 8.9
-11 7 -8 73.39 20.5
-11 7 -8 64.69 26
-10 -6 8 75.49 10.1
-10 -6 8 97.19 15.6
-10 -6 8 93.09 17.3
-10 -6 8 148.59 24.6
-10 -6 8 81.99 17.9
-9 -6 8 8.8 7
-9 -6 8 -19.5 15.5
-9 -6 8 11.5 9.6
-8 -6 8 233.58 24.2
-8 -6 8 195.08 38.5
-8 -6 8 211.98 23.4
-7 -6 8 33.6 9
-7 -6 8 33.9 10.1
-7 -6 8 36.7 10.1
-6 -6 8 91.39 12.2
-6 -6 8 75.99 14.6
-6 -6 8 98.79 14.7
5 6 -8 939.81 58.29
-5 -6 8 828.32 57.49
4 6 -8 305.57 23.6
-4 -6 8 279.37 22.5
3 6 -8 674.63 41
-3 -6 8 666.03 42.3
-3 -6 8 553.84 40.4
2 6 -8 680.23 40
-2 -6 8 562.44 39.4
-2 -6 8 637.14 42.1
1 6 -8 214.18 15.6
-1 -6 8 229.58 18.6
-1 -6 8 210.08 15.8
0 6 -8 1631.84 90.09
0 -6 8 1526.55 93.59
0 -6 8 1454.75 89.89
0 -6 8 1508.95 94.19
-1 6 -8 981.8 57.79
-1 6 -8 966.9 61.19
1 -6 8 928.81 60.69
1 -6 8 927.01 61.49
-2 6 -8 4726.33 272.97
2 -6 8 4565.04 274.27
2 -6 8 4998.6 277.77
-3 6 -8 150.58 16
3 -6 8 152.38 13.9
3 -6 8 154.48 17
-4 6 -8 455.45 32.7
4 -6 8 375.36 27.7
4 -6 8 382.36 32.5
-5 6 -8 2028.2 125.89
5 -6 8 2018.5 127.49
5 -6 8 2071.19 120.79
-6 6 -8 186.38 19.9
6 -6 8 180.68 21.1
6 -6 8 191.68 15.1
-7 6 -8 335.37 30.4
7 -6 8 357.96 22.6
7 -6 8 370.26 32.8
-8 6 -8 73.69 14
8 -6 8 102.79 17.8
-9 6 -8 3.7 6.5
9 -6 8 17.2 8.6
-10 6 -8 84.19 16.4
-10 6 -8 75.39 16.9
10 -6 8 54.89 16.6
-11 6 -8 22.1 18.4
-11 6 -8 3.2 6.7
11 -6 8 6.8 14.5
-11 -5 8 12 9.2
-11 -5 8 -13.7 14
-11 -5 8 26.5 11.4
-10 -5 8 102.59 17
-10 -5 8 75.69 15.9
-10 -5 8 65.89 17.1
-9 -5 8 271.37 28.4
-9 -5 8 331.97 30.4
-9 -5 8 290.57 28.2
-8 -5 8 11.9 7.3
-8 -5 8 7.5 6.4
-8 -5 8 12.5 7.2
-7 -5 8 137.39 22.9
-7 -5 8 162.58 17.6
-7 -5 8 139.69 17.8
-6 -5 8 11.5 5.8
-6 -5 8 4.1 5.2
-6 -5 8 17.2 6.6
-5 -5 8 105.69 12.7
-5 -5 8 119.99 15.2
4 5 -8 829.52 50.69
-4 -5 8 822.02 55.09
-4 -5 8 731.23 50.49
3 5 -8 40.7 6.4
-3 -5 8 38.7 8.3
-3 -5 8 38.7 6.3
2 5 -8 94.79 8.4
-2 -5 8 87.69 8.3
-2 -5 8 79.29 15
1 5 -8 2844.92 164.78
-1 -5 8 3005 170.68
-1 -5 8 2793.92 164.88
0 5 -8 316.97 20.2
0 -5 8 305.17 24
0 -5 8 284.97 23.4
-1 5 -8 7793.52 443.76
1 -5 8 7667.03 446.76
1 -5 8 8011.5 447.96
-2 5 -8 164.58 15.4
2 -5 8 156.08 15.7
2 -5 8 135.79 13.5
3 -5 8 2034.1 121.59
3 -5 8 1945.61 117.89
-4 5 -8 283.77 24.6
4 -5 8 313.67 26.1
4 -5 8 294.27 22.1
-5 5 -8 592.94 44.9
5 -5 8 631.84 46.9
5 -5 8 666.63 41.6
-6 5 -8 715.63 53.99
6 -5 8 834.62 49.5
6 -5 8 799.72 56.59
-7 5 -8 306.07 27.3
7 -5 8 315.47 28.8
7 -5 8 297.67 20
-8 5 -8 381.76 33.1
8 -5 8 428.56 36
-9 5 -8 262.47 29.4
-9 5 -8 238.18 25.1
9 -5 8 304.37 29.4
-10 5 -8 19.8 10.1
-10 5 -8 21.5 9.7
10 -5 8 54.99 14.5
-11 5 -8 149.99 18.4
-11 5 -8 136.99 34.2
11 -5 8 126.89 22.7
-11 -4 8 32.7 10.5
-11 -4 8 11.9 9.2
-11 -4 8 12.9 10.8
-11 -4 8 17.6 12.7
-10 -4 8 28.9 9.6
-10 -4 8 32.3 10.8
-10 -4 8 17.1 9.9
-9 -4 8 7.9 8.7
-9 -4 8 2.2 7.6
-9 -4 8 14.2 6.8
-8 -4 8 104.19 18.5
-8 -4 8 132.89 17.1
-8 -4 8 141.59 17.4
-7 -4 8 24.9 8.7
-7 -4 8 9.6 6.3
-7 -4 8 17.9 7.5
-6 -4 8 199.38 18.7
-6 -4 8 197.58 20.4
-5 -4 8 20.9 7.1
-5 -4 8 27.4 6.8
4 4 -8 22.9 5.1
-4 -4 8 28.2 7.7
-4 -4 8 19.5 4.9
3 4 -8 343.87 22.8
-3 -4 8 325.47 22.7
2 4 -8 262.27 16.9
-2 -4 8 284.17 22.1
-2 -4 8 219.48 16.5
1 4 -8 54.29 5
-1 -4 8 49.3 4.7
-1 -4 8 50.89 8.9
0 4 -8 373.66 23.9
0 -4 8 388.36 28.2
0 -4 8 396.96 27.9
-1 4 -8 405.46 25.6
1 -4 8 370.66 27.8
-2 4 -8 2305.67 134.39
2 -4 8 2254.37 134.19
2 -4 8 2248.48 135.39
-3 4 -8 7.4 4.1
-3 4 -8 14.8 5.1
3 -4 8 12.8 5.5
3 -4 8 20 4.8
-4 4 -8 1118.49 93.39
-4 4 -8 1309.67 77.89
4 -4 8 1305.17 81.99
4 -4 8 1315.57 78.39
-5 4 -8 1030.7 72.89
5 -4 8 1217.98 70.79
5 -4 8 1179.58 75.49
-6 4 -8 225.68 21.6
6 -4 8 225.68 22.7
6 -4 8 259.77 18.9
-7 4 -8 510.35 39.4
7 -4 8 554.14 33.6
7 -4 8 486.05 40.7
-8 4 -8 70.09 15.4
-8 4 -8 49.6 11.1
8 -4 8 45.9 11.4
-9 4 -8 94.39 15.2
-9 4 -8 101.89 19.2
9 -4 8 79.99 15.8
-10 4 -8 20.7 7.8
-10 4 -8 21.3 9.4
10 -4 8 14.7 10.2
-11 4 -8 38.2 14.2
11 -4 8 55.89 37.8
-11 -3 8 23.3 12.6
-11 -3 8 24.9 10.4
-11 -3 8 27.4 9.8
-11 -3 8 42 14.1
-10 -3 8 182.68 23
-10 -3 8 186.08 21.5
-10 -3 8 200.78 23.5
-9 -3 8 2.7 7.9
-9 -3 8 8.3 6.1
-9 -3 8 1.1 6
-8 -3 8 128.19 16.6
-8 -3 8 133.09 16.5
-8 -3 8 137.19 18.8
-7 -3 8 357.96 28.8
-7 -3 8 323.47 30.3
-7 -3 8 348.07 29.8
-6 -3 8 26.3 7.7
-6 -3 8 32.8 7.7
-6 -3 8 32.1 8.1
-5 -3 8 1594.74 106.19
-5 -3 8 1729.93 102.99
-5 -3 8 1789.62 106.29
-4 -3 8 75.59 12.3
-4 -3 8 70.39 8
-3 -3 8 28.9 7
-3 -3 8 25 4.4
2 3 -8 3670.63 205.48
-2 -3 8 3570.94 205.38
-2 -3 8 3606.74 211.58
1 3 -8 1 1.1
-1 -3 8 0.5 2.6
0 3 -8 2349.86 141.59
0 3 -8 2483.15 136.79
0 -3 8 2341.87 141.59
-1 3 -8 101.59 10.7
1 -3 8 103.89 10.8
1 -3 8 105.49 11.1
-2 3 -8 278.97 20.9
2 -3 8 250.47 23.2
2 -3 8 250.47 20.4
-3 3 -8 2390.66 138.19
3 -3 8 2348.57 140.09
3 -3 8 2290.97 138.59
-4 3 -8 661.53 47.6
-4 3 -8 724.93 46.4
4 -3 8 749.62 49.7
4 -3 8 750.12 47.4
-5 3 -8 522.75 47.7
-5 3 -8 591.24 41.9
5 -3 8 749.23 44.1
5 -3 8 769.52 48.1
-6 3 -8 864.71 57.19
-6 3 -8 715.83 52.59
-6 3 -8 699.53 49.1
6 -3 8 847.52 55.89
6 -3 8 865.91 51.09
-7 3 -8 213.58 16.7
-7 3 -8 197.98 20.3
-7 3 -8 250.87 24.8
7 -3 8 284.57 24.4
7 -3 8 238.88 17.8
-8 3 -8 666.63 48.5
-8 3 -8 506.55 40.1
8 -3 8 529.85 42.1
-9 3 -8 51.89 14
-9 3 -8 42.6 10
9 -3 8 52.69 12.6
-10 3 -8 70.59 15.2
10 -3 8 66.99 14.7
-11 3 -8 10.8 9.6
11 -3 8 27 12.7
-11 -2 8 120.89 21.4
-11 -2 8 123.59 21.3
-11 -2 8 116.29 18.7
-10 -2 8 24.6 9.9
-10 -2 8 9.7 7.3
-10 -2 8 30.9 12.3
-9 -2 8 46.3 11.9
-9 -2 8 47.7 11.7
-9 -2 8 26.5 8.7
-8 -2 8 175.58 20.7
-8 -2 8 148.89 17.9
-8 -2 8 146.19 17.3
-7 -2 8 94.19 15.1
-7 -2 8 102.99 17.2
-7 -2 8 106.19 12.8
-6 -2 8 13.5 6.8
-6 -2 8 8.6 4.8
-6 -2 8 13.7 5.3
-5 -2 8 5.2 3.8
-5 -2 8 4.2 3.6
-4 -2 8 775.92 48.8
-4 -2 8 802.62 53.29
-3 -2 8 549.85 36.6
-3 -2 8 460.95 30.5
2 2 -8 224.68 27.7
-2 -2 8 266.97 15.8
-2 -2 8 274.07 21.8
1 2 -8 224.28 13.5
1 2 -8 240.58 19.1
-1 -2 8 221.38 18.9
0 2 -8 789.02 49.4
0 -2 8 727.53 49.2
-1 2 -8 5652.33 323.07
1 -2 8 5514.85 323.27
1 -2 8 5697.03 322.57
-2 2 -8 116.09 11.9
2 -2 8 121.29 12.2
2 -2 8 105.59 11.4
-3 2 -8 330.47 24.5
3 -2 8 333.17 25.6
3 -2 8 306.77 24.5
-4 2 -8 101.49 10.7
-4 2 -8 67.89 11.7
4 -2 8 91.79 10.6
4 -2 8 107.49 11.9
-5 2 -8 266.97 24.1
-5 2 -8 247.58 20.5
5 -2 8 264.27 21.2
5 -2 8 284.17 23.3
-6 2 -8 560.64 41.6
-6 2 -8 454.15 34.3
6 -2 8 550.24 36.2
6 -2 8 537.75 39.4
-7 2 -8 76.49 8.7
-7 2 -8 83.69 15
7 -2 8 95.39 12.5
7 -2 8 88.09 10
-8 2 -8 104.49 9.4
-8 2 -8 121.99 20
8 -2 8 109.89 14.6
-9 2 -8 206.78 25.7
9 -2 8 176.18 20.2
-10 2 -8 11.2 8.2
10 -2 8 40.7 10.3
-11 2 -8 57.49 15.9
11 -2 8 30.7 11.5
-11 -1 8 26.9 10.8
-11 -1 8 43.7 13.7
-11 -1 8 60.79 16.4
-10 -1 8 129.99 23.1
-10 -1 8 112.59 20
-10 -1 8 120.79 18.1
-9 -1 8 3.7 6.2
-9 -1 8 8 5.9
-9 -1 8 14.9 8.8
-8 -1 8 164.28 18.7
-8 -1 8 198.48 20
-8 -1 8 176.68 21.8
-7 -1 8 72.89 14.9
-7 -1 8 62.89 12.1
-7 -1 8 82.69 12.6
-6 -1 8 297.37 27.9
-6 -1 8 304.27 24.2
-6 -1 8 318.57 26.4
-5 -1 8 1107.59 71.39
-5 -1 8 1021.7 65.49
-4 -1 8 346.97 28.3
-4 -1 8 351.06 27.2
-4 -1 8 328.17 23.1
3 1 -8 113.19 12.1
-3 -1 8 92.69 7.9
-3 -1 8 129.29 13
2 1 -8 175.48 16.2
-2 -1 8 189.18 16.8
1 1 -8 474.85 33.2
-1 -1 8 466.95 33.5
0 1 -8 1111.89 67.99
0 1 -8 1210.68 73.09
0 -1 8 1205.08 73.59
-1 1 -8 483.65 33.1
-1 1 -8 436.46 29.7
1 -1 8 483.55 33.6
-2 1 -8 2623.44 148.69
-2 1 -8 2414.66 146.59
2 -1 8 2459.35 147.09
2 -1 8 2537.75 149.09
-3 1 -8 172.68 15.9
-3 1 -8 175.78 15.9
3 -1 8 170.88 15.3
3 -1 8 161.08 16
-4 1 -8 33.1 7.9
-4 1 -8 34.6 7
4 -1 8 42.3 8
4 -1 8 35.3 7.5
-5 1 -8 273.37 23.1
-5 1 -8 309.07 26.3
5 -1 8 325.07 26.3
5 -1 8 313.77 24.3
-6 1 -8 3.1 4
-6 1 -8 1.1 3.1
6 -1 8 9 4
6 -1 8 -6.4 3.4
-7 1 -8 732.53 49.3
-7 1 -8 810.92 57.19
7 -1 8 745.03 52.69
7 -1 8 788.12 50.39
-8 1 -8 45.7 11.9
-8 1 -8 36.7 6.6
8 -1 8 50.49 10.1
-9 1 -8 0.6 2.5
-9 1 -8 2.4 6.2
9 -1 8 15.2 7.3
-10 1 -8 35.6 10.6
10 -1 8 35.4 10
-11 1 -8 22.5 11.9
-11 0 8 68.69 14.2
-11 0 8 70.19 18.6
-11 0 8 76.29 14.1
-10 0 8 44.3 12
-10 0 8 34.9 14.5
-10 0 8 45.4 11.1
-9 0 8 346.67 33.4
-9 0 8 288.37 26.4
-9 0 8 256.07 27.2
-8 0 8 -2.3 5.8
-8 0 8 8.2 5.4
-8 0 8 3.9 4.2
-7 0 8 645.34 46.2
-7 0 8 705.83 52.79
-7 0 8 652.13 47.3
-6 0 8 15.1 5
-6 0 8 10.6 6.5
-6 0 8 10.1 4.7
-5 0 8 312.27 26.5
-5 0 8 318.17 23.7
-5 0 8 348.37 29.1
4 0 -8 16.8 5.4
-4 0 8 7.8 6.6
-4 0 8 12.7 3.4
-4 0 8 18.3 5.5
3 0 -8 45 8.7
-3 0 8 45.5 4.6
-3 0 8 61.09 10
2 0 -8 71.19 9.4
-2 0 8 84.39 10.4
1 0 -8 987.3 56.29
1 0 -8 957 62.69
-1 0 8 1026.5 64.19
0 0 -8 3320.47 190.28
0 0 -8 3141.99 184.88
0 0 8 3277.87 190.88
-1 0 -8 1444.16 86.59
-1 0 -8 1302.37 82.39
1 0 8 1457.15 87.19
-2 0 -8 71.89 9.6
-2 0 -8 45 7.6
2 0 8 47.2 9.3
2 0 8 51.69 6.9
-3 0 -8 1816.12 110.49
-3 0 -8 1921.31 111.59
3 0 8 1808.42 109.19
3 0 8 1778.12 111.49
-4 0 -8 260.37 23
-4 0 -8 305.77 23
4 0 8 261.97 21.3
4 0 8 245.48 22.1
-5 0 -8 60.49 11.8
-5 0 -8 78.49 10.5
5 0 8 80.39 10.8
5 0 8 66.59 10.7
-6 0 -8 695.83 45.1
-6 0 -8 672.23 49.1
6 0 8 670.83 45.3
6 0 8 558.54 48.6
-7 0 -8 8.3 7.6
-7 0 -8 2.6 4.2
7 0 8 14 5.3
7 0 8 11.9 5.2
-8 0 -8 -2.2 3.4
-8 0 -8 15.3 8.6
8 0 8 4.9 5.5
-9 0 -8 5.6 7.3
-9 0 -8 25.1 5.2
9 0 8 20.1 7.6
-10 0 -8 19.9 10.3
-12 1 8 50.79 19.6
-12 1 8 52.39 13.7
-11 1 8 -5.9 7
-11 1 8 17.5 10.7
-11 1 8 1.1 6.9
-10 1 8 50.79 12.7
-10 1 8 16.3 11.9
-10 1 8 34.1 10.1
-9 1 8 154.18 25.2
-9 1 8 91.99 15.8
-9 1 8 88.69 15.2
-8 1 8 326.57 28.2
-8 1 8 323.37 28.5
-8 1 8 324.37 32.9
-7 1 8 185.78 21.9
-7 1 8 171.38 17.4
-7 1 8 162.48 18.2
-6 1 8 230.88 23.9
-6 1 8 193.68 17.9
5 -1 -8 1252.07 73.39
-5 1 8 1023.1 73.59
-5 1 8 1190.08 77.89
4 -1 -8 62.99 8.9
-4 1 8 55.69 10.3
-4 1 8 65.69 12.2
3 -1 -8 1600.14 104.39
-3 1 8 1762.12 107.09
-3 1 8 1752.22 105.79
-3 1 8 1732.63 98.29
2 -1 -8 1035.6 74.89
-2 1 8 1137.19 73.59
-2 1 8 1243.08 66.19
1 -1 -8 500.15 35.7
1 -1 -8 493.35 29.8
-1 1 8 511.15 30.2
-1 1 8 508.65 36.8
0 -1 -8 106.09 11.6
0 -1 -8 82.79 7.7
0 1 8 96.49 8.4
0 1 8 102.89 11.9
-1 -1 -8 542.45 35.6
-1 -1 -8 523.95 39
1 1 8 602.84 40.5
-2 -1 -8 562.64 39.9
-2 -1 -8 545.65 36.8
2 1 8 547.85 39.9
-3 -1 -8 111.19 24.1
-3 -1 -8 130.99 22.4
3 1 8 124.59 12.1
3 1 8 142.39 15.1
-4 -1 -8 251.27 25.4
-4 -1 -8 245.08 21.6
4 1 8 233.38 21.5
4 1 8 221.98 18.9
-5 -1 -8 714.73 52.09
-5 -1 -8 840.32 52.19
5 1 8 731.53 48.9
5 1 8 693.93 50.89
-6 -1 -8 17.4 7.6
-6 -1 -8 19.9 6.6
6 1 8 11.2 4.8
6 1 8 20 7.1
-7 -1 -8 30.8 10.8
-7 -1 -8 23.9 7
7 1 8 26.8 7.6
7 1 8 21.6 7.3
-8 -1 -8 -6.7 3.3
-8 -1 -8 -3 4.3
8 1 8 12.1 5.4
-9 -1 -8 248.88 27.9
-9 -1 -8 176.98 21.4
9 1 8 200.38 17.8
-10 -1 -8 38.9 6.3
-10 -1 -8 30.5 10.7
10 1 8 37 7.4
-12 2 8 1.6 6.2
-12 2 8 5.1 7.6
-12 2 8 8.7 14.1
-11 2 8 6.5 7
-11 2 8 -5.9 5.9
-11 2 8 0.7 10.6
-10 2 8 226.68 25
-10 2 8 258.17 24.2
-10 2 8 257.47 30.7
-9 2 8 497.35 40.2
-9 2 8 523.25 40.1
-9 2 8 523.65 47
-8 2 8 141.79 16.8
-8 2 8 129.19 15.8
-8 2 8 117.69 21.7
-7 2 8 329.67 34.5
-7 2 8 397.76 31.6
6 -2 -8 4.2 3
-6 2 8 10.4 6.4
-6 2 8 2.2 5.9
5 -2 -8 2440.86 138.79
-5 2 8 2090.39 140.09
-5 2 8 2432.36 144.99
4 -2 -8 111.09 12.6
-4 2 8 120.19 9.5
-4 2 8 125.59 15.3
-4 2 8 94.39 12.6
3 -2 -8 1087.29 70.89
-3 2 8 1168.18 65.69
-3 2 8 1023.7 74.89
-3 2 8 1189.08 73.39
2 -2 -8 615.84 45.1
2 -2 -8 675.43 39.5
-2 2 8 655.93 46.8
-2 2 8 657.63 47
-2 2 8 709.93 39.9
1 -2 -8 1778.52 104.59
1 -2 -8 1743.03 111.99
-1 2 8 1814.92 112.09
-1 2 8 1922.81 105.29
0 -2 -8 1208.98 72.99
0 -2 -8 1261.07 80.19
0 2 8 1228.98 73.59
0 2 8 1246.58 79.39
-1 -2 -8 328.47 26.6
-1 -2 -8 303.57 22.6
1 2 8 324.57 23.3
1 2 8 333.87 27.1
-2 -2 -8 91.19 12.3
-2 -2 -8 86.09 10
2 2 8 89.89 12.3
-3 -2 -8 57.09 11.2
-3 -2 -8 46.4 9
3 2 8 48.8 9.9
3 2 8 50.09 6.7
-4 -2 -8 915.41 63.99
-4 -2 -8 1073.39 66.09
4 2 8 955.2 65.49
4 2 8 965.3 60.79
-5 -2 -8 424.36 33.4
-5 -2 -8 445.86 33.4
5 2 8 302.37 42.7
5 2 8 395.36 28.8
-6 -2 -8 27.5 7.9
-6 -2 -8 18.7 8.2
6 2 8 11.3 5.1
6 2 8 25.6 8.1
-7 -2 -8 408.06 40.5
-7 -2 -8 345.67 29.9
7 2 8 385.96 31.2
7 2 8 365.26 27.3
-8 -2 -8 379.96 32.2
-8 -2 -8 511.85 40.4
8 2 8 385.66 28.4
-9 -2 -8 30.9 12.4
-9 -2 -8 30 8.1
9 2 8 21.7 5
-10 -2 -8 43.7 22
-12 3 8 52.29 10.5
-12 3 8 45 13.2
-12 3 8 71.99 20.9
-11 3 8 97.59 17.6
-11 3 8 58.59 34.6
-11 3 8 92.59 27.5
-10 3 8 129.59 25.6
-10 3 8 166.48 18.6
-10 3 8 138.19 18.7
-9 3 8 152.08 26.7
-9 3 8 147.39 17.8
-9 3 8 167.48 19.5
-8 3 8 17.6 7.1
-8 3 8 18 9.4
-7 3 8 320.97 28.2
-7 3 8 295.37 31
6 -3 -8 646.34 44.5
-6 3 8 654.83 51.69
5 -3 -8 75.59 9.9
-5 3 8 58.59 11.7
-5 3 8 74.59 14.7
-5 3 8 50.49 6.7
4 -3 -8 681.23 47.4
-4 3 8 755.02 52.69
-4 3 8 643.74 49.1
-4 3 8 737.93 43.4
3 -3 -8 1040.7 70.89
-3 3 8 1153.88 74.79
-3 3 8 1139.19 73.59
-3 3 8 1145.39 66.19
2 -3 -8 2554.64 153.38
2 -3 -8 2541.35 159.58
-2 3 8 2924.51 154.28
-2 3 8 2737.93 161.88
-2 3 8 2647.94 161.38
1 -3 -8 1309.07 80.69
1 -3 -8 1354.36 86.99
-1 3 8 1389.86 88.29
-1 3 8 1369.06 87.19
-1 3 8 1478.85 81.79
0 -3 -8 1199.88 72.99
0 -3 -8 1225.98 78.69
0 3 8 1222.98 79.49
0 3 8 1244.28 73.69
-1 -3 -8 40.5 7.1
-1 -3 -8 47.7 10
1 3 8 53.59 8.3
1 3 8 54.69 10.9
-2 -3 -8 751.62 48.1
-2 -3 -8 752.92 51.49
2 3 8 691.43 48.3
2 3 8 712.53 53.39
-3 -3 -8 271.27 24.4
-3 -3 -8 295.57 23.3
3 3 8 271.37 26
3 3 8 245.68 22.8
3 3 8 252.97 19.6
-4 -3 -8 23.3 8
-4 -3 -8 22 7
4 3 8 22.4 7.9
4 3 8 31.8 5.9
-5 -3 -8 119.69 15.4
-5 -3 -8 111.09 14.9
5 3 8 112.79 14.6
5 3 8 105.89 11.3
-6 -3 -8 124.29 16
-6 -3 -8 101.79 17.7
6 3 8 93.69 10.4
6 3 8 93.69 15.3
-7 -3 -8 63.89 14.1
-7 -3 -8 48.7 12.3
7 3 8 41.1 11.2
7 3 8 38.6 6.8
-8 -3 -8 49 14.7
-8 -3 -8 59.89 11.4
8 3 8 53.39 6.3
-9 -3 -8 134.89 17.5
-9 -3 -8 111.99 21.3
-10 -3 -8 -6.1 8.8
-10 -3 -8 -5.8 6
-12 4 8 0.6 6.5
-12 4 8 -5.5 5.3
-12 4 8 5.3 12.1
-11 4 8 22.5 8.4
-11 4 8 38 10.8
-11 4 8 22.9 12.6
-10 4 8 8.4 7.6
-10 4 8 19.6 13.6
-10 4 8 11.6 8.1
-9 4 8 22 11
-9 4 8 23.7 7.8
-8 4 8 700.03 58.99
-8 4 8 725.83 52.09
7 -4 -8 76.39 10.1
-7 4 8 67.59 13.2
-7 4 8 64.29 16.6
6 -4 -8 444.56 33.5
-6 4 8 493.25 32
-6 4 8 457.25 40.4
-6 4 8 430.16 37.3
5 -4 -8 9.2 3.8
-5 4 8 -0.5 2.6
-5 4 8 -0.8 4.2
4 -4 -8 16.5 5.2
-4 4 8 11.2 3.4
-4 4 8 5.5 5.8
-4 4 8 4 4.8
3 -4 -8 6.6 4.3
-3 4 8 4.2 2.4
-3 4 8 0.1 4.2
-3 4 8 -0.2 2.6
2 -4 -8 2894.21 166.38
2 -4 -8 2958 173.38
-2 4 8 2605.84 179.68
-2 4 8 2745.43 175.98
-2 4 8 3212.08 167.48
1 -4 -8 510.15 41.4
1 -4 -8 564.24 36.4
-1 4 8 661.13 43.2
-1 4 8 515.65 58.69
-1 4 8 614.94 37.5
0 -4 -8 1884.91 112.59
0 -4 -8 1883.61 118.59
0 4 8 1935.91 113.59
0 4 8 1890.81 117.19
0 4 8 2002.1 126.19
-1 -4 -8 47.4 10.1
-1 -4 -8 29.6 6.2
1 4 8 33.9 9.1
1 4 8 31.8 7.2
-2 -4 -8 1326.67 84.99
-2 -4 -8 1214.08 80.39
2 4 8 1324.17 85.49
2 4 8 1335.07 81.69
-3 -4 -8 -4 3.9
-3 -4 -8 6.8 5.1
3 4 8 6.4 4.7
3 4 8 3.6 5.1
-4 -4 -8 384.26 31.6
-4 -4 -8 446.56 34
4 4 8 365.16 26.4
4 4 8 366.96 32.6
-5 -4 -8 27.6 8.7
-5 -4 -8 28 9.1
5 4 8 20.5 8.1
5 4 8 22.2 5.5
-6 -4 -8 99.29 16.1
-6 -4 -8 79.99 16.2
6 4 8 72.29 8.4
6 4 8 75.79 14.6
-7 -4 -8 0.5 6.2
-7 -4 -8 7 8.1
7 4 8 4.6 2.2
7 4 8 2.6 2.8
-8 -4 -8 51.59 12.8
-8 -4 -8 20.4 11.5
-9 -4 -8 18.9 9
-9 -4 -8 29.4 12.8
-12 5 8 47.3 9.1
-12 5 8 31.7 19.1
-12 5 8 57.89 15
-11 5 8 20.2 9.2
-11 5 8 10.9 6.7
-11 5 8 28 12.1
-10 5 8 271.77 60.69
-10 5 8 335.27 32.6
-9 5 8 14.3 6.5
-9 5 8 9.6 10
8 -5 -8 32.8 7.4
-8 5 8 50.59 14.5
-8 5 8 38.9 9
-8 5 8 36.3 9.7
7 -5 -8 294.27 24.1
-7 5 8 317.57 23.7
-7 5 8 296.27 31.9
-7 5 8 251.97 25.9
6 -5 -8 90.19 11.2
-6 5 8 59.59 13.1
-6 5 8 70.39 9.4
-6 5 8 75.49 17.2
5 -5 -8 3.8 3.7
-5 5 8 -1.9 2.3
-5 5 8 1.2 4.1
-5 5 8 4.1 4.1
4 -5 -8 3074.29 185.18
-4 5 8 3195.38 180.58
-4 5 8 3250.47 191.38
-4 5 8 2967.8 187.58
3 -5 -8 721.13 47
3 -5 -8 770.72 52.89
-3 5 8 784.22 47.7
-3 5 8 772.22 55.69
-3 5 8 775.22 54.99
2 -5 -8 3974 237.98
2 -5 -8 4021.9 244.88
-2 5 8 4350.66 239.28
-2 5 8 4261.77 246.88
-2 5 8 4205.48 247.08
1 -5 -8 352.86 24.8
1 -5 -8 368.66 30.4
-1 5 8 354.46 30
-1 5 8 337.87 30.7
-1 5 8 390.16 26.1
0 -5 -8 58.29 8.5
0 -5 -8 57.39 11.4
0 5 8 64.29 8.2
0 5 8 56.09 12.2
0 5 8 47.4 10.2
-1 -5 -8 1605.84 100.59
-1 -5 -8 1489.95 94.29
1 5 8 1620.14 101.39
1 5 8 1567.64 95.49
1 5 8 1526.95 96.59
-2 -5 -8 101.09 13.9
-2 -5 -8 70.09 11.6
2 5 8 78.89 10.7
2 5 8 107.29 12.6
2 5 8 83.19 15.3
-3 -5 -8 83.09 13.2
-3 -5 -8 92.39 15.5
3 5 8 72.69 14.5
3 5 8 65.49 12.8
3 5 8 92.29 10.7
-4 -5 -8 12.4 6.3
-4 -5 -8 4.2 4.9
4 5 8 5.3 5.7
4 5 8 9.8 4
4 5 8 -4.8 4.3
4 5 8 13.8 4.2
-5 -5 -8 35.3 10.3
-5 -5 -8 21.6 8.4
5 5 8 21.3 5.4
5 5 8 23.7 9.6
5 5 8 25.2 5.5
-6 -5 -8 448.26 36.2
-6 -5 -8 429.06 52.39
6 5 8 337.47 23.9
6 5 8 370.86 24.2
6 5 8 367.56 33.5
-7 -5 -8 27.1 10.7
-7 -5 -8 -7.4 7.3
-8 -5 -8 270.07 29
-8 -5 -8 289.67 31.2
-9 -5 -8 63.79 14.9
-9 -5 -8 67.39 17.2
-12 6 8 43.3 8.9
-12 6 8 61.79 14.8
-12 6 8 55.89 20.3
-11 6 8 345.37 41.9
-11 6 8 370.56 30.7
-10 6 8 -5.5 8
-10 6 8 4.9 7
-9 6 8 341.17 28.3
-9 6 8 311.87 36.9
-9 6 8 318.87 29.5
8 -6 -8 241.58 22
8 -6 -8 266.87 27.4
-8 6 8 305.17 23.7
-8 6 8 226.88 24.6
-8 6 8 255.47 31.2
7 -6 -8 4 5
7 -6 -8 2.8 4
-7 6 8 4.8 4
-7 6 8 -3.2 6
-7 6 8 -1.7 4.5
6 -6 -8 484.65 37.4
6 -6 -8 553.04 43.1
-6 6 8 569.54 36.1
-6 6 8 458.35 40.3
-6 6 8 541.05 46.1
5 -6 -8 759.12 51.99
5 -6 -8 788.42 55.59
-5 6 8 798.32 48.3
-5 6 8 608.74 52.99
-5 6 8 826.22 59.59
4 -6 -8 174.78 18.4
4 -6 -8 177.38 19.6
-4 6 8 165.48 19.5
-4 6 8 151.98 20.5
-4 6 8 186.08 14.9
3 -6 -8 1227.08 82.29
3 -6 -8 1236.98 76.49
-3 6 8 1336.77 86.29
-3 6 8 1288.47 77.19
-3 6 8 1296.87 85.19
2 -6 -8 295.07 26.9
2 -6 -8 306.47 22.1
-2 6 8 325.77 23.1
-2 6 8 308.17 28.3
-2 6 8 324.87 29.4
1 -6 -8 3080.89 186.98
1 -6 -8 3041.7 179.88
-1 6 8 3291.17 181.48
-1 6 8 3237.68 189.28
-1 6 8 2818.02 192.78
0 -6 -8 49.1 11.4
0 -6 -8 36.2 6.7
0 6 8 31.2 9.6
0 6 8 27.8 7.6
0 6 8 49.3 8.7
-1 -6 -8 90.19 11.1
-1 -6 -8 107.79 14.9
1 6 8 78.99 15.4
1 6 8 91.09 12
1 6 8 97.69 11.7
-2 -6 -8 1346.07 90.59
-2 -6 -8 1342.57 85.79
2 6 8 1432.76 92.49
2 6 8 1379.56 86.89
2 6 8 1349.16 85.49
-3 -6 -8 6.7 6
-3 -6 -8 9.6 6.8
3 6 8 11.1 4.8
3 6 8 4.9 5
3 6 8 2.7 5
-4 -6 -8 411.26 35.3
-4 -6 -8 395.66 33.1
4 6 8 378.16 45
4 6 8 388.56 26.3
4 6 8 394.16 28.1
4 6 8 362.96 34.6
-5 -6 -8 632.64 47.1
-5 -6 -8 659.43 49.1
5 6 8 595.44 47.5
5 6 8 558.14 37.8
5 6 8 564.94 37.1
5 6 8 604.54 47.4
-6 -6 -8 54.19 13.7
-6 -6 -8 14.6 9.4
6 6 8 44.9 13.4
-7 -6 -8 307.27 33.6
-7 -6 -8 301.67 30.6
-8 -6 -8 18.9 12.1
-8 -6 -8 18.1 11.5
-9 -6 -8 95.89 19.6
-9 -6 -8 125.29 24.3
-12 7 8 54.29 22.5
-12 7 8 48.4 9.5
-12 7 8 65.79 15.6
-11 7 8 27.3 16.3
-11 7 8 24.8 8.4
-10 7 8 168.58 19.9
-10 7 8 168.48 31.2
9 -7 -8 250.27 21.2
-9 7 8 257.47 23.3
-9 7 8 243.78 57.09
-9 7 8 190.78 23.3
8 -7 -8 181.08 22.7
8 -7 -8 202.38 18.6
-8 7 8 178.98 29.9
-8 7 8 207.58 19.1
-8 7 8 146.69 20
7 -7 -8 160.58 21.1
7 -7 -8 168.58 17
-7 7 8 143.09 18.8
-7 7 8 148.99 15.4
-7 7 8 188.68 25.1
6 -7 -8 92.89 17.2
6 -7 -8 113.39 13.1
-6 7 8 110.49 11.5
-6 7 8 103.79 20.5
-6 7 8 85.39 16.2
5 -7 -8 332.27 30.9
5 -7 -8 356.16 29.1
-5 7 8 304.57 30.6
-5 7 8 362.86 34.6
-5 7 8 361.26 25.5
4 -7 -8 551.34 46.9
4 -7 -8 695.43 47.3
4 -7 -8 643.94 42
-4 7 8 634.74 49.1
-4 7 8 629.84 50.89
-4 7 8 654.83 42
3 -7 -8 573.24 42.8
3 -7 -8 511.05 35.8
3 -7 -8 515.65 41.3
-3 7 8 548.05 43.8
-3 7 8 611.84 45.7
2 -7 -8 759.82 47.5
2 -7 -8 737.83 53.59
-2 7 8 749.62 51.79
-2 7 8 747.03 55.89
-2 7 8 707.73 54.09
1 -7 -8 83.79 9.5
1 -7 -8 74.39 14
-1 7 8 86.29 10.7
-1 7 8 76.09 15.3
-1 7 8 89.69 15.1
0 -7 -8 1604.74 98.69
0 -7 -8 1605.24 105.39
0 7 8 1594.84 103.59
0 7 8 1700.43 108.09
0 7 8 1652.63 100.19
-1 -7 -8 550.44 40.5
-1 -7 -8 624.04 46.6
1 7 8 581.44 41.7
1 7 8 597.04 43.1
1 7 8 589.84 47.6
-2 -7 -8 300.87 25.8
-2 -7 -8 324.57 30.2
2 7 8 329.57 26.1
2 7 8 314.07 30.9
2 7 8 293.17 26.6
-3 -7 -8 814.62 55.69
-3 -7 -8 835.12 60.09
3 7 8 752.32 59.19
3 7 8 754.12 56.09
3 7 8 813.22 52.59
-4 -7 -8 9.2 8
-4 -7 -8 -2.4 3.8
4 7 8 1.8 4.8
4 7 8 1.4 3.1
4 7 8 3.5 5.9
4 7 8 -0.7 2.3
-5 -7 -8 153.88 18.7
-5 -7 -8 174.98 21.8
5 7 8 119.89 20.7
5 7 8 133.49 11.2
5 7 8 129.89 10.7
-6 -7 -8 19.6 9.5
-6 -7 -8 54.69 14.9
6 7 8 21.5 9.4
-7 -7 -8 322.17 34
-7 -7 -8 392.36 37.4
-8 -7 -8 118.39 22.2
-8 -7 -8 80.29 17.9
-9 -7 -8 7 9.6
-12 8 8 40.7 20.2
-12 8 8 62.19 11
-11 8 8 194.88 35.8
-10 8 8 15.5 7.8
-10 8 8 10.4 12.2
9 -8 -8 454.45 34.4
-9 8 8 445.86 47
-9 8 8 475.85 36.2
-9 8 8 438.46 37.7
8 -8 -8 849.22 56.19
-8 8 8 924.21 56.79
-8 8 8 776.02 67.89
-8 8 8 737.33 59.89
7 -8 -8 365.56 35
7 -8 -8 379.16 29.7
-7 8 8 324.87 32.4
-7 8 8 368.86 38.1
-7 8 8 372.76 28.3
6 -8 -8 446.56 40.7
6 -8 -8 477.05 37.5
-6 8 8 568.44 36.1
-6 8 8 553.84 47.1
-6 8 8 455.75 40.8
5 -8 -8 21.6 7.5
5 -8 -8 21.4 9.2
-5 8 8 30.2 6.9
-5 8 8 35.1 10.8
-5 8 8 35.5 10.7
4 -8 -8 725.83 53.19
4 -8 -8 729.53 51.89
4 -8 -8 664.63 54.19
-4 8 8 673.13 55.49
-4 8 8 866.91 60.39
-4 8 8 829.82 49.5
3 -8 -8 673.13 51.49
3 -8 -8 645.74 51.19
3 -8 -8 669.13 45.7
-3 8 8 748.13 55.19
-3 8 8 744.03 46.7
-3 8 8 759.92 55.29
2 -8 -8 258.37 26.2
2 -8 -8 247.48 28.7
-2 8 8 291.77 27.8
-2 8 8 292.67 22.8
-2 8 8 311.67 29.2
1 -8 -8 1064.59 78.19
1 -8 -8 1108.99 71.79
-1 8 8 1177.78 81.29
-1 8 8 1239.08 74.09
-1 8 8 1191.78 78.59
0 -8 -8 138.99 15
0 -8 -8 187.58 20.7
0 8 8 157.38 21.3
0 8 8 159.18 18.2
0 8 8 162.08 16.4
-1 -8 -8 226.08 25
-1 -8 -8 215.18 20.4
1 8 8 229.18 21.3
1 8 8 239.78 26.4
1 8 8 232.58 22.4
-2 -8 -8 416.96 37.4
-2 -8 -8 380.56 31.8
2 8 8 390.86 33.3
2 8 8 431.66 32.2
2 8 8 427.56 38.3
-3 -8 -8 739.73 58.09
-3 -8 -8 792.12 53.89
3 8 8 793.92 59.39
3 8 8 750.02 50.29
3 8 8 645.34 58.89
-4 -8 -8 23.7 14.5
-4 -8 -8 41.8 11.5
4 8 8 19.2 9.2
4 8 8 0.5 7
4 8 8 26.7 5.1
4 8 8 28.3 6.7
-5 -8 -8 44.6 13.4
-5 -8 -8 40.6 13.5
5 8 8 55.49 5
5 8 8 53.39 5
5 8 8 52.49 14.9
-6 -8 -8 500.25 42.6
-6 -8 -8 400.46 37.1
6 8 8 351.86 37.5
-7 -8 -8 97.79 18.9
-7 -8 -8 127.19 28.2
-8 -8 -8 9.3 10.8
-11 9 8 78.39 15.9
-11 9 8 50.79 18.1
10 -9 -8 175.98 17.8
-10 9 8 151.18 19.8
-10 9 8 145.29 29.8
9 -9 -8 -6.7 3.7
-9 9 8 10.6 7.7
-9 9 8 1.6 5.2
-9 9 8 2.2 10
8 -9 -8 636.44 46.1
-8 9 8 707.23 62.09
-8 9 8 625.34 50.69
7 -9 -8 159.98 21.7
7 -9 -8 175.88 18.1
-7 9 8 174.78 29.2
-7 9 8 147.39 19.6
-7 9 8 164.28 16.7
6 -9 -8 156.38 17.7
6 -9 -8 141.89 19
-6 9 8 124.09 18
-6 9 8 138.39 14.1
-6 9 8 116.49 22.7
5 -9 -8 563.54 43
-5 9 8 532.45 45.4
-5 9 8 568.34 39
-5 9 8 558.14 49.4
4 -9 -8 23.7 8.1
4 -9 -8 13.8 7.9
4 -9 -8 13.1 5.3
-4 9 8 10.9 7.7
-4 9 8 10.3 7.5
-4 9 8 16.3 5.5
3 -9 -8 96.39 16.9
3 -9 -8 90.79 16.3
3 -9 -8 85.69 10.5
-3 9 8 77.89 16.8
-3 9 8 87.59 10.8
-3 9 8 87.99 17
2 -9 -8 477.55 34.2
2 -9 -8 449.76 38.7
2 -9 -8 482.85 40.3
-2 9 8 528.85 43.5
-2 9 8 515.15 35.7
-2 9 8 464.05 40.3
1 -9 -8 425.76 38.3
1 -9 -8 410.26 32.3
-1 9 8 497.55 39
-1 9 8 445.06 34
-1 9 8 493.95 42
0 -9 -8 825.32 54.19
0 -9 -8 733.33 59.59
0 9 8 805.12 61.99
0 9 8 862.31 55.89
0 9 8 800.82 57.89
-1 -9 -8 -4.2 3
-1 -9 -8 12.5 8.2
1 9 8 0.9 6.5
1 9 8 15.5 6.6
1 9 8 -1.1 7.4
-2 -9 -8 563.94 41.6
-2 -9 -8 518.75 60.79
2 9 8 585.84 48.6
2 9 8 564.74 41
2 9 8 532.35 42.6
-3 -9 -8 14.9 7.5
-3 -9 -8 15.7 10.1
3 9 8 12.2 6.9
3 9 8 2.3 4.7
3 9 8 21.5 6.4
-4 -9 -8 36.6 10.7
-4 -9 -8 22.6 11.5
4 9 8 42.7 7.6
4 9 8 51.39 14.9
4 9 8 44.5 6
-5 -9 -8 491.75 44.9
-5 -9 -8 461.45 40.3
5 9 8 451.55 42.7
-6 -9 -8 2.8 5.9
-7 -9 -8 146.79 23.9
-8 -9 -8 40.5 14.3
-11 10 8 62.69 19
10 -10 -8 43.8 9.4
-10 10 8 30.5 17.7
-10 10 8 38.1 11.4
9 -10 -8 339.87 28
-9 10 8 334.57 28.7
-9 10 8 276.17 37.2
-9 10 8 330.77 32.7
8 -10 -8 -6.2 5.1
-8 10 8 4.5 5.7
-8 10 8 13.8 8
-8 10 8 13.8 11.4
7 -10 -8 90.09 12.4
-7 10 8 61.19 14.1
-7 10 8 57.49 11.3
-7 10 8 83.09 20.5
6 -10 -8 259.77 25.8
6 -10 -8 296.07 30.5
-6 10 8 312.87 34.1
-6 10 8 254.07 29.3
-6 10 8 314.77 24.9
5 -10 -8 17.4 9.5
5 -10 -8 33.8 9.7
-5 10 8 37.9 12.8
-5 10 8 23.7 9.8
-5 10 8 47.2 9.1
4 -10 -8 254.57 21.5
4 -10 -8 264.67 26.5
4 -10 -8 260.97 26.9
-4 10 8 276.07 22.6
-4 10 8 236.48 27.8
-4 10 8 270.67 29.2
3 -10 -8 108.59 18.3
3 -10 -8 95.89 11.6
3 -10 -8 80.09 15.7
-3 10 8 92.39 18.1
-3 10 8 73.89 16.5
-3 10 8 113.79 12.4
2 -10 -8 929.61 69.19
2 -10 -8 946.61 62.29
2 -10 -8 966.2 67.89
-2 10 8 950.7 70.09
-2 10 8 979.6 72.49
-2 10 8 1022 64.19
1 -10 -8 76.09 15.4
1 -10 -8 90.39 11.6
-1 10 8 79.19 17.3
-1 10 8 83.39 16.4
-1 10 8 104.79 13.3
0 -10 -8 244.48 22.2
0 -10 -8 208.58 29.9
0 10 8 253.87 23.4
0 10 8 243.58 24.8
0 10 8 268.37 29.6
-1 -10 -8 318.67 34.8
-1 -10 -8 422.36 31.9
1 10 8 412.76 38.6
1 10 8 403.86 33.2
1 10 8 371.06 32.3
-2 -10 -8 -1.2 4.2
-2 -10 -8 -5.6 4.4
2 10 8 -7.6 3.2
2 10 8 -3.3 4.3
2 10 8 6.9 8.6
-3 -10 -8 78.49 17.1
-3 -10 -8 58.59 12.7
3 10 8 50.19 9.8
3 10 8 55.99 14.6
3 10 8 60.99 13.6
-4 -10 -8 66.99 29
-4 -10 -8 98.49 17.2
4 10 8 80.19 18.7
4 10 8 63.79 8.6
-5 -10 -8 -5.5 6.9
5 10 8 -4.4 8.4
-6 -10 -8 290.67 31.1
-7 -10 -8 -0.2 8.8
-11 11 8 81.29 16.8
-11 11 8 101.49 24.6
10 -11 -8 -2.4 5.6
-10 11 8 -1 10.7
-10 11 8 2 8.3
9 -11 -8 52.99 10.9
-9 11 8 55.89 19.1
-9 11 8 63.79 15.3
8 -11 -8 152.18 18.9
-8 11 8 188.48 24
-8 11 8 168.88 30.7
-8 11 8 213.98 19.6
7 -11 -8 30.7 8.5
-7 11 8 22.6 11.9
-7 11 8 20.7 10.2
-7 11 8 14.4 8.5
6 -11 -8 697.93 52.69
6 -11 -8 669.13 78.69
-6 11 8 778.82 63.29
-6 11 8 750.02 49.5
-6 11 8 646.94 56.49
5 -11 -8 94.19 12.9
5 -11 -8 97.89 16.8
5 -11 -8 93.39 17.4
-5 11 8 123.79 23.9
-5 11 8 131.39 14
-5 11 8 104.19 20.9
4 -11 -8 -8.5 3.5
4 -11 -8 6 6
4 -11 -8 4 4.2
-4 11 8 -1.6 4.6
-4 11 8 12.6 5.5
-4 11 8 18 8.9
3 -11 -8 1641.64 108.39
3 -11 -8 1663.73 100.59
3 -11 -8 1570.04 106.89
-3 11 8 1674.23 110.79
-3 11 8 1487.15 110.29
-3 11 8 1731.03 102.19
2 -11 -8 41.9 9.6
2 -11 -8 71.19 14.9
2 -11 -8 31.5 19
-2 11 8 70.69 16.3
-2 11 8 65.09 15.2
-2 11 8 51.79 10.9
1 -11 -8 1048.6 69.19
1 -11 -8 903.91 74.89
-1 11 8 1095.89 75.79
-1 11 8 1156.58 80.19
-1 11 8 1120.59 71.49
0 -11 -8 30.2 7.9
0 -11 -8 39.5 11.8
0 11 8 29.2 12.5
0 11 8 24.5 9
0 11 8 42.7 10.2
-1 -11 -8 339.87 29.7
-1 -11 -8 361.36 35.9
1 11 8 371.96 32.2
1 11 8 342.17 31.5
1 11 8 393.86 38.5
-2 -11 -8 52.59 11
-2 -11 -8 19 11.1
2 11 8 35.9 11
2 11 8 34.8 11
2 11 8 53.39 15.1
-3 -11 -8 37.7 16.3
3 11 8 29.1 12.9
3 11 8 38.6 8.9
-4 -11 -8 230.18 24.4
4 11 8 186.58 25.7
4 11 8 181.38 15.4
-5 -11 -8 40.8 12.6
5 11 8 43.1 13.8
-6 -11 -8 119.49 21.4
-7 -11 -8 -2.7 7.7
11 -12 -8 19 8.6
-11 12 8 -27.1 12.2
-11 12 8 10.9 9.3
10 -12 -8 191.08 20
-10 12 8 125.99 30
-10 12 8 172.48 22.5
9 -12 -8 9.8 6.9
-9 12 8 10 9
-9 12 8 20.9 10.7
8 -12 -8 171.88 19.7
-8 12 8 223.88 30.2
-8 12 8 179.98 23.3
-8 12 8 157.08 18.6
7 -12 -8 736.83 52.59
-7 12 8 700.13 49
-7 12 8 688.33 62.19
-7 12 8 613.74 55.29
6 -12 -8 33.4 12.2
-6 12 8 11.2 7.7
-6 12 8 28.5 12.5
-6 12 8 12 11.6
5 -12 -8 -1.6 4.3
5 -12 -8 2.9 7.4
5 -12 -8 -13.2 5.9
-5 12 8 -1.7 8
-5 12 8 -10.8 6.4
-5 12 8 20.5 6.7
4 -12 -8 25.6 10.6
4 -12 -8 46.2 9.5
4 -12 -8 32.3 10.9
-4 12 8 41.1 14.9
-4 12 8 21.1 10.2
-4 12 8 21.3 7.6
3 -12 -8 56.09 13.8
3 -12 -8 58.69 14.7
3 -12 -8 40.2 9.6
-3 12 8 58.99 11.6
-3 12 8 44.3 14.1
-3 12 8 36.2 12.6
2 -12 -8 1505.15 94.09
2 -12 -8 1446.36 101.39
2 -12 -8 1530.65 100.49
-2 12 8 1427.26 101.69
-2 12 8 1477.45 105.09
-2 12 8 1570.94 96.09
1 -12 -8 270.07 29.7
1 -12 -8 241.38 23.1
-1 12 8 259.57 30.1
-1 12 8 229.08 26.7
-1 12 8 241.98 23.8
0 -12 -8 149.39 21.3
0 -12 -8 162.98 18.2
0 12 8 162.18 19.4
0 12 8 156.58 20.3
0 12 8 161.78 27.3
-1 -12 -8 50.29 11.7
1 12 8 63.29 12.7
1 12 8 52.29 14.3
1 12 8 44.7 12.2
-2 -12 -8 33.7 10.3
2 12 8 35.3 9.7
2 12 8 57.29 27.1
-3 -12 -8 72.39 15
3 12 8 74.29 18.3
3 12 8 71.89 12
-4 -12 -8 6.8 5.2
4 12 8 -2.7 2.9
4 12 8 -2.7 5.2
-5 -12 -8 293.27 30.6
-6 -12 -8 -2.1 6.9
11 -13 -8 165.78 20.4
-11 13 8 171.28 22.3
10 -13 -8 55.39 12.4
-10 13 8 46.4 17.1
-10 13 8 57.19 14.8
9 -13 -8 321.97 43.8
-9 13 8 270.87 37.5
-9 13 8 277.77 32
8 -13 -8 28.5 9.8
-8 13 8 31.7 15.8
-8 13 8 41.9 13.6
7 -13 -8 27.9 9.7
-7 13 8 13.2 8.1
-7 13 8 20.1 8.1
-7 13 8 14.9 10.6
6 -13 -8 106.79 19.8
-6 13 8 91.39 19.6
-6 13 8 133.09 26.5
-6 13 8 97.79 15.4
5 -13 -8 120.99 20.2
5 -13 -8 139.19 15.1
-5 13 8 69.69 18.3
-5 13 8 102.19 15.5
-5 13 8 111.69 23.7
4 -13 -8 114.39 20.6
4 -13 -8 97.59 18.8
4 -13 -8 104.29 15.6
-4 13 8 128.69 23.6
-4 13 8 125.79 23.8
-4 13 8 117.29 28.1
3 -13 -8 17.8 9.7
3 -13 -8 16.4 7.2
3 -13 -8 12.2 9.4
-3 13 8 13.4 11
-3 13 8 8.8 9.8
-3 13 8 16.8 9.7
2 -13 -8 181.28 36.9
2 -13 -8 131.69 16.7
2 -13 -8 121.79 22.4
-2 13 8 114.19 23.5
-2 13 8 143.59 24.2
-2 13 8 169.28 18.7
1 -13 -8 895.21 60.79
-1 13 8 906.81 66.89
-1 13 8 823.82 70.19
-1 13 8 877.71 62.29
0 -13 -8 61.69 13.2
0 13 8 59.49 12.6
0 13 8 45.5 17
0 13 8 48.4 13.6
-1 -13 -8 329.37 30.4
1 13 8 311.87 36.7
1 13 8 338.97 31.3
-2 -13 -8 27.7 9
2 13 8 18.1 7.3
2 13 8 12.4 10.2
-3 -13 -8 45.9 13.4
3 13 8 60.79 10.6
3 13 8 77.09 18.5
-4 -13 -8 111.49 20.3
4 13 8 96.89 23.8
4 13 8 99.09 9.7
-5 -13 -8 26.3 10.9
-6 -13 -8 23.7 12.2
10 -14 -8 197.38 21.9
-10 14 8 135.79 23.9
-10 14 8 137.99 31.8
9 -14 -8 8 8.2
-9 14 8 9.7 9.6
-9 14 8 -7.3 7.3
8 -14 -8 199.88 23.8
-8 14 8 190.48 26.2
-8 14 8 188.48 33.8
7 -14 -8 213.78 24.5
-7 14 8 193.18 26.9
-7 14 8 203.08 34.7
6 -14 -8 35.5 12.7
-6 14 8 49.99 17.3
-6 14 8 31.7 13.5
-6 14 8 46.7 10.4
5 -14 -8 281.57 25
5 -14 -8 189.78 26.1
-5 14 8 262.57 33.8
-5 14 8 278.77 25
-5 14 8 264.97 31.7
4 -14 -8 54.69 23.3
4 -14 -8 72.99 13
-4 14 8 62.49 13
-4 14 8 75.89 19
-4 14 8 67.29 17.9
3 -14 -8 996.7 73.99
3 -14 -8 1004.9 67.79
-3 14 8 817.42 75.49
-3 14 8 1075.49 78.29
-3 14 8 1126.09 70.49
2 -14 -8 28.1 11.4
2 -14 -8 21.3 8.2
-2 14 8 9.9 8
-2 14 8 7.3 9.3
-2 14 8 11 8.9
1 -14 -8 93.99 15.1
-1 14 8 83.89 15.4
-1 14 8 61.09 16.1
-1 14 8 83.49 17.6
0 -14 -8 76.09 14.7
0 14 8 58.59 15
0 14 8 34.6 14
-1 -14 -8 21.9 9.8
1 14 8 10.9 7.2
1 14 8 16.5 10.3
-2 -14 -8 13.5 7.9
2 14 8 31.4 12.6
2 14 8 9.2 6.3
-3 -14 -8 339.07 32.3
3 14 8 333.77 38.3
3 14 8 285.37 25.2
-4 -14 -8 1.1 4.2
4 14 8 -3.8 2.7
-5 -14 -8 136.39 23.8
10 -15 -8 90.69 16.9
-10 15 8 75.69 29.2
-10 15 8 80.99 18.8
9 -15 -8 203.78 23.3
-9 15 8 164.38 33.5
-9 15 8 163.88 27.4
8 -15 -8 19 10.8
-8 15 8 21.9 10.6
-8 15 8 6.5 10.3
-7 15 8 67.79 21.1
-7 15 8 64.79 17.1
-6 15 8 60.89 17.6
-6 15 8 72.59 20.4
5 -15 -8 33.5 9.6
-5 15 8 28.2 15.6
-5 15 8 21.1 22.2
4 -15 -8 858.41 57.39
-4 15 8 816.82 70.99
-4 15 8 810.02 80.19
-4 15 8 694.03 64.89
3 -15 -8 2.2 5.9
-3 15 8 10.7 9.9
-3 15 8 18 10.1
2 -15 -8 509.95 38.3
2 -15 -8 418.16 41.1
-2 15 8 484.05 44.2
-2 15 8 389.66 44.3
1 -15 -8 1.4 6.2
-1 15 8 -7.6 6.3
-1 15 8 -10.4 4.9
0 -15 -8 20.1 9.4
0 15 8 14 11
0 15 8 27.2 10.3
-1 -15 -8 66.29 14.6
1 15 8 73.39 15.9
1 15 8 73.59 17.9
-2 -15 -8 -2.1 7.6
2 15 8 7.1 8.4
2 15 8 9.3 6.9
-3 -15 -8 19.5 9.7
3 15 8 29.7 13
3 15 8 25.8 8
-4 -15 -8 2.4 6.9
4 15 8 3.1 2.5
-5 -15 -8 -5.4 8.2
-10 16 8 29.3 13.3
-10 16 8 49 21.5
-9 16 8 81.69 23.4
-9 16 8 46.8 21.6
-8 16 8 213.48 40.1
-8 16 8 270.37 36.7
-7 16 8 2.5 11.3
-7 16 8 7.4 9.2
-6 16 8 40.5 15.1
-6 16 8 43.1 15.6
5 -16 -8 21.4 8.5
-5 16 8 28.5 13.1
-5 16 8 3.1 9.2
4 -16 -8 23.2 9.4
-4 16 8 31.4 14.1
-4 16 8 21 14.3
3 -16 -8 80.49 14.8
-3 16 8 77.79 23.6
-3 16 8 47.6 16.9
2 -16 -8 9.8 6.8
2 -16 -8 9.3 17
-2 16 8 -5.8 6.9
-2 16 8 3.6 6.3
1 -16 -8 409.26 35.1
-1 16 8 331.37 41.5
-1 16 8 408.76 39.1
0 -16 -8 80.69 15.8
0 16 8 72.79 16.8
-1 -16 -8 22.9 9.9
1 16 8 26.4 13.3
1 16 8 4.2 7.1
-2 -16 -8 -9.2 5.8
2 16 8 8.8 6.4
2 16 8 16.3 10.9
-3 -16 -8 49.1 14.2
3 16 8 37.6 23.1
-4 -16 -8 195.98 25.5
-9 17 8 5.5 11.3
-9 17 8 1 14.1
-8 17 8 32.6 13.7
-8 17 8 47.5 19.2
-7 17 8 118.49 24.8
-7 17 8 81.09 21
6 -17 -8 10.3 6
-6 17 8 19.8 13.6
-6 17 8 5 10.5
5 -17 -8 88.39 16
-5 17 8 80.89 22
-5 17 8 88.59 22.8
4 -17 -8 16.5 8.9
-4 17 8 13.2 13.5
-4 17 8 17 13.2
3 -17 -8 145.69 17.7
-3 17 8 87.69 21.6
-3 17 8 107.49 24
2 -17 -8 177.28 20
-2 17 8 109.39 26.8
1 -17 -8 -4.9 6.1
-1 17 8 -10.7 4.6
-1 17 8 3 9.3
0 -17 -8 161.78 20.4
0 17 8 119.59 21.7
0 17 8 104.69 24
-1 -17 -8 5.2 7.2
1 17 8 19.9 9.8
1 17 8 13 12
-2 -17 -8 18.4 10.2
2 17 8 2.8 7.8
2 17 8 18.8 12.1
-3 -17 -8 77.59 29.8
-8 18 8 7.8 11.5
-8 18 8 29.3 22.4
-7 18 8 89.89 22.3
-7 18 8 130.19 30.2
6 -18 -8 101.69 17.5
-6 18 8 50.89 18
-6 18 8 47.5 18.3
5 -18 -8 30.2 9.5
-5 18 8 10.4 11
-5 18 8 35.3 17.9
4 -18 -8 92.89 16.7
-4 18 8 89.79 21.9
-4 18 8 116.39 25.3
3 -18 -8 83.89 16.3
-3 18 8 66.49 19.2
-3 18 8 45.9 17
2 -18 -8 84.99 16.1
-2 18 8 131.49 23.4
-2 18 8 66.59 19.5
1 -18 -8 121.49 19.8
-1 18 8 101.59 25
-1 18 8 92.69 24.6
0 -18 -8 5 7.9
0 18 8 -2.4 9.8
0 18 8 -11.7 6.3
-1 -18 -8 148.99 24.2
1 18 8 171.88 22
1 18 8 141.29 29.3
-2 -18 -8 25.1 32.2
2 18 8 7.3 8.7
-7 19 8 31.8 30.2
6 -19 -8 5.1 7.6
-6 19 8 3.7 12.9
-6 19 8 26.5 13.2
5 -19 -8 91.39 16.1
-5 19 8 40.2 18.1
-5 19 8 78.79 21.6
4 -19 -8 -0.2 7.7
-4 19 8 12.9 10.9
-4 19 8 25 12.2
3 -19 -8 366.46 33.2
-3 19 8 281.37 40
-3 19 8 382.26 41.3
2 -19 -8 48.2 13
-2 19 8 17.4 13.7
-2 19 8 33.3 15.9
1 -19 -8 23.2 11.6
-1 19 8 54.29 18.9
-1 19 8 22.8 14.1
0 -19 -8 347.97 34.5
0 19 8 335.57 35.7
-1 -19 -8 0.1 15.9
1 19 8 -3.4 9.8
6 -20 -8 -9.9 6.9
-6 20 8 1.2 11.1
-6 20 8 -3.5 14
5 -20 -8 41.4 12.4
-5 20 8 15.4 13.5
-5 20 8 17.6 15.3
4 -20 -8 110.49 19
-4 20 8 116.19 25.5
-4 20 8 93.79 24.4
3 -20 -8 12.8 8.2
-3 20 8 9.7 12.5
-3 20 8 -3.6 10.6
2 -20 -8 93.79 17.8
-2 20 8 69.09 20.1
-2 20 8 39.4 27.9
1 -20 -8 81.39 16.8
-1 20 8 106.29 21.6
-1 20 8 61.79 20.6
-1 23 -9 135.49 22
1 -23 9 82.09 17.2
-2 23 -9 8.1 9.1
2 -23 9 0.1 8
-3 23 -9 7.1 9.3
-4 23 -9 373.06 39.1
4 -23 9 302.17 56.39
-5 23 -9 5.5 11.2
-1 -22 9 72.39 16.4
0 22 -9 182.78 23.2
0 -22 9 136.09 23.6
-1 22 -9 -8.7 6
1 -22 9 4.1 7.8
-2 22 -9 102.09 19.1
2 -22 9 86.69 18.8
-3 22 -9 124.49 21
3 -22 9 85.39 19.1
-4 22 -9 63.19 15.8
-5 22 -9 451.85 44.5
-6 22 -9 25.4 12.3
-2 -21 9 87.89 18.6
-1 -21 9 26.6 10.3
0 21 -9 88.89 16.6
0 -21 9 87.29 16.6
1 -21 9 96.29 18.7
-2 21 -9 8 9
2 -21 9 3.9 8.3
-3 21 -9 403.46 39.1
3 -21 9 366.66 36.8
-4 21 -9 80.89 20.6
-5 21 -9 83.69 19.7
-6 21 -9 287.97 35.3
-7 21 -9 49.6 17
-3 -20 9 7.4 10
-3 -20 9 -6 11.3
-2 -20 9 -6.4 5.7
-2 -20 9 11.3 21.2
-1 -20 9 165.58 21.9
0 20 -9 234.78 25.4
0 -20 9 286.77 28.8
-1 20 -9 107.99 19
1 -20 9 113.99 19.6
-2 20 -9 384.36 36.3
2 -20 9 345.37 35
-3 20 -9 7.8 9.2
3 -20 9 11.7 7.7
-4 20 -9 816.82 65.89
-5 20 -9 418.56 41.7
-6 20 -9 41.1 13.9
-7 20 -9 237.48 30.4
7 -20 9 201.58 35.2
-8 20 -9 6.7 11.7
8 -20 9 38.3 16.1
-4 -19 9 2.4 11.3
-4 -19 9 43.2 13.2
-3 -19 9 29 12.5
-3 -19 9 40.7 12.6
-2 -19 9 177.18 22.8
-2 -19 9 238.88 27.3
1 19 -9 20.4 7.8
-1 -19 9 29.6 10.7
-1 -19 9 42.7 18.2
0 19 -9 188.68 22.1
0 -19 9 133.79 21.4
-1 19 -9 16.9 8.1
1 -19 9 18.5 9.3
-2 19 -9 270.57 28.2
2 -19 9 206.88 25.5
-3 19 -9 396.56 36.5
3 -19 9 316.97 32.4
-4 19 -9 138.09 24.2
-5 19 -9 323.07 35.3
-6 19 -9 160.98 27.6
6 -19 9 147.59 25.2
-7 19 -9 5.6 5.4
7 -19 9 16.6 10.9
-8 19 -9 227.08 29.9
8 -19 9 282.87 30.8
-5 -18 9 3.3 7.7
-5 -18 9 11.6 9.2
-4 -18 9 60.59 14.9
-4 -18 9 55.09 14.4
-3 -18 9 179.38 42.7
-3 -18 9 200.18 24.4
-2 -18 9 215.88 27.8
-2 -18 9 187.58 23.4
1 18 -9 210.38 21
-1 -18 9 158.38 20.9
-1 -18 9 168.98 27.9
0 18 -9 50.09 11.5
0 -18 9 43.5 11.7
0 -18 9 46.2 15.7
-1 18 -9 525.85 41.8
1 -18 9 444.76 40.1
-2 18 -9 430.16 36
2 -18 9 324.07 33.3
-3 18 -9 304.77 30.5
3 -18 9 264.27 28.3
-4 18 -9 745.03 57.49
4 -18 9 623.94 79.09
-5 18 -9 35.8 13.7
5 -18 9 2.3 11.2
-6 18 -9 372.06 39.9
6 -18 9 439.66 39.8
-7 18 -9 266.57 33
7 -18 9 350.06 34.6
-8 18 -9 109.59 23.3
8 -18 9 118.69 20
8 -18 9 151.48 17.8
9 -18 9 19.3 10.6
9 -18 9 4.7 6
-6 -17 9 55.49 17.2
-6 -17 9 48.1 13.9
-5 -17 9 169.88 21.5
-5 -17 9 127.89 18.3
-4 -17 9 5.8 8
-4 -17 9 15.2 9
-3 -17 9 349.87 33.5
-3 -17 9 369.76 34.3
-2 -17 9 84.29 24.4
1 17 -9 5.3 5.2
-1 -17 9 0.1 6.1
-1 -17 9 13 8
0 17 -9 270.17 25.3
0 -17 9 248.58 30
0 -17 9 220.08 25
-1 17 -9 16 13.6
-1 17 -9 19.2 9.4
1 -17 9 11 7.3
1 -17 9 10.1 9.6
-2 17 -9 1020 68.59
2 -17 9 845.12 64.99
-3 17 -9 23.8 9.8
3 -17 9 15.7 9.1
3 -17 9 23.6 10.7
-4 17 -9 314.97 31.6
4 -17 9 268.57 32.4
-5 17 -9 475.55 43.3
5 -17 9 430.86 41
-6 17 -9 5.7 9
6 -17 9 18.1 9.5
-7 17 -9 229.08 28.8
7 -17 9 260.17 27.8
-8 17 -9 72.59 18.4
8 -17 9 74.29 15.3
8 -17 9 84.69 13.5
-9 17 -9 61.99 18.4
9 -17 9 60.59 12
-6 -16 9 50.49 14
-6 -16 9 58.09 11.3
-5 -16 9 77.79 14.2
-5 -16 9 78.59 16.4
-4 -16 9 304.67 29.7
-4 -16 9 277.77 27.6
-3 -16 9 9.4 10.9
-3 -16 9 2.4 8
2 16 -9 3.2 8.5
-2 -16 9 19 8.4
-2 -16 9 16.5 9.5
1 16 -9 219.98 21.9
1 16 -9 231.38 22.2
-1 -16 9 186.18 39.5
-1 -16 9 222.78 23.8
0 16 -9 276.47 25
0 16 -9 238.08 22.9
0 -16 9 225.18 24.3
0 -16 9 264.87 29.1
-1 16 -9 281.77 25.7
-1 16 -9 305.67 28
1 -16 9 241.88 25.6
1 -16 9 289.77 30.4
-2 16 -9 51.29 11.5
-2 16 -9 80.49 15.6
2 -16 9 45.9 13.6
2 -16 9 49.9 11.6
-3 16 -9 1033.7 70.89
-3 16 -9 1025.5 66.49
3 -16 9 862.51 66.79
-4 16 -9 349.47 36.7
4 -16 9 386.26 45
-5 16 -9 195.68 25.4
5 -16 9 175.68 24.8
-6 16 -9 177.78 24.3
6 -16 9 171.78 21.7
-7 16 -9 16.6 9.3
7 -16 9 19.9 7.3
7 -16 9 19.7 9
-8 16 -9 78.69 19.7
8 -16 9 76.39 13.8
8 -16 9 84.19 12.9
-9 16 -9 26.6 13.8
9 -16 9 40.9 8.7
9 -16 9 37.5 7.2
-10 16 -9 14.6 11.5
-7 -15 9 -1.2 5.1
-7 -15 9 1.3 4.7
-7 -15 9 -14 6.9
-6 -15 9 71.59 12.8
-6 -15 9 54.79 13.7
-5 -15 9 -2.4 6.7
-5 -15 9 -12 5.5
-4 -15 9 163.68 26.8
-4 -15 9 142.99 18.6
3 15 -9 11.6 6.6
-3 -15 9 -9.7 6.6
-3 -15 9 -1.6 5.4
2 15 -9 52.89 12.1
-2 -15 9 62.99 13.6
-2 -15 9 90.89 17
1 15 -9 304.07 27.1
-1 -15 9 357.46 32.7
-1 -15 9 299.17 28
0 15 -9 13.9 6.7
0 15 -9 7 5.2
0 -15 9 19.7 7.4
0 -15 9 21.5 7.9
-1 15 -9 178.88 19.4
-1 15 -9 164.18 32.6
1 -15 9 140.99 17.7
1 -15 9 150.88 21.2
-2 15 -9 99.39 13.1
-2 15 -9 111.89 18.1
2 -15 9 121.79 20.9
2 -15 9 80.49 14.2
-3 15 -9 333.97 31.2
-3 15 -9 353.46 28.9
3 -15 9 302.47 28.8
3 -15 9 322.67 33.5
-4 15 -9 318.87 27.6
-4 15 -9 297.67 30.6
-5 15 -9 149.09 25.3
5 -15 9 142.89 19.4
-6 15 -9 169.68 23.7
6 -15 9 187.08 22
-7 15 -9 326.37 36
7 -15 9 371.56 28.8
7 -15 9 335.47 29.8
-8 15 -9 20.2 12.3
8 -15 9 24 8.1
8 -15 9 31.2 13.4
-9 15 -9 70.19 17.8
9 -15 9 73.59 8.7
9 -15 9 72.79 10.1
-10 15 -9 153.88 27.8
-7 -14 9 20.4 6.4
-7 -14 9 22.7 10.4
-7 -14 9 22 7.3
-6 -14 9 65.99 15.1
-6 -14 9 67.39 11.6
-5 -14 9 372.16 31.9
4 14 -9 542.45 43.2
-4 -14 9 594.94 44
-4 -14 9 526.05 43.5
3 14 -9 264.17 24.2
-3 -14 9 232.88 24.2
-3 -14 9 250.07 25.3
2 14 -9 563.04 42.4
-2 -14 9 501.65 41.3
-2 -14 9 597.54 45.2
1 14 -9 157.68 16.6
-1 -14 9 146.49 19.3
-1 -14 9 149.59 17.5
0 14 -9 626.54 44.9
0 14 -9 638.24 46.6
0 -14 9 587.64 45.5
0 -14 9 725.63 52.49
-1 14 -9 152.78 17.1
-1 14 -9 127.19 14.7
1 -14 9 122.19 20.7
1 -14 9 116.19 15
-2 14 -9 10.7 6.7
-2 14 -9 20.2 6.4
2 -14 9 -1.9 4.3
2 -14 9 0 7.6
-3 14 -9 60.19 13.5
-3 14 -9 59.69 13
3 -14 9 72.49 17
-4 14 -9 112.19 19.4
-4 14 -9 109.29 14.3
4 -14 9 104.09 18.9
-5 14 -9 1060.99 69.09
-5 14 -9 980.3 73.49
-6 14 -9 400.66 38.7
6 -14 9 427.66 35.8
6 -14 9 421.96 32.9
-7 14 -9 -10.2 6.1
7 -14 9 5.9 6.2
7 -14 9 3.9 4.4
-8 14 -9 409.36 43.2
8 -14 9 532.65 34.5
8 -14 9 481.15 35.5
-9 14 -9 7.6 9.4
9 -14 9 11.3 3.5
9 -14 9 9.3 3
-10 14 -9 26.7 13.4
-8 -13 9 14 4.9
-8 -13 9 24.7 9.7
-8 -13 9 5 4.3
-7 -13 9 7.9 7.6
-7 -13 9 -3.3 4.9
-6 -13 9 276.67 28
-6 -13 9 246.88 23.3
5 13 -9 0.4 5.9
-5 -13 9 6.4 7.5
-5 -13 9 -1.7 4.5
4 13 -9 19.6 8
-4 -13 9 41.3 11
-4 -13 9 50.29 12.1
3 13 -9 228.68 21.6
-3 -13 9 210.58 21.7
-3 -13 9 226.68 22.9
2 13 -9 132.19 14.9
-2 -13 9 141.09 17.9
-2 -13 9 93.49 15.4
1 13 -9 1540.55 96.39
-1 -13 9 1666.53 102.29
-1 -13 9 1445.76 96.89
0 13 -9 291.87 25.5
0 13 -9 309.57 24.6
0 -13 9 277.07 24.8
0 -13 9 282.67 28.4
-1 13 -9 87.89 11
-1 13 -9 95.19 15.1
1 -13 9 93.29 14.1
1 -13 9 77.69 15.6
-2 13 -9 24 8.1
-2 13 -9 33.9 7.3
2 -13 9 29.7 8.1
2 -13 9 30 10.5
-3 13 -9 249.38 22.2
-3 13 -9 266.07 25.9
3 -13 9 261.57 28.6
-4 13 -9 1.6 6.3
-4 13 -9 -4.5 3
4 -13 9 6.9 8
-5 13 -9 142.49 16.8
-5 13 -9 146.29 20.3
5 -13 9 150.28 21
-6 13 -9 82.99 17.6
6 -13 9 90.19 15
6 -13 9 90.09 11.8
-7 13 -9 12.9 9.3
7 -13 9 14.5 6.5
7 -13 9 27.5 6.6
-8 13 -9 117.49 22.7
8 -13 9 139.29 12.7
8 -13 9 122.69 13.2
-9 13 -9 115.89 22.1
-10 13 -9 7.3 9
-8 -12 9 278.57 22.2
-8 -12 9 273.27 21.7
-8 -12 9 283.77 30.6
-7 -12 9 32.4 10.9
-7 -12 9 24.6 9.2
-7 -12 9 45.3 9.1
-6 -12 9 -2.2 4.1
-6 -12 9 2.4 6.1
5 12 -9 69.99 12.7
-5 -12 9 43.7 11.6
-5 -12 9 36.9 9.1
4 12 -9 98.99 15.4
-4 -12 9 84.19 14.2
-4 -12 9 77.39 13.7
3 12 -9 259.87 22.3
-3 -12 9 238.28 22.9
-3 -12 9 208.78 21.8
2 12 -9 237.98 21.4
-2 -12 9 234.48 21.7
-2 -12 9 247.58 23.8
1 12 -9 131.19 14.3
-1 -12 9 134.19 17.2
-1 -12 9 143.49 15.7
0 12 -9 165.88 16.5
0 12 -9 205.48 19
0 -12 9 184.88 20.8
0 -12 9 157.48 16.7
-1 12 -9 132.69 15.5
-1 12 -9 102.59 12.4
1 -12 9 118.79 13.7
1 -12 9 116.79 19.2
-2 12 -9 372.26 32.1
-2 12 -9 406.76 29.1
2 -12 9 329.87 29.1
2 -12 9 399.36 35.1
-3 12 -9 546.55 39.3
-3 12 -9 557.94 43.6
3 -12 9 536.95 45.1
-4 12 -9 192.98 18
-4 12 -9 198.88 22.1
4 -12 9 145.69 21.3
-5 12 -9 1241.68 81.29
-5 12 -9 1305.47 86.89
5 -12 9 1246.08 80.09
5 -12 9 1268.07 89.39
-6 12 -9 23.6 7.3
-6 12 -9 29.4 9.8
6 -12 9 19.7 6.4
6 -12 9 39.9 12.9
-7 12 -9 221.68 36.5
7 -12 9 260.87 22.7
7 -12 9 268.17 21.3
-8 12 -9 19.7 10.9
8 -12 9 26 5.8
8 -12 9 20.9 5
-9 12 -9 25.2 11
-10 12 -9 142.89 25.8
-11 12 -9 79.49 18.7
-9 -11 9 98.59 8.4
-9 -11 9 81.79 19
-9 -11 9 85.19 8.4
-9 -11 9 114.29 19.9
-8 -11 9 -1.6 5.2
-8 -11 9 1.6 7.5
-8 -11 9 7.2 4.8
-7 -11 9 30.3 15.8
-7 -11 9 8.4 6.4
-7 -11 9 21.6 6.5
6 11 -9 58.99 12.7
-6 -11 9 50.39 12.4
-6 -11 9 46.8 8.9
5 11 -9 62.19 12.3
-5 -11 9 61.59 11.2
-5 -11 9 46.7 11.5
4 11 -9 340.57 29.3
-4 -11 9 381.36 29.7
-4 -11 9 339.37 29.2
3 11 -9 -0.3 3.3
-3 -11 9 10.2 5.2
-3 -11 9 2 3.8
2 11 -9 785.52 54.09
-2 -11 9 912.11 57.89
-2 -11 9 779.22 54.69
1 11 -9 771.22 49
-1 -11 9 781.42 53.59
-1 -11 9 663.33 49
0 11 -9 13.1 4.8
0 11 -9 8.6 5.3
0 -11 9 7.2 3.8
0 -11 9 17.8 7.8
-1 11 -9 1702.63 99.89
-1 11 -9 1816.02 104.39
1 -11 9 1640.84 105.99
1 -11 9 1432.86 99.69
-2 11 -9 239.68 19.5
-2 11 -9 205.18 21.6
2 -11 9 215.68 23.7
-3 11 -9 1036.3 68.59
-3 11 -9 964.3 63.29
3 -11 9 964.6 69.99
-4 11 -9 30.3 7.7
-4 11 -9 -0.6 4.8
4 -11 9 17 8.8
-5 11 -9 5.9 5.3
-5 11 -9 11.5 6.6
5 -11 9 10.5 7.8
5 -11 9 3.5 7.3
-6 11 -9 2.6 4
-6 11 -9 3.8 4.6
6 -11 9 -0.7 3
6 -11 9 -9.9 6.1
-7 11 -9 7.1 6.2
7 -11 9 10.6 5.6
7 -11 9 19.8 5
7 -11 9 17.3 10.5
-8 11 -9 248.18 29.7
8 -11 9 232.18 17.4
8 -11 9 258.07 17.5
-9 11 -9 119.79 21.7
-10 11 -9 45.3 15.4
-11 11 -9 123.19 23.9
-9 -10 9 26.1 5.8
-9 -10 9 11.8 9.9
-9 -10 9 9.5 9.2
-9 -10 9 14 6.4
-8 -10 9 74.49 15.6
-8 -10 9 84.19 26
-8 -10 9 48.8 11.4
7 10 -9 -11.6 6.5
-7 -10 9 -5.9 5.5
-7 -10 9 -6.4 4
-7 -10 9 -7.5 4.2
6 10 -9 349.27 29.7
-6 -10 9 299.27 25.5
-6 -10 9 352.46 29.8
5 10 -9 194.38 19.5
-5 -10 9 161.38 19.4
-5 -10 9 193.88 17.8
4 10 -9 -1 3.8
-4 -10 9 4.3 4.7
-4 -10 9 -2.3 3.9
3 10 -9 854.71 54.09
-3 -10 9 744.13 53.69
-3 -10 9 830.02 55.39
2 10 -9 2.1 3.2
-2 -10 9 0.5 3.3
-2 -10 9 -4.3 3.2
1 10 -9 941.21 60.39
-1 -10 9 975 64.59
0 10 -9 64.59 10.9
0 10 -9 61.39 9.2
0 -10 9 37.5 9.3
0 -10 9 65.69 12.1
-1 10 -9 497.45 35.8
-1 10 -9 508.15 32.9
1 -10 9 402.36 32.5
1 -10 9 457.65 37.1
-2 10 -9 156.48 17
-2 10 -9 179.88 15.4
2 -10 9 136.09 17.6
-3 10 -9 106.79 12.1
-3 10 -9 114.79 15.2
3 -10 9 110.89 18.1
-4 10 -9 938.81 62.59
-4 10 -9 857.31 57.49
4 -10 9 824.12 62.99
-5 10 -9 343.87 28.3
-5 10 -9 364.26 31.7
5 -10 9 354.96 33.5
5 -10 9 330.17 25.9
-6 10 -9 213.18 24.7
-6 10 -9 239.78 22.5
6 -10 9 228.18 18.5
6 -10 9 220.08 26
-7 10 -9 8 7
7 -10 9 2.6 5.4
7 -10 9 5.7 3.8
-8 10 -9 46.2 13.5
8 -10 9 55.69 4.9
8 -10 9 48.2 4.9
-9 10 -9 208.48 26
-10 10 -9 131.29 24.2
-11 10 -9 4.9 12.2
-9 -9 9 21.7 10.1
-9 -9 9 6.8 10
-9 -9 9 10.1 7
-8 -9 9 193.18 44.2
-8 -9 9 253.37 36.1
-8 -9 9 215.88 19
-8 -9 9 215.18 21.4
-7 -9 9 351.66 31.4
-7 -9 9 346.27 26.9
6 9 -9 9.8 6.5
-6 -9 9 8.8 6.3
-6 -9 9 5.3 3.7
5 9 -9 791.42 54.29
-5 -9 9 823.12 53.09
-5 -9 9 754.32 53.99
4 9 -9 218.58 19.6
-4 -9 9 241.38 20.3
-4 -9 9 190.58 19.3
3 9 -9 1458.05 88.89
-3 -9 9 1374.96 88.79
-3 -9 9 1492.25 90.19
2 9 -9 1168.28 71.29
-2 -9 9 1208.78 74.09
-2 -9 9 1064.99 71.19
1 9 -9 1090.19 68.29
-1 -9 9 983.2 67.49
-1 -9 9 1232.28 72.49
0 9 -9 142.99 14.1
0 -9 9 124.09 14.3
0 -9 9 81.49 10.3
-1 9 -9 -1.1 2.3
-1 9 -9 4.9 3.8
1 -9 9 12 3.8
1 -9 9 4.6 4.3
-2 9 -9 13 4.8
-2 9 -9 16.3 6.6
2 -9 9 17.6 7.2
-3 9 -9 2210.88 129.29
-3 9 -9 2051.89 124.19
3 -9 9 1976.9 129.99
-4 9 -9 234.28 20.7
-4 9 -9 228.28 23
4 -9 9 232.08 19.9
4 -9 9 242.58 24.6
-5 9 -9 478.55 38.2
-5 9 -9 467.85 35.2
5 -9 9 434.76 32
5 -9 9 454.75 39.4
-6 9 -9 2.5 6.4
6 -9 9 10.5 4.3
6 -9 9 -2.6 6.4
-7 9 -9 276.77 28
7 -9 9 217.98 27
7 -9 9 274.27 19.8
-8 9 -9 612.84 50.79
8 -9 9 664.83 53.69
-9 9 -9 -6 5.7
-10 9 -9 183.18 24.5
-11 9 -9 66.49 16.6
-10 -8 9 14.8 10.6
-10 -8 9 12.2 9.5
-10 -8 9 21.2 8.1
-10 -8 9 14.8 7.9
-9 -8 9 97.89 12
-9 -8 9 121.39 20.3
-9 -8 9 112.39 23.8
-9 -8 9 129.79 16.5
-8 -8 9 306.27 31.1
-8 -8 9 297.17 28.6
-8 -8 9 250.77 21.9
-8 -8 9 304.07 61.49
-7 -8 9 186.68 22.8
-7 -8 9 183.88 16.8
-7 -8 9 150.98 18.2
-7 -8 9 189.98 20.1
6 8 -9 449.16 33.3
-6 -8 9 377.56 32.3
-6 -8 9 389.86 29.9
5 8 -9 4.8 4.7
-5 -8 9 -4.6 2.5
-5 -8 9 -0.9 3.4
4 8 -9 824.82 53.09
-4 -8 9 748.33 52.89
-4 -8 9 839.32 53.39
3 8 -9 82.69 9.4
-3 -8 9 67.09 9.4
-3 -8 9 74.79 9.8
2 8 -9 245.98 19.3
-2 -8 9 239.58 19.4
-2 -8 9 244.68 21
1 8 -9 1492.55 87.69
-1 -8 9 1533.25 91.69
-1 -8 9 1381.36 87.69
0 8 -9 1.2 2.3
0 -8 9 5.7 3.1
0 -8 9 5.5 4
-1 8 -9 1304.27 76.19
-1 8 -9 1269.17 79.69
1 -8 9 1184.88 80.59
-2 8 -9 581.24 41.5
-2 8 -9 605.64 37.9
2 -8 9 572.64 42.5
2 -8 9 462.95 49.5
-3 8 -9 246.88 22.7
-3 8 -9 254.27 20
3 -8 9 229.08 20.5
3 -8 9 253.17 24.1
-4 8 -9 485.55 34.6
-4 8 -9 515.75 38.1
4 -8 9 435.06 32.6
4 -8 9 452.05 38.2
-5 8 -9 193.58 20.3
5 -8 9 158.08 14.9
5 -8 9 164.88 20.5
-6 8 -9 790.92 57.89
6 -8 9 785.62 59.39
6 -8 9 806.92 51.19
-7 8 -9 75.09 15.9
7 -8 9 109.59 10
7 -8 9 90.69 18.8
-8 8 -9 6.5 6.8
8 -8 9 14.7 10.2
-9 8 -9 320.27 32.2
9 -8 9 331.97 36.5
-10 8 -9 87.29 20.8
-11 8 -9 167.08 24.1
-11 8 -9 277.87 31.2
-10 -7 9 29.6 12.1
-10 -7 9 23 10.6
-10 -7 9 17.8 6
-9 -7 9 11.3 7.2
-9 -7 9 0.2 5
-9 -7 9 5.9 7.7
-9 -7 9 2.7 4
-8 -7 9 679.63 48.8
-8 -7 9 634.04 50.69
-8 -7 9 671.73 49.99
-8 -7 9 610.44 43.5
-7 -7 9 181.48 19.5
-7 -7 9 199.08 21.3
-7 -7 9 189.28 22.7
-6 -7 9 738.23 49.6
-6 -7 9 714.43 52.79
-6 -7 9 623.74 48.2
5 7 -9 435.96 32.2
-5 -7 9 467.75 32.2
-5 -7 9 383.46 31.8
4 7 -9 123.49 13.1
-4 -7 9 142.69 13.7
-4 -7 9 114.89 12.6
3 7 -9 240.48 18.3
-3 -7 9 217.58 18.1
-3 -7 9 214.28 18.9
2 7 -9 4.8 3.1
-2 -7 9 10.8 4.1
-2 -7 9 4 2.9
1 7 -9 33.3 5.5
-1 -7 9 26.1 5.1
-1 -7 9 27.3 6.9
0 7 -9 582.44 35.2
0 -7 9 568.94 39.8
0 -7 9 576.74 39.4
0 -7 9 473.45 34.8
-1 7 -9 -3.3 1.6
-1 7 -9 -0.6 1.7
1 -7 9 -0.2 2.9
1 -7 9 -0.8 4.6
-2 7 -9 1322.87 94.59
-2 7 -9 1576.44 91.39
2 -7 9 1422.56 89.29
2 -7 9 1446.06 91.89
-3 7 -9 6.4 5.2
-3 7 -9 7 3.6
3 -7 9 13.3 5.5
3 -7 9 5.5 3.6
-4 7 -9 66.59 12.1
4 -7 9 73.09 13.7
4 -7 9 69.39 8.9
-5 7 -9 1303.37 82.59
5 -7 9 1277.37 84.09
5 -7 9 1173.48 76.19
-6 7 -9 1.4 6
6 -7 9 -6.6 4.5
6 -7 9 1.7 3
-7 7 -9 75.89 14.6
7 -7 9 96.79 9.3
7 -7 9 97.39 18.3
-8 7 -9 134.29 17.9
8 -7 9 115.99 20.8
-9 7 -9 46.1 12.2
9 -7 9 32.6 11.9
-10 7 -9 233.18 28.6
-10 7 -9 235.08 25.5
-11 7 -9 25.3 11.7
-11 7 -9 21 8.7
-10 -6 9 35.3 11.4
-10 -6 9 25.7 11.5
-10 -6 9 52.89 13.4
-9 -6 9 20.1 8.2
-9 -6 9 9.5 7.2
-9 -6 9 -4.2 7
-8 -6 9 141.99 16.9
-8 -6 9 123.09 19.4
-8 -6 9 98.89 18.6
-7 -6 9 86.49 14.2
-7 -6 9 68.19 13
-7 -6 9 55.19 13
-6 -6 9 485.65 36.7
-6 -6 9 446.46 37.1
-6 -6 9 518.05 40.1
5 6 -9 363.76 26.8
-5 -6 9 356.36 30.7
-5 -6 9 307.17 27.2
4 6 -9 1505.75 91.49
-4 -6 9 1606.14 97.79
-4 -6 9 1442.56 91.49
3 6 -9 45.1 7.2
-3 -6 9 50.39 10.6
-3 -6 9 53.49 6.9
2 6 -9 2039.7 117.69
-2 -6 9 2094.09 124.09
-2 -6 9 2131.99 121.49
-2 -6 9 1819.22 117.39
1 6 -9 57.49 6.2
-1 -6 9 53.79 6.1
-1 -6 9 41.7 9.5
-1 -6 9 63.69 8.6
0 6 -9 2213.58 120.49
0 -6 9 2116.49 125.09
0 -6 9 1804.72 120.19
0 -6 9 2201.38 135.79
-1 6 -9 2.4 2.5
1 -6 9 7.8 3.9
1 -6 9 -0.3 2.9
-2 6 -9 1404.76 84.89
-2 6 -9 1352.76 81.19
2 -6 9 1349.36 85.49
2 -6 9 1285.27 82.79
-3 6 -9 1537.35 91.29
3 -6 9 1419.26 91.89
3 -6 9 1400.36 88.49
-4 6 -9 198.48 19.6
4 -6 9 180.58 20.1
4 -6 9 208.48 17.2
-5 6 -9 882.51 60.99
5 -6 9 921.81 57.09
5 -6 9 865.51 62.49
-6 6 -9 1079.49 78.59
6 -6 9 1294.77 82.69
6 -6 9 1240.18 73.99
-7 6 -9 18.1 7.3
7 -6 9 17.8 4.5
7 -6 9 8.5 8.2
-8 6 -9 499.65 41.1
8 -6 9 540.45 44
-9 6 -9 93.99 18.7
-9 6 -9 135.69 17.9
9 -6 9 125.19 21.2
-10 6 -9 -3.2 7.8
-10 6 -9 4.9 7.4
10 -6 9 -0.2 8.4
-11 6 -9 116.79 18.4
-11 6 -9 130.99 22.8
-10 -5 9 5.8 7
-10 -5 9 -17.1 6
-10 -5 9 4.4 6.9
-9 -5 9 18.5 9.8
-9 -5 9 24.5 10
-9 -5 9 15.9 8.4
-8 -5 9 33.1 10.1
-8 -5 9 26.1 9.4
-8 -5 9 14 8.2
-7 -5 9 320.87 27.3
-7 -5 9 300.27 28.3
-7 -5 9 306.27 29.3
-6 -5 9 103.39 14.1
-6 -5 9 129.09 16
-6 -5 9 118.79 13.8
-5 -5 9 373.66 28.7
-5 -5 9 402.36 32.5
4 5 -9 66.19 8.4
-4 -5 9 81.59 13.4
-4 -5 9 69.79 8.6
3 5 -9 1069.39 64.39
-3 -5 9 1148.99 70.79
-3 -5 9 996.8 64.19
2 5 -9 931.81 52.79
-2 -5 9 934.21 58.99
-2 -5 9 778.02 52.29
1 5 -9 5752.82 308.97
-1 -5 9 5606.84 335.37
-1 -5 9 4827.92 308.57
-1 -5 9 5630.34 313.87
0 5 -9 1582.64 91.79
0 -5 9 1611.54 96.59
0 -5 9 1537.85 96.59
-1 5 -9 744.33 43
1 -5 9 641.44 45.7
1 -5 9 676.53 46.6
2 -5 9 944.61 62.99
2 -5 9 1052.69 65.29
-3 5 -9 46.5 9
3 -5 9 43.2 9.2
3 -5 9 42.8 7.8
-4 5 -9 519.85 38.4
4 -5 9 569.14 40.6
4 -5 9 506.85 36.4
-5 5 -9 241.78 22.3
5 -5 9 228.78 23.2
5 -5 9 234.68 19.3
-6 5 -9 932.31 68.89
6 -5 9 1079.59 65.29
6 -5 9 1132.59 73.09
-7 5 -9 367.06 31.9
7 -5 9 392.16 26.4
7 -5 9 376.76 33.7
-8 5 -9 33.3 11
-8 5 -9 39.6 10.6
8 -5 9 23.1 10.2
-9 5 -9 296.87 28.5
-9 5 -9 339.87 33.5
9 -5 9 332.47 33.1
-10 5 -9 33.2 12.4
-10 5 -9 29.6 9.8
10 -5 9 27.7 11.9
-11 5 -9 7.7 7.2
11 -5 9 28 13.5
-11 -4 9 1.6 8.6
-11 -4 9 12.3 8.7
-11 -4 9 -0.4 7.7
-10 -4 9 112.79 19.4
-10 -4 9 133.39 22.4
-10 -4 9 130.19 20.7
-9 -4 9 14.4 8.7
-9 -4 9 30.4 11.1
-9 -4 9 55.99 14.2
-8 -4 9 117.89 19.4
-8 -4 9 168.68 19.4
-8 -4 9 138.49 17.6
-7 -4 9 101.79 16.9
-7 -4 9 105.39 15.7
-7 -4 9 92.89 16
-6 -4 9 52.49 11.3
-6 -4 9 69.89 11.1
-6 -4 9 60.19 12.4
-5 -4 9 66.89 12.3
-5 -4 9 71.49 9
-4 -4 9 250.47 23.5
-4 -4 9 275.57 19.9
3 4 -9 1421.46 82.79
-3 -4 9 1299.77 82.59
-3 -4 9 1523.15 89.69
2 4 -9 2197.18 122.79
-2 -4 9 2058.39 122.59
-2 -4 9 2161.78 130.69
1 4 -9 755.32 44.1
-1 -4 9 738.53 50.09
0 4 -9 39.5 4.4
0 -4 9 42.3 8.3
0 -4 9 54.89 8.9
-1 4 -9 1097.69 64.59
1 -4 9 1058.29 67.99
1 -4 9 1081.19 68.19
-2 4 -9 2458.85 143.29
2 -4 9 2438.96 143.99
2 -4 9 2331.37 142.69
-3 4 -9 151.68 14.4
3 -4 9 153.68 14.7
3 -4 9 146.29 15.5
-4 4 -9 155.48 15.7
-4 4 -9 173.58 14.9
4 -4 9 136.29 14.2
4 -4 9 145.89 16.4
-5 4 -9 1636.04 106.79
-5 4 -9 1506.75 103.19
5 -4 9 1905.71 105.49
5 -4 9 1921.61 110.19
-6 4 -9 138.09 15.6
6 -4 9 130.09 13.2
6 -4 9 135.99 16.4
-7 4 -9 253.77 26.1
-7 4 -9 216.18 21.9
7 -4 9 256.27 24.9
7 -4 9 241.68 18.8
-8 4 -9 349.17 33.2
-8 4 -9 320.87 28.4
8 -4 9 321.07 30.4
-9 4 -9 10.3 8.9
-9 4 -9 7.3 6.5
9 -4 9 8.5 9.1
-10 4 -9 114.69 20.8
10 -4 9 95.99 18.8
-11 4 -9 39.9 15.4
11 -4 9 24.7 13.9
-11 -3 9 36.6 12.4
-11 -3 9 17.8 9.9
-11 -3 9 28.9 13
-10 -3 9 -9.7 7.6
-10 -3 9 17.8 9.5
-10 -3 9 8.8 8.2
-9 -3 9 460.45 38.4
-9 -3 9 429.56 37.3
-9 -3 9 468.45 40.8
-8 -3 9 58.79 14.6
-8 -3 9 64.69 13.5
-8 -3 9 52.29 12.2
-7 -3 9 -2.7 5.2
-7 -3 9 -3.4 3.7
-7 -3 9 -4.8 3.9
-6 -3 9 5.7 5.7
-6 -3 9 1.4 3.2
-6 -3 9 1.6 4.1
-5 -3 9 16 4.8
-5 -3 9 17.2 6.4
-5 -3 9 11.9 5.6
-4 -3 9 1936.61 117.59
-4 -3 9 2095.09 123.69
-3 -3 9 40.8 4.8
-3 -3 9 46 9.2
2 3 -9 247.48 14.9
-2 -3 9 224.68 21.7
-2 -3 9 229.58 14.7
1 3 -9 2849.71 160.38
1 3 -9 2798.42 167.18
-1 -3 9 2837.52 167.48
0 3 -9 92.99 7.2
0 3 -9 90.09 10.9
0 -3 9 84.79 10.7
-1 3 -9 777.72 50.29
1 -3 9 709.13 48.7
1 -3 9 728.53 48.3
-2 3 -9 2065.59 122.69
2 -3 9 2098.99 123.29
2 -3 9 1983.9 122.79
-3 3 -9 14.2 4.7
3 -3 9 12.4 5
3 -3 9 10.9 5
-4 3 -9 1228.18 73.39
4 -3 9 1150.98 73.69
4 -3 9 1142.09 75.09
-5 3 -9 77.09 9.5
5 -3 9 82.69 10.4
5 -3 9 84.49 13.8
-6 3 -9 1501.15 102.59
-6 3 -9 1750.92 109.89
6 -3 9 1855.81 104.69
6 -3 9 1816.52 109.19
-7 3 -9 24.2 5.3
-7 3 -9 44.8 11.3
7 -3 9 32.5 9.3
7 -3 9 40.7 7.4
-8 3 -9 19.5 9.1
8 -3 9 30 9.8
-9 3 -9 174.78 22.4
9 -3 9 143.69 19.9
-10 3 -9 5.4 6
10 -3 9 40.2 11.9
-11 3 -9 70.79 18.6
11 -3 9 89.89 18
-11 -2 9 5.7 9
-11 -2 9 16.9 12
-11 -2 9 -4.7 6.7
-10 -2 9 391.06 37.7
-10 -2 9 410.26 35.8
-10 -2 9 399.96 38.8
-9 -2 9 12.4 7.1
-9 -2 9 10.3 6.3
-9 -2 9 7.8 8.4
-8 -2 9 466.65 37.4
-8 -2 9 470.95 38.5
-8 -2 9 488.45 41.6
-7 -2 9 1 3.8
-7 -2 9 -8 3.7
-7 -2 9 1.5 4
-6 -2 9 29.3 8.5
-6 -2 9 34.6 9.4
-6 -2 9 36.2 7.9
-5 -2 9 11.9 5.4
-5 -2 9 8.2 3.3
-5 -2 9 9.7 5.4
-4 -2 9 817.62 51.69
-4 -2 9 887.21 57.59
-3 -2 9 184.38 12.6
-3 -2 9 190.18 32.5
2 2 -9 475.35 34.5
-2 -2 9 487.85 35.1
1 2 -9 910.51 57.59
-1 -2 9 851.81 57.39
0 2 -9 3476.45 212.18
0 -2 9 3615.14 207.98
-1 2 -9 152.58 15.1
1 -2 9 137.29 14.3
1 -2 9 136.89 13.5
-2 2 -9 872.31 54.39
2 -2 9 810.22 53.39
2 -2 9 794.62 54.19
-3 2 -9 380.06 29
-3 2 -9 425.96 29.8
3 -2 9 388.66 29.4
3 -2 9 386.36 29.9
-4 2 -9 121.29 12.3
-4 2 -9 107.49 13.2
4 -2 9 98.79 12.6
4 -2 9 108.09 12.3
-5 2 -9 309.37 26.2
-5 2 -9 273.07 22.5
5 -2 9 283.87 23.3
5 -2 9 283.67 24.4
-6 2 -9 6.4 3.7
-6 2 -9 7.8 6
6 -2 9 8.8 4.8
6 -2 9 1.3 4.6
-7 2 -9 175.98 21.1
-7 2 -9 168.48 15.2
7 -2 9 168.08 19
7 -2 9 178.28 16.3
-8 2 -9 290.07 22
-8 2 -9 316.87 31.7
8 -2 9 331.07 28.4
-9 2 -9 89.39 19.8
9 -2 9 104.99 16.4
-10 2 -9 160.58 26.4
10 -2 9 144.19 19.3
-11 -1 9 74.89 18
-11 -1 9 79.19 16.6
-11 -1 9 78.09 15.5
-10 -1 9 61.29 15.9
-10 -1 9 41.8 12.3
-10 -1 9 68.99 14.5
-9 -1 9 781.32 51.29
-9 -1 9 618.04 53.79
-9 -1 9 601.64 48.9
-8 -1 9 -2.1 4.1
-8 -1 9 1.8 7
-8 -1 9 -2.4 4.8
-7 -1 9 178.38 18.7
-7 -1 9 236.48 21.6
-7 -1 9 174.98 21.9
-6 -1 9 206.48 22.9
-6 -1 9 221.48 18.7
-6 -1 9 211.08 20.9
-5 -1 9 81.09 13.6
-5 -1 9 108.19 14
-5 -1 9 69.89 8.8
-4 -1 9 8.6 2.9
-4 -1 9 8.3 4.6
3 1 -9 255.67 20.8
-3 -1 9 237.78 24.4
-3 -1 9 223.68 14.8
2 1 -9 1910.11 115.99
-2 -1 9 1928.61 116.99
1 1 -9 1989.1 120.29
-1 -1 9 2003.5 121.19
0 1 -9 5.4 3.8
0 1 -9 8.1 2.2
0 -1 9 2.7 3
-1 1 -9 261.27 18.2
1 -1 9 236.68 21.3
-2 1 -9 235.58 21.2
-2 1 -9 236.88 18.3
2 -1 9 217.38 20.1
2 -1 9 233.98 19.7
-3 1 -9 240.68 20.6
-3 1 -9 232.78 20
3 -1 9 226.08 20.8
3 -1 9 252.47 20.1
-4 1 -9 916.01 62.29
-4 1 -9 1011.9 62.39
4 -1 9 933.41 62.29
4 -1 9 948.71 61.69
-5 1 -9 1265.27 83.79
-5 1 -9 1389.06 81.99
5 -1 9 1302.17 82.59
5 -1 9 1246.98 81.99
-6 1 -9 32.7 9.5
-6 1 -9 29 6.9
6 -1 9 36.7 8.3
6 -1 9 36.3 8.7
-7 1 -9 32.1 6.6
-7 1 -9 25.7 9.8
7 -1 9 33.1 7.8
7 -1 9 29.8 8.4
-8 1 -9 83.19 10.2
-8 1 -9 87.59 16.9
8 -1 9 84.29 14.2
-9 1 -9 247.48 26.8
-9 1 -9 200.58 16
9 -1 9 202.28 21.4
-10 1 -9 20.2 9.8
10 -1 9 29.9 9.9
-11 0 9 161.28 20.1
-11 0 9 145.59 26.6
-11 0 9 145.49 19
-10 0 9 309.17 29.7
-10 0 9 296.37 34.4
-10 0 9 304.37 29.6
-9 0 9 359.56 34.7
-9 0 9 476.95 37
-9 0 9 499.35 44.1
-8 0 9 169.88 18.9
-8 0 9 168.78 19.8
-8 0 9 180.68 23
-7 0 9 44.5 11.7
-7 0 9 26.9 7.8
-7 0 9 37 9.9
-6 0 9 146.59 18.7
-6 0 9 131.69 15.9
-6 0 9 152.48 14.2
-5 0 9 820.92 51.69
-5 0 9 800.82 58.49
-5 0 9 842.52 56.59
4 0 -9 888.61 57.19
-4 0 9 836.92 58.59
-4 0 9 989.3 61.69
-4 0 9 799.92 52.19
3 0 -9 417.16 29.8
-3 0 9 345.87 23.5
-3 0 9 447.86 33.1
-3 0 9 400.16 23.4
2 0 -9 383.76 29
-2 0 9 366.26 29.5
1 0 -9 147.89 9.3
1 0 -9 144.39 14.7
-1 0 9 167.78 16.6
0 0 -9 195.18 18
0 0 -9 179.68 13.2
0 0 9 206.28 18.8
-1 0 -9 3.3 2.2
-1 0 -9 0.5 3.2
1 0 9 10.9 4.5
-2 0 -9 1140.39 69.79
-2 0 -9 1069.49 66.39
2 0 9 962.6 77.09
2 0 9 1083.09 69.89
-3 0 -9 6.2 3.7
3 0 9 2.5 4.1
-4 0 -9 616.94 41.2
-4 0 -9 567.54 41
4 0 9 552.04 40.1
4 0 9 529.85 40.5
-5 0 -9 1153.48 78.79
-5 0 -9 1342.27 78.19
5 0 9 1179.88 76.59
5 0 9 1161.28 77.59
-6 0 -9 344.47 28
-6 0 -9 364.76 32.1
6 0 9 364.96 29
6 0 9 358.56 28.8
-7 0 -9 -1.4 3.7
7 0 9 -6 3.7
7 0 9 6.7 4.8
-8 0 -9 189.08 22.8
8 0 9 121.59 15.5
-9 0 -9 310.47 31.2
-9 0 -9 242.88 20.6
9 0 9 279.27 24.2
-10 0 -9 -0.3 7.2
-10 0 -9 4.8 3.3
10 0 9 15.6 9.5
-11 1 9 29 15.2
-11 1 9 30.3 11.5
-11 1 9 30.6 11.2
-10 1 9 15.9 7.8
-10 1 9 12.3 8.1
-10 1 9 9.7 11.1
-9 1 9 551.04 49.7
-9 1 9 608.34 44.6
-9 1 9 533.55 43.6
-8 1 9 295.17 28.4
-8 1 9 372.06 31.7
-8 1 9 411.06 37
-7 1 9 641.74 51.69
-7 1 9 669.03 45
-7 1 9 614.44 47.3
-6 1 9 70.69 9.4
-6 1 9 111.59 18.4
-6 1 9 78.09 13.3
5 -1 -9 340.07 26.1
-5 1 9 323.57 27.5
-5 1 9 304.67 29.1
-5 1 9 306.57 22.9
4 -1 -9 668.03 44
-4 1 9 643.04 38.5
-4 1 9 536.35 44.6
-4 1 9 689.13 48.2
3 -1 -9 94.39 11.6
-3 1 9 91.89 6.9
-3 1 9 87.29 16.9
-3 1 9 84.49 14.2
2 -1 -9 517.75 38.4
-2 1 9 593.84 40.8
-2 1 9 531.85 31.7
1 -1 -9 1193.78 68.59
1 -1 -9 1113.99 75.09
-1 1 9 1215.28 76.99
-1 1 9 1223.88 69.09
0 -1 -9 1472.65 88.19
0 -1 -9 1336.07 81.59
0 1 9 1389.66 88.39
0 1 9 1393.46 82.29
-1 -1 -9 3113.59 180.78
-1 -1 -9 2903.31 175.48
1 1 9 3109.59 181.68
-2 -1 -9 721.03 49.2
-2 -1 -9 812.72 53.49
2 1 9 790.62 53.59
-3 -1 -9 429.96 31.6
-3 -1 -9 452.85 34
3 1 9 429.56 33.7
3 1 9 405.36 30
-4 -1 -9 -0.1 4.3
-4 -1 -9 11.3 5.4
4 1 9 3 3.3
4 1 9 2.9 3.9
-5 -1 -9 258.07 23.5
-5 -1 -9 246.08 22.6
5 1 9 196.98 22.1
5 1 9 216.98 37.8
-6 -1 -9 235.58 25.3
-6 -1 -9 310.57 25.3
6 1 9 246.58 34.9
-7 -1 -9 31.7 9
-7 -1 -9 55.59 16.9
7 1 9 70.19 18.6
-8 -1 -9 -4.8 4.8
-8 -1 -9 7.3 7.5
8 1 9 -2.8 16.7
-9 -1 -9 41.2 13.2
-9 -1 -9 27.7 7.7
9 1 9 29.7 7.8
-10 -1 -9 -35 23.6
-10 -1 -9 3.7 4.7
10 1 9 12.5 5.9
-12 2 9 84.19 16.9
-11 2 9 76.19 27.4
-11 2 9 49.2 13.2
-11 2 9 95.79 15.4
-10 2 9 8.4 6.3
-10 2 9 0.7 6.5
-10 2 9 -2.3 9
-9 2 9 101.99 21.2
-9 2 9 135.39 16.8
-9 2 9 113.59 18.2
-8 2 9 68.39 12.9
-8 2 9 72.69 18
-8 2 9 78.49 13.9
-7 2 9 82.89 14.8
-7 2 9 81.49 17.2
-7 2 9 73.99 12.2
6 -2 -9 658.03 44.1
-6 2 9 648.34 49.9
-6 2 9 563.24 45.2
5 -2 -9 128.89 14.3
-5 2 9 123.79 11.2
-5 2 9 152.68 18.7
-5 2 9 136.99 16.1
4 -2 -9 854.91 58.69
-4 2 9 914.71 53.59
-4 2 9 849.41 60.89
-4 2 9 978.2 63.99
3 -2 -9 51.99 10.1
-3 2 9 65.09 12.5
-3 2 9 63.09 5.8
-3 2 9 68.99 15.3
2 -2 -9 4526.85 267.77
2 -2 -9 4567.94 260.37
-2 2 9 4219.08 275.77
-2 2 9 5000.9 260.97
1 -2 -9 153.18 16
1 -2 -9 150.58 10.9
-1 2 9 150.28 17.5
-1 2 9 152.38 11.5
0 -2 -9 521.05 33.9
0 -2 -9 572.74 40
0 2 9 529.05 34.6
0 2 9 533.95 41.4
-1 -2 -9 154.48 16
-1 -2 -9 104.29 10.9
1 2 9 118.39 19.9
1 2 9 128.89 12.1
-2 -2 -9 776.62 50.99
-2 -2 -9 690.13 46.6
2 2 9 636.54 66.19
-3 -2 -9 98.59 12.8
-3 -2 -9 97.49 12
3 2 9 93.59 15.3
3 2 9 100.29 10.8
-4 -2 -9 577.74 44
-4 -2 -9 650.83 45.7
4 2 9 603.84 45.7
4 2 9 631.94 41.3
-5 -2 -9 446.76 34.4
-5 -2 -9 404.26 34.1
5 2 9 433.46 30.8
5 2 9 403.46 34.4
-6 -2 -9 1313.07 89.69
-6 -2 -9 1487.55 89.19
6 2 9 1292.67 83.89
6 2 9 1351.16 88.39
-7 -2 -9 15.9 7.2
-7 -2 -9 24.8 10.1
7 2 9 7.3 5.5
7 2 9 16.3 7.6
-8 -2 -9 48 13.2
-8 -2 -9 59.09 11.2
8 2 9 70.99 9.6
-9 -2 -9 97.89 18.9
-9 -2 -9 53.99 10.8
9 2 9 70.29 9
-10 -2 -9 -10 5.6
-10 -2 -9 -10.4 9.6
-12 3 9 7.5 16.8
-12 3 9 13.8 9.6
-12 3 9 20.8 15.1
-11 3 9 54.89 19.3
-11 3 9 82.19 15.2
-11 3 9 88.89 17.3
-10 3 9 28 8.6
-10 3 9 18.4 12.1
-10 3 9 14.1 7.7
-9 3 9 61.69 16.2
-9 3 9 34.5 9.7
-9 3 9 43.3 11.2
-8 3 9 119.19 22.2
-8 3 9 95.89 16.2
7 -3 -9 282.67 23.5
-7 3 9 289.27 30.4
-7 3 9 253.07 25.9
6 -3 -9 75.19 12.3
-6 3 9 77.49 16.7
-6 3 9 71.99 13.6
-6 3 9 87.79 10.7
5 -3 -9 1648.04 107.29
-5 3 9 1862.01 114.99
-5 3 9 1842.52 103.49
-5 3 9 1673.63 110.69
4 -3 -9 159.08 16.3
-4 3 9 168.08 18.4
-4 3 9 163.58 19.9
-4 3 9 165.28 12.4
3 -3 -9 1144.09 76.59
-3 3 9 1216.58 79.39
-3 3 9 1294.27 71.19
-3 3 9 1128.89 79.39
2 -3 -9 252.47 17.6
2 -3 -9 260.87 23.2
-2 3 9 299.87 18.8
-2 3 9 259.67 24.8
-2 3 9 274.27 25.2
1 -3 -9 372.06 31
1 -3 -9 383.96 24.8
-1 3 9 403.86 25.6
-1 3 9 356.76 31.3
0 -3 -9 330.07 28.7
0 -3 -9 337.57 24
0 3 9 364.06 30.2
0 3 9 377.96 25
-1 -3 -9 356.36 26.3
-1 -3 -9 387.26 31.2
1 3 9 359.26 26.9
1 3 9 398.06 32.2
-2 -3 -9 947.31 62.69
-2 -3 -9 748.73 60.99
2 3 9 947.81 63.29
2 3 9 976.3 59.69
-3 -3 -9 296.37 24.9
-3 -3 -9 314.57 27.6
3 3 9 287.67 22.4
3 3 9 302.17 27.3
-4 -3 -9 114.49 14.9
-4 -3 -9 90.99 15
4 3 9 109.09 17.3
4 3 9 98.99 10.5
-5 -3 -9 696.13 51.59
-5 -3 -9 769.22 53.09
5 3 9 718.23 46.7
5 3 9 676.53 51.89
-6 -3 -9 558.54 44.2
-6 -3 -9 627.04 44.2
6 3 9 533.45 42.6
6 3 9 488.55 36.6
-7 -3 -9 41.4 12
-7 -3 -9 46.3 12.1
7 3 9 46 11.9
7 3 9 56.69 8.7
-8 -3 -9 53.69 14.1
-8 -3 -9 29.6 9.8
8 3 9 35.2 6
-9 -3 -9 47.9 10.9
-9 -3 -9 60.69 15.9
-12 4 9 111.09 20.1
-12 4 9 148.79 28.8
-11 4 9 16.4 7.9
-11 4 9 1.6 7
-11 4 9 1.7 10.9
-10 4 9 13.8 21.2
-10 4 9 33.6 9.8
-10 4 9 4.2 7.2
-9 4 9 25.4 8.8
-9 4 9 29.9 11.8
-8 4 9 148.19 25.2
-8 4 9 145.59 18.7
7 -4 -9 243.88 22.1
-7 4 9 265.67 29.9
-7 4 9 275.87 21.4
-7 4 9 262.47 25.7
6 -4 -9 653.33 45.5
-6 4 9 688.23 42.6
-6 4 9 586.64 47.7
-6 4 9 665.43 53.09
5 -4 -9 31.4 7.5
-5 4 9 29.5 8.7
-5 4 9 23.7 8.8
-5 4 9 35.2 5.9
4 -4 -9 575.14 41.8
-4 4 9 651.73 37.3
-4 4 9 583.34 46.3
-4 4 9 494.05 43
3 -4 -9 73.69 12.3
3 -4 -9 47.2 6
-3 4 9 70.99 7.1
-3 4 9 69.49 13.6
-3 4 9 65.09 12.7
2 -4 -9 1589.84 100.39
2 -4 -9 1666.73 107.99
-2 4 9 1762.52 110.09
-2 4 9 1776.72 109.89
-2 4 9 1863.51 101.89
1 -4 -9 688.23 44.5
1 -4 -9 744.03 51.59
-1 4 9 679.63 56.09
-1 4 9 750.02 45.6
-1 4 9 738.23 52.89
0 -4 -9 980 67.99
0 -4 -9 982.9 62.09
0 4 9 1024.1 63.19
0 4 9 1061.99 70.19
0 4 9 1041.4 67.49
-1 -4 -9 657.83 48.2
-1 -4 -9 627.04 42.7
1 4 9 666.23 44.1
1 4 9 658.93 48.9
-2 -4 -9 20.2 7.4
-2 -4 -9 11.8 4.9
2 4 9 10.9 5.5
2 4 9 24.2 9
-3 -4 -9 8 5.5
-3 -4 -9 5 5.5
3 4 9 -3.3 3.7
3 4 9 7 4.4
-4 -4 -9 595.34 44.5
-4 -4 -9 625.24 46.8
4 4 9 595.54 46.7
4 4 9 604.44 39.9
-5 -4 -9 831.52 56.79
-5 -4 -9 781.82 57.59
5 4 9 756.52 56.69
5 4 9 752.32 49.6
-6 -4 -9 141.79 18.5
-6 -4 -9 141.69 21.8
6 4 9 142.59 18.6
6 4 9 125.79 12.6
-7 -4 -9 187.38 20.2
-7 -4 -9 154.68 23.4
7 4 9 125.79 18
7 4 9 103.59 10.7
7 4 9 123.39 10.9
-8 -4 -9 125.49 22
-8 -4 -9 106.39 17.7
-9 -4 -9 11.8 10.8
-9 -4 -9 -0.2 8
-12 5 9 36.9 13.7
-12 5 9 35.3 20
-12 5 9 66.79 21.4
-11 5 9 124.39 20.5
-11 5 9 176.48 30.6
-11 5 9 123.99 19.3
-10 5 9 10.3 7.1
-10 5 9 7.4 10.4
-10 5 9 7 7.2
-9 5 9 275.47 28
-9 5 9 257.77 33.1
-9 5 9 345.57 28.2
8 -5 -9 85.39 11.3
-8 5 9 62.19 14.2
-8 5 9 101.79 12.4
-8 5 9 66.39 18.1
7 -5 -9 68.39 11.7
-7 5 9 83.09 18
-7 5 9 66.19 14
-7 5 9 88.99 10.3
6 -5 -9 480.85 37.3
-6 5 9 452.75 40.2
-6 5 9 549.15 45.4
-6 5 9 560.74 35
5 -5 -9 290.17 24.7
-5 5 9 301.07 21.2
-5 5 9 331.57 31.1
-5 5 9 233.78 25.9
4 -5 -9 9.5 5.4
-4 5 9 12 6.1
-4 5 9 21.4 4.5
-4 5 9 6.6 5
3 -5 -9 2671.53 170.28
3 -5 -9 2718.13 163.48
-3 5 9 2949.3 173.78
-3 5 9 2849.81 174.08
-3 5 9 2981.5 164.38
2 -5 -9 995.9 69.89
2 -5 -9 1032.5 63.19
-2 5 9 1010.5 71.19
-2 5 9 1116.69 64.59
-2 5 9 1081.29 72.59
1 -5 -9 788.42 55.59
1 -5 -9 785.32 49
-1 5 9 747.13 54.99
-1 5 9 815.22 50.29
-1 5 9 776.12 57.09
0 -5 -9 3276.47 200.48
0 -5 -9 3246.28 193.38
0 5 9 3486.55 195.18
0 5 9 3237.18 200.08
0 5 9 3432.66 202.28
-1 -5 -9 130.49 23.2
-1 -5 -9 129.19 16.2
1 5 9 116.09 14.4
1 5 9 130.79 13.6
1 5 9 117.49 16.7
-2 -5 -9 336.27 26.7
-2 -5 -9 334.27 30.6
2 5 9 333.87 27.8
2 5 9 349.77 27.6
2 5 9 357.76 32.5
-3 -5 -9 138.69 18.2
-3 -5 -9 152.78 16.7
3 5 9 149.79 15.1
3 5 9 132.79 18.7
3 5 9 159.68 17.1
-4 -5 -9 721.03 52.99
-4 -5 -9 657.23 49.7
4 5 9 683.13 52.79
4 5 9 729.63 46.7
4 5 9 668.73 44.2
4 5 9 689.33 51.39
-5 -5 -9 287.47 29.2
-5 -5 -9 261.97 27
5 5 9 299.57 28.8
5 5 9 288.17 22.1
5 5 9 286.77 21.5
-6 -5 -9 26.3 10.2
-6 -5 -9 25.7 9.2
6 5 9 24.5 9.2
6 5 9 24.4 5.2
6 5 9 25.1 5.4
-7 -5 -9 216.28 24.1
-7 -5 -9 163.18 25.2
7 5 9 172.28 22
-8 -5 -9 -3.6 8.5
-8 -5 -9 -4.6 8.2
-9 -5 -9 140.39 40.6
-12 6 9 34 17.7
-12 6 9 70.39 15.9
-12 6 9 86.49 16.2
-11 6 9 8.7 8
-11 6 9 8.4 8.1
-11 6 9 28.3 13.8
-10 6 9 324.07 40.4
-10 6 9 408.86 32.8
-10 6 9 344.97 32.6
-9 6 9 170.68 47.8
-9 6 9 188.28 22.7
-9 6 9 166.18 20.4
8 -6 -9 371.36 29.9
-8 6 9 400.16 29.7
-8 6 9 354.36 33.9
-8 6 9 392.86 40.1
7 -6 -9 265.77 24.3
-7 6 9 278.17 32.1
-7 6 9 287.57 28.4
-7 6 9 307.67 23.1
6 -6 -9 34.7 7.9
-6 6 9 28.6 9.7
-6 6 9 30.4 11.9
-6 6 9 21.7 6.1
5 -6 -9 663.33 48
-5 6 9 759.62 55.99
-5 6 9 679.53 43.6
-5 6 9 607.44 50.69
4 -6 -9 709.73 51.59
-4 6 9 741.23 46.6
-4 6 9 721.73 55.89
-4 6 9 740.93 54.79
3 -6 -9 96.59 13.8
3 -6 -9 104.19 9.8
-3 6 9 105.49 10.4
-3 6 9 101.29 17.4
-3 6 9 96.99 16.7
2 -6 -9 1305.37 82.79
2 -6 -9 1386.96 90.29
-2 6 9 1422.66 92.89
-2 6 9 1484.35 84.59
-2 6 9 1341.87 91.49
1 -6 -9 1836.72 114.89
1 -6 -9 1854.61 122.09
-1 6 9 2004.8 124.99
-1 6 9 2028.7 116.99
-1 6 9 2017.4 122.79
0 -6 -9 1479.35 90.19
0 -6 -9 1387.26 96.09
0 6 9 1462.25 95.09
0 6 9 1539.35 91.69
0 6 9 1548.45 99.29
-1 -6 -9 751.82 55.69
-1 -6 -9 758.22 50.09
1 6 9 777.12 51.39
1 6 9 725.13 52.29
1 6 9 761.62 57.09
-2 -6 -9 54.19 10.5
-2 -6 -9 75.49 15.1
2 6 9 64.09 14.4
2 6 9 66.29 12.1
2 6 9 60.39 10.9
-3 -6 -9 1566.54 103.89
-3 -6 -9 1509.95 98.69
3 6 9 1589.74 97.09
3 6 9 1623.04 100.69
3 6 9 1559.04 104.39
-4 -6 -9 1 5.8
-4 -6 -9 2.3 5.5
4 6 9 4.2 6.1
4 6 9 3.6 6.3
4 6 9 4 3.2
4 6 9 1.1 4.2
-5 -6 -9 447.36 37.5
-5 -6 -9 493.15 40.9
5 6 9 436.16 30.5
5 6 9 435.16 38.6
5 6 9 401.06 29.1
-6 -6 -9 80.79 26.5
-6 -6 -9 89.59 17.9
6 6 9 73.29 7.2
6 6 9 81.49 15.9
6 6 9 71.39 7.1
-7 -6 -9 5.9 9.9
-7 -6 -9 2.3 7.5
-8 -6 -9 98.99 19.7
-8 -6 -9 116.39 20.7
-9 -6 -9 -1.4 11.4
-9 -6 -9 11.1 8.4
-11 7 9 52.69 11.7
-11 7 9 76.99 22.6
-10 7 9 4.3 6.2
-10 7 9 4.1 10.1
9 -7 -9 132.29 15.1
-9 7 9 136.59 15.7
-9 7 9 117.29 19.3
-9 7 9 114.99 25.5
8 -7 -9 162.48 16.8
-8 7 9 147.89 16
-8 7 9 129.29 24.6
-8 7 9 160.38 20.5
7 -7 -9 433.76 35
-7 7 9 506.35 34
-7 7 9 425.66 43.3
-7 7 9 461.25 39.8
6 -7 -9 8.6 6.1
6 -7 -9 1.7 4.1
-6 7 9 26.6 11.3
-6 7 9 7.9 4.2
-6 7 9 15.1 7.5
5 -7 -9 -4.2 2.7
-5 7 9 8.3 5.9
-5 7 9 6.7 5.3
-5 7 9 1.8 3.3
4 -7 -9 25.9 6.2
4 -7 -9 23.2 7.7
-4 7 9 28.7 10.3
-4 7 9 42.6 11.4
-4 7 9 38.4 7.2
3 -7 -9 705.93 48.8
3 -7 -9 796.22 56.29
-3 7 9 774.02 58.69
-3 7 9 845.22 59.59
-3 7 9 808.02 53.69
2 -7 -9 131.89 16.2
2 -7 -9 113.89 11.2
-2 7 9 120.99 12.5
-2 7 9 122.59 16.2
-2 7 9 82.29 16.5
1 -7 -9 1739.23 107.99
1 -7 -9 1742.43 115.39
-1 7 9 1851.71 118.49
-1 7 9 1844.72 115.69
-1 7 9 1867.31 109.89
0 -7 -9 189.48 17.4
0 -7 -9 183.48 21.7
0 7 9 203.38 18.6
0 7 9 184.68 20.4
0 7 9 207.28 23.9
-1 -7 -9 817.42 53.89
-1 -7 -9 807.12 60.19
1 7 9 859.81 55.59
1 7 9 864.81 62.19
1 7 9 682.83 60.69
-2 -7 -9 355.36 33
-2 -7 -9 330.27 28.1
2 7 9 347.07 29.3
2 7 9 363.06 34.2
2 7 9 336.87 28.2
-3 -7 -9 81.89 17.2
-3 -7 -9 90.09 14.6
3 7 9 58.29 14.7
3 7 9 79.99 11.2
3 7 9 84.09 14.7
-4 -7 -9 1018.2 76.59
-4 -7 -9 1040.8 71.19
4 7 9 1025.6 65.79
4 7 9 1062.69 72.69
4 7 9 1050.29 63.59
4 7 9 1022.7 74.89
-5 -7 -9 21.5 15.1
-5 -7 -9 8.1 8.6
5 7 9 6.9 3.5
5 7 9 24.5 8.9
5 7 9 -1.2 3.6
-6 -7 -9 391.46 37.9
-6 -7 -9 448.46 37.8
6 7 9 336.47 35.9
-7 -7 -9 24.7 12.1
-7 -7 -9 21.1 11.1
-8 -7 -9 77.99 31.1
-8 -7 -9 72.29 17.7
-11 8 9 30.3 10.6
-11 8 9 34.2 16.3
-10 8 9 419.56 37.6
-10 8 9 494.25 51.09
9 -8 -9 -13.1 4.8
-9 8 9 -5.2 7
-9 8 9 -2.4 5.1
-9 8 9 8.2 11.8
8 -8 -9 382.26 31.2
-8 8 9 375.96 35.6
-8 8 9 344.67 65.19
-8 8 9 396.06 30.2
7 -8 -9 527.35 46.4
7 -8 -9 545.05 41.6
-7 8 9 614.94 40.2
-7 8 9 571.04 51.69
-7 8 9 551.14 46.6
6 -8 -9 328.97 27.8
6 -8 -9 308.37 30.6
-6 8 9 310.97 24.3
-6 8 9 264.67 29.5
-6 8 9 348.97 36.3
5 -8 -9 1296.97 88.19
-5 8 9 1285.87 91.59
-5 8 9 1378.76 95.29
-5 8 9 1416.06 83.39
4 -8 -9 67.29 13.7
4 -8 -9 66.19 12
-4 8 9 77.09 17
-4 8 9 87.59 10.5
-4 8 9 75.79 16
3 -8 -9 721.63 55.39
3 -8 -9 634.94 51.09
-3 8 9 843.72 59.49
-3 8 9 781.22 58.49
-3 8 9 817.62 50.29
2 -8 -9 630.64 49.3
2 -8 -9 576.04 43
-2 8 9 681.93 52.39
-2 8 9 628.14 50.39
-2 8 9 703.93 44.3
1 -8 -9 617.94 42.8
1 -8 -9 643.64 50.19
-1 8 9 700.13 45
-1 8 9 580.54 50.59
-1 8 9 642.44 49.3
0 -8 -9 1551.94 101.79
0 -8 -9 1427.96 93.49
0 8 9 1650.93 96.39
0 8 9 1554.94 103.79
0 8 9 1452.45 98.19
-1 -8 -9 207.48 19.5
-1 -8 -9 221.68 24.7
1 8 9 203.68 20.4
1 8 9 203.88 25.1
1 8 9 204.28 21
-2 -8 -9 846.32 58.69
-2 -8 -9 806.62 64.09
2 8 9 907.61 59.39
2 8 9 869.91 65.59
2 8 9 883.21 60.49
-3 -8 -9 397.56 33.8
-3 -8 -9 402.26 38.4
3 8 9 419.96 39.6
3 8 9 401.96 31.7
3 8 9 446.56 36.4
-4 -8 -9 733.43 54.39
-4 -8 -9 757.02 59.19
4 8 9 744.43 49.4
4 8 9 751.02 59.79
4 8 9 741.53 46.9
4 8 9 738.33 62.89
-5 -8 -9 353.06 33.3
-5 -8 -9 476.55 40.2
5 8 9 359.36 36
5 8 9 376.96 25.1
5 8 9 324.67 23.6
-6 -8 -9 11.7 12.9
-6 -8 -9 7.2 8.8
6 8 9 20.6 10.3
-7 -8 -9 101.39 20.5
-8 -8 -9 34.5 17.3
-11 9 9 -0.5 9.4
-11 9 9 25.8 9.8
10 -9 -9 23.1 8.8
-10 9 9 22.2 8.5
-10 9 9 11.1 12.8
9 -9 -9 259.87 23.8
-9 9 9 221.88 37.6
-9 9 9 275.77 28.3
-9 9 9 272.77 24.4
8 -9 -9 8.9 5.4
-8 9 9 8.1 8
-8 9 9 -2.6 8
-8 9 9 2.8 5.1
7 -9 -9 506.65 39.2
-7 9 9 500.75 48.7
-7 9 9 444.46 42.6
-7 9 9 549.54 37.3
6 -9 -9 654.73 48.8
6 -9 -9 646.44 52.79
-6 9 9 572.44 52.19
-6 9 9 730.03 58.79
-6 9 9 702.33 45.8
5 -9 -9 615.44 47.7
5 -9 -9 590.94 49.6
-5 9 9 674.03 54.99
-5 9 9 574.34 50.69
-5 9 9 689.63 44
4 -9 -9 292.27 29.1
4 -9 -9 336.97 25.1
4 -9 -9 286.27 29.6
-4 9 9 318.97 32.5
-4 9 9 361.66 26.2
-4 9 9 310.07 33
3 -9 -9 27.7 6.4
3 -9 -9 35.6 10.4
-3 9 9 25.8 9.6
-3 9 9 31.8 6.7
-3 9 9 7.5 6.6
2 -9 -9 476.75 41.1
2 -9 -9 472.75 34.4
-2 9 9 468.75 41.7
-2 9 9 510.95 36
-2 9 9 508.85 44.2
1 -9 -9 769.62 59.69
1 -9 -9 755.02 52.19
-1 9 9 800.12 58.99
-1 9 9 852.61 54.79
-1 9 9 785.22 61.69
0 -9 -9 -1.7 3.6
0 -9 -9 5.4 6.3
0 9 9 -2.2 3.9
0 9 9 0.8 4.2
0 9 9 1.8 5.1
-1 -9 -9 673.93 56.29
-1 -9 -9 627.74 46.9
1 9 9 711.03 49.7
1 9 9 667.63 49.4
1 9 9 692.03 55.29
-2 -9 -9 27.3 10.2
-2 -9 -9 23.9 8.3
2 9 9 11 8.5
2 9 9 26.3 9.1
-3 -9 -9 1017.8 69.39
-3 -9 -9 992.9 74.49
3 9 9 1004.7 66.09
3 9 9 1020.9 75.59
3 9 9 1002.2 70.79
-4 -9 -9 29.4 12.4
-4 -9 -9 43.1 16.6
4 9 9 51.09 7.3
4 9 9 47.7 8
4 9 9 33.4 12.8
-5 -9 -9 336.27 30.3
5 9 9 302.57 32.7
5 9 9 264.97 18.8
5 9 9 281.17 18.5
-6 -9 -9 32.1 12.3
6 9 9 49.2 17.6
-7 -9 -9 5.4 8.7
-11 10 9 217.48 24.9
-11 10 9 216.78 37.9
10 -10 -9 120.09 15.4
-10 10 9 69.09 16.2
-10 10 9 128.59 28.3
9 -10 -9 258.67 25.1
-9 10 9 269.77 37.1
-9 10 9 277.97 29.8
-9 10 9 290.27 25.7
8 -10 -9 358.36 30.6
-8 10 9 419.56 30.6
-8 10 9 315.87 39.6
-8 10 9 345.87 35.2
7 -10 -9 10.5 7.4
-7 10 9 11.3 5.3
-7 10 9 15.6 14.5
-7 10 9 6.2 8.3
6 -10 -9 1111.39 88.19
6 -10 -9 1172.78 77.09
-6 10 9 1167.68 71.99
-6 10 9 967.2 79.09
-6 10 9 1146.49 85.39
5 -10 -9 279.77 28.5
5 -10 -9 271.07 26.5
-5 10 9 281.97 31.9
-5 10 9 273.47 23.5
-5 10 9 227.68 28.6
4 -10 -9 324.17 30.9
4 -10 -9 309.37 31
4 -10 -9 312.57 25.5
-4 10 9 340.97 34.6
-4 10 9 368.56 27.1
-4 10 9 316.97 34
3 -10 -9 -2.9 3.1
3 -10 -9 11.2 5.8
3 -10 -9 8.8 6.2
-3 10 9 5.1 7.9
-3 10 9 -2.2 4.6
-3 10 9 9.8 5.8
2 -10 -9 2.9 4.2
2 -10 -9 2.2 7.1
-2 10 9 14.2 8.1
-2 10 9 0.1 4.2
-2 10 9 1.3 7
1 -10 -9 441.96 32.5
1 -10 -9 386.86 37.8
-1 10 9 425.46 33.9
-1 10 9 439.26 41.6
-1 10 9 432.06 37.9
0 -10 -9 40.9 12.4
0 -10 -9 55.99 10.7
0 10 9 62.39 15.8
0 10 9 45.2 10.9
0 10 9 29.6 10.2
-1 -10 -9 195.68 24.2
-1 -10 -9 229.08 21.5
1 10 9 257.67 29
1 10 9 197.88 22.8
1 10 9 208.98 22.4
-2 -10 -9 816.52 62.39
-2 -10 -9 740.03 54.99
2 10 9 828.52 56.99
2 10 9 823.72 58.09
2 10 9 696.33 61.59
-3 -10 -9 16.2 18
-3 -10 -9 -5.4 3.5
3 10 9 7.7 5.6
3 10 9 -2.1 7.9
-4 -10 -9 363.26 32.8
4 10 9 323.97 37.3
4 10 9 338.67 25.9
-5 -10 -9 23.1 10.6
5 10 9 3 10.8
-6 -10 -9 107.79 21.1
-7 -10 -9 147.99 29
11 -11 -9 -15 6.6
-11 11 9 1.7 9.5
-11 11 9 -18.9 12.2
10 -11 -9 291.77 26.6
-10 11 9 286.97 31.2
-10 11 9 285.27 39.5
9 -11 -9 43 10.2
-9 11 9 24 12.6
-9 11 9 20.2 14.8
8 -11 -9 354.46 31.5
-8 11 9 359.36 36.4
-8 11 9 340.27 40.7
-8 11 9 391.76 30.7
7 -11 -9 1414.06 92.19
-7 11 9 1413.06 103.99
-7 11 9 1320.37 100.89
-7 11 9 1396.66 97.89
6 -11 -9 194.98 25.1
-6 11 9 171.58 18.1
-6 11 9 144.39 25.6
-6 11 9 167.58 30.2
5 -11 -9 827.12 56.09
5 -11 -9 817.62 82.29
5 -11 -9 798.32 63.39
-5 11 9 864.71 56.69
-5 11 9 946.81 69.99
-5 11 9 757.22 64.39
4 -11 -9 500.15 44
4 -11 -9 512.05 44.9
4 -11 -9 564.24 39.2
-4 11 9 556.74 49.8
-4 11 9 552.74 48.4
-4 11 9 564.34 40
3 -11 -9 1269.87 119.09
3 -11 -9 1288.77 93.39
3 -11 -9 1415.86 86.19
-3 11 9 1349.77 97.49
-3 11 9 1421.26 97.19
-3 11 9 1423.16 87.59
2 -11 -9 120.79 14.8
2 -11 -9 141.39 20
-2 11 9 112.29 21.4
-2 11 9 129.79 23.7
-2 11 9 145.99 16.5
1 -11 -9 128.69 15.5
1 -11 -9 145.19 19.9
-1 11 9 151.68 20.7
-1 11 9 154.48 17.5
-1 11 9 142.59 24.5
0 -11 -9 258.87 28.1
0 -11 -9 229.18 22.1
0 11 9 237.68 24.1
0 11 9 251.77 30.1
0 11 9 224.48 24.9
-1 -11 -9 44.8 14.1
-1 -11 -9 50.39 11.8
1 11 9 73.99 14.3
1 11 9 53.29 12.7
1 11 9 31 13.7
-2 -11 -9 3.1 4.8
2 11 9 3.8 5.6
2 11 9 10.3 8.1
2 11 9 -4 5
-3 -11 -9 1254.37 82.19
3 11 9 1219.48 77.79
3 11 9 1112.99 90.49
-4 -11 -9 6.1 8.4
4 11 9 8.9 4.9
-5 -11 -9 211.78 26.8
5 11 9 262.47 31.6
-6 -11 -9 20 10.3
-7 -11 -9 0 7.7
11 -12 -9 219.48 22.5
-11 12 9 170.48 26.7
-11 12 9 200.28 36.7
10 -12 -9 3.4 7
-10 12 9 0.4 9.2
9 -12 -9 821.72 63.19
-9 12 9 795.72 72.39
-9 12 9 782.62 63.49
8 -12 -9 2.7 7.5
-8 12 9 -4.1 6.2
-8 12 9 14.6 9.8
-8 12 9 5.6 11.3
7 -12 -9 74.29 15.4
-7 12 9 54.39 19.1
-7 12 9 67.09 16.5
-7 12 9 65.29 13
6 -12 -9 830.52 61.59
-6 12 9 717.33 64.09
-6 12 9 984.1 73.59
5 -12 -9 275.27 30.4
5 -12 -9 332.17 26.6
-5 12 9 277.77 33.3
-5 12 9 297.77 35.6
-5 12 9 321.57 26.7
4 -12 -9 1118.79 83.69
4 -12 -9 1251.47 76.89
4 -12 -9 1178.78 83.89
-4 12 9 1223.08 77.99
-4 12 9 1211.98 88.89
-4 12 9 1136.89 87.39
3 -12 -9 507.05 37.2
3 -12 -9 504.15 43.7
3 -12 -9 522.35 44.8
-3 12 9 416.86 44.7
-3 12 9 503.55 46
-3 12 9 519.45 38.8
2 -12 -9 266.47 28.7
2 -12 -9 251.27 22.9
-2 12 9 231.38 29.4
-2 12 9 237.38 28.2
-2 12 9 255.57 24.4
1 -12 -9 312.37 27.3
1 -12 -9 329.67 33.8
-1 12 9 304.57 35.4
-1 12 9 292.57 38.9
-1 12 9 298.47 31.2
0 -12 -9 200.28 21.7
0 12 9 245.48 24.3
0 12 9 194.78 23.4
0 12 9 206.08 28.5
-1 -12 -9 150.18 17.6
1 12 9 139.39 18.6
1 12 9 167.38 19.9
-2 -12 -9 3.9 13
2 12 9 33.2 14.4
2 12 9 21.1 8
-3 -12 -9 164.08 21.4
3 12 9 160.58 17.3
3 12 9 151.88 27.6
-4 -12 -9 14.6 7.6
4 12 9 25.7 11.6
-5 -12 -9 14.7 9.1
5 12 9 6.3 9.6
-6 -12 -9 78.09 21
10 -13 -9 143.29 19.3
-10 13 9 139.89 23.7
-10 13 9 110.29 25.8
9 -13 -9 7.8 7.4
-9 13 9 13.1 12.9
-9 13 9 -5.6 8.9
8 -13 -9 543.85 44.6
-8 13 9 535.05 55.29
-8 13 9 560.04 50.09
7 -13 -9 148.39 19.6
-7 13 9 109.89 22.8
-7 13 9 159.18 18.1
-7 13 9 125.69 28.9
6 -13 -9 38.4 11.9
-6 13 9 14.9 7.3
-6 13 9 26.8 12.3
-6 13 9 28.8 12.1
5 -13 -9 456.05 34.5
5 -13 -9 428.56 39.5
-5 13 9 469.05 35.5
-5 13 9 379.56 41.6
-5 13 9 415.46 45.7
4 -13 -9 122.39 22.8
4 -13 -9 127.89 15.6
-4 13 9 174.38 28.4
-4 13 9 138.99 17.5
-4 13 9 107.99 22.3
3 -13 -9 693.03 55.89
3 -13 -9 726.23 49.4
-3 13 9 756.42 60.09
-3 13 9 712.23 50.89
-3 13 9 566.54 56.99
2 -13 -9 20.3 8.2
-2 13 9 31.6 9.1
-2 13 9 39.1 14.8
-2 13 9 31.1 11.6
1 -13 -9 290.47 27.6
-1 13 9 341.87 33.8
-1 13 9 323.87 30
0 -13 -9 621.04 44.7
0 13 9 522.95 44.9
0 13 9 596.84 48
0 13 9 558.04 52.69
-1 -13 -9 224.88 37.5
1 13 9 197.58 27.3
1 13 9 172.68 22.3
-2 -13 -9 60.79 14
2 13 9 82.99 14.4
2 13 9 45 14.1
-3 -13 -9 81.99 17.2
3 13 9 81.09 13.7
3 13 9 119.59 24.1
-4 -13 -9 103.59 18.3
4 13 9 78.69 21.1
4 13 9 83.59 9.9
-5 -13 -9 79.19 17.5
10 -14 -9 24.8 11.7
-10 14 9 28 11.7
-10 14 9 56.19 20.5
9 -14 -9 272.97 27.4
-9 14 9 242.58 41.8
-9 14 9 281.87 34
8 -14 -9 9.7 8.1
-8 14 9 -4.2 9.2
-8 14 9 -3.2 7.3
-7 14 9 420.06 46.5
-7 14 9 384.16 41
-6 14 9 618.34 56.29
-6 14 9 556.14 41.8
-6 14 9 442.86 48
5 -14 -9 14.1 7.8
-5 14 9 34.1 15.7
-5 14 9 36.5 8.9
-5 14 9 35.7 14.1
4 -14 -9 616.14 44.4
-4 14 9 421.26 78.89
-4 14 9 634.34 46
3 -14 -9 14.7 13.3
3 -14 -9 6 7.1
-3 14 9 7.6 7.3
-3 14 9 -1.6 8.2
-3 14 9 10.7 11.7
2 -14 -9 29.5 9.3
-2 14 9 21.7 9.2
-2 14 9 31.7 12.8
-2 14 9 8.8 10.5
1 -14 -9 285.07 26
-1 14 9 287.47 34.4
-1 14 9 280.97 31.1
0 -14 -9 53.39 14.6
0 14 9 70.99 20.2
0 14 9 68.79 15.6
-1 -14 -9 233.48 24.5
1 14 9 203.28 29.5
1 14 9 208.08 23.9
-2 -14 -9 11.9 8.8
2 14 9 12.1 7.1
2 14 9 -1 9.3
-3 -14 -9 244.98 26.8
3 14 9 273.57 34.6
-4 -14 -9 11.4 8.1
4 14 9 6.3 10.8
4 14 9 1.4 3.5
-5 -14 -9 43 14.4
-10 15 9 31.1 19.1
-10 15 9 39.8 15
-9 15 9 74.09 19.7
-9 15 9 54.29 20.7
-8 15 9 106.79 37
-8 15 9 159.48 31.7
-7 15 9 26.5 12.4
-7 15 9 0.4 7.7
-6 15 9 530.85 53.39
-6 15 9 651.23 58.89
5 -15 -9 122.69 17.9
-5 15 9 109.19 23.6
-5 15 9 117.69 25
4 -15 -9 387.46 33.6
-4 15 9 465.65 46.3
-4 15 9 404.86 44.1
3 -15 -9 -2.1 6.2
-3 15 9 -7.6 7.8
-3 15 9 17.5 10.4
2 -15 -9 78.09 17.9
-2 15 9 70.89 18.4
-2 15 9 52.49 17.3
1 -15 -9 204.88 22.5
-1 15 9 241.08 29
-1 15 9 172.78 31.7
0 -15 -9 33.4 10.4
0 15 9 19.8 10.5
0 15 9 7.3 8.8
-1 -15 -9 4.1 7.7
1 15 9 4.3 11
1 15 9 20.8 8.4
-2 -15 -9 65.99 14.3
2 15 9 61.39 19.5
2 15 9 44.8 11.4
-3 -15 -9 -3.3 7.3
3 15 9 0.2 11.1
3 15 9 11.7 11.3
-4 -15 -9 9.4 8.5
4 15 9 4.2 3.7
-9 16 9 67.39 25.7
-9 16 9 34.8 14.8
-8 16 9 196.18 36
-8 16 9 191.48 31.9
-7 16 9 26.6 13.9
-7 16 9 25.1 12.9
6 -16 -9 -5.2 5.3
-6 16 9 -1.1 8.1
-6 16 9 11.9 11.3
5 -16 -9 184.88 20
-5 16 9 117.09 26.5
-5 16 9 126.19 27.4
4 -16 -9 139.69 16.7
-4 16 9 123.69 25.1
-4 16 9 94.49 23.1
3 -16 -9 348.27 30.4
-3 16 9 330.87 37.4
-3 16 9 291.07 37.2
2 -16 -9 230.78 23.9
-2 16 9 200.38 34.8
-2 16 9 211.08 28.6
1 -16 -9 -7.3 5.5
-1 16 9 -6.9 6.1
-1 16 9 1.3 9.5
0 -16 -9 211.48 23.8
0 16 9 190.18 35
0 16 9 212.48 27.2
-1 -16 -9 21.3 9.9
1 16 9 23.9 14.1
1 16 9 31 10.9
-2 -16 -9 146.29 23.5
2 16 9 176.98 20.7
2 16 9 180.28 32.7
-3 -16 -9 39.3 13
3 16 9 30.9 11.8
3 16 9 11.6 14.8
-9 17 9 74.89 21.4
-9 17 9 97.89 26.7
-8 17 9 21.4 13.4
-8 17 9 5.5 13.1
-7 17 9 156.38 29.5
-7 17 9 153.28 29.2
6 -17 -9 290.07 29
-6 17 9 341.97 38.7
-6 17 9 244.38 34.1
5 -17 -9 9.5 7.5
-5 17 9 2.5 10.8
-5 17 9 9.1 10.4
4 -17 -9 139.79 18.8
-4 17 9 199.88 32.6
-4 17 9 143.79 28.8
3 -17 -9 27.2 9.7
-3 17 9 22.2 11.7
-3 17 9 5.2 11
2 -17 -9 86.59 15.6
-2 17 9 87.19 20.3
1 -17 -9 67.19 14.2
-1 17 9 29.4 13.9
-1 17 9 41.5 15.3
0 -17 -9 -0.7 6.6
0 17 9 8.2 9.6
0 17 9 26.8 12.3
-1 -17 -9 259.47 29.4
1 17 9 257.37 28.5
1 17 9 279.67 36.4
-2 -17 -9 41.1 14.3
2 17 9 65.79 14.1
2 17 9 87.29 21.9
-8 18 9 82.29 23.8
-8 18 9 104.29 25.8
-7 18 9 116.39 26.7
-7 18 9 56.79 18.4
6 -18 -9 190.58 23.2
-6 18 9 208.18 36.4
5 -18 -9 192.98 21.8
-5 18 9 114.49 26.1
-5 18 9 164.58 32.1
4 -18 -9 29.5 10.7
-4 18 9 29.5 14.9
-4 18 9 31.9 15.6
3 -18 -9 265.97 26.1
-3 18 9 209.28 34
-3 18 9 176.18 34.7
2 -18 -9 5.3 7.5
-2 18 9 -7.8 9.9
-2 18 9 34 14.1
1 -18 -9 46.3 13.7
-1 18 9 66.09 21.9
-1 18 9 58.59 17.7
0 -18 -9 97.09 16.7
0 18 9 111.29 22.1
0 18 9 65.79 20.1
-1 -18 -9 1.7 5.7
1 18 9 4.7 8.5
1 18 9 6.7 11.5
-7 19 9 68.69 23
-7 19 9 36 18.1
6 -19 -9 67.69 16.1
-6 19 9 37.1 19
-6 19 9 36.8 15
-5 19 9 197.58 35.3
-5 19 9 250.17 34.3
4 -19 -9 436.66 37.2
-4 19 9 326.27 44.2
-4 19 9 438.86 47.7
3 -19 -9 -2 7.2
-3 19 9 23.9 13.6
-3 19 9 -8.2 8.3
2 -19 -9 238.58 25.6
-2 19 9 219.68 34.2
-2 19 9 150.48 32.1
1 -19 -9 51.19 14.3
-1 19 9 44.1 16.3
0 -19 -9 39.8 13
0 19 9 22.7 17.6
0 19 9 61.49 22
5 -20 -9 75.59 16.4
-5 20 9 64.49 21.9
-5 20 9 85.79 21.2
4 -20 -9 17.8 10.5
-4 20 9 25.6 15.1
-4 20 9 23.2 18
3 -20 -9 310.67 29.8
-3 20 9 263.47 35.8
-3 20 9 167.68 38
2 -20 -9 29.8 11.9
-2 20 9 37.5 16.3
-2 20 9 80.19 18.7
-1 23 -10 32.2 13
1 -23 10 32.9 12.8
-2 23 -10 212.88 26.1
2 -23 10 134.59 23.9
-3 23 -10 20.3 10.3
3 -23 10 18.2 12.5
-4 23 -10 81.29 29.2
-1 -22 10 -6 7
0 22 -10 16.8 9.2
0 -22 10 10.9 9.1
-1 22 -10 376.36 35.4
1 -22 10 307.57 34
-2 22 -10 15.3 8.9
2 -22 10 17.6 7.9
-3 22 -10 299.97 32.6
3 -22 10 279.67 32.1
-4 22 -10 3.4 9.7
-5 22 -10 56.39 18.3
-6 22 -10 220.08 30
-2 -21 10 -7.4 6.2
-1 -21 10 128.29 21.1
0 21 -10 247.28 26.7
0 -21 10 233.78 27.8
-1 21 -10 90.29 17.7
1 -21 10 65.99 15.6
-2 21 -10 268.77 28.6
2 -21 10 197.28 24.9
-3 21 -10 10.3 10.1
3 -21 10 -7.7 7.4
-4 21 -10 229.98 28.2
-5 21 -10 65.79 15.8
-6 21 -10 190.28 26.7
-7 21 -10 231.38 31.6
-3 -20 10 38.2 15
-3 -20 10 36.9 12
-1 -20 10 78.79 17.4
0 20 -10 174.08 22
0 -20 10 221.68 25.3
-1 20 -10 229.48 26.5
1 -20 10 266.77 28.2
-2 20 -10 29.6 10.9
2 -20 10 24.7 11.1
-3 20 -10 129.59 22.2
3 -20 10 128.69 22.3
-4 20 -10 -3.9 7.1
-5 20 -10 535.85 49.3
-6 20 -10 213.48 28.5
-7 20 -10 0.1 6.6
-8 20 -10 118.59 25.2
8 -20 10 130.59 23.3
8 -20 10 110.89 18.1
-4 -19 10 113.09 19.7
-4 -19 10 121.29 19.5
-3 -19 10 59.09 18.4
-3 -19 10 98.69 18.6
-2 -19 10 295.87 31.9
-2 -19 10 305.37 41.3
-1 -19 10 180.48 22.3
0 19 -10 0.1 5.6
0 -19 10 -3.2 6.4
-1 19 -10 156.18 19.2
1 -19 10 91.79 17.8
-2 19 -10 353.36 33.7
2 -19 10 329.97 32.8
-3 19 -10 98.09 18.9
3 -19 10 81.59 16.5
-4 19 -10 497.35 45.1
-6 19 -10 452.55 45.2
6 -19 10 502.35 48.4
-7 19 -10 148.49 26.8
7 -19 10 158.48 25.4
-8 19 -10 114.49 49.99
8 -19 10 77.99 15.1
8 -19 10 88.59 31.1
-5 -18 10 6 8.9
-4 -18 10 -9.3 15.5
-4 -18 10 11.3 9
-3 -18 10 69.39 17
-3 -18 10 76.29 16.3
-2 -18 10 20.5 10.4
-2 -18 10 30.7 11.6
-1 -18 10 300.57 31
-1 -18 10 190.18 23.8
0 18 -10 693.73 51.49
0 -18 10 653.33 51.59
-1 18 -10 16.1 9.8
1 -18 10 -3.5 5.6
-2 18 -10 212.98 25.1
2 -18 10 189.58 22.9
-3 18 -10 234.28 25.6
3 -18 10 168.98 22.9
-4 18 -10 324.67 33.7
-5 18 -10 418.16 41
5 -18 10 405.76 41.1
-6 18 -10 -2.2 7.6
6 -18 10 34.5 12.9
-7 18 -10 267.17 33
7 -18 10 266.67 62.59
-8 18 -10 46.1 15.1
8 -18 10 52.99 11.9
8 -18 10 50.69 14
-9 18 -10 11.4 8.8
9 -18 10 36.6 11.5
9 -18 10 5.3 6.8
-6 -17 10 -2.9 20.3
-6 -17 10 17.1 9.3
-5 -17 10 7.1 8.2
-5 -17 10 2.4 8
-4 -17 10 132.49 20.9
-4 -17 10 151.48 23.1
-3 -17 10 -15.8 8.7
-3 -17 10 -4.5 6.9
-2 -17 10 77.79 17.4
-2 -17 10 70.89 18.9
-1 -17 10 358.46 34.2
-1 -17 10 274.57 28.5
0 17 -10 223.58 24.3
0 17 -10 214.48 39.3
0 -17 10 249.78 25.3
0 -17 10 243.78 28.9
-1 17 -10 33.2 10.2
-1 17 -10 24.1 9.2
1 -17 10 35 10.8
-2 17 -10 107.39 32.6
2 -17 10 128.59 20.1
-3 17 -10 93.99 17.8
3 -17 10 68.49 15.5
-4 17 -10 509.75 45.8
4 -17 10 546.15 48
-5 17 -10 150.98 25.5
5 -17 10 217.48 26.3
-6 17 -10 187.58 25.8
6 -17 10 243.98 48.3
-7 17 -10 10.5 8.4
7 -17 10 23.9 10.5
7 -17 10 18.1 7.2
-8 17 -10 208.38 29.2
8 -17 10 245.58 25.3
8 -17 10 206.38 21.1
-9 17 -10 122.89 25.4
9 -17 10 151.88 18.5
-6 -16 10 1.9 8.7
-6 -16 10 21.9 10.6
-5 -16 10 213.58 21.8
-5 -16 10 142.69 23.1
-4 -16 10 59.39 15.1
-4 -16 10 76.39 15.5
-3 -16 10 206.68 24.6
-3 -16 10 307.97 29.6
2 16 -10 13.4 7.8
-2 -16 10 27.5 9.1
-2 -16 10 15.5 18
1 16 -10 730.13 51.79
-1 -16 10 741.33 58.19
-1 -16 10 687.13 52.49
0 16 -10 328.57 29.4
0 16 -10 322.57 27.5
0 -16 10 334.97 33.2
0 -16 10 273.27 28
-1 16 -10 163.98 18.6
-1 16 -10 180.28 20.4
1 -16 10 188.88 24
1 -16 10 150.68 19
-2 16 -10 1490.45 95.29
-2 16 -10 1506.85 91.49
2 -16 10 1380.66 132.49
2 -16 10 1261.57 91.59
-3 16 -10 229.88 22.4
-3 16 -10 216.18 25.8
-4 16 -10 56.49 14.3
-5 16 -10 -3.2 5.5
5 -16 10 17.2 9.8
-6 16 -10 15.7 8.2
6 -16 10 6.6 9
-7 16 -10 303.27 34.6
7 -16 10 348.47 32
7 -16 10 368.26 29.6
-8 16 -10 36.4 13.7
8 -16 10 69.39 11.5
8 -16 10 66.89 13.3
-9 16 -10 118.09 24.7
9 -16 10 113.59 17.3
9 -16 10 132.49 13.4
-7 -15 10 53.49 13.5
-7 -15 10 32.4 8.3
-7 -15 10 43.2 10.1
-6 -15 10 0.6 7.3
-6 -15 10 12.7 7.6
-5 -15 10 3.6 7
-5 -15 10 17.8 7.7
-4 -15 10 18.1 9.4
-4 -15 10 20.6 10.5
3 15 -10 75.79 13.7
-3 -15 10 64.89 14.3
-3 -15 10 35.2 10.6
2 15 -10 184.28 20.1
-2 -15 10 178.68 20.4
-2 -15 10 175.98 22.8
1 15 -10 9 5.7
-1 -15 10 8.8 6
-1 -15 10 6.5 12.8
0 15 -10 330.97 29.2
0 -15 10 299.07 27.8
0 -15 10 315.37 32
-1 15 -10 125.69 16.6
-1 15 -10 123.29 24.5
1 -15 10 127.49 15.9
1 -15 10 99.09 20.2
-2 15 -10 48.4 10.6
-2 15 -10 42.7 11.1
2 -15 10 38.7 13.6
2 -15 10 42.2 10.5
-3 15 -10 982.5 69.39
-3 15 -10 964.8 64.59
3 -15 10 917.31 81.29
-4 15 -10 189.98 19.3
-4 15 -10 176.28 23.4
-5 15 -10 372.86 36.1
-6 15 -10 6.8 7.7
6 -15 10 19.6 9.5
6 -15 10 20.9 7.3
-7 15 -10 40 12.3
7 -15 10 26.6 8.2
7 -15 10 35.2 9.9
-8 15 -10 114.09 22.5
8 -15 10 119.59 16.5
8 -15 10 186.88 24.2
-9 15 -10 9.3 7.5
9 -15 10 7 5.3
9 -15 10 2.6 3.7
-10 15 -10 -0.9 7.6
-7 -14 10 184.48 19
-7 -14 10 164.78 24.9
-6 -14 10 -5.3 6.9
-6 -14 10 0.9 7.4
-5 -14 10 15.8 8.3
-5 -14 10 30.6 8.4
4 14 -10 61.09 13.4
-4 -14 10 61.69 13.2
-4 -14 10 79.39 14.9
3 14 -10 9.1 6.4
-3 -14 10 0 5.8
-3 -14 10 0.1 5.7
2 14 -10 96.49 14.7
-2 -14 10 94.09 16.8
-2 -14 10 67.89 13.3
1 14 -10 2.8 4.2
-1 -14 10 4 4.5
-1 -14 10 4.7 5.2
0 14 -10 96.79 12.3
0 14 -10 95.19 15.4
0 -14 10 76.89 13.6
0 -14 10 111.59 19.4
-1 14 -10 48.4 9.5
-1 14 -10 54.69 11.8
1 -14 10 38.8 11.8
1 -14 10 38.5 10
-2 14 -10 911.01 59.89
-2 14 -10 1019.1 65.49
2 -14 10 775.42 60.19
2 -14 10 904.71 67.99
-3 14 -10 363.36 37.9
-3 14 -10 324.47 32.1
3 -14 10 401.76 37.8
-4 14 -10 171.88 19
-4 14 -10 171.28 22.6
4 -14 10 226.68 30.5
-5 14 -10 -2.5 3.9
-5 14 -10 0.6 4.7
-6 14 -10 121.19 21.7
6 -14 10 126.69 15.1
6 -14 10 144.69 17.8
-7 14 -10 182.78 24.6
7 -14 10 209.28 21.7
7 -14 10 224.18 19.8
-8 14 -10 -1.1 5.2
8 -14 10 -1 3.8
-9 14 -10 156.58 28
9 -14 10 218.38 16.3
9 -14 10 237.18 16.2
-10 14 -10 -0.2 8.2
-8 -13 10 129.39 15
-8 -13 10 138.29 22
-8 -13 10 129.09 20.3
-7 -13 10 27.6 10
-7 -13 10 4.4 8.1
-7 -13 10 -0.4 6.4
-6 -13 10 -1.7 8.6
-6 -13 10 7.4 6
5 13 -10 139.19 18.3
-5 -13 10 157.88 17.9
-5 -13 10 113.39 16.1
4 13 -10 121.09 16.3
-4 -13 10 128.69 16.6
-4 -13 10 136.99 17.4
3 13 -10 371.66 32.1
-3 -13 10 420.86 33.6
-3 -13 10 442.06 35.9
2 13 -10 81.19 12.9
-2 -13 10 84.29 14.5
-2 -13 10 60.49 11.8
1 13 -10 111.69 13.7
-1 -13 10 118.49 16.2
-1 -13 10 108.39 13.3
0 13 -10 85.59 14.2
0 13 -10 106.39 12.2
0 -13 10 84.59 13.4
0 -13 10 103.09 17.9
-1 13 -10 794.12 53.99
-1 13 -10 814.62 51.09
1 -13 10 756.02 57.39
1 -13 10 627.54 50.09
-2 13 -10 394.06 30.3
-2 13 -10 423.56 34.2
2 -13 10 393.16 37.9
2 -13 10 363.86 31.2
-3 13 -10 14.2 6
-3 13 -10 13.9 7.8
3 -13 10 15.9 7.8
-4 13 -10 18.2 11.1
-4 13 -10 32.2 9.9
4 -13 10 57.99 13.8
-5 13 -10 300.27 27.3
-5 13 -10 317.97 31.6
5 -13 10 308.17 57.79
5 -13 10 318.27 27.1
-6 13 -10 14.1 12.1
6 -13 10 19.5 6.8
-7 13 -10 125.49 22.5
7 -13 10 174.18 18.1
7 -13 10 95.09 43.3
-8 13 -10 32.4 13.3
8 -13 10 25.1 7.4
8 -13 10 40.5 7.1
-9 13 -10 -5.3 6.3
-10 13 -10 90.09 18.8
-8 -12 10 5.8 6.4
-8 -12 10 3.7 5.6
-8 -12 10 9.3 10
-7 -12 10 106.19 13.5
-7 -12 10 80.29 16.8
-7 -12 10 89.79 12.7
6 12 -10 79.19 16.2
-6 -12 10 89.79 11.7
-6 -12 10 74.59 15.2
5 12 -10 33.9 9.9
-5 -12 10 43 9.6
-5 -12 10 40.3 10.5
4 12 -10 1.5 5.6
-4 -12 10 14.2 6.5
-4 -12 10 3.8 5.5
3 12 -10 267.87 23.7
-3 -12 10 258.77 24.1
-3 -12 10 284.87 25.5
2 12 -10 10.2 5.3
-2 -12 10 31.5 7.6
-2 -12 10 16.5 7.9
1 12 -10 1326.27 81.89
-1 -12 10 1358.46 87.59
-1 -12 10 1240.08 82.19
0 12 -10 12.8 6.1
0 12 -10 17.2 5.7
0 -12 10 17.2 7.5
0 -12 10 17.7 5.7
-1 12 -10 1086.29 64.89
-1 12 -10 1021.9 67.59
1 -12 10 867.81 64.39
1 -12 10 1046.7 71.39
-2 12 -10 90.39 15
-2 12 -10 81.99 10.6
2 -12 10 95.79 17
-3 12 -10 23.3 8.2
-3 12 -10 29.8 7.4
3 -12 10 3.4 7.8
-4 12 -10 525.85 42.7
-4 12 -10 555.24 38.9
4 -12 10 512.55 39.3
4 -12 10 506.85 44.9
-5 12 -10 6.3 4.8
-5 12 -10 7.6 6.9
5 -12 10 6.3 5.1
5 -12 10 19.6 9.1
-6 12 -10 406.26 38.9
-6 12 -10 434.46 35.6
6 -12 10 461.55 32.9
-7 12 -10 350.86 35
7 -12 10 312.17 61.39
7 -12 10 376.96 27.6
-8 12 -10 104.39 21.3
8 -12 10 148.19 13.4
8 -12 10 125.99 12.5
-9 12 -10 89.59 19.7
-10 12 -10 28.9 13.5
-9 -11 10 49.4 14.6
-9 -11 10 33.9 8.9
-9 -11 10 44.7 23.2
-9 -11 10 59.59 16.2
-8 -11 10 58.49 10.2
-8 -11 10 48.4 13.4
-8 -11 10 66.39 16.8
-7 -11 10 4.2 5.2
-7 -11 10 -5.9 4.7
-7 -11 10 8 6.7
6 11 -10 285.67 25.8
-6 -11 10 242.18 22.7
-6 -11 10 213.98 24.6
5 11 -10 20.7 8.1
-5 -11 10 5.4 6.3
-5 -11 10 17.8 6.4
4 11 -10 285.77 25
-4 -11 10 294.87 25.8
-4 -11 10 283.87 25.4
3 11 -10 932.11 59.99
-3 -11 10 953.9 62.29
-3 -11 10 828.82 59.69
2 11 -10 -1.8 2.4
-2 -11 10 9.3 5
1 11 -10 520.45 35.9
-1 -11 10 481.75 36
-1 -11 10 530.35 40.1
0 11 -10 68.49 10.3
0 -11 10 53.09 12.3
0 -11 10 41 8.5
-1 11 -10 116.99 12
-1 11 -10 100.39 13
1 -11 10 108.89 17.6
1 -11 10 89.59 11.7
-2 11 -10 393.96 31.5
-2 11 -10 332.87 26.9
2 -11 10 365.36 32.7
-3 11 -10 16.3 5.6
-3 11 -10 8.6 5.9
3 -11 10 5.9 4.7
3 -11 10 10 6.6
-4 11 -10 874.11 57.99
-4 11 -10 945.11 63.39
4 -11 10 875.41 58.59
4 -11 10 783.52 65.69
-5 11 -10 79.59 15.8
-5 11 -10 99.59 20.8
5 -11 10 54.09 10
5 -11 10 73.19 16.2
-6 11 -10 130.49 22.3
-6 11 -10 163.78 19.2
6 -11 10 154.78 25.3
6 -11 10 166.88 15.9
-7 11 -10 153.88 21.3
7 -11 10 177.08 15.9
-8 11 -10 -2.3 7.4
8 -11 10 6 3.8
8 -11 10 8 3.6
-9 11 -10 365.46 37.2
-10 11 -10 33.7 12.9
-9 -10 10 -10.5 6.2
-9 -10 10 -7 7
-9 -10 10 -2.1 8.3
-9 -10 10 -3.6 5.3
-8 -10 10 7.7 5.9
-8 -10 10 17.4 7.2
-8 -10 10 17 8.3
-8 -10 10 19.8 9.3
7 10 -10 133.69 17.6
-7 -10 10 143.09 17.7
-7 -10 10 131.99 14.6
-7 -10 10 107.99 15
-6 -10 10 3.3 5.9
-6 -10 10 7.8 5.2
5 10 -10 321.17 26.7
-5 -10 10 284.37 26.4
-5 -10 10 326.07 26.3
4 10 -10 199.88 18.1
-4 -10 10 165.18 17.9
-4 -10 10 166.18 17.7
3 10 -10 47.8 9
-3 -10 10 44.2 9.6
-3 -10 10 43.6 8.6
2 10 -10 54.79 9.3
-2 -10 10 55.39 11.2
-2 -10 10 31.2 7.5
1 10 -10 205.88 16.9
-1 -10 10 159.98 17
-1 -10 10 202.48 20.3
0 10 -10 399.46 28.6
0 -10 10 400.66 29.5
0 -10 10 405.86 33.3
-1 10 -10 1995 120.59
-1 10 -10 2120.29 125.29
1 -10 10 1968.6 126.49
-2 10 -10 67.19 12.3
-2 10 -10 53.69 9.1
2 -10 10 50.99 11.8
-3 10 -10 645.14 46.6
-3 10 -10 613.44 41.8
3 -10 10 582.64 43.2
3 -10 10 613.14 48.2
-4 10 -10 48.4 9.9
-4 10 -10 59.29 12.7
4 -10 10 54.79 13.3
4 -10 10 55.39 10.1
-5 10 -10 559.34 43.4
-5 10 -10 503.75 39
5 -10 10 549.85 45.1
5 -10 10 512.35 38.3
-6 10 -10 111.99 16.6
-6 10 -10 80.79 15.9
6 -10 10 99.49 11.3
6 -10 10 89.49 18.5
-7 10 -10 6.6 7.6
7 -10 10 -14.6 8.3
7 -10 10 3.5 3.9
-8 10 -10 329.57 59.39
8 -10 10 405.06 26.7
8 -10 10 408.36 26.4
-9 10 -10 -4.4 6.6
-10 10 -10 79.79 18
-9 -9 10 21.7 10.1
-9 -9 10 3.1 8.3
-9 -9 10 17.6 10.3
-9 -9 10 5 6
-8 -9 10 34.6 12.3
-8 -9 10 44.2 8.2
-8 -9 10 30.2 8.7
-8 -9 10 31.5 10.3
-7 -9 10 191.58 20.7
-7 -9 10 171.88 22.4
-7 -9 10 159.98 16.5
-7 -9 10 154.58 18.4
6 9 -10 638.64 47.6
-6 -9 10 593.04 47
-6 -9 10 738.43 46.6
5 9 -10 1.9 4.1
-5 -9 10 3.6 3.3
-5 -9 10 -4.7 4.3
4 9 -10 789.22 51.59
-4 -9 10 780.82 52.09
-4 -9 10 717.63 50.89
3 9 -10 3.2 3.8
-3 -9 10 4 3.1
2 9 -10 725.83 45.8
-2 -9 10 636.14 45.6
-2 -9 10 741.03 49.2
1 9 -10 1726.43 116.39
-1 -9 10 2070.49 114.89
-1 -9 10 1715.03 109.09
0 -9 10 354.56 28.8
0 -9 10 319.97 24.3
-1 9 -10 129.09 11.6
-1 9 -10 120.29 14.3
1 -9 10 102.69 13.7
1 -9 10 111.69 14.7
-2 9 -10 85.69 11.6
-2 9 -10 74.09 9.2
2 -9 10 78.29 14.3
2 -9 10 57.79 10.6
-3 9 -10 106.69 11.9
-3 9 -10 109.29 14.1
3 -9 10 99.39 17.4
3 -9 10 116.49 13.3
-4 9 -10 81.09 10.3
-4 9 -10 78.49 13.9
4 -9 10 53.79 13.1
-5 9 -10 51.09 9.8
-5 9 -10 40.9 11
5 -9 10 47.6 8.5
5 -9 10 37.3 12.1
-6 9 -10 312.17 30.3
6 -9 10 359.96 25.7
6 -9 10 286.97 30.8
-7 9 -10 335.67 33.4
7 -9 10 395.26 27.1
7 -9 10 348.57 35.8
-8 9 -10 200.68 24.8
8 -9 10 206.28 14.6
8 -9 10 220.48 14.9
-9 9 -10 16.6 9.4
-10 9 -10 23.6 10.6
-11 9 -10 63.69 15.8
-10 -8 10 132.49 34.5
-10 -8 10 121.39 20.8
-10 -8 10 113.89 20.9
-10 -8 10 87.99 16.6
-9 -8 10 10 5.3
-9 -8 10 27.5 10.2
-9 -8 10 32.5 11.2
-9 -8 10 9.9 8.5
-8 -8 10 29.8 7.3
-8 -8 10 31.1 9.5
-8 -8 10 28.5 9.4
-8 -8 10 26.1 10.6
-7 -8 10 44.9 8.4
-7 -8 10 20 7.7
-7 -8 10 34.7 11.1
-7 -8 10 49.2 10.6
6 8 -10 18.4 7.4
-6 -8 10 24.2 7.6
-6 -8 10 18.6 8.8
-6 -8 10 23.7 7
5 8 -10 211.08 19.2
-5 -8 10 264.07 20.6
-5 -8 10 198.78 22.8
-5 -8 10 176.28 18.6
4 8 -10 27.8 7.4
-4 -8 10 32.8 9.5
-4 -8 10 44 8.9
3 8 -10 350.86 28.3
-3 -8 10 375.76 27.9
-3 -8 10 314.37 25.3
2 8 -10 237.38 18.3
-2 -8 10 221.08 18.2
-2 -8 10 236.48 20.9
1 8 -10 1095.89 63.19
-1 -8 10 1074.79 67.59
-1 -8 10 926.71 62.69
0 8 -10 2323.67 131.99
0 -8 10 2430.96 138.49
0 -8 10 2410.76 137.69
0 -8 10 1896.51 131.49
-1 8 -10 457.45 30.4
1 -8 10 436.76 34.2
1 -8 10 453.95 35.4
-2 8 -10 2.5 4.1
-2 8 -10 4.4 2.9
2 -8 10 0.1 3.3
2 -8 10 3 4.1
-3 8 -10 922.41 57.09
-3 8 -10 961.5 61.29
3 -8 10 714.93 71.29
3 -8 10 881.61 62.29
-4 8 -10 599.14 44.1
-4 8 -10 643.94 41.7
4 -8 10 501.45 39
4 -8 10 583.84 45.5
-5 8 -10 1283.67 85.19
5 -8 10 1347.17 88.09
5 -8 10 1246.88 79.79
-6 8 -10 65.09 14.3
6 -8 10 82.59 10.1
6 -8 10 69.09 15.7
-7 8 -10 111.39 19.2
7 -8 10 133.59 12.6
7 -8 10 126.29 21.5
-8 8 -10 178.28 24.1
8 -8 10 258.47 15.6
8 -8 10 255.37 28.5
-9 8 -10 224.48 25.4
-10 8 -10 203.38 24.6
-11 8 -10 24.1 12.2
-11 8 -10 34.7 10.4
-10 -7 10 178.88 26.2
-10 -7 10 175.58 23.4
-10 -7 10 152.28 15.9
-10 -7 10 160.28 20.3
-9 -7 10 178.28 28.6
-9 -7 10 120.99 14.8
-9 -7 10 170.88 20.3
-9 -7 10 177.88 23.4
-8 -7 10 88.69 18.2
-8 -7 10 84.19 15.2
-8 -7 10 98.59 16.7
-7 -7 10 344.87 32.9
-7 -7 10 324.07 30.3
-7 -7 10 409.86 31.9
-6 -7 10 464.55 34.6
-6 -7 10 429.96 38.4
5 7 -10 98.19 12.3
-5 -7 10 115.99 13.2
-5 -7 10 106.29 15.1
4 7 -10 64.99 9.8
-4 -7 10 58.99 12.8
-4 -7 10 70.59 9.5
-4 -7 10 65.89 10.1
3 7 -10 217.88 17.5
-3 -7 10 196.08 17.4
-3 -7 10 241.68 22.8
-3 -7 10 236.28 20.3
2 7 -10 1074.89 63.79
-2 -7 10 1029.1 69.99
-2 -7 10 972.1 63.49
-2 -7 10 1111.59 67.89
1 7 -10 1034.6 59.89
-1 -7 10 1025.8 64.49
-1 -7 10 1035.6 66.49
-1 -7 10 870.31 59.39
0 7 -10 452.85 28.3
0 -7 10 369.56 28
0 -7 10 449.36 33.4
0 -7 10 447.76 33
-1 7 -10 2088.69 119.39
1 -7 10 2049.4 124.89
1 -7 10 1969.6 123.79
-2 7 -10 278.37 23.9
-2 7 -10 276.17 21.3
2 -7 10 260.27 24.3
2 -7 10 262.77 25.8
-3 7 -10 2099.39 122.59
-3 7 -10 2173.18 126.49
3 -7 10 1873.61 122.59
3 -7 10 2058.19 127.19
-4 7 -10 -0.8 2.5
4 -7 10 4.4 4.3
4 -7 10 -1.2 2
-5 7 -10 -0.4 4
5 -7 10 -5.3 2.4
5 -7 10 4.2 4.4
-6 7 -10 106.69 17.4
6 -7 10 101.29 12
6 -7 10 145.09 19.1
-7 7 -10 -7.3 4.5
7 -7 10 6.4 3.6
7 -7 10 16.2 12.6
-8 7 -10 715.13 57.69
8 -7 10 820.22 46.2
8 -7 10 797.12 61.49
-9 7 -10 97.59 18.2
9 -7 10 140.59 23.3
-10 7 -10 48.9 14.6
-10 7 -10 74.89 17.9
-11 7 -10 137.99 21
-11 7 -10 85.39 19.3
-10 -6 10 52.89 14
-10 -6 10 74.89 16.9
-10 -6 10 74.49 15.3
-9 -6 10 30.7 11.8
-9 -6 10 38.3 11.4
-9 -6 10 29.3 11.8
-8 -6 10 141.29 17.9
-8 -6 10 108.19 17.8
-8 -6 10 103.19 18.9
-7 -6 10 -0.2 4.6
-7 -6 10 -5.5 3.8
-7 -6 10 2 4.9
-6 -6 10 654.93 45.1
-6 -6 10 645.84 47.5
-6 -6 10 610.44 48.8
5 6 -10 231.58 18.8
-5 -6 10 196.18 18.6
-5 -6 10 224.98 23
4 6 -10 745.23 48
-4 -6 10 809.52 54.79
-4 -6 10 708.23 47.9
3 6 -10 72.59 8.3
-3 -6 10 94.79 15.2
-3 -6 10 84.29 8.9
2 6 -10 51.69 5.9
-2 -6 10 40.7 8.4
-2 -6 10 41 6.1
-2 -6 10 27.8 8.2
1 6 -10 985.9 56.09
-1 -6 10 1023.9 63.29
-1 -6 10 956.3 60.89
-1 -6 10 802.62 55.59
0 6 -10 168.68 13.1
0 -6 10 173.78 17.6
0 -6 10 189.18 17.4
-1 6 -10 558.14 34.4
1 -6 10 541.05 38.9
1 -6 10 499.25 38.2
-2 6 -10 1227.18 74.99
2 -6 10 1183.38 77.39
2 -6 10 1305.17 80.09
-3 6 -10 102.79 12.7
3 -6 10 93.19 11.8
3 -6 10 86.59 14.4
-4 6 -10 657.73 47.4
4 -6 10 671.63 44.9
4 -6 10 647.94 48.8
-5 6 -10 -1.6 3.1
5 -6 10 6 3.5
5 -6 10 5.9 5.9
-6 6 -10 274.57 26.8
6 -6 10 341.37 30.7
6 -6 10 301.87 23.7
-7 6 -10 486.95 40.8
7 -6 10 549.65 35.7
7 -6 10 536.65 44.1
-8 6 -10 155.98 19.5
8 -6 10 162.28 11.3
8 -6 10 120.69 21.7
-9 6 -10 55.89 13.6
-9 6 -10 45.4 14.4
9 -6 10 92.29 16.8
-10 6 -10 45.7 14.5
-10 6 -10 45.2 12.6
10 -6 10 49.4 15.2
-11 6 -10 33.7 13.8
-10 -5 10 67.29 15.4
-10 -5 10 67.79 14.6
-10 -5 10 55.09 15.1
-9 -5 10 25.9 11
-9 -5 10 52.49 13.3
-9 -5 10 45.1 11.8
-8 -5 10 592.34 50.29
-8 -5 10 783.82 51.49
-8 -5 10 637.94 51.19
-7 -5 10 455.85 33.5
-7 -5 10 388.76 34.9
-7 -5 10 375.46 34.4
-6 -5 10 -2.6 3.8
-6 -5 10 2.7 3.8
-6 -5 10 2.5 4.9
-5 -5 10 68.39 13.3
-5 -5 10 62.89 9.8
4 5 -10 945.91 57.19
-4 -5 10 844.22 56.69
-4 -5 10 983.5 64.09
3 5 -10 1096.39 66.19
-3 -5 10 1057.59 66.19
-3 -5 10 1187.18 74.09
2 5 -10 2022.1 114.29
-2 -5 10 2007.1 121.69
-2 -5 10 1905.51 114.09
1 5 -10 890.81 50.49
-1 -5 10 872.51 55.89
-1 -5 10 765.92 56.19
0 5 -10 1310.17 76.39
0 -5 10 1308.27 82.29
0 -5 10 1292.67 81.49
-1 5 -10 679.73 41.1
1 -5 10 691.93 46
1 -5 10 603.34 45.8
2 -5 10 1039.8 67.99
2 -5 10 1095.19 69.59
3 -5 10 1848.12 113.79
3 -5 10 1909.51 116.39
-4 5 -10 227.98 21.7
4 -5 10 270.57 23.8
4 -5 10 224.38 20.3
-5 5 -10 680.13 50.99
5 -5 10 788.62 49.5
5 -5 10 729.93 53.29
-6 5 -10 16 6.5
6 -5 10 8.1 4.4
6 -5 10 -1.4 5.8
-7 5 -10 134.39 16.6
7 -5 10 142.49 18.9
7 -5 10 141.99 13.5
-8 5 -10 374.56 32.4
-8 5 -10 405.56 36.5
8 -5 10 370.16 34.2
8 -5 10 348.37 24
-9 5 -10 -13.6 6
9 -5 10 7.7 10.1
-10 5 -10 147.09 23.6
10 -5 10 110.49 20.8
-11 -4 10 -6 8.6
-11 -4 10 20.7 10.4
-11 -4 10 13.2 11.7
-10 -4 10 0.8 7.2
-10 -4 10 -16.5 6.8
-10 -4 10 -12.4 6.3
-9 -4 10 365.76 33.8
-9 -4 10 390.86 34.2
-9 -4 10 365.06 35.6
-8 -4 10 48 12.5
-8 -4 10 51.09 12
-8 -4 10 42.5 10.6
-7 -4 10 52.39 12.2
-7 -4 10 51.59 10.3
-7 -4 10 49.8 11.7
-6 -4 10 760.42 56.39
-6 -4 10 832.62 57.69
-5 -4 10 33.6 6.5
-5 -4 10 30.1 8.4
-4 -4 10 109.19 10.7
-4 -4 10 150.58 16.6
3 4 -10 704.83 41.4
-3 -4 10 725.13 48.9
-3 -4 10 620.54 41.1
2 4 -10 2 1.5
-2 -4 10 4 1.6
-2 -4 10 -3 2.9
1 4 -10 217.98 13.8
-1 -4 10 201.38 19.3
0 4 -10 64.29 9.3
0 4 -10 67.39 6
0 -4 10 62.79 8.9
-1 4 -10 3140.29 189.38
1 -4 10 3341.37 189.68
1 -4 10 3160.88 189.38
-2 4 -10 653.03 42.8
2 -4 10 564.24 41.9
2 -4 10 622.84 42.9
-3 4 -10 874.71 56.39
3 -4 10 843.12 57.59
3 -4 10 856.91 56.69
-4 4 -10 549.15 38.3
4 -4 10 519.85 39.6
4 -4 10 516.25 37.6
-5 4 -10 217.28 18.4
5 -4 10 185.48 18.2
5 -4 10 231.08 21.9
-6 4 -10 417.26 31.7
6 -4 10 483.65 37.9
6 -4 10 482.55 33.5
-7 4 -10 287.47 28.6
7 -4 10 301.77 28.3
7 -4 10 273.37 22.3
-8 4 -10 189.08 22.9
8 -4 10 184.18 15.2
8 -4 10 216.28 23.8
-9 4 -10 61.99 16.7
9 -4 10 85.49 15.5
-10 4 -10 18.9 10.2
10 -4 10 6.7 10.7
-11 -3 10 11 9.2
-11 -3 10 38.3 13.3
-11 -3 10 27.7 12.5
-10 -3 10 181.98 23.1
-10 -3 10 216.18 32.1
-10 -3 10 196.48 25.3
-9 -3 10 179.68 20.7
-9 -3 10 152.78 24.9
-9 -3 10 142.79 19.1
-8 -3 10 160.38 18.7
-8 -3 10 158.78 19.6
-8 -3 10 183.88 22.5
-7 -3 10 615.44 50.99
-7 -3 10 776.42 48.9
-7 -3 10 649.43 50.39
-6 -3 10 373.96 28.1
-6 -3 10 377.26 32.9
-6 -3 10 361.56 31.7
-5 -3 10 728.93 51.99
-5 -3 10 715.43 46.3
-4 -3 10 324.77 23.1
-4 -3 10 380.16 29.9
-3 -3 10 916.21 56.99
-3 -3 10 1062.79 65.79
-2 -3 10 3922.91 230.58
1 3 -10 672.13 46
1 3 -10 677.63 38.6
-1 -3 10 642.84 45.9
0 3 -10 1589.54 86.59
0 3 -10 1467.75 92.49
0 -3 10 1408.26 93.99
-1 3 -10 2492.05 147.29
1 -3 10 2457.05 146.49
1 -3 10 2436.56 147.39
-2 3 -10 362.26 28
2 -3 10 384.76 28.2
2 -3 10 344.37 28.1
-3 3 -10 521.75 36.9
3 -3 10 501.35 37.2
3 -3 10 525.65 37.7
4 -3 10 314.07 25.6
4 -3 10 307.67 26.5
-5 3 -10 194.88 19.5
-5 3 -10 183.98 16.7
5 -3 10 178.98 19.2
5 -3 10 154.58 16.4
-6 3 -10 4.4 5.6
-6 3 -10 -0.1 2.9
6 -3 10 -2.5 4.7
6 -3 10 -0.3 3.6
-7 3 -10 55.39 13.1
-7 3 -10 51.39 8.6
7 -3 10 71.99 13.4
7 -3 10 73.69 10.2
-8 3 -10 495.05 40.7
8 -3 10 417.06 30.2
8 -3 10 438.06 37.3
-9 3 -10 77.49 17.9
9 -3 10 91.09 16.4
-10 3 -10 139.19 23.6
10 -3 10 111.19 19.5
-11 -2 10 -9.2 7.8
-11 -2 10 6.4 10
-11 -2 10 -15.5 7.8
-10 -2 10 220.48 27.7
-10 -2 10 212.48 23.5
-10 -2 10 192.08 24.1
-9 -2 10 340.67 35.3
-9 -2 10 347.47 32.1
-9 -2 10 389.06 32.9
-8 -2 10 47.6 12.1
-8 -2 10 42.4 11.7
-8 -2 10 25.7 8.2
-7 -2 10 378.86 32
-7 -2 10 339.47 33.2
-7 -2 10 338.37 27.8
-6 -2 10 418.56 33.9
-6 -2 10 408.76 29.8
-6 -2 10 395.26 34.9
-5 -2 10 152.88 16.7
-5 -2 10 120.19 16.4
-5 -2 10 141.59 12.7
-4 -2 10 203.28 14.7
-4 -2 10 199.58 19.8
3 2 -10 35.7 8
-3 -2 10 24.9 2.7
-3 -2 10 28.1 8.1
2 2 -10 76.39 10.2
-2 -2 10 68.09 11.5
1 2 -10 312.17 25.4
-1 -2 10 308.37 29.4
0 2 -10 183.98 13.5
0 2 -10 201.28 18.6
0 -2 10 240.38 20.2
-1 2 -10 2259.17 131.89
-1 2 -10 2313.57 136.39
1 -2 10 2223.48 136.79
-2 2 -10 485.05 34.4
-2 2 -10 531.55 37.2
2 -2 10 529.35 36.5
2 -2 10 505.05 37.5
-3 2 -10 459.15 33.5
-3 2 -10 452.45 33
3 -2 10 444.86 34.2
3 -2 10 459.05 33.5
-4 2 -10 354.36 28.4
-4 2 -10 366.36 27.8
4 -2 10 322.27 27.7
4 -2 10 363.26 28.5
-5 2 -10 76.79 10.8
-5 2 -10 68.59 12.4
5 -2 10 78.49 12.8
5 -2 10 66.79 11.2
-6 2 -10 228.18 22.4
-6 2 -10 136.49 26.6
6 -2 10 185.08 20
6 -2 10 212.98 19.3
-7 2 -10 72.59 10.1
-7 2 -10 83.09 15.9
7 -2 10 104.59 14.2
7 -2 10 95.29 12
-8 2 -10 381.56 29.8
-8 2 -10 428.46 39
8 -2 10 459.75 36.2
8 -2 10 465.35 31.7
-9 2 -10 43.5 12.1
9 -2 10 4.9 8.1
-10 2 -10 9.2 7.3
10 -2 10 14.4 11.5
-11 -1 10 157.98 21
-11 -1 10 145.49 22.8
-11 -1 10 150.38 27
-10 -1 10 180.68 21.5
-10 -1 10 168.98 27.7
-10 -1 10 178.38 21.7
-9 -1 10 205.98 24.5
-9 -1 10 167.78 20.5
-9 -1 10 156.58 20.7
-8 -1 10 58.39 13.1
-8 -1 10 69.49 12.2
-8 -1 10 58.19 15
-7 -1 10 211.48 23.9
-7 -1 10 187.18 21.2
-7 -1 10 206.98 19.2
-6 -1 10 348.67 31
-6 -1 10 387.46 27.4
-6 -1 10 358.96 32.7
-5 -1 10 173.18 19.1
-5 -1 10 148.89 17.3
-5 -1 10 162.28 13.6
4 1 -10 1065.49 65.49
-4 -1 10 1019.7 66.39
-4 -1 10 908.81 58.49
3 1 -10 1730.43 104.79
-3 -1 10 1577.54 96.09
-3 -1 10 1901.31 107.19
-3 -1 10 1658.13 96.29
2 1 -10 2.4 3.9
-2 -1 10 5.6 3.9
1 1 -10 47.1 9.1
-1 -1 10 40.9 11.2
0 1 -10 32.9 7.4
0 1 -10 38.9 4.3
0 -1 10 29.2 8.2
-1 1 -10 97.89 9.2
-1 1 -10 93.29 11.5
1 -1 10 91.29 12.2
-2 1 -10 148.19 14.9
-2 1 -10 120.09 12
2 -1 10 136.19 14.9
2 -1 10 109.09 12.7
-3 1 -10 -4.7 4.8
-3 1 -10 7.1 4.9
3 -1 10 -4 2.2
3 -1 10 6.3 4.2
-4 1 -10 500.15 37.5
-4 1 -10 540.75 37.8
4 -1 10 514.35 38.4
4 -1 10 498.55 37.3
-5 1 -10 5.9 4.8
-5 1 -10 0.1 3.7
5 -1 10 7.5 4.7
5 -1 10 7.4 4.2
-6 1 -10 26 8.7
-6 1 -10 24.3 6.7
6 -1 10 29.1 8.6
6 -1 10 24.2 7.9
-7 1 -10 289.67 25.2
-7 1 -10 359.06 33.7
7 -1 10 332.27 27
7 -1 10 335.57 28.5
-8 1 -10 6.6 6.8
-8 1 -10 9.5 5.4
8 -1 10 -6.3 5.2
8 -1 10 0.1 4.9
-9 1 -10 230.88 26.6
-9 1 -10 176.78 16.1
9 -1 10 223.58 21.6
-10 1 -10 34.3 12.5
10 -1 10 15 9.3
-11 0 10 9.8 8.8
-11 0 10 2.1 8.3
-11 0 10 12.7 12.8
-10 0 10 272.07 31.6
-10 0 10 277.47 28.3
-10 0 10 251.87 26.3
-9 0 10 88.69 16.3
-9 0 10 52.59 14.7
-9 0 10 74.99 14.1
-8 0 10 50.79 11.2
-8 0 10 73.09 14
-8 0 10 80.59 17.9
-7 0 10 979 67.69
-7 0 10 1007 64.09
-7 0 10 931.51 70.59
-6 0 10 89.99 12.7
-6 0 10 91.29 16.8
-6 0 10 76.99 9.7
5 0 -10 19.7 6.2
-5 0 10 20.1 7
-5 0 10 15.5 4.2
-5 0 10 12.4 6.5
4 0 -10 254.97 21.9
-4 0 10 250.17 23.3
-4 0 10 231.28 16.2
-4 0 10 246.58 16.9
-4 0 10 292.97 26
3 0 -10 293.47 24.2
-3 0 10 262.27 16.7
-3 0 10 289.37 16.7
-3 0 10 336.57 26.4
2 0 -10 300.17 25
-2 0 10 309.97 26.5
1 0 -10 74.39 5.2
1 0 -10 62.89 11.2
-1 0 10 84.79 11.5
0 0 -10 35.3 8.1
0 0 -10 24.6 4.1
0 0 10 20.6 12.5
-1 0 -10 104.79 12.5
-1 0 -10 78.49 8.6
-2 0 -10 327.67 25.2
-2 0 -10 383.56 28.8
2 0 10 356.96 26.3
2 0 10 285.17 39.7
-3 0 -10 1023.1 65.49
-3 0 -10 1076.49 67.79
3 0 10 965.9 64.49
-4 0 -10 1.4 3.2
-4 0 -10 6.1 4.9
4 0 10 9.3 8.2
4 0 10 2.4 3.7
-5 0 -10 84.49 15
-5 0 -10 118.09 14.2
5 0 10 98.69 12.4
5 0 10 100.09 18.2
-6 0 -10 603.64 46.3
-6 0 -10 626.74 43.3
6 0 10 554.44 48.1
6 0 10 578.84 42.8
-7 0 -10 155.48 17.2
-7 0 -10 204.38 24.1
7 0 10 189.68 19.2
-8 0 -10 34 13
-8 0 -10 39.8 8.6
8 0 10 34.1 9.4
8 0 10 58.69 11.2
-9 0 -10 24 10.4
9 0 10 14.6 8.6
-10 0 -10 44.1 24.5
-10 0 -10 52.19 7.1
10 0 10 58.59 12.3
-11 1 10 162.38 21.9
-11 1 10 175.88 22.2
-11 1 10 158.08 43.3
-10 1 10 7.5 7.4
-10 1 10 9.9 5.9
-9 1 10 452.55 39.4
-9 1 10 451.85 44.3
-9 1 10 502.55 38.7
-8 1 10 208.58 26.7
-8 1 10 221.08 21.4
-8 1 10 241.08 24.9
-7 1 10 54.49 10.2
-7 1 10 50.39 13.6
-7 1 10 63.89 13.3
-6 1 10 133.39 16.7
-6 1 10 141.99 13.4
-6 1 10 129.79 18.4
5 -1 -10 112.79 13.4
-5 1 10 111.69 10.7
-5 1 10 121.89 15.2
-5 1 10 117.99 19.2
4 -1 -10 1495.45 89.79
-4 1 10 1424.56 92.09
-4 1 10 1595.04 94.29
-4 1 10 1250.07 82.19
3 -1 -10 552.44 40.3
-3 1 10 557.04 32.9
-3 1 10 573.04 42.4
2 -1 -10 694.23 47.5
-2 1 10 629.84 39.2
-2 1 10 768.62 50.09
1 -1 -10 250.27 15.9
1 -1 -10 239.38 21.8
-1 1 10 253.57 23
0 -1 -10 593.74 41.1
0 -1 -10 538.45 34.7
0 1 10 550.64 41.6
-1 -1 -10 16.7 5.9
-1 -1 -10 19.4 4.7
1 1 10 21.1 7.1
-2 -1 -10 302.37 23.4
-2 -1 -10 311.97 26.6
2 1 10 303.47 27
-3 -1 -10 26.6 7.8
-3 -1 -10 17.1 5.8
3 1 10 35 7.2
3 1 10 38.3 9
-4 -1 -10 205.78 20
-4 -1 -10 167.28 18.3
4 1 10 171.98 16.6
4 1 10 195.08 20.3
-5 -1 -10 138.09 15.9
-5 -1 -10 101.69 15.8
5 1 10 103.19 12.5
5 1 10 97.09 13.2
-6 -1 -10 148.49 18.7
-6 -1 -10 181.08 19.1
6 1 10 148.69 16.3
6 1 10 150.08 18
-7 -1 -10 439.46 36.6
-7 -1 -10 550.04 42.8
7 1 10 485.65 36.2
7 1 10 482.65 37.7
-8 -1 -10 31.6 10
-8 -1 -10 30 8.7
8 1 10 60.09 11.5
8 1 10 50.19 9.6
-9 -1 -10 365.06 36.7
-9 -1 -10 326.37 26.8
-10 -1 -10 15.8 11.6
10 1 10 21.4 7.2
-11 2 10 37.1 15.9
-11 2 10 52.19 13.4
-11 2 10 58.89 13.8
-10 2 10 244.58 24.7
-10 2 10 250.27 31
-10 2 10 238.38 25.5
-9 2 10 25.3 9
-9 2 10 41.7 11.5
-9 2 10 42.9 14.4
-8 2 10 11.6 9.4
-8 2 10 20.4 8.3
-8 2 10 11.4 6
-7 2 10 148.89 18.3
-7 2 10 121.29 14.4
-7 2 10 120.99 22.1
6 -2 -10 711.83 47.2
-6 2 10 652.23 42.7
-6 2 10 667.33 52.79
-6 2 10 619.54 48.8
5 -2 -10 198.38 18.2
-5 2 10 183.28 21.5
-5 2 10 166.98 13.6
-5 2 10 184.68 20.2
4 -2 -10 158.18 16.9
-4 2 10 183.98 19.6
-4 2 10 159.78 12
-4 2 10 173.08 20.1
3 -2 -10 1275.07 84.39
-3 2 10 1349.66 88.19
-3 2 10 1407.16 87.49
-3 2 10 1322.67 77.39
2 -2 -10 336.47 22
2 -2 -10 348.27 28.8
-2 2 10 373.06 31
-2 2 10 385.46 22.7
1 -2 -10 1545.95 96.79
1 -2 -10 1493.05 88.79
-1 2 10 1605.64 89.69
-1 2 10 1473.85 97.69
0 -2 -10 533.65 32.9
0 -2 -10 492.65 38.5
0 2 10 512.75 33.3
0 2 10 485.25 39.1
-1 -2 -10 389.36 27.4
-1 -2 -10 407.36 32.3
1 2 10 390.56 28.2
1 2 10 387.96 32.7
-2 -2 -10 1027.9 64.39
-2 -2 -10 890.81 58.69
2 2 10 852.41 62.89
-3 -2 -10 8.6 4.4
-3 -2 -10 12.5 5.5
3 2 10 12.3 6.1
3 2 10 12.3 4.9
-4 -2 -10 206.78 21.2
-4 -2 -10 240.48 23.5
4 2 10 248.68 24.2
4 2 10 254.37 20.4
-5 -2 -10 76.09 13.9
-5 -2 -10 66.19 12.9
5 2 10 63.09 12.9
5 2 10 81.79 10.7
-6 -2 -10 16.3 8
-6 -2 -10 50.59 11.6
6 2 10 13.1 7.6
6 2 10 24 8.7
-7 -2 -10 398.16 36.8
-7 -2 -10 457.55 35.6
7 2 10 406.76 34.4
7 2 10 358.86 40.2
-8 -2 -10 37.5 13
-8 -2 -10 29.9 8.2
8 2 10 25.2 6.9
-9 -2 -10 16.4 7.5
-9 -2 -10 5.7 9
9 2 10 13.6 5.5
-11 3 10 -6.3 10.3
-11 3 10 6.4 8.1
-11 3 10 16.7 10.2
-10 3 10 25.9 7.9
-10 3 10 13.2 23.1
-10 3 10 15.1 7.8
-9 3 10 147.49 18
-9 3 10 145.39 18.6
-9 3 10 139.49 25.7
-8 3 10 88.39 16.3
-8 3 10 76.89 13.2
-8 3 10 97.39 21.2
7 -3 -10 692.53 46.9
-7 3 10 688.23 44
-7 3 10 606.64 53.39
-7 3 10 599.44 49.3
6 -3 -10 571.14 40.2
-6 3 10 546.25 46.4
-6 3 10 559.14 36
-6 3 10 485.95 42.3
5 -3 -10 499.85 36.2
-5 3 10 409.16 30.2
-5 3 10 596.84 43.7
-5 3 10 471.65 38.9
4 -3 -10 14.6 5.8
-4 3 10 12.3 3.1
-4 3 10 16.2 7.3
-4 3 10 10.2 5.2
3 -3 -10 157.98 17.1
-3 3 10 150.88 18.8
-3 3 10 163.58 12.3
-3 3 10 185.98 19.7
2 -3 -10 1366.76 90.69
2 -3 -10 1381.36 82.79
-2 3 10 1461.15 93.19
-2 3 10 1499.05 83.99
-2 3 10 1425.46 92.89
1 -3 -10 410.16 26.8
1 -3 -10 419.26 33.5
-1 3 10 356.76 33.2
-1 3 10 458.45 27.9
0 -3 -10 960.6 58.99
0 -3 -10 909.11 65.39
0 3 10 1004.1 60.19
0 3 10 990.1 67.09
-1 -3 -10 245.68 19.7
-1 -3 -10 258.67 24.2
1 3 10 270.47 20.7
1 3 10 224.08 23.9
-2 -3 -10 156.48 15.2
-2 -3 -10 160.48 18.1
2 3 10 150.08 18.6
2 3 10 182.88 17.4
-3 -3 -10 22.8 6.8
-3 -3 -10 20.5 7.6
3 3 10 22.2 8.1
3 3 10 24.3 5.9
-4 -3 -10 9.4 5.7
4 3 10 0.3 3.1
4 3 10 2 3.8
-5 -3 -10 255.17 25.9
-5 -3 -10 288.57 27.4
5 3 10 278.37 25.6
5 3 10 277.87 27
-6 -3 -10 12.6 8.8
-6 -3 -10 22.1 9.2
6 3 10 13 5.8
6 3 10 0 7.6
-7 -3 -10 16.6 7.6
-7 -3 -10 5.6 6.6
7 3 10 13.6 8.1
7 3 10 8 5.2
-8 -3 -10 7.3 7.7
-8 -3 -10 6.7 8.3
8 3 10 5 4.6
-9 -3 -10 69.19 13.1
-9 -3 -10 44.3 14.3
-11 4 10 33.2 10.9
-11 4 10 24.1 10.4
-11 4 10 33.7 16.1
-10 4 10 30.2 10.3
-10 4 10 16.3 12.4
-10 4 10 38.2 10.9
-9 4 10 81.99 19.9
-9 4 10 84.79 15.1
-9 4 10 101.99 15
-9 4 10 78.89 15.9
8 -4 -10 418.66 32.1
-8 4 10 394.36 40.9
-8 4 10 375.46 35.5
-8 4 10 406.26 30.4
7 -4 -10 91.49 12.5
-7 4 10 87.09 10.6
-7 4 10 93.79 18.9
-7 4 10 95.39 16.8
6 -4 -10 307.87 25.8
-6 4 10 329.27 32.5
-6 4 10 232.58 26.7
-6 4 10 336.67 24.7
5 -4 -10 380.16 30.2
-5 4 10 398.16 33.7
-5 4 10 328.77 24.7
-5 4 10 416.66 36.3
4 -4 -10 40.3 9.1
-4 4 10 34.7 10.4
-4 4 10 33.8 10
-4 4 10 33.2 5.4
3 -4 -10 2139.39 127.79
3 -4 -10 2113.29 135.19
-3 4 10 2217.28 128.49
-3 4 10 2335.47 139.19
-3 4 10 2267.27 139.19
2 -4 -10 71.89 7
2 -4 -10 71.89 12.8
-2 4 10 71.39 7.8
-2 4 10 68.29 13.9
-2 4 10 78.09 14.2
1 -4 -10 81.39 8.2
1 -4 -10 59.29 12.4
-1 4 10 85.29 15.6
-1 4 10 96.89 9.4
-1 4 10 76.79 14.1
0 -4 -10 25.5 8.2
0 -4 -10 27.1 5.5
0 4 10 23.4 5.6
0 4 10 31 8.5
0 4 10 28.1 9.2
-1 -4 -10 257.57 20.2
-1 -4 -10 256.37 25.1
1 4 10 237.28 25.1
1 4 10 238.28 20.7
-2 -4 -10 518.55 37.1
-2 -4 -10 509.35 41
2 4 10 507.45 38
2 4 10 544.55 42.6
-3 -4 -10 8.5 5.5
-3 -4 -10 13.5 6.6
3 4 10 31.6 9.6
3 4 10 12.8 6.7
-4 -4 -10 73.69 14
-4 -4 -10 88.09 15.9
4 4 10 75.29 15.4
4 4 10 84.19 17.8
-5 -4 -10 350.36 30.1
-5 -4 -10 336.07 31.1
5 4 10 317.47 24.8
5 4 10 309.77 30.6
-6 -4 -10 15.1 9.5
-6 -4 -10 3.8 7.8
6 4 10 25.1 9.3
6 4 10 11.6 5.4
-7 -4 -10 266.17 27.8
-7 -4 -10 253.47 27.8
7 4 10 240.48 18.9
7 4 10 214.48 25
-8 -4 -10 -0.1 8
-8 -4 -10 10.3 8.6
-9 -4 -10 2 21.6
-9 -4 -10 0.8 9.5
-11 5 10 38.2 11.8
-11 5 10 23.5 11.5
-11 5 10 20.5 16
-10 5 10 354.86 42.6
-10 5 10 340.17 32.9
-10 5 10 381.96 35.5
-10 5 10 487.95 34.5
-9 5 10 0.7 5.8
-9 5 10 15.2 8.1
8 -5 -10 129.49 14.9
-8 5 10 108.29 19.6
-8 5 10 143.39 14.3
-8 5 10 112.39 23.4
7 -5 -10 112.79 13.8
-7 5 10 88.99 17.5
-7 5 10 125.79 12.2
-7 5 10 90.09 19.4
6 -5 -10 68.29 12.2
-6 5 10 76.19 15.6
-6 5 10 72.89 16.8
-6 5 10 91.59 9.5
5 -5 -10 378.96 31.5
-5 5 10 423.76 38.2
-5 5 10 358.56 34.3
-5 5 10 424.06 27.6
4 -5 -10 3.4 4.7
-4 5 10 3.4 2.4
-4 5 10 2.4 5
-4 5 10 -0.9 3.2
3 -5 -10 11.8 5.9
3 -5 -10 10.4 3.5
-3 5 10 3.4 5.3
-3 5 10 8.4 6.8
-3 5 10 12.6 3.9
2 -5 -10 1026.9 70.09
2 -5 -10 950.2 61.99
-2 5 10 1062.69 72.89
-2 5 10 1151.28 63.99
-2 5 10 960.1 70.59
1 -5 -10 309.57 22
1 -5 -10 282.67 27.3
-1 5 10 283.67 27.1
-1 5 10 310.47 23
-1 5 10 335.17 30.5
0 -5 -10 1541.65 102.29
0 -5 -10 1554.14 95.09
0 5 10 1614.04 104.49
0 5 10 1620.94 100.99
0 5 10 1595.44 97.59
-1 -5 -10 362.66 28.7
-1 -5 -10 440.26 35.5
1 5 10 383.46 35.3
1 5 10 396.36 30.4
1 5 10 410.86 32.8
-2 -5 -10 91.99 16
-2 -5 -10 83.99 11
2 5 10 90.99 13.6
2 5 10 69.99 12.3
2 5 10 78.09 15.7
-3 -5 -10 148.79 17
-3 -5 -10 167.38 20
3 5 10 153.48 16.3
3 5 10 153.08 18.5
3 5 10 182.38 21.9
-4 -5 -10 226.58 22.5
-4 -5 -10 202.18 23.1
4 5 10 189.68 16.9
4 5 10 209.68 23.4
4 5 10 186.48 18.4
-5 -5 -10 8.3 7.9
-5 -5 -10 3.4 6.2
5 5 10 7.2 6.8
5 5 10 3.1 3.6
5 5 10 5.8 3.8
-6 -5 -10 211.08 23.9
-6 -5 -10 145.69 22.4
6 5 10 145.69 13.6
6 5 10 123.09 21.1
6 5 10 150.88 13.9
-7 -5 -10 53.59 13
-7 -5 -10 5.7 11.4
7 5 10 30.1 5.2
7 5 10 28.9 5
7 5 10 44.5 13.5
-8 -5 -10 83.79 16.9
-8 -5 -10 56.19 15.1
-9 -5 -10 5.8 8
-9 -5 -10 -3 9.9
-11 6 10 63.59 14.4
-11 6 10 80.19 23.5
-11 6 10 60.89 13.8
-10 6 10 25 8.1
-10 6 10 32.5 15.8
-10 6 10 17.8 9.4
9 -6 -10 233.28 20.8
-9 6 10 225.88 21.6
-9 6 10 155.78 28.7
-9 6 10 172.48 23
8 -6 -10 0.9 5.2
-8 6 10 -1.1 6.3
-8 6 10 4.9 4.8
-8 6 10 -5.9 5.6
7 -6 -10 4.5 5.4
-7 6 10 4 3.8
-7 6 10 -0.7 4.9
-7 6 10 6.9 6.2
6 -6 -10 416.46 34.7
-6 6 10 495.35 43.3
-6 6 10 433.56 38.9
-6 6 10 453.05 31.1
5 -6 -10 248.88 22.8
-5 6 10 218.48 24.9
-5 6 10 241.58 27.9
-5 6 10 230.88 20.6
4 -6 -10 41.7 9.7
-4 6 10 41.2 12.5
-4 6 10 41 11.7
-4 6 10 57.69 7.1
3 -6 -10 1768.72 115.79
3 -6 -10 1641.74 107.39
-3 6 10 1867.71 119.29
-3 6 10 1929.71 119.49
-3 6 10 1982.6 109.39
2 -6 -10 637.34 50.19
2 -6 -10 653.33 43.1
-2 6 10 726.43 45
-2 6 10 709.53 53.19
-2 6 10 682.03 51.79
1 -6 -10 1080.69 74.49
1 -6 -10 1050.59 66.79
-1 6 10 1076.99 74.19
-1 6 10 1113.89 76.89
-1 6 10 1128.09 80.49
0 -6 -10 9.5 7.6
0 -6 -10 -7.7 4.3
0 6 10 -4.5 3.3
0 6 10 5.4 5.1
0 6 10 4.9 3.8
-1 -6 -10 1064.49 71.09
-1 -6 -10 1141.89 78.39
1 6 10 1146.39 72.89
1 6 10 1131.89 75.09
1 6 10 1171.88 79.79
-2 -6 -10 1403.16 89.29
-2 -6 -10 1460.85 95.79
2 6 10 1346.07 95.59
2 6 10 1471.15 91.29
2 6 10 1414.76 96.59
-3 -6 -10 230.98 24.5
-3 -6 -10 191.28 20.7
3 6 10 205.58 21.9
3 6 10 212.58 25.5
3 6 10 205.08 19.9
-4 -6 -10 37.4 11.5
-4 -6 -10 42.8 10.9
4 6 10 41.3 10.9
4 6 10 43.9 8.9
4 6 10 43.5 12.2
4 6 10 48.6 8.1
-5 -6 -10 206.68 23.6
-5 -6 -10 223.98 31.4
5 6 10 222.38 17.6
5 6 10 189.58 24.2
5 6 10 221.98 18.8
-6 -6 -10 1.6 9
-6 -6 -10 6 6.9
6 6 10 10.2 4.1
6 6 10 1 7.5
6 6 10 7.5 3.6
-7 -6 -10 133.99 23.6
-7 -6 -10 111.79 21.4
7 6 10 103.59 20.2
-8 -6 -10 21.5 10.4
-8 -6 -10 8.8 11
-11 7 10 45.3 12.5
-11 7 10 16.8 15.7
-10 7 10 175.88 20.5
-10 7 10 144.29 22.9
-10 7 10 153.08 30.2
9 -7 -10 84.49 13.5
-9 7 10 93.39 14.8
-9 7 10 48.9 17.4
-9 7 10 87.89 17.7
8 -7 -10 9.7 6.2
-8 7 10 -10 4.7
-8 7 10 -1.1 4.7
7 -7 -10 9.5 5.2
-7 7 10 -2.2 4
-7 7 10 5.1 5.4
6 -7 -10 6.1 5.9
-6 7 10 20.4 5.3
-6 7 10 16.7 8.3
-6 7 10 18.5 11.3
5 -7 -10 211.28 22.3
-5 7 10 237.58 28.5
-5 7 10 254.57 19.4
-5 7 10 224.28 26.1
4 -7 -10 53.99 8
4 -7 -10 37.6 10.4
-4 7 10 60.79 9
-4 7 10 36.4 12.5
-4 7 10 28.9 10.8
3 -7 -10 202.38 16.4
3 -7 -10 180.28 21.5
-3 7 10 202.48 24.3
-3 7 10 193.38 23.8
-3 7 10 216.88 18.4
2 -7 -10 59.59 8
2 -7 -10 77.09 14.1
-2 7 10 83.19 16.2
-2 7 10 68.19 15.2
-2 7 10 72.09 9.1
1 -7 -10 4.7 5.8
1 -7 -10 5.8 6.7
-1 7 10 9.5 7.7
-1 7 10 0 2.9
-1 7 10 11.8 4.7
0 -7 -10 300.97 28.8
0 -7 -10 266.27 22.4
0 7 10 279.47 26.9
0 7 10 292.27 24.1
0 7 10 276.87 29.4
-1 -7 -10 171.28 20.8
-1 -7 -10 163.68 16.7
1 7 10 169.38 22.5
1 7 10 176.58 18.1
1 7 10 153.58 18.3
-2 -7 -10 365.26 35.2
-2 -7 -10 374.36 30.7
2 7 10 430.56 38.4
2 7 10 434.46 33.6
2 7 10 356.46 35.7
-3 -7 -10 203.28 40.5
-3 -7 -10 219.28 22.6
3 7 10 250.77 27.5
3 7 10 236.68 21.5
3 7 10 195.28 26.4
-4 -7 -10 -9.4 5.3
-4 -7 -10 8.2 7.6
4 7 10 -2.8 6.1
4 7 10 16.8 8.2
4 7 10 5.6 4.2
4 7 10 7.2 5.2
-5 -7 -10 582.64 47.9
-5 -7 -10 570.64 45.6
5 7 10 600.54 48.9
5 7 10 537.95 36.4
5 7 10 529.55 37.7
-6 -7 -10 -4 6.5
-6 -7 -10 13.3 11.3
6 7 10 11.3 3.2
6 7 10 12.8 9.3
6 7 10 6.6 3.1
-7 -7 -10 223.48 27.3
7 7 10 210.48 26.7
-8 -7 -10 27.7 18.2
-11 8 10 17.4 15.8
-11 8 10 24 10.4
10 -8 -10 81.39 14.4
-10 8 10 101.59 18.4
-10 8 10 103.79 25.2
9 -8 -10 183.28 19.2
-9 8 10 196.38 19.6
-9 8 10 159.78 30
-9 8 10 157.88 25.6
8 -8 -10 134.79 17.1
-8 8 10 141.29 26.6
-8 8 10 105.19 20.1
-8 8 10 129.29 15.1
7 -8 -10 69.49 12.6
-7 8 10 58.89 9.8
-7 8 10 76.59 19.2
-7 8 10 51.09 13.5
6 -8 -10 342.27 31.1
-6 8 10 361.76 35.6
-6 8 10 387.66 28.1
-6 8 10 383.36 39.2
5 -8 -10 1241.28 85.99
-5 8 10 1320.67 94.19
-5 8 10 1330.87 91.59
-5 8 10 1344.37 81.19
4 -8 -10 1027.2 66.99
4 -8 -10 975.5 72.19
-4 8 10 1100.59 78.79
-4 8 10 991.5 75.99
-4 8 10 1183.28 67.59
3 -8 -10 162.68 20.9
3 -8 -10 177.58 26.6
-3 8 10 169.98 22.4
-3 8 10 178.18 23.2
-3 8 10 204.78 17.3
2 -8 -10 309.87 30.3
2 -8 -10 327.57 24.7
-2 8 10 307.17 32.5
-2 8 10 305.57 31
-2 8 10 355.96 26.4
1 -8 -10 86.79 16.9
1 -8 -10 95.99 11.1
-1 8 10 112.39 13.1
-1 8 10 77.89 15.7
-1 8 10 95.39 18.9
0 -8 -10 142.79 20.4
0 -8 -10 147.09 15.5
0 8 10 164.78 17.1
0 8 10 176.58 22.6
0 8 10 163.48 19.1
-1 -8 -10 262.67 22.7
1 8 10 261.77 25.5
1 8 10 261.67 29.9
1 8 10 252.07 23.9
-2 -8 -10 118.29 20.2
-2 -8 -10 64.09 12.5
2 8 10 73.79 13.9
2 8 10 67.29 15.9
2 8 10 73.69 13.2
-3 -8 -10 352.16 34.6
-3 -8 -10 306.57 28.3
3 8 10 291.47 32.7
3 8 10 342.87 30.4
3 8 10 309.07 26.9
-4 -8 -10 364.66 32.8
-4 -8 -10 397.06 37.3
4 8 10 354.36 28.4
4 8 10 357.56 26
4 8 10 347.57 35.9
-5 -8 -10 65.99 15
-5 -8 -10 85.99 22.5
5 8 10 59.59 9
5 8 10 55.79 8
5 8 10 27.2 12.3
-6 -8 -10 306.77 31.8
6 8 10 246.38 31.1
-7 -8 -10 6.1 9.6
-8 -8 -10 113.29 21.7
-11 9 10 93.19 22.8
-11 9 10 71.49 16.1
10 -9 -10 161.28 18.1
-10 9 10 105.09 20.2
-10 9 10 125.39 27.4
9 -9 -10 201.68 20.7
-9 9 10 156.38 21.9
-9 9 10 160.78 30.2
-9 9 10 203.58 19.7
8 -9 -10 67.49 13
-8 9 10 49.99 16.5
-8 9 10 74.39 12.2
-8 9 10 80.99 18.3
7 -9 -10 51.29 11.4
-7 9 10 47.6 18.6
-7 9 10 50.19 14.1
-7 9 10 47.3 9.3
6 -9 -10 626.84 49.4
-6 9 10 718.53 46.3
-6 9 10 599.44 53.49
-6 9 10 735.83 59.79
5 -9 -10 230.68 24.7
-5 9 10 231.48 28.1
-5 9 10 242.08 20.9
-5 9 10 240.18 29.7
4 -9 -10 999.2 63.89
4 -9 -10 934.91 70.19
-4 9 10 1022.6 75.39
-4 9 10 1070.69 65.19
-4 9 10 996.3 75.49
3 -9 -10 1355.76 86.19
3 -9 -10 1396.96 95.09
-3 9 10 1540.05 88.89
-3 9 10 1307.57 96.99
-3 9 10 1448.56 98.29
2 -9 -10 313.57 25.1
2 -9 -10 263.67 30.7
-2 9 10 361.06 35.2
-2 9 10 369.86 33.9
-2 9 10 339.77 27.1
1 -9 -10 258.87 33.8
1 -9 -10 240.08 22.3
-1 9 10 327.27 25.4
-1 9 10 306.97 32
-1 9 10 251.77 27.9
0 -9 -10 651.03 45.6
0 -9 -10 666.13 52.89
0 9 10 622.54 50.19
0 9 10 614.94 53.89
0 9 10 703.53 48.1
-1 -9 -10 39.4 9.4
-1 -9 -10 45.8 13.6
1 9 10 30 12
1 9 10 69.49 12.9
1 9 10 40.8 10.3
-2 -9 -10 1049.7 70.89
-2 -9 -10 1043.2 77.89
2 9 10 1088.59 73.19
2 9 10 1056.29 71.69
2 9 10 1087.39 79.59
-3 -9 -10 6.4 9.1
-3 -9 -10 2.2 5.9
3 9 10 -1.6 4.5
3 9 10 -5.8 6.5
3 9 10 11 7.9
-4 -9 -10 325.67 29.5
4 9 10 272.07 23.7
4 9 10 259.87 31.9
4 9 10 293.37 21.6
-5 -9 -10 6.5 8.5
5 9 10 22.7 5.3
5 9 10 17.3 11.7
5 9 10 18.3 4.5
-6 -9 -10 32.4 10.6
6 9 10 30.8 12.3
-7 -9 -10 27.2 12.6
-11 10 10 6.2 9.5
-11 10 10 11.5 9.6
10 -10 -10 355.26 31.5
-10 10 10 389.86 45.2
-10 10 10 352.66 35.4
9 -10 -10 61.09 13.4
-9 10 10 75.79 12.8
-9 10 10 51.89 14.8
-9 10 10 56.29 18
8 -10 -10 25.9 10.9
-8 10 10 24.2 12.7
-8 10 10 44.1 13.2
-8 10 10 40.9 9.1
7 -10 -10 202.78 36.7
-7 10 10 230.28 30.8
-7 10 10 214.98 26.5
-7 10 10 220.58 20.8
6 -10 -10 37.1 16.6
-6 10 10 20.5 9.9
-6 10 10 28.4 7.8
-6 10 10 40.2 14.1
5 -10 -10 693.03 63.19
-5 10 10 865.21 52.79
-5 10 10 636.44 58.99
-5 10 10 829.02 64.69
4 -10 -10 1250.77 76.99
4 -10 -10 1155.48 83.99
-4 10 10 1375.66 79.39
-4 10 10 1208.78 89.19
-4 10 10 1097.79 87.29
3 -10 -10 60.09 9.7
3 -10 -10 45.7 12.8
-3 10 10 50.19 14.3
-3 10 10 14.5 10.5
-3 10 10 46.2 9.4
2 -10 -10 1777.52 124.79
2 -10 -10 1946.41 116.99
-2 10 10 2093.99 119.59
-2 10 10 1845.62 128.69
-2 10 10 1932.01 127.09
1 -10 -10 10.8 7.5
1 -10 -10 16.3 6
-1 10 10 27.6 8.1
-1 10 10 3.7 6
-1 10 10 12.6 8.6
0 -10 -10 1080.79 70.39
0 -10 -10 1013.4 77.59
0 10 10 1064.39 80.39
0 10 10 1108.39 72.69
0 10 10 1081.29 75.79
-1 -10 -10 36.4 13
-1 -10 -10 31.7 9.2
1 10 10 22.9 8.8
1 10 10 23.1 11.3
1 10 10 22.6 12.6
-2 -10 -10 44.5 10.9
2 10 10 52.29 12.2
2 10 10 60.89 13.1
2 10 10 45.6 14
-3 -10 -10 45.2 14.5
3 10 10 23.8 11.9
3 10 10 45.6 12.6
-4 -10 -10 69.79 15.5
4 10 10 82.99 18.3
4 10 10 75.89 12
-5 -10 -10 71.29 15.6
5 10 10 57.59 6.7
5 10 10 70.59 6.8
5 10 10 40 14.7
-6 -10 -10 90.49 18.1
6 10 10 62.79 18.6
-7 -10 -10 52.19 13.9
11 -11 -10 200.08 22.2
-11 11 10 167.18 32.5
-11 11 10 167.28 23.9
10 -11 -10 15.5 10.6
-10 11 10 25 11.6
-10 11 10 27.1 15.8
9 -11 -10 609.54 44.9
-9 11 10 599.54 51.59
-9 11 10 505.25 55.79
8 -11 -10 48 12.7
-8 11 10 38.2 10.5
-8 11 10 32.5 13.9
-8 11 10 27.8 15.2
7 -11 -10 384.46 33.2
-7 11 10 372.06 41.4
-7 11 10 346.57 42.3
-7 11 10 335.37 36.9
6 -11 -10 542.65 46.4
-6 11 10 499.35 49.7
-6 11 10 644.14 43.1
-6 11 10 673.53 57.39
5 -11 -10 3 4.3
5 -11 -10 -8.5 7.1
-5 11 10 12.7 6.1
-5 11 10 -5 7.7
-5 11 10 -12.3 8.4
4 -11 -10 240.98 28.2
4 -11 -10 277.07 23.3
-4 11 10 256.27 31.3
-4 11 10 306.07 32.9
-4 11 10 294.87 25.4
3 -11 -10 666.93 57.29
3 -11 -10 751.72 50.79
-3 11 10 716.03 61.29
-3 11 10 775.72 61.79
-3 11 10 832.32 53.59
2 -11 -10 53.99 10.6
2 -11 -10 37.6 11.5
-2 11 10 62.69 11.8
-2 11 10 63.29 16.3
-2 11 10 37.7 13.3
1 -11 -10 538.05 40.4
1 -11 -10 472.15 46.1
-1 11 10 580.64 47.2
-1 11 10 567.34 50.79
-1 11 10 587.44 43.2
0 -11 -10 50.69 10.7
0 11 10 12.5 9.4
0 11 10 46.4 14.7
0 11 10 16.9 10.5
-1 -11 -10 1005.4 68.29
1 11 10 976.6 77.49
1 11 10 976.2 70.79
1 11 10 1068.19 71.19
-2 -11 -10 2.5 5.2
2 11 10 -3.5 5
2 11 10 -2 6.9
-3 -11 -10 6.8 7.5
3 11 10 4.8 9.6
3 11 10 4.7 23.5
-4 -11 -10 442.06 37.5
4 11 10 368.26 41
4 11 10 378.06 29.5
-5 -11 -10 59.79 15.3
5 11 10 70.89 19.8
-6 -11 -10 37.8 13.6
10 -12 -10 365.96 32.4
-10 12 10 381.56 46.3
-10 12 10 356.46 37
9 -12 -10 17.6 9.1
-9 12 10 41.8 14.8
-9 12 10 50.79 19.1
8 -12 -10 468.15 41.3
-8 12 10 471.35 50.99
-8 12 10 537.05 38.9
-8 12 10 483.75 47.1
7 -12 -10 150.08 21.1
-7 12 10 172.48 31.9
-7 12 10 180.58 30.3
-7 12 10 226.08 20.9
6 -12 -10 512.75 41.9
-6 12 10 576.84 52.39
-6 12 10 370.16 43.1
5 -12 -10 648.74 52.79
5 -12 -10 686.23 47.2
-5 12 10 710.53 48.2
-5 12 10 597.44 56.09
-5 12 10 626.04 67.89
4 -12 -10 15.9 10.8
4 -12 -10 26.9 7.5
-4 12 10 9.1 7.8
-4 12 10 26 8.7
-4 12 10 29.8 12.4
3 -12 -10 54.59 10.6
3 -12 -10 31 16.3
-3 12 10 62.19 12.3
-3 12 10 78.69 18.8
-3 12 10 43.9 14.3
2 -12 -10 1053.59 69.79
-2 12 10 1102.09 72.29
-2 12 10 1117.49 80.09
-2 12 10 968.3 80.19
1 -12 -10 22.3 8.4
-1 12 10 3.8 6.4
-1 12 10 0.7 6.9
-1 12 10 -8.9 7.2
0 -12 -10 233.28 23.1
0 12 10 246.88 25.4
0 12 10 251.37 27.3
0 12 10 249.48 32.9
-1 -12 -10 12.4 7.3
1 12 10 9.4 9.1
1 12 10 -5.5 5.2
-2 -12 -10 14.1 7.6
2 12 10 4 5.6
2 12 10 8.8 6.2
-3 -12 -10 280.07 27.5
3 12 10 250.67 31.9
3 12 10 221.68 22.8
-4 -12 -10 10.6 6.7
4 12 10 -1.6 4.6
4 12 10 0.4 9.7
-5 -12 -10 187.78 24.3
5 12 10 122.39 24.8
-6 -12 -10 -1.6 6.8
10 -13 -10 24.6 10.4
-10 13 10 41.8 14.5
-10 13 10 46.8 18.7
9 -13 -10 235.28 23.7
-9 13 10 166.78 33.9
-9 13 10 164.38 28.5
8 -13 -10 2.2 11
-8 13 10 18.6 9.5
-8 13 10 -22 8
-7 13 10 131.69 24.2
-7 13 10 130.89 17
-7 13 10 121.89 26.9
-6 13 10 99.59 22.3
-6 13 10 66.69 17.7
-6 13 10 83.69 14.4
5 -13 -10 114.89 15.1
-5 13 10 165.28 29.5
-5 13 10 144.99 17.5
-5 13 10 146.09 26.6
4 -13 -10 583.84 43.3
-4 13 10 662.63 66.39
-4 13 10 643.14 45.4
-4 13 10 523.55 52.59
3 -13 -10 45 10.4
-3 13 10 41.7 14.9
-3 13 10 42.5 11.2
-3 13 10 41.3 25.5
2 -13 -10 37.8 9.7
-2 13 10 60.19 13.1
-2 13 10 29.1 12.9
-2 13 10 28.3 12.5
1 -13 -10 581.84 43.8
-1 13 10 502.05 51.59
-1 13 10 643.84 47.3
-1 13 10 595.64 50.69
0 -13 -10 100.19 16.4
0 13 10 112.19 20.2
0 13 10 128.39 25.5
-1 -13 -10 254.47 27.2
1 13 10 298.87 29.9
1 13 10 344.77 37.8
-2 -13 -10 18.9 9.8
2 13 10 15 11.5
2 13 10 17.5 8.7
-3 -13 -10 66.59 15.2
3 13 10 41.9 14.2
3 13 10 51.39 11.2
-4 -13 -10 10.3 9.9
4 13 10 7.6 9.9
4 13 10 6.7 5
-5 -13 -10 -3.6 8.9
5 13 10 9.3 10.9
-10 14 10 3.1 10.7
-10 14 10 10.6 8.9
-9 14 10 21.9 13.7
-9 14 10 47.8 18.8
-8 14 10 229.28 38.9
-7 14 10 14.9 11.7
-7 14 10 10.9 13.2
-6 14 10 453.25 47.1
-6 14 10 363.96 41.9
-6 14 10 425.76 35.1
5 -14 -10 114.79 15.1
-5 14 10 94.29 22.5
-5 14 10 100.19 22.9
-5 14 10 112.49 17.2
4 -14 -10 32.4 9.8
-4 14 10 23.5 12.3
-4 14 10 38 10.3
-4 14 10 52.89 15.7
3 -14 -10 145.79 17.2
-3 14 10 157.78 18.8
-3 14 10 152.18 26.5
-3 14 10 84.39 22
2 -14 -10 138.99 17.9
-2 14 10 125.39 25.9
-2 14 10 166.18 23.3
-2 14 10 143.39 26.3
1 -14 -10 93.59 16.8
-1 14 10 137.49 27.6
-1 14 10 144.49 24.8
0 -14 -10 130.99 19.4
0 14 10 113.19 22.2
0 14 10 101.59 23.3
-1 -14 -10 115.99 19.1
1 14 10 81.49 17.7
1 14 10 113.99 25
-2 -14 -10 189.58 21.8
2 14 10 155.58 20.3
2 14 10 180.98 31.4
-3 -14 -10 23.4 10.3
3 14 10 39.4 9.8
3 14 10 30.2 15.8
-4 -14 -10 98.19 19.7
4 14 10 95.89 10.9
4 14 10 90.69 22.1
-9 15 10 47.5 19.7
-9 15 10 76.09 19
-8 15 10 180.48 30.5
-8 15 10 179.78 33.6
-7 15 10 61.09 18.5
-7 15 10 77.29 19.6
-6 15 10 15 10.5
-6 15 10 6.7 12
5 -15 -10 20.1 8.8
-5 15 10 40.9 16.2
-5 15 10 22.7 13
4 -15 -10 119.29 15.1
-4 15 10 59.79 20.4
-4 15 10 88.19 21.8
3 -15 -10 118.49 18.6
-3 15 10 79.19 20.5
-3 15 10 123.59 25.8
2 -15 -10 254.27 26.2
-2 15 10 189.88 34.4
-2 15 10 258.07 31.9
1 -15 -10 16.9 7.6
-1 15 10 -4.6 8.9
-1 15 10 6.4 10.1
0 -15 -10 12.7 8.4
0 15 10 -3.3 9.3
0 15 10 9 11.4
-1 -15 -10 319.07 30.4
1 15 10 283.17 31.5
1 15 10 342.57 40.3
-2 -15 -10 8.3 7.4
2 15 10 17.4 9.8
2 15 10 -2.9 6.7
-3 -15 -10 185.88 23.5
3 15 10 166.68 31.3
3 15 10 171.88 19.3
-4 -15 -10 15.1 9.1
4 15 10 21.8 16.7
4 15 10 29 6
-9 16 10 78.49 20
-9 16 10 75.79 22.8
-8 16 10 2.6 11.2
-8 16 10 8.9 12.9
-7 16 10 1.5 9.8
-7 16 10 31.1 16.5
6 -16 -10 68.99 14.6
-6 16 10 66.29 21.3
-6 16 10 65.79 22.8
5 -16 -10 18 9.2
-5 16 10 60.49 19.2
-5 16 10 26.6 12.7
4 -16 -10 502.45 38.5
-4 16 10 369.26 45.8
-4 16 10 498.15 50.09
3 -16 -10 374.66 30.5
-3 16 10 309.87 37
-3 16 10 232.68 34.8
2 -16 -10 201.58 21.7
-2 16 10 143.19 26.6
-2 16 10 125.79 27.2
1 -16 -10 90.59 16.6
-1 16 10 63.19 18.4
-1 16 10 121.59 22.4
0 -16 -10 8.2 8
0 16 10 1.9 9.4
0 16 10 10.6 9.2
-1 -16 -10 15.9 8.7
1 16 10 -3.7 10.2
1 16 10 -15.9 7.6
-2 -16 -10 12.5 7.8
2 16 10 16.4 14.1
2 16 10 26 10
-3 -16 -10 19.6 12.3
3 16 10 71.49 32.3
3 16 10 14.9 8.4
-8 17 10 39.6 18.7
-8 17 10 29.3 16.3
-7 17 10 15.1 11.4
-7 17 10 50.59 18.4
6 -17 -10 42.9 11.5
-6 17 10 53.69 20.4
-6 17 10 28.5 15.4
5 -17 -10 82.99 15.1
-5 17 10 34.9 14.7
-5 17 10 32.7 16.3
4 -17 -10 69.39 14.3
-4 17 10 87.89 21.9
3 -17 -10 106.49 17.4
-3 17 10 135.19 26
-3 17 10 69.59 19.8
2 -17 -10 234.58 24.7
-2 17 10 220.98 30.2
-2 17 10 198.88 35.7
1 -17 -10 121.99 19.3
-1 17 10 62.99 19.4
-1 17 10 42.1 16.7
0 -17 -10 106.99 18.9
0 17 10 119.59 22.2
0 17 10 82.79 25
-1 -17 -10 6.5 10
1 17 10 -3.6 9.5
1 17 10 -11 9.4
-2 -17 -10 157.18 20.8
2 17 10 183.98 33.3
2 17 10 130.59 20.7
-7 18 10 32.2 33.7
-7 18 10 62.29 17.3
6 -18 -10 26.8 9.4
-6 18 10 -9.1 10.5
-6 18 10 22 10.8
5 -18 -10 3 7.2
-5 18 10 8.7 8.2
-5 18 10 15.6 10.9
4 -18 -10 133.59 20.8
-4 18 10 141.19 28.9
-4 18 10 148.69 28.8
3 -18 -10 72.99 15.3
-3 18 10 22 16.3
-3 18 10 106.69 23.2
2 -18 -10 37.1 11.6
-2 18 10 27.6 12.9
-2 18 10 51.79 18
1 -18 -10 59.29 14.9
-1 18 10 76.79 20.5
-1 18 10 48.1 17.9
0 -18 -10 -2.9 8.4
0 18 10 -5.6 15.7
0 18 10 -14.2 21.4
-1 -18 -10 135.69 22.9
1 18 10 123.99 28.1
1 18 10 102.19 20.6
6 -19 -10 65.19 15.6
-6 19 10 191.48 57.09
-6 19 10 62.99 21.1
5 -19 -10 44.8 12.5
-5 19 10 46.3 19.5
-5 19 10 78.19 22.6
4 -19 -10 6.7 5.4
-4 19 10 23.9 15.2
-4 19 10 13 11.6
3 -19 -10 274.47 27.9
-3 19 10 200.38 34.9
2 -19 -10 13 6.7
-2 19 10 10.1 11.2
-2 19 10 21.1 15.1
1 -19 -10 218.58 25.4
-1 19 10 174.58 29.2
-1 19 10 137.69 31.6
-2 23 -11 24.2 10.8
2 -23 11 25.3 10.5
-3 23 -11 68.99 17.6
3 -23 11 50.29 16
-1 -22 11 130.49 22.4
0 -22 11 60.59 16.3
-1 22 -11 112.19 20.2
1 -22 11 96.99 19.3
-2 22 -11 188.78 24.5
2 -22 11 141.59 24.4
-3 22 -11 -3.3 8.7
3 -22 11 13.1 10.3
-4 22 -11 6.1 10.8
-5 22 -11 177.18 30.3
-2 -21 11 60.39 15
-1 -21 11 9.8 8.6
0 21 -11 87.69 16.6
0 -21 11 79.59 17.9
-1 21 -11 77.09 15.6
1 -21 11 67.09 15.9
-2 21 -11 2.4 7.9
2 -21 11 26.9 11.2
-3 21 -11 230.58 28.5
3 -21 11 209.68 26.3
-4 21 -11 3.3 9.6
-5 21 -11 270.37 31.8
-6 21 -11 77.09 24
-3 -20 11 14.7 9.7
-2 -20 11 36.9 12.5
-1 -20 11 177.78 23.4
0 20 -11 17.8 9.6
0 -20 11 35.2 12.7
-1 20 -11 137.69 19.8
1 -20 11 179.58 22.2
-2 20 -11 212.78 25.2
2 -20 11 145.79 24.2
-3 20 -11 34.8 10.7
3 -20 11 27.8 13
-4 20 -11 505.15 46.2
-5 20 -11 -2.6 9.6
-6 20 -11 364.56 38.7
-7 20 -11 31.1 14.4
7 -20 11 41.6 11.9
-4 -19 11 -20.1 10.8
-4 -19 11 1.9 6.9
-3 -19 11 439.26 72.49
-3 -19 11 394.36 37.8
-2 -19 11 164.38 21.4
-1 -19 11 64.69 14.7
0 19 -11 275.67 27.5
0 -19 11 262.27 28.6
-1 19 -11 3.3 5
1 -19 11 -7.6 3.7
-2 19 -11 449.16 40.1
2 -19 11 437.86 38.9
-3 19 -11 33.5 12.4
-4 19 -11 -6.9 8.2
-5 19 -11 283.17 31.8
-6 19 -11 0 5.5
-7 19 -11 342.47 39.8
7 -19 11 395.96 40.2
7 -19 11 463.35 37.5
-8 19 -11 92.99 21.4
8 -19 11 55.89 20.4
8 -19 11 116.09 17.7
-5 -18 11 -2.2 20.4
-5 -18 11 8.5 9.6
-4 -18 11 451.95 38.5
-4 -18 11 326.37 35.5
-3 -18 11 3.5 8.4
-3 -18 11 5.2 8.1
-2 -18 11 159.78 24.8
-2 -18 11 253.27 28.8
-1 -18 11 101.39 18
0 18 -11 112.09 23
0 -18 11 127.59 20.2
-1 18 -11 905.21 63.79
1 -18 11 839.12 63.69
-2 18 -11 41.1 11.5
2 -18 11 40.2 10.8
-3 18 -11 419.96 39.2
-4 18 -11 14.4 9.3
-5 18 -11 99.29 19.8
5 -18 11 75.49 18.7
-6 18 -11 349.57 37.5
6 -18 11 406.46 39.1
-7 18 -11 10.9 9.7
7 -18 11 45.3 13.3
7 -18 11 36 10.7
-8 18 -11 239.68 33.4
8 -18 11 344.37 28.8
8 -18 11 313.67 32.1
-5 -17 11 4.9 10.2
-5 -17 11 42.4 12.5
-4 -17 11 59.09 15.5
-4 -17 11 105.89 17.9
-3 -17 11 89.09 17.3
-3 -17 11 97.79 18.3
-2 -17 11 16.8 13.6
-2 -17 11 14.2 11.1
-1 -17 11 165.48 27.2
-1 -17 11 169.08 20.4
0 17 -11 11.6 8.9
0 17 -11 28.6 9.1
0 -17 11 9.9 7.3
-1 17 -11 23.7 10.3
-1 17 -11 40.5 12.2
1 -17 11 12.6 8.3
-2 17 -11 426.86 36.4
2 -17 11 335.77 32.7
-3 17 -11 9.4 8.8
-4 17 -11 380.66 37
-5 17 -11 109.09 21.6
5 -17 11 176.18 23.6
-6 17 -11 108.39 20.8
6 -17 11 157.78 19
6 -17 11 155.28 21.9
-7 17 -11 189.78 25.8
7 -17 11 239.78 26.2
7 -17 11 202.78 22.1
-8 17 -11 18.3 11.1
8 -17 11 -4.1 5.5
8 -17 11 14.7 10.9
-9 17 -11 498.55 63.99
9 -17 11 476.45 39.7
9 -17 11 628.44 48.9
-6 -16 11 4.3 8.4
-6 -16 11 -17.6 5.7
-5 -16 11 129.89 20.7
-5 -16 11 142.39 22.7
-4 -16 11 259.97 32.3
-4 -16 11 253.27 27.4
-3 -16 11 66.89 15.2
-3 -16 11 47.4 12.5
2 16 -11 770.82 56.69
-2 -16 11 833.52 63.09
-2 -16 11 800.82 58.39
1 16 -11 493.55 39
-1 -16 11 494.05 40.3
-1 -16 11 520.45 45
0 16 -11 173.58 19.6
0 16 -11 173.98 18.6
0 -16 11 165.38 23
0 -16 11 160.88 19.5
-1 16 -11 9.8 6.9
-1 16 -11 7.9 6.2
1 -16 11 13.2 7.7
1 -16 11 19.8 19.3
-2 16 -11 17.6 7.1
-2 16 -11 16.5 8.3
2 -16 11 17.2 7.3
-3 16 -11 368.76 33.3
-3 16 -11 307.37 28.7
-4 16 -11 4.1 4.8
-5 16 -11 97.79 19.9
-6 16 -11 86.49 19.6
6 -16 11 115.49 20.3
6 -16 11 112.19 17.5
-7 16 -11 170.78 24
7 -16 11 176.58 22.2
7 -16 11 162.98 18.5
-8 16 -11 186.08 25.6
8 -16 11 216.58 23.4
8 -16 11 228.28 21.2
-9 16 -11 26.2 13.1
9 -16 11 50.39 8.8
-7 -15 11 7.9 9.8
-7 -15 11 16 7.3
-7 -15 11 8.7 9.4
-6 -15 11 93.79 17.7
-6 -15 11 88.89 16
-5 -15 11 -6.3 7.3
-5 -15 11 -6.7 5.9
-4 -15 11 183.38 21.7
-4 -15 11 180.38 21.4
3 15 -11 11.9 7.7
-3 -15 11 16.5 8.3
-3 -15 11 29.9 11.6
2 15 -11 18.5 6.9
-2 -15 11 14.1 5.9
-2 -15 11 7.8 7.9
1 15 -11 90.79 17.2
-1 -15 11 88.69 15.2
-1 -15 11 91.09 17.8
0 15 -11 67.59 19.5
0 15 -11 95.69 15.5
0 -15 11 72.39 13.4
0 -15 11 89.29 18
-1 15 -11 1014.5 66.09
1 -15 11 957.5 70.09
1 -15 11 812.52 62.19
-2 15 -11 122.69 15.1
-2 15 -11 118.99 16.8
2 -15 11 135.49 19.4
2 -15 11 109.09 21.7
-3 15 -11 108.99 19.3
-3 15 -11 119.49 14.7
-4 15 -11 104.49 19.7
-4 15 -11 126.79 15.6
-5 15 -11 2.6 7.5
5 -15 11 -4.3 4.6
-6 15 -11 13.6 9.9
6 -15 11 9.9 6.7
-7 15 -11 11.2 11
7 -15 11 26 7.7
7 -15 11 17.9 8.5
-8 15 -11 4.7 7.3
8 -15 11 7.2 6.7
8 -15 11 5 6.2
-9 15 -11 119.99 23.7
9 -15 11 120.39 14.3
9 -15 11 152.08 13.7
-7 -14 11 37.3 11.3
-7 -14 11 50.29 10.3
-7 -14 11 34.4 11.4
-6 -14 11 240.28 26.4
-6 -14 11 222.98 23.2
-5 -14 11 234.48 25.1
-5 -14 11 308.77 28.2
4 14 -11 12 6.9
-4 -14 11 -5.8 5.2
-4 -14 11 27.4 10
3 14 -11 241.18 22.5
-3 -14 11 167.38 21.3
-3 -14 11 180.98 20.2
2 14 -11 7.5 6.1
-2 -14 11 1.2 6.1
-2 -14 11 -0.3 4.9
1 14 -11 98.09 13
-1 -14 11 128.19 14.9
0 14 -11 883.91 58.59
0 -14 11 817.72 59.19
0 -14 11 948.61 66.59
-1 14 -11 8.1 5.2
-1 14 -11 -0.2 5.5
1 -14 11 13.1 6.9
1 -14 11 12.2 6.1
-2 14 -11 1091.69 72.39
-2 14 -11 1083.19 67.59
2 -14 11 1002.1 75.09
2 -14 11 919.61 68.09
-3 14 -11 48.1 12.2
-3 14 -11 47.4 11.8
3 -14 11 50.69 14.3
-4 14 -11 62.59 15.4
-4 14 -11 60.89 11.5
-5 14 -11 484.45 39.2
-5 14 -11 462.75 42.1
5 -14 11 498.05 38.6
-6 14 -11 -0.7 7
6 -14 11 2.1 4.7
-7 14 -11 304.57 33.9
7 -14 11 353.16 30.5
7 -14 11 354.16 28.3
-8 14 -11 -0.4 3.9
8 -14 11 1.3 6.2
8 -14 11 5.5 5.2
-9 14 -11 14.3 8.7
9 -14 11 0.4 3.7
9 -14 11 1.2 4.3
-10 14 -11 72.39 18.4
-8 -13 11 12.1 13.9
-8 -13 11 -10.6 8.4
-8 -13 11 0 8.9
-8 -13 11 -12.7 6.3
-7 -13 11 206.98 22.1
-7 -13 11 209.58 22.5
-7 -13 11 318.37 29
-6 -13 11 273.37 27.5
-6 -13 11 205.68 22.7
5 13 -11 6.3 7.5
-5 -13 11 1 5.8
-5 -13 11 26.9 8.9
4 13 -11 6.5 12
-4 -13 11 -7.7 4.4
-4 -13 11 -5.4 6.2
3 13 -11 16.7 7.1
-3 -13 11 16.8 6.7
-3 -13 11 24.8 9.7
2 13 -11 796.62 53.79
-2 -13 11 826.32 58.89
-2 -13 11 746.33 54.19
1 13 -11 416.06 31.2
-1 -13 11 382.96 31.1
-1 -13 11 401.86 35.8
0 13 -11 295.47 24
0 -13 11 325.27 31.4
0 -13 11 260.27 24.1
-1 13 -11 72.99 13.5
-1 13 -11 68.79 11.7
1 -13 11 58.49 11.6
1 -13 11 82.39 17.4
-2 13 -11 20.3 8.2
-2 13 -11 27.9 7
2 -13 11 22.2 8.5
-3 13 -11 72.49 11.6
-3 13 -11 44 11.4
3 -13 11 34.8 12.6
-4 13 -11 433.76 35.2
-4 13 -11 528.05 41.8
4 -13 11 482.55 37.4
4 -13 11 456.85 42.6
-5 13 -11 23.1 7.8
-5 13 -11 41.8 11.6
5 -13 11 44.7 9.6
-6 13 -11 1.3 4.8
6 -13 11 -6.9 3.9
-7 13 -11 3.8 7.5
7 -13 11 -3 3.4
-8 13 -11 100.19 20.1
8 -13 11 107.89 12.9
8 -13 11 140.09 15.3
-9 13 -11 66.19 16.2
9 -13 11 72.89 6.9
9 -13 11 74.89 6.5
-10 13 -11 20.2 11
-8 -12 11 125.49 14.3
-8 -12 11 78.89 19.1
-8 -12 11 138.09 21.9
-8 -12 11 94.09 15.3
-7 -12 11 77.49 14.2
-7 -12 11 87.29 16.5
-7 -12 11 91.49 13.8
6 12 -11 229.58 23.7
-6 -12 11 206.88 22.9
-6 -12 11 179.78 19.8
5 12 -11 133.89 19
-5 -12 11 129.49 16.6
-5 -12 11 122.39 16.3
4 12 -11 230.18 21.6
-4 -12 11 177.08 20.2
-4 -12 11 205.38 21.8
3 12 -11 550.04 39.9
-3 -12 11 555.04 42.4
-3 -12 11 514.25 39.7
2 12 -11 123.49 13.7
-2 -12 11 105.79 17.4
-2 -12 11 114.49 14
1 12 -11 124.69 13.7
-1 -12 11 116.99 13.7
-1 -12 11 136.79 16.9
0 12 -11 9.2 4.3
0 -12 11 7.7 4.9
0 -12 11 4.8 5.3
-1 12 -11 7.1 4.4
-1 12 -11 6.9 5
1 -12 11 -3.5 4.2
1 -12 11 19.3 8.2
-2 12 -11 581.14 43.7
-2 12 -11 565.04 39.4
2 -12 11 532.15 47.6
-3 12 -11 427.96 33.8
-3 12 -11 549.74 40.6
3 -12 11 468.65 41.1
3 -12 11 451.95 36.8
-4 12 -11 73.59 14.9
-4 12 -11 62.39 10.8
4 -12 11 58.19 11.5
4 -12 11 98.99 18.6
-5 12 -11 27 9.3
-5 12 -11 18.5 8
5 -12 11 29 12.2
5 -12 11 19.4 6.4
-6 12 -11 6.7 5.7
6 -12 11 2.1 4.3
-7 12 -11 273.57 30.7
7 -12 11 314.77 24.8
-8 12 -11 4.9 5
8 -12 11 -6.2 4.4
8 -12 11 -0.7 3.8
-9 12 -11 64.99 17.4
-10 12 -11 47.5 13.8
-8 -11 11 8.7 9.4
-8 -11 11 4.1 8.6
-8 -11 11 14.4 8
-8 -11 11 13.6 6.7
-7 -11 11 274.47 30.4
-7 -11 11 295.27 27.6
-7 -11 11 237.78 24.7
-7 -11 11 233.18 22.8
6 11 -11 28.2 9.5
-6 -11 11 21.3 7.3
-6 -11 11 34.3 9.8
5 11 -11 450.05 36.1
-5 -11 11 479.85 36.8
-5 -11 11 457.85 36.5
4 11 -11 663.83 46
-4 -11 11 672.93 48
-4 -11 11 618.74 46.2
3 11 -11 159.98 16.6
-3 -11 11 195.08 19.8
-3 -11 11 182.78 17.8
2 11 -11 18.3 6.2
-2 -11 11 26.7 8.6
-2 -11 11 14.1 5.7
1 11 -11 5 4.5
-1 -11 11 11.9 6.5
-1 -11 11 14.5 5.2
0 11 -11 348.37 25.7
0 -11 11 323.47 26.3
0 -11 11 357.16 31.2
-1 11 -11 739.33 49
-1 11 -11 662.43 43.9
1 -11 11 535.35 43.6
1 -11 11 718.23 51.19
-2 11 -11 3 4.1
-2 11 -11 2.7 5.1
2 -11 11 -2.6 3.5
2 -11 11 2.8 4.4
-3 11 -11 915.51 61.69
-3 11 -11 912.81 56.59
3 -11 11 735.63 69.39
3 -11 11 812.22 58.19
-4 11 -11 299.97 25.4
-4 11 -11 365.86 30.9
4 -11 11 298.97 25.8
4 -11 11 275.17 29.8
-5 11 -11 136.49 18.1
-5 11 -11 143.19 16
5 -11 11 141.79 23.2
5 -11 11 142.19 15.5
-6 11 -11 307.47 31.8
-6 11 -11 363.96 30.3
6 -11 11 348.27 64.49
6 -11 11 338.37 27
-7 11 -11 74.69 21
7 -11 11 107.19 11.9
-8 11 -11 110.79 20.8
8 -11 11 117.29 12.3
8 -11 11 114.99 11.5
-9 11 -11 4.9 6.1
-10 11 -11 61.29 14.5
-9 -10 11 90.19 19.5
-9 -10 11 121.39 14.7
-9 -10 11 123.29 23.2
-9 -10 11 90.69 15.8
-8 -10 11 113.49 21.1
-8 -10 11 80.19 12.2
-8 -10 11 63.19 13.3
-8 -10 11 104.59 17.5
-7 -10 11 35.2 11.3
-7 -10 11 41 8.9
-7 -10 11 37.4 9.8
-7 -10 11 44.1 10.3
6 10 -11 32.5 9.5
-6 -10 11 64.09 12.9
-6 -10 11 67.49 11.6
5 10 -11 149.09 16
-5 -10 11 129.79 15.8
-5 -10 11 124.69 15.7
4 10 -11 44.5 9.1
-4 -10 11 34.2 8.6
-4 -10 11 30.5 8.2
3 10 -11 230.48 20.2
-3 -10 11 223.98 20.1
-3 -10 11 249.88 22.5
2 10 -11 134.69 13.2
-2 -10 11 122.79 15.4
1 10 -11 738.53 46.7
-1 -10 11 633.94 46.3
-1 -10 11 783.72 52.39
0 10 -11 1116.09 63.89
0 -10 11 1082.99 69.79
0 -10 11 860.91 63.09
-1 10 -11 442.46 30.7
1 -10 11 431.96 35.9
1 -10 11 422.06 34.8
-2 10 -11 1773.32 110.39
-2 10 -11 1764.92 105.19
2 -10 11 1709.13 109.09
2 -10 11 1722.73 112.29
-3 10 -11 21.4 5.8
-3 10 -11 20.6 7.1
-4 10 -11 528.85 41.5
-4 10 -11 506.05 37.1
4 -10 11 512.75 37.8
4 -10 11 494.65 45
-5 10 -11 3.2 5.6
5 -10 11 4.6 5.7
5 -10 11 5.6 4.1
-6 10 -11 228.08 22.8
-6 10 -11 214.28 24.5
6 -10 11 225.68 19.7
6 -10 11 221.08 26.6
-7 10 -11 47.3 12.8
7 -10 11 46.6 8.6
-8 10 -11 40.9 12.6
-9 10 -11 100.09 19.4
-10 10 -11 16.2 9.4
-9 -9 11 5 6.1
-9 -9 11 0.8 9.2
-9 -9 11 -4.1 7.1
-9 -9 11 7.4 8.9
-8 -9 11 98.99 16.3
-8 -9 11 65.59 13.7
-8 -9 11 68.59 11.6
-8 -9 11 67.19 16.3
-7 -9 11 51.99 9.7
-7 -9 11 59.89 12.2
-7 -9 11 49.8 16.7
-7 -9 11 53.39 12.6
6 9 -11 188.68 20.4
-6 -9 11 188.18 24.3
-6 -9 11 219.48 20.1
-6 -9 11 223.28 21.2
5 9 -11 166.88 17.4
-5 -9 11 183.28 17.9
-5 -9 11 131.29 19.3
-5 -9 11 196.08 18.2
4 9 -11 51.59 9.4
-4 -9 11 38.8 11.1
-4 -9 11 62.19 11.1
-4 -9 11 59.19 10.1
3 9 -11 832.12 53.19
-3 -9 11 789.12 53.39
-3 -9 11 849.32 56.49
2 9 -11 346.27 28
-2 -9 11 304.57 25.1
-2 -9 11 411.06 30.1
1 9 -11 105.29 10.6
-1 -9 11 91.99 10.4
-1 -9 11 95.79 13
-1 -9 11 91.89 15.6
0 9 -11 563.74 45.8
0 -9 11 459.15 36.4
0 -9 11 671.53 43.7
0 -9 11 591.44 42.8
-1 9 -11 151.18 13.5
1 -9 11 150.48 17.2
1 -9 11 133.79 17.2
-2 9 -11 310.57 23.6
-2 9 -11 325.47 27.7
2 -9 11 305.47 26.7
2 -9 11 325.47 28.8
-3 9 -11 350.66 26.4
-3 9 -11 344.17 29.7
3 -9 11 378.86 32.8
3 -9 11 325.57 27.4
-4 9 -11 806.62 52.99
-4 9 -11 846.72 57.39
4 -9 11 762.72 52.69
4 -9 11 715.83 57.69
-5 9 -11 369.16 29.8
-5 9 -11 363.06 32.5
5 -9 11 363.36 34.2
-6 9 -11 365.66 33
6 -9 11 317.77 34.1
6 -9 11 378.46 28.1
-7 9 -11 212.88 24.8
7 -9 11 254.27 20.3
7 -9 11 248.58 28
-8 9 -11 18.2 8.3
8 -9 11 15.2 3.9
-9 9 -11 31.8 11.5
-10 9 -11 220.48 26.6
-9 -8 11 124.09 19.7
-9 -8 11 148.39 24.3
-9 -8 11 121.79 14.2
-9 -8 11 126.69 20.5
-8 -8 11 115.79 17.7
-8 -8 11 126.09 14.6
-8 -8 11 101.19 18
-8 -8 11 153.98 24.3
-7 -8 11 82.89 12.7
-7 -8 11 45.4 11.3
-7 -8 11 54.49 13.8
-7 -8 11 95.69 15.4
-6 -8 11 5.3 4.4
-6 -8 11 4.8 4.9
-6 -8 11 0 3.8
5 8 -11 65.89 10.5
-5 -8 11 55.99 10.3
-5 -8 11 47.1 12.1
-5 -8 11 63.89 11.6
4 8 -11 1944.31 113.59
-4 -8 11 1834.32 120.59
-4 -8 11 1759.22 113.29
-4 -8 11 1999.5 116.19
3 8 -11 93.99 10
-3 -8 11 80.59 9.9
-3 -8 11 81.69 15.4
-3 -8 11 92.29 11.9
2 8 -11 2641.64 152.18
-2 -8 11 2661.73 160.18
-2 -8 11 2543.75 156.38
-2 -8 11 2579.74 152.38
1 8 -11 110.59 9.9
-1 -8 11 95.09 15.5
-1 -8 11 94.69 9.8
-1 -8 11 90.39 12.6
0 8 -11 3115.29 175.48
0 -8 11 3087.09 181.98
0 -8 11 2878.71 180.68
-1 8 -11 95.39 9.7
1 -8 11 100.19 15.7
1 -8 11 109.29 13.6
-2 8 -11 131.69 12.9
2 -8 11 146.39 15.3
2 -8 11 129.59 16.1
-3 8 -11 8.6 5
-3 8 -11 -2.3 2.7
3 -8 11 7 4.7
3 -8 11 2.1 3.4
-4 8 -11 1154.88 73.89
-4 8 -11 1212.48 77.49
4 -8 11 1126.39 78.79
4 -8 11 1130.89 73.59
-5 8 -11 47.6 11.4
5 -8 11 62.09 14.1
5 -8 11 55.09 9.9
-6 8 -11 659.43 54.49
6 -8 11 797.72 50.99
6 -8 11 810.82 59.19
-7 8 -11 128.19 17.9
7 -8 11 136.59 22.5
7 -8 11 134.09 13.7
-8 8 -11 49.5 12
8 -8 11 30.7 5.7
8 -8 11 28.8 12.8
-9 8 -11 22.9 18.8
-10 8 -11 58.09 15.6
-10 8 -11 52.39 13.5
-10 -7 11 5.4 10.2
-10 -7 11 -10.5 6.2
-10 -7 11 -2.5 10
-10 -7 11 10.1 5.8
-9 -7 11 14 6.2
-9 -7 11 18.5 9.7
-9 -7 11 7.4 7.8
-9 -7 11 10.8 8.4
-8 -7 11 151.58 18
-8 -7 11 133.09 18.7
-8 -7 11 134.49 22.8
-7 -7 11 8.9 7
-7 -7 11 -2.9 6
-7 -7 11 -0.3 4.1
-6 -7 11 337.57 33.1
-6 -7 11 380.16 29.5
5 7 -11 295.97 23
-5 -7 11 281.97 27.9
-5 -7 11 258.07 23.5
4 7 -11 589.54 40.4
-4 -7 11 526.15 43.3
-4 -7 11 540.95 37.4
-4 -7 11 554.54 40
3 7 -11 1419.26 85.09
-3 -7 11 1517.05 89.89
-3 -7 11 1323.67 85.19
-3 -7 11 1436.56 92.99
2 7 -11 4.7 2.7
-2 -7 11 -1.4 3.1
-2 -7 11 0.4 2
-2 -7 11 -0.2 3
1 7 -11 658.73 41.9
-1 -7 11 710.13 49.2
-1 -7 11 650.53 42.1
-1 -7 11 703.43 47.5
0 7 -11 622.24 39.2
0 -7 11 629.34 45.3
0 -7 11 617.34 44.4
-1 7 -11 24.7 5.2
1 -7 11 23.1 6.7
1 -7 11 14 6.3
-2 7 -11 1704.63 99.39
2 -7 11 1694.53 105.19
2 -7 11 1578.24 102.29
-3 7 -11 8.6 4.5
-3 7 -11 16.2 6
3 -7 11 21.4 6.2
3 -7 11 10.2 5.5
-4 7 -11 269.97 24.4
4 -7 11 234.28 24.9
4 -7 11 269.77 25.9
-5 7 -11 1140.69 74.79
5 -7 11 1096.69 70.79
5 -7 11 1066.79 76.09
-6 7 -11 188.88 21.8
6 -7 11 232.88 19.9
6 -7 11 238.88 26.6
-7 7 -11 144.29 19.2
7 -7 11 195.08 16.6
7 -7 11 176.18 22.7
-8 7 -11 52.79 12.6
8 -7 11 68.19 16.8
8 -7 11 48.1 7.3
-9 7 -11 126.19 20.5
-10 7 -11 114.49 19
-10 7 -11 101.09 20.3
-10 -6 11 139.69 22.6
-10 -6 11 118.29 20.4
-10 -6 11 108.69 19.3
-9 -6 11 80.09 17
-9 -6 11 38.6 12.2
-9 -6 11 84.89 15.1
-8 -6 11 18.7 9.9
-8 -6 11 19.9 8.3
-8 -6 11 11.8 8.3
-7 -6 11 18.5 7.8
-7 -6 11 30.5 8.4
-7 -6 11 19.9 8.5
-6 -6 11 68.49 14.5
-6 -6 11 72.09 12
-5 -6 11 1043 65.59
-5 -6 11 1032 72.29
4 6 -11 556.84 35.8
-4 -6 11 552.84 42.6
-4 -6 11 501.15 35.4
3 6 -11 553.94 35
-3 -6 11 577.34 42.8
-3 -6 11 512.55 34.9
2 6 -11 110.59 9.1
-2 -6 11 92.19 8.6
-2 -6 11 99.49 12.5
-2 -6 11 110.19 14
1 6 -11 1280.57 76.19
-1 -6 11 1355.16 83.99
-1 -6 11 1268.27 81.79
0 6 -11 2612.24 153.88
0 -6 11 2734.33 160.28
0 -6 11 2689.33 160.88
-1 6 -11 2208.28 125.99
1 -6 11 2065.89 130.79
1 -6 11 2200.88 131.69
-2 6 -11 2158.68 128.69
2 -6 11 2268.47 133.49
2 -6 11 2090.49 130.99
3 -6 11 1032.2 70.89
3 -6 11 1144.39 73.19
4 -6 11 701.73 49.1
4 -6 11 756.12 53.49
-5 6 -11 38 9.4
5 -6 11 22.6 9.3
5 -6 11 50.19 9.3
-6 6 -11 88.19 15.9
6 -6 11 103.39 18.3
6 -6 11 119.69 13.4
-7 6 -11 54.39 11.8
7 -6 11 37.1 7.6
-8 6 -11 371.26 33.9
8 -6 11 374.26 36.4
8 -6 11 401.66 26.6
-9 6 -11 11.9 9.3
9 -6 11 21.1 10.6
-10 6 -11 87.39 18.8
-10 -5 11 -9.7 6.2
-10 -5 11 26.6 11.1
-10 -5 11 -13.6 6.1
-9 -5 11 229.28 26.6
-9 -5 11 215.78 25
-9 -5 11 217.48 23.7
-8 -5 11 11.5 8
-8 -5 11 26.6 7.8
-8 -5 11 36.5 11.2
-7 -5 11 133.09 19.3
-7 -5 11 188.58 21.8
-7 -5 11 185.18 18
-6 -5 11 921.11 67.39
-6 -5 11 1032.5 64.19
-6 -5 11 950.8 68.39
-5 -5 11 2.9 3.9
-5 -5 11 6.8 3.7
-4 -5 11 768.22 52.59
-4 -5 11 665.53 44.5
3 5 -11 776.82 47
-3 -5 11 847.92 55.59
-3 -5 11 721.13 46.9
2 5 -11 604.64 34.5
-2 -5 11 490.85 33.8
-2 -5 11 621.74 42.9
1 5 -11 3305.77 183.88
-1 -5 11 3162.38 191.78
-1 -5 11 3193.38 190.38
0 5 -11 1974.6 114.39
0 -5 11 1977.2 121.29
0 -5 11 1991.5 120.29
-1 5 -11 6290.97 343.07
1 -5 11 5744.93 348.07
1 -5 11 6023.6 348.47
2 -5 11 73.69 10
2 -5 11 60.69 11.6
3 -5 11 86.59 14.1
3 -5 11 61.49 17.2
4 -5 11 1464.15 94.89
4 -5 11 1596.04 98.29
5 -5 11 338.27 30.9
5 -5 11 362.56 28.2
6 -5 11 1147.19 73.69
6 -5 11 1169.28 79.29
-7 5 -11 5.4 5.3
7 -5 11 -7.9 6.3
7 -5 11 -3.1 3.7
-8 5 -11 114.09 20.5
8 -5 11 134.69 25
8 -5 11 124.69 12
-9 5 -11 309.17 32.4
9 -5 11 253.17 28.5
-10 5 -11 0.7 8.9
10 -5 11 17.5 11.5
-10 -4 11 245.68 29.3
-10 -4 11 266.37 30.2
-9 -4 11 15.5 9.6
-9 -4 11 24.8 9.6
-9 -4 11 13.5 8.7
-8 -4 11 240.18 26.1
-8 -4 11 249.38 26.5
-8 -4 11 247.98 23.5
-7 -4 11 138.79 21.6
-7 -4 11 135.69 17.9
-7 -4 11 140.99 15.9
-6 -4 11 230.98 24.4
-6 -4 11 236.58 20.1
-6 -4 11 218.58 23.7
-5 -4 11 646.44 43.4
-5 -4 11 703.83 50.19
-4 -4 11 62.09 11.8
-4 -4 11 49.5 6.3
-3 -4 11 703.63 48.5
-3 -4 11 630.34 39.5
2 4 -11 595.54 34.6
-2 -4 11 566.94 42.6
1 4 -11 2.3 1.4
-1 -4 11 6 4.3
0 4 -11 313.17 19.3
0 4 -11 303.37 25.1
0 -4 11 273.47 24.8
0 -4 11 291.27 24.3
-1 4 -11 45.9 9.4
1 -4 11 37.4 8.6
1 -4 11 53.19 9.8
-2 4 -11 440.76 32.8
2 -4 11 408.96 32.7
2 -4 11 445.76 33.1
-3 4 -11 1211.88 71.49
3 -4 11 967.8 75.99
3 -4 11 1103.29 72.09
-4 4 -11 54.19 9.9
4 -4 11 66.89 12.6
4 -4 11 49.4 10.3
-5 4 -11 305.07 24.7
5 -4 11 295.37 27.6
5 -4 11 304.77 25.3
-6 4 -11 61.79 26.3
-6 4 -11 81.19 15.4
6 -4 11 87.89 11.8
6 -4 11 91.59 16.3
-7 4 -11 124.19 19.9
7 -4 11 111.79 13.2
7 -4 11 150.68 18.2
-8 4 -11 107.49 19.5
8 -4 11 93.79 10.9
8 -4 11 96.99 18.3
9 -4 11 33.1 13.4
-10 4 -11 18.9 12.9
10 -4 11 41.6 14.8
-11 -3 11 -3.2 8.3
-11 -3 11 6.7 10.2
-11 -3 11 15.4 10.1
-10 -3 11 30.4 10.8
-10 -3 11 22.9 9.7
-10 -3 11 12.3 10.8
-9 -3 11 107.29 20.3
-9 -3 11 107.69 18.4
-9 -3 11 110.39 17.9
-8 -3 11 7.9 6.5
-8 -3 11 13.2 8.5
-8 -3 11 18.4 9.5
-7 -3 11 1048.4 66.69
-7 -3 11 970.5 72.09
-7 -3 11 1043.2 71.79
-6 -3 11 148.79 18.6
-6 -3 11 156.58 15
-6 -3 11 153.08 19
-5 -3 11 10.6 5.8
-5 -3 11 3.4 3
-4 -3 11 1708.43 105.49
-4 -3 11 1608.64 96.29
-3 -3 11 1.4 1.1
-3 -3 11 -0.9 3.3
2 3 -11 663.33 46.3
-2 -3 11 643.74 46.5
1 3 -11 1117.09 61.99
1 3 -11 1042.6 70.39
-1 -3 11 1087.39 71.19
0 3 -11 12.3 4.9
0 3 -11 3.4 1.9
0 -3 11 9 5
-1 3 -11 3328.47 193.28
1 -3 11 3283.87 192.38
1 -3 11 3171.08 193.18
-2 3 -11 31.8 7.9
2 -3 11 31.6 7.9
2 -3 11 31.5 8
-3 3 -11 1297.77 77.99
3 -3 11 1131.19 77.09
-4 3 -11 642.94 47.8
-4 3 -11 717.83 48
4 -3 11 691.03 48.9
4 -3 11 720.13 49.6
-5 3 -11 127.99 16.4
-5 3 -11 162.28 15.8
5 -3 11 134.79 16.9
5 -3 11 162.28 16.5
-6 3 -11 975.8 65.59
-6 3 -11 814.92 59.39
6 -3 11 990.8 65.29
6 -3 11 951.8 61.69
-7 3 -11 98.39 21.9
-7 3 -11 137.79 21
7 -3 11 132.79 18.6
7 -3 11 132.69 15
-8 3 -11 299.37 29.7
8 -3 11 265.77 21.7
8 -3 11 253.37 26.4
-9 3 -11 -6 5.1
9 -3 11 17.4 9.4
-10 3 -11 -15.4 8.3
10 -3 11 -25.5 10.9
-11 -2 11 253.37 28
-11 -2 11 283.67 29.5
-11 -2 11 247.58 31.8
-10 -2 11 16.8 7.8
-10 -2 11 10.4 9.4
-10 -2 11 10 9.8
-9 -2 11 74.19 14.3
-9 -2 11 59.49 17.7
-9 -2 11 66.89 13.6
-8 -2 11 552.04 42.5
-8 -2 11 643.64 48
-8 -2 11 558.54 48.8
-7 -2 11 -3.9 4.3
-7 -2 11 -1.1 3.9
-7 -2 11 -6.7 5.5
-6 -2 11 438.76 30.3
-6 -2 11 402.96 36.2
-6 -2 11 395.06 34.7
-5 -2 11 256.77 24.6
-5 -2 11 222.78 17.7
-5 -2 11 263.67 25.5
-4 -2 11 15.6 6.7
-4 -2 11 10.1 2.8
3 2 -11 2309.27 147.89
-3 -2 11 2613.84 150.38
2 2 -11 48.8 9.3
-2 -2 11 39.4 9
1 2 -11 85.79 11.4
-1 -2 11 104.89 13.4
0 2 -11 1088.29 68.89
0 2 -11 1050.99 61.89
0 -2 11 1015.9 68.89
-1 2 -11 104.09 9.6
-1 2 -11 93.69 12.5
1 -2 11 99.79 13.4
-2 2 -11 344.67 27.5
-2 2 -11 326.77 24.5
2 -2 11 313.47 25.9
2 -2 11 341.87 28.1
-3 2 -11 4.7 4.7
-3 2 -11 3.4 3.8
3 -2 11 -3 3.3
-4 2 -11 1725.33 101.49
-4 2 -11 1551.94 100.69
4 -2 11 1514.75 107.39
4 -2 11 1689.53 102.09
-5 2 -11 336.47 27.3
-5 2 -11 326.17 28.4
5 -2 11 286.47 39.7
5 -2 11 344.87 28.7
-6 2 -11 -5.9 3.1
-6 2 -11 3.9 5.7
6 -2 11 16.1 8.3
6 -2 11 13 5.9
-7 2 -11 655.33 48.5
7 -2 11 759.22 54.09
7 -2 11 787.62 51.19
-8 2 -11 14.5 8.2
-8 2 -11 3.4 12.9
8 -2 11 22.8 9.1
8 -2 11 24.7 6.9
-9 2 -11 34.5 11.2
9 -2 11 33.4 10.5
-10 2 -11 146.09 40.4
10 -2 11 79.29 16.7
-11 -1 11 -11 7.4
-11 -1 11 13.3 11.6
-11 -1 11 -0.1 7.8
-10 -1 11 15.5 9.3
-10 -1 11 15.9 9.4
-10 -1 11 44.8 13.7
-9 -1 11 83.79 18.2
-9 -1 11 62.19 12.8
-9 -1 11 93.19 16
-8 -1 11 171.98 26.5
-8 -1 11 178.98 18.3
-8 -1 11 138.09 19.4
-7 -1 11 1460.15 95.89
-7 -1 11 1436.06 106.89
-7 -1 11 1464.85 99.29
-6 -1 11 216.58 17.9
-6 -1 11 213.38 22.1
-6 -1 11 190.18 23.2
-5 -1 11 73.79 14.5
-5 -1 11 84.69 14.6
-5 -1 11 69.29 7.8
4 1 -11 462.55 34.7
-4 -1 11 449.76 35.7
-4 -1 11 429.86 27.3
3 1 -11 124.39 14.3
-3 -1 11 126.39 15.2
2 1 -11 500.25 37.7
-2 -1 11 534.85 39.5
1 1 -11 600.94 42.1
-1 -1 11 561.04 42.5
0 1 -11 18.9 6.3
0 1 -11 16.6 3.3
0 -1 11 22.1 7.1
-1 1 -11 276.97 20.5
-1 1 -11 311.67 25.6
1 -1 11 291.27 25.8
-2 1 -11 632.44 43.9
-2 1 -11 733.83 48.3
2 -1 11 637.14 47.9
2 -1 11 704.23 46.4
-3 1 -11 2430.56 150.58
-3 1 -11 2721.73 153.78
3 -1 11 2519.55 151.38
3 -1 11 2466.35 153.68
-4 1 -11 33.4 8.4
-4 1 -11 49.7 10.3
4 -1 11 42.7 9.9
4 -1 11 47.4 9.8
-5 1 -11 511.85 35.9
-5 1 -11 430.96 36.1
5 -1 11 445.16 35.8
5 -1 11 450.85 35.2
-6 1 -11 279.17 23.4
-6 1 -11 230.38 25
6 -1 11 251.07 24.2
6 -1 11 274.77 24.5
-7 1 -11 84.09 11.9
-7 1 -11 124.39 19.8
7 -1 11 106.19 18.3
7 -1 11 95.79 15.4
-8 1 -11 -7.7 5.3
-8 1 -11 -1.3 4.2
8 -1 11 -5.4 5.8
8 -1 11 4.9 4.9
-9 1 -11 -2.3 9.1
-9 1 -11 7.2 6.3
9 -1 11 -14.1 7.2
-10 1 -11 81.89 18
10 -1 11 44.3 12.1
-11 0 11 49.5 14.5
-11 0 11 76.19 19.5
-11 0 11 69.79 16
-10 0 11 17.2 10
-10 0 11 5.8 7.7
-10 0 11 13.4 8
-9 0 11 609.64 48.9
-9 0 11 605.74 45.3
-9 0 11 588.24 52.79
-8 0 11 111.19 14.5
-8 0 11 117.39 21.5
-8 0 11 125.89 17.6
-7 0 11 600.84 51.29
-7 0 11 640.54 47
-7 0 11 657.43 49.2
-6 0 11 8.3 3.7
-6 0 11 6.7 4.9
-6 0 11 4.6 5.9
5 0 -11 288.27 24.6
-5 0 11 250.17 18.9
-5 0 11 275.07 27.7
-5 0 11 270.47 25.5
4 0 -11 830.02 54.59
-4 0 11 888.61 57.29
-4 0 11 726.13 46.4
-4 0 11 707.73 45.9
-4 0 11 907.11 59.09
3 0 -11 433.06 34.4
-3 0 11 490.15 37.1
2 0 -11 78.99 11.2
-2 0 11 83.79 14.1
1 0 -11 1910.51 111.49
1 0 -11 1960.6 120.79
-1 0 11 2029.3 122.39
0 0 -11 727.83 49.7
0 0 -11 682.13 42.8
0 0 11 716.93 50.59
-1 0 -11 1991.2 116.19
-1 0 -11 1765.32 109.69
1 0 11 1859.91 116.69
-2 0 -11 164.58 17.5
-2 0 -11 142.19 13.9
2 0 11 159.28 17.9
-3 0 -11 5.8 4.5
-3 0 -11 -4.1 2.7
3 0 11 2.7 3.9
3 0 11 0.1 4
-4 0 -11 976.1 67.49
-4 0 -11 1093.79 69.29
4 0 11 1046.1 67.29
4 0 11 1011.2 69.59
-5 0 -11 2.9 4
-5 0 -11 13.8 6.9
5 0 11 14.4 6.2
5 0 11 0.2 5.3
-6 0 -11 662.03 46.7
-6 0 -11 576.54 47.9
6 0 11 667.83 47.9
6 0 11 642.64 46.3
-7 0 -11 28.3 10.1
-7 0 -11 17.6 7.2
7 0 11 15.6 6.5
7 0 11 23.6 7.6
-8 0 -11 35.6 8.8
-8 0 -11 19.9 10.3
8 0 11 16.9 7.5
8 0 11 21.3 7.7
-9 0 -11 135.89 15.5
-9 0 -11 141.69 23.4
9 0 11 159.58 19
-10 0 -11 51.39 14.2
10 0 11 51.49 17.3
-11 1 11 35.7 11.9
-11 1 11 32 15.4
-11 1 11 58.39 14
-10 1 11 129.89 21
-10 1 11 141.19 17.8
-10 1 11 106.99 23.8
-9 1 11 -1 5.5
-9 1 11 -7.1 5.7
-9 1 11 22.4 10.1
-8 1 11 517.85 38.1
-8 1 11 466.45 45
-8 1 11 517.35 42.7
-7 1 11 74.59 11.4
-7 1 11 63.89 13.7
-7 1 11 58.29 15.4
6 -1 -11 554.84 40.8
-6 1 11 547.75 44
-6 1 11 503.45 36.3
-6 1 11 601.24 46.9
5 -1 -11 1957.6 113.79
-5 1 11 2090.79 120.59
-5 1 11 1988.5 117.69
-5 1 11 1597.64 105.59
-5 1 11 1641.64 106.69
4 -1 -11 432.86 32.7
-4 1 11 375.66 25.5
-4 1 11 423.36 35
-4 1 11 465.75 36.9
-4 1 11 406.16 25.2
3 -1 -11 1368.46 83.09
-3 1 11 1473.25 86.19
-3 1 11 1270.77 72.69
-3 1 11 1121.29 72.59
2 -1 -11 607.64 44.1
-2 1 11 612.04 45.8
1 -1 -11 112.99 13.7
1 -1 -11 110.69 8.3
-1 1 11 108.59 14.4
0 -1 -11 35.3 8.9
0 -1 -11 47.6 5.7
0 1 11 43.6 10.1
-1 -1 -11 7.8 5
-1 -1 -11 5.2 3.2
1 1 11 5.4 5.2
-2 -1 -11 7.2 4.2
-2 -1 -11 11.9 5.7
2 1 11 19.2 6.9
-3 -1 -11 1053.49 68.89
-3 -1 -11 1168.68 72.59
3 1 11 1049.89 72.79
3 1 11 1032.9 68.09
-4 -1 -11 51.89 11.3
-4 -1 -11 44.3 9.6
4 1 11 48 10.9
4 1 11 41.2 8.4
-5 -1 -11 3182.38 180.78
-5 -1 -11 2863.21 179.58
5 1 11 2882.11 176.88
5 1 11 2985.2 181.08
-6 -1 -11 193.38 21.5
-6 -1 -11 168.68 19.4
6 1 11 180.48 18.3
6 1 11 155.78 19.6
-7 -1 -11 339.97 32.5
-7 -1 -11 332.77 29.6
7 1 11 360.56 29.1
7 1 11 345.17 30.7
-8 -1 -11 6.1 6.4
8 1 11 2.8 7
8 1 11 -4.7 6.3
-9 -1 -11 7 6.2
-9 -1 -11 18.9 12.8
9 1 11 23.3 9.2
-11 2 11 44.2 17.3
-11 2 11 24.9 11.4
-11 2 11 37.8 12
-10 2 11 -15.4 6.9
-10 2 11 2.4 7.2
-10 2 11 10.4 8.2
-9 2 11 107.49 18.9
-9 2 11 112.89 22.5
-9 2 11 105.39 16.1
-8 2 11 11.4 7.2
-8 2 11 20.3 6.6
-8 2 11 15.5 10.2
-7 2 11 1051.99 72.79
-7 2 11 1021.8 64.49
-7 2 11 1013.4 75.99
-7 2 11 1029 66.29
6 -2 -11 101.69 13.4
-6 2 11 101.09 17.5
-6 2 11 80.79 9.1
-6 2 11 102.79 18.8
5 -2 -11 867.41 56.19
-5 2 11 830.62 59.09
-5 2 11 705.73 48.6
-5 2 11 907.11 62.19
4 -2 -11 677.73 47.7
-4 2 11 667.63 50.39
-4 2 11 765.32 53.19
-4 2 11 619.24 40.2
3 -2 -11 86.19 13.6
-3 2 11 58.99 5.4
-3 2 11 65.19 13.4
-3 2 11 75.29 14.7
2 -2 -11 1461.75 82.09
2 -2 -11 1483.95 91.49
-2 2 11 1337.27 82.39
-2 2 11 1440.06 93.39
1 -2 -11 292.57 19.2
1 -2 -11 310.17 26.3
-1 2 11 287.97 19.8
-1 2 11 271.87 26.8
0 -2 -11 50.29 6.3
0 -2 -11 62.19 11.8
0 2 11 52.99 6.9
0 2 11 55.69 12.1
-1 -2 -11 218.18 22.1
-1 -2 -11 215.58 17.4
1 2 11 198.88 21.4
-2 -2 -11 49.4 11
2 2 11 59.99 12.6
-3 -2 -11 625.84 45.6
-3 -2 -11 735.33 50.59
3 2 11 653.03 45
3 2 11 651.73 49.8
-4 -2 -11 263.47 25.7
-4 -2 -11 237.78 22.9
4 2 11 257.47 21.2
4 2 11 244.58 25.5
-5 -2 -11 52.49 12.3
-5 -2 -11 35 10
5 2 11 15.4 6.9
5 2 11 38.3 10.5
-6 -2 -11 567.24 43.2
-6 -2 -11 545.75 44.3
6 2 11 529.05 42.9
6 2 11 522.85 39.1
-7 -2 -11 -6.2 7.2
-7 -2 -11 11.5 9.6
7 2 11 26 9.3
7 2 11 14.2 6.5
-8 -2 -11 61.29 12.6
-8 -2 -11 56.49 14.9
8 2 11 64.99 12.8
8 2 11 56.99 18.2
-9 -2 -11 22.5 8.3
-9 -2 -11 67.49 16.3
9 2 11 35.8 7.9
-11 3 11 27 10.9
-11 3 11 30.9 14.3
-11 3 11 25.4 10.5
-10 3 11 0.3 5.6
-10 3 11 -8.5 7.6
-10 3 11 1.4 7.4
-9 3 11 61.29 11.9
-9 3 11 78.19 15.1
-9 3 11 72.49 18.4
-8 3 11 207.28 28.4
-8 3 11 230.38 22.3
-8 3 11 302.97 22.2
-8 3 11 236.68 26.1
7 -3 -11 21.3 6.7
-7 3 11 5.4 5.4
-7 3 11 16 4.8
-7 3 11 14.4 9.4
6 -3 -11 1779.32 106.19
-6 3 11 1582.64 99.39
-6 3 11 1720.23 113.79
-6 3 11 1676.53 109.79
5 -3 -11 270.77 22.6
-5 3 11 221.88 24
-5 3 11 185.28 15.6
-5 3 11 268.97 27.2
4 -3 -11 64.19 11.7
-4 3 11 77.79 15.5
-4 3 11 72.59 7.1
-4 3 11 81.89 14.8
3 -3 -11 460.05 35.8
-3 3 11 489.15 38.8
-3 3 11 530.75 40.1
-3 3 11 416.46 28.8
2 -3 -11 176.88 18.6
2 -3 -11 153.68 11.4
-2 3 11 151.58 18.9
-2 3 11 150.98 12.1
-2 3 11 176.78 19.8
1 -3 -11 2667.53 151.18
1 -3 -11 2594.44 159.58
-1 3 11 2545.45 161.28
-1 3 11 2663.83 152.18
0 -3 -11 2101.89 126.29
0 -3 -11 2123.79 134.19
0 3 11 2149.19 135.49
0 3 11 2259.87 127.79
-1 -3 -11 782.62 52.69
-1 -3 -11 897.71 60.09
1 3 11 827.72 54.19
1 3 11 828.02 59.99
-2 -3 -11 1310.17 85.19
-2 -3 -11 1246.48 79.49
2 3 11 1263.87 85.59
-3 -3 -11 19.2 6.5
-3 -3 -11 21.9 8.5
3 3 11 25.8 6.2
3 3 11 30.8 9.9
-4 -3 -11 939.01 66.09
-4 -3 -11 949.6 63.69
4 3 11 875.01 59.59
4 3 11 970.5 67.49
-5 -3 -11 -10.6 5.9
-5 -3 -11 -7.7 4.7
5 3 11 0.3 4.2
5 3 11 4.8 6.5
-6 -3 -11 186.98 31.2
-6 -3 -11 286.87 26.6
6 3 11 227.48 20.6
6 3 11 218.68 24.2
-7 -3 -11 113.89 17.7
-7 -3 -11 84.39 16.2
7 3 11 92.09 27
7 3 11 72.19 15.3
-8 -3 -11 -10.1 7.5
-8 -3 -11 8.5 6.8
8 3 11 4.7 7.8
8 3 11 4.7 5.2
-9 -3 -11 132.59 38.9
-9 -3 -11 100.39 16.3
9 3 11 103.29 7.8
9 3 11 92.59 8
-11 4 11 7.8 7.2
-11 4 11 9.5 15.3
-11 4 11 3.9 9.6
-10 4 11 277.57 30.3
-10 4 11 268.77 34.6
-10 4 11 252.67 27.7
-10 4 11 356.46 27.8
-9 4 11 -5 6.9
-9 4 11 5.5 5.9
-9 4 11 -3.2 4.5
-9 4 11 9.2 5.7
8 -4 -11 35.8 8.6
-8 4 11 20.7 12.7
-8 4 11 21.1 6.7
-8 4 11 18.2 9.3
7 -4 -11 228.88 22.9
-7 4 11 235.28 19.1
-7 4 11 234.58 29.2
-7 4 11 251.67 26.1
6 -4 -11 30.2 8.5
-6 4 11 42.6 7.1
-6 4 11 41.8 11.2
-6 4 11 35.6 11.7
5 -4 -11 381.56 30.5
-5 4 11 323.47 24.2
-5 4 11 394.46 36.2
-5 4 11 360.86 32.7
4 -4 -11 1493.05 93.79
-4 4 11 1585.74 99.79
-4 4 11 1292.07 85.89
-4 4 11 1543.15 97.79
3 -4 -11 202.68 14.9
3 -4 -11 216.98 21.3
-3 4 11 198.28 15.4
-3 4 11 220.98 23.7
-3 4 11 215.28 23.5
2 -4 -11 1088.59 65.19
2 -4 -11 1066.39 73.79
-2 4 11 1043 66.29
-2 4 11 1178.48 77.19
-2 4 11 1150.08 76.09
1 -4 -11 61.49 7.6
1 -4 -11 82.49 15
-1 4 11 77.59 8.5
-1 4 11 85.19 15.5
-1 4 11 77.19 14.6
0 -4 -11 842.52 55.59
0 -4 -11 896.21 63.29
0 4 11 989.2 57.69
0 4 11 844.22 63.69
-1 -4 -11 16.3 5.6
1 4 11 15.4 8.2
-2 -4 -11 105.09 17.3
-2 -4 -11 114.99 12.9
2 4 11 119.09 19.7
2 4 11 93.49 12.4
-3 -4 -11 322.67 28
-3 -4 -11 340.07 31.7
3 4 11 359.26 32.9
-4 -4 -11 12.4 7.2
-4 -4 -11 0.9 5.3
4 4 11 4.8 6.6
4 4 11 -6.3 2.8
-5 -4 -11 218.18 24.1
-5 -4 -11 236.98 25
5 4 11 240.18 20.1
5 4 11 209.58 24.3
-6 -4 -11 4 7.3
-6 -4 -11 9.2 9.1
6 4 11 -2.5 5.3
6 4 11 -8.8 4.5
-7 -4 -11 27.2 11.7
-7 -4 -11 26.2 11
7 4 11 31.8 6.8
7 4 11 35.8 11.5
-8 -4 -11 119.19 34
-8 -4 -11 118.39 21.2
8 4 11 120.09 11
8 4 11 127.19 10.8
-9 -4 -11 46.8 13.2
-9 -4 -11 18.2 18.2
-11 5 11 18.7 10
-11 5 11 4.5 12.7
-11 5 11 -6.9 8.6
-10 5 11 1.5 6.1
-10 5 11 -14.7 7.1
-10 5 11 7.4 10.6
-10 5 11 -2.5 5.8
-9 5 11 -0.4 8.8
-9 5 11 2.3 5.5
-9 5 11 0.7 6.8
8 -5 -11 42.1 10.3
-8 5 11 26 12.8
-8 5 11 49.99 9.2
-8 5 11 34.1 11.3
7 -5 -11 16.3 7
-7 5 11 58.09 14.9
-7 5 11 28.7 6.6
-7 5 11 16.5 8.3
6 -5 -11 485.85 36.5
-6 5 11 442.76 39.9
-6 5 11 538.45 45.2
-6 5 11 418.86 30.9
5 -5 -11 -5.3 3.4
-5 5 11 1.4 6.4
-5 5 11 -2.4 2.1
-5 5 11 -1.5 3.4
4 -5 -11 120.69 15.2
-4 5 11 118.69 20
-4 5 11 118.99 20.6
-4 5 11 102.49 10.3
3 -5 -11 341.07 22.1
3 -5 -11 322.07 28.7
-3 5 11 290.57 22.5
-3 5 11 293.87 30.3
-3 5 11 348.47 31.7
2 -5 -11 1298.97 87.29
2 -5 -11 1235.58 77.99
-2 5 11 1321.77 89.69
-2 5 11 1410.16 80.09
-2 5 11 1297.77 88.29
1 -5 -11 152.98 13.3
1 -5 -11 151.08 18.4
-1 5 11 164.68 19.2
-1 5 11 138.39 18.8
-1 5 11 163.68 14.5
0 -5 -11 176.58 22.1
0 -5 -11 214.98 17.6
0 5 11 223.18 24.9
0 5 11 178.78 21.1
0 5 11 233.68 19.2
-1 -5 -11 27.4 7
-1 -5 -11 24.9 9.3
1 5 11 28.8 8.6
1 5 11 30.9 9.8
1 5 11 25.8 7
-2 -5 -11 11.4 6.7
-2 -5 -11 21.5 6.5
2 5 11 16.3 6.7
2 5 11 22.7 7
2 5 11 30.7 9.6
-3 -5 -11 223.78 22.4
-3 -5 -11 247.28 26.6
3 5 11 263.57 24.6
3 5 11 231.78 22.7
3 5 11 229.18 26.6
-4 -5 -11 761.02 54.89
-4 -5 -11 672.43 49.8
4 5 11 620.74 52.89
4 5 11 635.74 46.9
4 5 11 706.33 45.6
-5 -5 -11 11.5 12.2
-5 -5 -11 10.2 7.7
5 5 11 -3.9 7.9
5 5 11 4.5 6.3
5 5 11 21.7 6.7
-6 -5 -11 99.99 17.9
-6 -5 -11 83.79 16.6
6 5 11 59.59 15.6
6 5 11 79.69 10.2
6 5 11 70.69 9.8
-7 -5 -11 18.9 11.3
-7 -5 -11 25.2 11.5
7 5 11 41.6 7.3
7 5 11 42 13
7 5 11 38.9 6.7
-8 -5 -11 29 13.1
-8 -5 -11 -7.5 9.9
-11 6 11 18.5 10.2
-11 6 11 51.49 17.4
-11 6 11 31.3 12.7
-10 6 11 90.69 22.6
-10 6 11 106.69 20.3
-10 6 11 141.69 15.5
9 -6 -11 86.29 15.3
-9 6 11 106.99 19.5
-9 6 11 113.19 24
-9 6 11 116.89 14.3
8 -6 -11 643.54 47.8
-8 6 11 671.93 53.49
-8 6 11 706.83 45.3
-8 6 11 537.25 62.09
7 -6 -11 -7.8 3.4
-7 6 11 3.2 6.1
-7 6 11 -1.7 3.6
-7 6 11 1.7 4.8
6 -6 -11 17.5 7.4
-6 6 11 18.6 10.7
-6 6 11 24.2 8.6
-6 6 11 17.7 5.2
5 -6 -11 36.6 9.7
-5 6 11 58.29 14.2
-5 6 11 43.1 12.3
-5 6 11 19.2 9.3
4 -6 -11 20 7.3
-4 6 11 18.9 8.1
-4 6 11 8.9 7.6
-4 6 11 26.6 5.5
3 -6 -11 684.23 45.4
3 -6 -11 716.63 53.79
-3 6 11 748.03 56.69
-3 6 11 785.02 47.5
-3 6 11 706.43 56.69
2 -6 -11 4.4 4.3
2 -6 -11 4.7 3
-2 6 11 -5.3 4.3
-2 6 11 -1.6 2.8
-2 6 11 0.4 5
1 -6 -11 51.99 12.5
1 -6 -11 43.6 7.5
-1 6 11 54.29 13.1
-1 6 11 50.49 8.9
-1 6 11 52.39 13.3
0 -6 -11 2168.68 131.39
0 -6 -11 2137.19 139.39
0 6 11 2278.37 138.59
0 6 11 2267.27 133.29
0 6 11 2198.38 141.89
-1 -6 -11 2.3 4
-1 -6 -11 1.3 7
1 6 11 6.3 4.9
1 6 11 1.1 4.1
1 6 11 1.2 5.6
-2 -6 -11 1116.19 77.19
-2 -6 -11 1185.48 83.69
2 6 11 1286.27 80.09
2 6 11 1243.08 86.09
2 6 11 1239.58 80.09
-3 -6 -11 857.31 58.29
-3 -6 -11 858.71 84.29
3 6 11 857.21 64.49
3 6 11 799.82 57.19
3 6 11 812.42 59.29
-4 -6 -11 322.37 28.7
-4 -6 -11 299.77 31.5
4 6 11 300.77 23.7
4 6 11 314.17 26.2
4 6 11 342.47 30.7
4 6 11 279.37 31
-5 -6 -11 93.59 18.3
-5 -6 -11 50.89 12.4
5 6 11 54.29 9.1
5 6 11 54.19 9.5
5 6 11 68.09 16.2
-6 -6 -11 19.2 12.2
-6 -6 -11 7.7 6.9
6 6 11 14.2 4.7
6 6 11 28.3 10.8
6 6 11 1.8 4.2
-7 -6 -11 179.48 27.8
-7 -6 -11 176.68 26.7
7 6 11 175.38 25
-8 -6 -11 3.8 10.3
-11 7 11 3.2 12.7
-11 7 11 20.4 12
-10 7 11 44.8 10.4
-10 7 11 22.7 10.2
-10 7 11 69.19 21.1
9 -7 -11 51.69 11.5
-9 7 11 54.09 12.2
-9 7 11 57.99 15.1
8 -7 -11 19.3 8.1
-8 7 11 22.2 6.7
-8 7 11 35.3 11.5
-8 7 11 25 12.4
7 -7 -11 229.68 23.4
-7 7 11 217.68 26.9
-7 7 11 212.58 28.6
-7 7 11 257.27 20.2
6 -7 -11 -2.8 5.6
-6 7 11 7.3 9.9
-6 7 11 7.2 7.5
-6 7 11 16 5.4
5 -7 -11 -1.5 4.5
-5 7 11 20.2 8.9
-5 7 11 12.9 4.6
-5 7 11 11.1 8.5
4 -7 -11 131.49 16
4 -7 -11 122.99 11.9
-4 7 11 135.39 12.9
-4 7 11 116.39 20.9
-4 7 11 93.29 19.4
3 -7 -11 -1.6 2.6
3 -7 -11 3 5.2
-3 7 11 5.4 5.4
-3 7 11 -4.7 3.2
-3 7 11 1.7 6.3
2 -7 -11 341.87 30.7
2 -7 -11 289.67 23.1
-2 7 11 309.27 32.4
-2 7 11 346.27 25.5
-2 7 11 301.77 30.6
1 -7 -11 977.5 72.79
1 -7 -11 1011.7 65.29
-1 7 11 1052.09 73.69
-1 7 11 1085.99 76.79
-1 7 11 1083.69 67.49
0 -7 -11 166.58 16.8
0 -7 -11 175.18 21.8
0 7 11 186.98 21.6
0 7 11 162.28 21.8
0 7 11 205.78 18.8
-1 -7 -11 600.74 45.2
-1 -7 -11 590.34 65.39
1 7 11 720.83 50.69
1 7 11 680.83 54.79
1 7 11 709.63 48
-2 -7 -11 421.16 32.8
-2 -7 -11 416.36 38.2
2 7 11 428.66 34.2
2 7 11 355.66 37.8
2 7 11 404.46 33.9
-3 -7 -11 599.74 49.1
-3 -7 -11 560.44 43.2
3 7 11 571.24 42.5
3 7 11 549.65 44.1
3 7 11 568.84 48.7
-4 -7 -11 10.6 9
-4 -7 -11 -0.4 6.4
4 7 11 -5.3 10.1
4 7 11 3.7 4.2
4 7 11 4.8 5.3
4 7 11 5.6 8.4
-5 -7 -11 178.68 21.7
-5 -7 -11 175.28 24.2
5 7 11 174.48 17
5 7 11 164.48 22.9
5 7 11 167.68 15.4
-6 -7 -11 202.28 24.3
6 7 11 198.68 15.8
6 7 11 202.48 25.8
6 7 11 194.48 16.2
-7 -7 -11 10.6 9.4
7 7 11 -17.9 10.1
-8 -7 -11 -1.6 9.7
-11 8 11 15 9.9
-11 8 11 16.7 13.9
10 -8 -11 74.49 14.2
-10 8 11 73.59 22.4
-10 8 11 84.79 18.9
-10 8 11 95.99 18.3
9 -8 -11 506.05 42.2
-9 8 11 543.55 47.8
-9 8 11 467.85 52.49
-9 8 11 612.94 40.7
8 -8 -11 692.23 53.19
-8 8 11 761.52 49.6
-8 8 11 620.74 61.69
-8 8 11 787.52 60.19
7 -8 -11 3.7 6.6
-7 8 11 21.2 6.1
-7 8 11 4.8 7.5
-7 8 11 0.7 7
6 -8 -11 845.62 61.09
-6 8 11 966.3 57.09
-6 8 11 766.62 64.89
-6 8 11 824.02 68.89
5 -8 -11 9.5 5.8
-5 8 11 8.9 8.3
-5 8 11 -2.4 4.1
-5 8 11 1.3 5.3
4 -8 -11 483.75 36.6
4 -8 -11 499.65 42.7
-4 8 11 611.34 38.3
-4 8 11 541.45 48
-4 8 11 527.85 46.6
3 -8 -11 71.99 10.6
3 -8 -11 65.69 14.3
-3 8 11 101.39 19.6
-3 8 11 85.79 18
-3 8 11 77.09 12.1
2 -8 -11 24.5 6.6
2 -8 -11 40.4 12.5
-2 8 11 29.2 11.6
-2 8 11 20.6 9.6
-2 8 11 27 6.7
1 -8 -11 37 7.6
1 -8 -11 18.4 10.7
-1 8 11 20.5 8.3
-1 8 11 40.7 8.5
-1 8 11 14.5 9.9
0 -8 -11 275.07 23.8
0 -8 -11 259.17 29
0 8 11 295.77 31.6
0 8 11 286.87 28.6
0 8 11 302.97 25.4
-1 -8 -11 388.06 38.1
-1 -8 -11 411.86 32.5
1 8 11 440.06 40.9
1 8 11 422.36 34.3
1 8 11 446.26 36.4
-2 -8 -11 420.96 34.5
-2 -8 -11 421.36 39.4
2 8 11 498.65 42.5
2 8 11 445.26 41.9
2 8 11 418.26 35.9
-3 -8 -11 5.2 5.8
-3 -8 -11 10.2 7.9
3 8 11 -6.9 6.2
3 8 11 13.1 8.4
3 8 11 -3.3 4.6
-4 -8 -11 290.47 34.2
4 8 11 327.47 26.5
4 8 11 310.07 23.7
4 8 11 276.17 32.5
-5 -8 -11 493.55 41.6
5 8 11 465.45 33.8
5 8 11 425.66 49.8
5 8 11 471.85 31.9
-6 -8 -11 48.8 13.1
6 8 11 35 14
6 8 11 50.89 5.8
6 8 11 62.29 5.9
-7 -8 -11 255.97 30.6
7 8 11 215.38 28.8
-11 9 11 -2.9 8.9
-11 9 11 -15.1 12
10 -9 -11 151.18 18.3
-10 9 11 117.49 21.6
-10 9 11 118.79 26.8
9 -9 -11 328.87 29.8
-9 9 11 362.76 28.9
-9 9 11 297.47 35
-9 9 11 265.17 42.9
8 -9 -11 585.74 46.4
-8 9 11 643.74 53.89
-8 9 11 666.23 44.3
-8 9 11 541.25 55.69
7 -9 -11 657.43 51.09
-7 9 11 676.93 60.79
-7 9 11 765.22 49.99
-7 9 11 632.24 56.19
6 -9 -11 2.9 6.3
-6 9 11 16.3 8.9
-6 9 11 7 10
-6 9 11 5.6 4.5
5 -9 -11 1200.08 88.19
-5 9 11 1472.05 83.29
-5 9 11 1138.09 91.69
-5 9 11 1452.55 97.89
4 -9 -11 20.8 6
4 -9 -11 29.7 10.9
-4 9 11 51.29 14.4
-4 9 11 47.1 8.8
-4 9 11 45.1 14.9
3 -9 -11 319.47 31.9
3 -9 -11 311.27 24.6
-3 9 11 374.96 27.3
-3 9 11 334.67 34.8
-3 9 11 270.57 32.5
2 -9 -11 1589.14 100.49
2 -9 -11 1470.35 108.69
-2 9 11 1768.52 103.39
-2 9 11 1754.92 114.39
-2 9 11 1689.73 111.79
1 -9 -11 0.2 3.8
1 -9 -11 -3.1 4.2
-1 9 11 11.1 5.5
-1 9 11 0.3 6.5
-1 9 11 -4.4 5
0 -9 -11 549.05 41.8
0 -9 -11 605.24 49.8
0 9 11 620.84 44.6
0 9 11 585.24 51.99
0 9 11 612.94 47.9
-1 -9 -11 158.78 21.5
-1 -9 -11 152.98 17.4
1 9 11 149.88 26.1
1 9 11 190.48 20.5
1 9 11 147.99 18.4
-2 -9 -11 0.3 4.6
-2 -9 -11 -3.5 5.3
2 9 11 -4 6.6
2 9 11 14.4 7
2 9 11 22.3 8.8
-3 -9 -11 253.67 25.2
3 9 11 249.18 23.9
3 9 11 227.68 29.7
-4 -9 -11 196.18 22.7
4 9 11 162.58 28.7
4 9 11 171.08 18
4 9 11 178.28 16
-5 -9 -11 250.67 28
5 9 11 249.88 19.5
5 9 11 267.07 31.5
5 9 11 279.37 21.6
-6 -9 -11 146.39 23.4
6 9 11 105.89 23
-7 -9 -11 21.4 17.4
11 -10 -11 61.29 13.7
-11 10 11 69.49 20
-11 10 11 51.19 15.8
10 -10 -11 83.89 15.4
-10 10 11 70.39 21.6
-10 10 11 69.79 18
9 -10 -11 443.96 35.2
-9 10 11 405.36 32.8
-9 10 11 423.86 48.2
-9 10 11 369.26 39.5
8 -10 -11 315.97 30.1
-8 10 11 316.97 35.8
-8 10 11 375.86 30
-8 10 11 296.97 37.9
7 -10 -11 27.3 10.1
-7 10 11 38.8 8.4
-7 10 11 18.8 10
-7 10 11 14.3 10.6
6 -10 -11 916.11 69.29
-6 10 11 1051.39 80.79
-6 10 11 889.01 74.39
-6 10 11 1108.99 65.99
5 -10 -11 33.9 12.2
-5 10 11 31 12.2
-5 10 11 62.49 10.8
-5 10 11 38.1 14.5
4 -10 -11 2160.38 148.59
4 -10 -11 2346.67 140.69
-4 10 11 2511.15 142.79
-4 10 11 2489.15 156.48
-4 10 11 2273.47 153.68
3 -10 -11 186.68 24.2
3 -10 -11 180.28 17.5
-3 10 11 209.18 19.7
-3 10 11 156.28 27.7
-3 10 11 226.88 27.8
2 -10 -11 758.02 50.29
2 -10 -11 736.33 58.49
-2 10 11 789.22 52.59
-2 10 11 718.63 59.19
-2 10 11 670.43 60.59
1 -10 -11 90.89 17.6
1 -10 -11 114.39 13.5
-1 10 11 119.49 17
-1 10 11 87.19 18.3
-1 10 11 102.59 21.9
0 -10 -11 192.58 20
0 -10 -11 183.28 25.8
0 10 11 181.08 22.6
0 10 11 257.27 23.4
0 10 11 212.58 28.1
-1 -10 -11 23.9 8.5
1 10 11 37.7 10.3
1 10 11 12.8 9
1 10 11 29.5 10
-2 -10 -11 239.58 24.1
2 10 11 224.08 25.4
2 10 11 256.47 25.7
-3 -10 -11 18.2 8.6
3 10 11 14.6 8.1
3 10 11 23.4 12.9
-4 -10 -11 13.4 10.1
4 10 11 18.1 12
4 10 11 26.2 7.7
4 10 11 29.8 7.8
-5 -10 -11 27.6 9.4
5 10 11 25.2 6
5 10 11 43.2 6.6
5 10 11 28.4 12.8
-6 -10 -11 79.59 17.1
6 10 11 79.99 20.5
10 -11 -11 233.48 23.4
-10 11 11 145.59 30.7
-10 11 11 183.78 26.6
9 -11 -11 17.6 10
-9 11 11 24.2 14.5
-9 11 11 13.6 10
8 -11 -11 487.45 39.6
-8 11 11 439.76 49.5
-8 11 11 404.86 43.4
-8 11 11 515.95 37
7 -11 -11 551.34 44.4
-7 11 11 578.34 54.49
-7 11 11 489.55 49.6
-7 11 11 547.85 45.3
6 -11 -11 208.38 24.3
-6 11 11 179.28 31.2
-6 11 11 216.78 20.4
-6 11 11 171.58 29.2
5 -11 -11 1452.85 87.09
5 -11 -11 1298.67 93.29
-5 11 11 1171.28 97.19
-5 11 11 1578.44 88.59
-5 11 11 1199.98 134.09
4 -11 -11 11.3 7.4
4 -11 -11 15.4 6
-4 11 11 11.6 6.8
-4 11 11 11.3 9
-4 11 11 13.6 11.8
3 -11 -11 1129.39 70.79
3 -11 -11 987 78.59
-3 11 11 1156.28 83.19
-3 11 11 1181.88 73.39
-3 11 11 1013.3 82.19
2 -11 -11 121.79 13.8
-2 11 11 109.09 20.9
-2 11 11 104.79 16.9
-2 11 11 102.79 22.4
1 -11 -11 596.84 45.5
-1 11 11 640.64 56.69
-1 11 11 691.13 48.7
-1 11 11 646.04 53.39
0 -11 -11 200.18 21.1
0 11 11 208.78 24.9
0 11 11 217.28 23.4
-1 -11 -11 19.5 8.2
1 11 11 24.6 13.8
1 11 11 33.1 10
1 11 11 6.9 8.5
-2 -11 -11 215.98 27.4
2 11 11 241.48 30.7
2 11 11 196.18 23.4
-3 -11 -11 5.7 6.3
3 11 11 -5.2 5.2
3 11 11 5.9 6
-4 -11 -11 15.1 9
4 11 11 3.1 5
4 11 11 5.3 9.7
-5 -11 -11 50.09 14
5 11 11 50.99 6.8
5 11 11 51.89 6.5
5 11 11 48.6 15.4
-6 -11 -11 39.9 39.1
6 11 11 26 15.1
10 -12 -11 27.2 10.6
-10 12 11 56.19 21
-10 12 11 8.4 11.9
9 -12 -11 445.26 66.39
-9 12 11 414.36 43.8
-9 12 11 415.06 48.5
-8 12 11 -4.2 6.3
-8 12 11 -11.7 11.2
-8 12 11 8.5 9.3
-7 12 11 362.96 39.5
-7 12 11 382.56 31.3
-7 12 11 348.97 41.4
-6 12 11 32.6 12.7
-6 12 11 19.2 11.6
-6 12 11 28.4 13
5 -12 -11 485.85 36.3
-5 12 11 482.25 48.4
-5 12 11 407.96 45
-5 12 11 506.35 37.5
4 -12 -11 473.05 34.9
-4 12 11 377.06 43.6
-4 12 11 491.95 49
-4 12 11 490.15 36.8
3 -12 -11 386.86 30.2
-3 12 11 434.26 33.2
-3 12 11 326.37 37
-3 12 11 303.17 42.3
2 -12 -11 544.05 39.2
-2 12 11 418.86 49.5
-2 12 11 570.54 49.1
1 -12 -11 178.18 19.8
-1 12 11 183.88 24.7
-1 12 11 250.97 24.1
-1 12 11 176.98 30.5
0 -12 -11 6.1 5.5
0 12 11 8.6 7.8
0 12 11 10.8 7.5
-1 -12 -11 609.84 46.6
1 12 11 624.64 56.59
1 12 11 595.44 49.6
-2 -12 -11 17 7.8
2 12 11 15.2 10.9
2 12 11 7.6 7.8
-3 -12 -11 157.28 20.1
3 12 11 151.38 28.2
3 12 11 136.39 17.5
-4 -12 -11 3.7 9
4 12 11 21.8 7.2
4 12 11 11 11.3
-5 -12 -11 32.4 11.5
5 12 11 16.8 11.9
-10 13 11 13.7 13.1
-10 13 11 -2.8 8.2
-9 13 11 4.9 11.8
-8 13 11 100.29 26.3
-8 13 11 56.69 20
-7 13 11 54.39 11.3
-7 13 11 47.6 17.4
-7 13 11 7.4 12
-6 13 11 436.96 47.8
-6 13 11 423.56 45.5
-6 13 11 458.55 36.1
5 -13 -11 73.69 13.2
-5 13 11 55.69 17.8
-5 13 11 71.89 13.4
-5 13 11 88.09 20.3
4 -13 -11 34.5 8.7
-4 13 11 20.5 13.4
-4 13 11 24.4 8.8
-4 13 11 63.49 17.3
3 -13 -11 596.34 43.7
-3 13 11 576.44 53.39
-3 13 11 505.25 52.49
-3 13 11 681.43 47.1
2 -13 -11 591.94 40.7
-2 13 11 499.35 47.9
-2 13 11 392.16 46.6
-2 13 11 558.24 43.2
1 -13 -11 602.54 46.9
-1 13 11 583.44 57.69
-1 13 11 715.43 51.29
-1 13 11 674.33 55.19
0 -13 -11 153.18 18.1
0 13 11 138.79 27.4
0 13 11 142.79 23.6
-1 -13 -11 8.3 7.6
1 13 11 4.7 8
1 13 11 9.9 8.9
-2 -13 -11 18.2 9.5
2 13 11 27 12.7
2 13 11 9.5 7.9
-3 -13 -11 -10.6 7.3
3 13 11 -1.7 10.3
3 13 11 24.8 8.8
-4 -13 -11 9.7 8.4
4 13 11 23.6 7.4
4 13 11 8.9 12.1
-5 -13 -11 7.3 11.8
5 13 11 11.3 11.2
-9 14 11 3.5 12.2
-9 14 11 -9 7.4
-8 14 11 58.79 18.9
-8 14 11 58.79 17.8
-7 14 11 225.48 31.9
-7 14 11 325.07 39
-6 14 11 29.1 16.6
-6 14 11 27 12.3
-6 14 11 18 10.7
5 -14 -11 176.08 20.3
-5 14 11 184.28 32.6
-5 14 11 205.68 27.9
-5 14 11 224.98 23.7
4 -14 -11 68.39 13
-4 14 11 75.39 20.6
-4 14 11 72.29 14
-4 14 11 90.29 21.9
3 -14 -11 309.07 27.6
-3 14 11 354.96 37.3
-3 14 11 266.77 35.3
-3 14 11 320.57 30.1
2 -14 -11 721.03 50.39
-2 14 11 583.44 59.69
-2 14 11 699.73 59.39
-1 14 11 64.29 18.2
-1 14 11 75.29 18.5
0 -14 -11 46.1 12.2
0 14 11 53.19 17.4
0 14 11 37.4 13.5
-1 -14 -11 639.24 50.49
1 14 11 626.14 52.39
1 14 11 696.63 62.39
-2 -14 -11 29.2 11
2 14 11 42.8 12.6
2 14 11 27.7 14.7
-3 -14 -11 84.39 17.1
3 14 11 94.99 22.4
3 14 11 143.19 17.6
-4 -14 -11 10.1 11.1
4 14 11 36.1 15.4
4 14 11 47.3 8.9
-9 15 11 82.79 24.5
-9 15 11 115.19 25.4
-8 15 11 -3.6 10.3
-8 15 11 -4.3 10.3
-7 15 11 161.58 31.6
-7 15 11 86.79 22.6
-6 15 11 271.37 36.7
-6 15 11 310.77 40.8
5 -15 -11 27.8 12
-5 15 11 30.7 15.7
-5 15 11 17 12.9
4 -15 -11 235.78 28
-4 15 11 221.58 31.8
-4 15 11 243.68 32.6
3 -15 -11 42.8 19.1
-3 15 11 14.9 14.7
-3 15 11 56.89 17.7
2 -15 -11 108.99 17.8
-2 15 11 140.39 26.2
-2 15 11 83.59 22.8
1 -15 -11 357.86 31.5
-1 15 11 284.87 37.9
-1 15 11 389.36 38.9
0 -15 -11 158.28 19.7
0 15 11 124.09 28.6
0 15 11 125.09 24.4
-1 -15 -11 74.49 16.1
1 15 11 74.89 21
1 15 11 102.59 19.5
-2 -15 -11 69.89 15.9
2 15 11 87.59 22.7
2 15 11 94.09 16.6
-3 -15 -11 3.6 8.6
3 15 11 -9.8 6.6
3 15 11 2.9 7.1
-8 16 11 43.1 16.8
-8 16 11 47.7 34
-7 16 11 83.59 21.4
-7 16 11 37.6 16.9
-6 16 11 48.7 19.3
-6 16 11 77.79 21.5
5 -16 -11 13 8
-5 16 11 8.3 11.7
-5 16 11 19 10.9
4 -16 -11 8.2 6.9
-4 16 11 8.7 9.6
-4 16 11 -16.7 9.2
3 -16 -11 274.17 27.1
-3 16 11 289.47 35.7
2 -16 -11 118.49 18.8
-2 16 11 80.99 22.7
-2 16 11 106.29 23.1
1 -16 -11 109.09 18.2
-1 16 11 69.09 20.5
-1 16 11 86.59 24.3
0 -16 -11 106.09 18.3
0 16 11 81.79 19.7
0 16 11 66.69 19
-1 -16 -11 45 13.5
1 16 11 17.7 15.3
1 16 11 21.3 10.6
-2 -16 -11 86.59 18.2
2 16 11 109.29 18.5
2 16 11 57.09 20.4
-8 17 11 10.5 16
-8 17 11 0.5 13.9
-7 17 11 61.49 17.5
-7 17 11 72.59 20.1
6 -17 -11 28 9.8
-6 17 11 18.6 11.8
-6 17 11 5.8 12.9
5 -17 -11 134.29 17.5
-5 17 11 125.39 28.4
-5 17 11 104.49 25.7
4 -17 -11 48.9 11.3
-4 17 11 7.4 12.7
-4 17 11 32.2 16.2
3 -17 -11 30.6 10.8
-3 17 11 17.5 11.4
-3 17 11 24 13.3
2 -17 -11 432.66 36.3
-2 17 11 299.97 43.2
-2 17 11 432.36 43.9
1 -17 -11 75.49 15.3
-1 17 11 113.99 23.4
-1 17 11 80.49 22
0 -17 -11 42.9 11.3
0 17 11 18 12.8
0 17 11 9.4 9
-1 -17 -11 216.98 24.8
1 17 11 201.88 25.9
1 17 11 152.18 32.6
-7 18 11 44.8 15.3
-7 18 11 57.69 20.1
6 -18 -11 236.78 26
-6 18 11 216.68 38
-6 18 11 301.47 40.2
5 -18 -11 0.8 6.9
-5 18 11 6.3 11.5
-5 18 11 5.2 11
4 -18 -11 0.2 7
-4 18 11 0.6 14.1
-4 18 11 -2.5 11.2
3 -18 -11 79.99 15.7
-3 18 11 89.99 23
-3 18 11 76.29 22
2 -18 -11 20.3 10.2
-2 18 11 20.4 15.4
-2 18 11 19.7 13.5
1 -18 -11 71.09 15.6
-1 18 11 35.3 14.9
-1 18 11 67.89 23
0 -18 -11 42 13
0 18 11 56.09 20.4
0 18 11 58.09 16.6
5 -19 -11 132.49 20.4
-5 19 11 118.59 28.3
-5 19 11 120.49 46.3
4 -19 -11 16.2 10.4
-4 19 11 -8.9 11.8
-4 19 11 18.8 28.8
3 -19 -11 6 8.2
-3 19 11 -1.8 10.8
-3 19 11 16.5 14.3
2 -19 -11 -10.6 6.6
-2 19 11 0.3 9.2
-2 19 11 7.8 13
0 -22 12 93.19 18.2
-1 22 -12 135.29 21.9
1 -22 12 107.29 20.3
-2 22 -12 -10.4 5.9
2 -22 12 5.8 8.7
-3 22 -12 542.35 49.4
-4 22 -12 2.3 7.3
-5 22 -12 252.77 31.3
-2 -21 12 65.79 15.1
-1 -21 12 217.28 26.2
0 -21 12 101.89 19.6
-1 21 -12 166.08 21.9
1 -21 12 125.09 21.8
-2 21 -12 188.48 24.1
2 -21 12 116.09 22.1
-3 21 -12 111.99 21.8
-4 21 -12 117.29 22.8
-5 21 -12 8.3 7.5
-6 21 -12 73.69 19
-3 -20 12 221.78 27.2
-2 -20 12 62.99 15.5
-1 -20 12 10.5 8.9
0 -20 12 106.09 19.8
-1 20 -12 25.6 10.8
1 -20 12 24.5 10.1
-2 20 -12 558.64 45.4
2 -20 12 445.66 42.7
-3 20 -12 138.09 22.8
-4 20 -12 3 8.9
-5 20 -12 275.77 32.3
-6 20 -12 0.5 8
-7 20 -12 100.39 21.4
7 -20 12 120.59 24.6
-4 -19 12 139.29 22.9
-3 -19 12 83.09 18.4
-2 -19 12 445.56 40.4
-1 -19 12 114.59 19.8
0 -19 12 261.67 28.1
-1 19 -12 16.1 9.7
1 -19 12 12.9 8.8
-2 19 -12 8.7 8.3
2 -19 12 -8.2 6
-3 19 -12 29.5 10.9
-4 19 -12 178.38 24.5
-5 19 -12 -4.8 7.4
-6 19 -12 349.37 38.9
6 -19 12 456.15 46
-7 19 -12 4.5 6
7 -19 12 -0.8 6.2
7 -19 12 28.3 12.8
-8 19 -12 224.98 28.8
8 -19 12 160.68 22.2
8 -19 12 188.78 27.7
-5 -18 12 38.4 11.9
-4 -18 12 10.5 10.3
-3 -18 12 212.18 25.2
-2 -18 12 62.29 14.5
-1 -18 12 460.15 39.6
0 -18 12 85.39 17.8
-1 18 -12 642.64 48.3
1 -18 12 511.25 46.9
-2 18 -12 104.39 18.4
2 -18 12 64.69 14.7
-3 18 -12 0.1 7
-4 18 -12 424.46 40.8
-5 18 -12 55.49 16
-6 18 -12 26.8 11.3
6 -18 12 44.6 12.5
6 -18 12 31.9 15.4
-7 18 -12 186.08 25.3
7 -18 12 164.88 26.3
-8 18 -12 20.8 13.7
8 -18 12 0.7 12.2
8 -18 12 26.4 8.8
-5 -17 12 3.1 8.4
-5 -17 12 -2.1 11.2
-4 -17 12 80.49 16
-4 -17 12 75.19 15.3
-3 -17 12 7.5 7.6
-3 -17 12 1.9 8.7
-2 -17 12 99.29 34.2
-2 -17 12 70.79 14.8
-1 -17 12 412.86 36
0 17 -12 103.19 16.6
0 -17 12 82.89 15.7
-1 17 -12 235.18 27.1
-1 17 -12 225.88 25.6
1 -17 12 257.07 25.7
-2 17 -12 515.65 41
2 -17 12 389.36 37
-3 17 -12 188.88 23.4
-4 17 -12 1.1 8.4
-5 17 -12 124.89 22.8
5 -17 12 168.18 20.8
-6 17 -12 74.39 17.5
6 -17 12 77.99 15.7
6 -17 12 133.99 21.5
-7 17 -12 66.89 18.2
7 -17 12 102.99 16.1
7 -17 12 83.69 17.6
-8 17 -12 147.89 26.4
8 -17 12 187.38 19.8
8 -17 12 144.49 22
-9 17 -12 68.49 17.8
-6 -16 12 14.1 10.4
-5 -16 12 17.3 8.8
-5 -16 12 17.7 10.9
-4 -16 12 98.89 17.3
-4 -16 12 131.79 20.7
-3 -16 12 26.5 9.5
-3 -16 12 15.6 8.5
2 16 -12 6.8 7.5
-2 -16 12 11.1 7.5
-2 -16 12 8.2 8.2
1 16 -12 84.89 14
-1 -16 12 122.99 22.1
-1 -16 12 91.19 16
0 16 -12 410.16 33.2
0 -16 12 419.26 34.9
-1 16 -12 1301.47 85.59
-1 16 -12 1264.27 81.09
1 -16 12 1181.08 82.89
-2 16 -12 253.17 23.9
-2 16 -12 274.07 27.5
2 -16 12 240.68 25.3
-3 16 -12 681.23 50.69
-3 16 -12 546.65 44.2
-4 16 -12 198.78 24.7
-5 16 -12 -1.8 7.3
5 -16 12 6.2 6.1
-6 16 -12 441.06 42.7
6 -16 12 480.35 39.1
-7 16 -12 169.78 28
7 -16 12 212.48 21.4
7 -16 12 173.28 23.7
-8 16 -12 33.3 13.6
8 -16 12 41.3 12.9
8 -16 12 61.29 11
-9 16 -12 27.7 13.4
9 -16 12 34.1 15.7
9 -16 12 28.2 8.9
-6 -15 12 71.59 16
-6 -15 12 73.19 14.9
-5 -15 12 34 10.7
-5 -15 12 7.5 10.6
4 15 -12 3.6 8.8
-4 -15 12 1.4 6.4
-4 -15 12 1.9 6.8
3 15 -12 243.08 24.8
-3 -15 12 304.87 29.6
-3 -15 12 259.97 26.6
2 15 -12 185.38 19.5
-2 -15 12 200.98 23.8
-2 -15 12 161.38 18.9
-1 -15 12 4.5 5.7
-1 -15 12 11.9 8.9
0 15 -12 230.58 22.2
0 -15 12 223.48 26.9
0 -15 12 218.78 22.2
-1 15 -12 145.79 18
1 -15 12 113.59 15.5
1 -15 12 137.99 27.5
-2 15 -12 6.7 6
-2 15 -12 12.6 6.7
-3 15 -12 424.66 39.3
-3 15 -12 450.15 35
-4 15 -12 464.85 36.2
-4 15 -12 445.86 40.6
4 -15 12 447.46 37.9
-5 15 -12 625.34 52.99
5 -15 12 680.73 49.5
-6 15 -12 38.8 13
6 -15 12 17.7 8.1
-7 15 -12 -3.9 7.6
7 -15 12 16.6 6.5
7 -15 12 0.5 8.1
-8 15 -12 20.7 11.4
8 -15 12 49.2 11.5
8 -15 12 32.1 8.3
9 -15 12 25.3 7.1
9 -15 12 28.2 8.6
-7 -14 12 173.38 22.8
-7 -14 12 189.68 20.6
-6 -14 12 130.29 20
-6 -14 12 176.28 21.5
5 14 -12 209.28 27
-5 -14 12 249.58 25.6
-5 -14 12 211.58 24.1
4 14 -12 190.58 21.6
-4 -14 12 187.18 21.4
-4 -14 12 198.18 30.7
3 14 -12 14.5 10.9
-3 -14 12 23.4 8.3
-3 -14 12 17 10.9
2 14 -12 61.69 11.5
-2 -14 12 55.09 10.9
-2 -14 12 60.09 13.7
1 14 -12 7 5.4
-1 -14 12 9.8 5.3
-1 -14 12 11.5 6.9
0 14 -12 227.98 21.6
0 -14 12 311.27 29
0 -14 12 232.28 22.7
-1 14 -12 120.59 18.8
-1 14 -12 92.09 12.3
1 -14 12 121.09 20.9
1 -14 12 78.39 13.9
-2 14 -12 253.07 22.6
-2 14 -12 247.18 25.5
2 -14 12 244.38 27.5
-3 14 -12 580.94 43.4
-3 14 -12 426.46 36.6
-4 14 -12 537.15 41.2
-4 14 -12 564.14 48.2
4 -14 12 570.94 43.7
-5 14 -12 33.9 11
5 -14 12 43.8 10.6
-6 14 -12 205.08 27
6 -14 12 285.37 24.8
-7 14 -12 8.2 7.4
7 -14 12 13.7 6
-8 14 -12 39.7 12.8
8 -14 12 50.69 12
8 -14 12 58.79 16.4
-9 14 -12 71.39 16.5
9 -14 12 99.69 10.5
9 -14 12 88.19 11.4
-7 -13 12 3.2 7.1
-7 -13 12 -7.8 6.2
-7 -13 12 4.1 8.6
-7 -13 12 -2.4 5.1
-6 -13 12 250.37 24.2
-6 -13 12 173.58 21.1
5 13 -12 118.09 17.9
-5 -13 12 147.79 17.8
-5 -13 12 120.19 17.1
4 13 -12 178.08 20.6
-4 -13 12 235.88 23.3
-4 -13 12 235.68 22.6
3 13 -12 228.78 21.5
-3 -13 12 188.38 20.4
-3 -13 12 216.68 23.1
2 13 -12 49.8 9.8
-2 -13 12 54.49 10.6
-2 -13 12 59.89 14.8
1 13 -12 412.56 31.7
-1 -13 12 469.05 40
-1 -13 12 399.86 32.4
0 13 -12 336.77 25.8
0 -13 12 284.47 26
0 -13 12 344.87 32.4
-1 13 -12 5 4.7
-1 13 -12 1.2 4
1 -13 12 -3.5 5.4
1 -13 12 -7.8 2.7
-2 13 -12 34.1 7.9
-2 13 -12 32 10.4
2 -13 12 54.29 14.1
-3 13 -12 449.36 34.6
-3 13 -12 447.76 39
3 -13 12 462.15 41.8
3 -13 12 478.05 38
-4 13 -12 167.28 17.3
-4 13 -12 152.98 20.7
4 -13 12 161.08 18.2
-5 13 -12 71.49 12.9
-5 13 -12 49.99 13.3
5 -13 12 57.99 11.8
-6 13 -12 16.3 9.8
6 -13 12 22 7.7
-7 13 -12 79.19 17.4
7 -13 12 102.59 12.7
-8 13 -12 -0.5 5.2
8 -13 12 9.7 7
8 -13 12 5.2 5.1
-9 13 -12 73.39 18.2
9 -13 12 76.49 8.9
9 -13 12 94.79 9
-10 13 -12 11.9 10
-8 -12 12 31.1 10.6
-8 -12 12 26.5 8.5
-8 -12 12 35.2 14
-8 -12 12 39.9 12
-7 -12 12 115.99 15.8
-7 -12 12 102.19 21.6
-7 -12 12 110.19 16.7
6 12 -12 7 8.8
-6 -12 12 -1.2 5.6
-6 -12 12 5.6 5.5
-6 -12 12 5.3 5.9
5 12 -12 374.66 35.8
-5 -12 12 340.57 31
-5 -12 12 362.46 30.9
4 12 -12 458.25 35
-4 -12 12 486.95 38.1
-4 -12 12 419.76 35.6
3 12 -12 18.4 6.2
-3 -12 12 10.6 7.5
-3 -12 12 21.1 8.1
2 12 -12 33.3 7.9
-2 -12 12 34.9 8.4
-2 -12 12 35.4 9.7
1 12 -12 5.1 4
-1 -12 12 -2 6.1
-1 -12 12 7.5 4.6
0 12 -12 187.08 16.6
0 -12 12 216.28 38
0 -12 12 166.18 17.3
-1 12 -12 96.99 11.1
1 -12 12 85.69 13.2
1 -12 12 87.89 17.7
-2 12 -12 72.79 14.3
-2 12 -12 86.39 10.6
2 -12 12 72.69 15.9
2 -12 12 64.89 13.6
-3 12 -12 887.91 57.59
-3 12 -12 864.41 62.09
3 -12 12 884.91 60.89
3 -12 12 823.52 64.49
-4 12 -12 32.8 8.4
-4 12 -12 17.5 8.4
4 -12 12 25.2 7.3
4 -12 12 37.8 11.3
-5 12 -12 116.69 14.7
-5 12 -12 133.29 21.1
5 -12 12 106.59 14.5
-6 12 -12 305.37 31.5
6 -12 12 313.07 26.4
-7 12 -12 14.5 8.7
7 -12 12 18.1 6.3
-8 12 -12 96.99 20.1
8 -12 12 55.89 10.3
8 -12 12 64.19 10.2
-9 12 -12 70.39 17
9 -12 12 74.19 8.2
-10 12 -12 22.7 10.8
-8 -11 12 7 8
-8 -11 12 -1.5 6
-8 -11 12 8.6 9.5
-8 -11 12 0 7.1
-7 -11 12 55.29 12.2
-7 -11 12 57.79 12
-7 -11 12 64.49 16.1
-7 -11 12 88.09 15.7
6 11 -12 125.69 18.5
-6 -11 12 141.29 17.3
-6 -11 12 159.18 17.6
-6 -11 12 112.99 21.7
5 11 -12 255.07 23.4
-5 -11 12 208.98 26.3
-5 -11 12 274.47 24.6
-5 -11 12 272.77 24.7
4 11 -12 57.49 10.5
-4 -11 12 49 10.7
-4 -11 12 50.29 11.5
3 11 -12 27.2 7.1
-3 -11 12 38.5 8.2
-3 -11 12 30.6 8.9
2 11 -12 370.06 28.1
-2 -11 12 413.36 32.9
-2 -11 12 346.37 28.2
1 11 -12 358.36 25.9
-1 -11 12 310.27 25.8
-1 -11 12 345.07 30.8
0 11 -12 98.39 10.4
0 -11 12 95.39 16.2
0 -11 12 75.59 10.2
0 -11 12 84.09 15.3
-1 11 -12 369.96 27.1
1 -11 12 359.76 31.4
1 -11 12 363.66 32.9
-2 11 -12 69.49 10.3
-2 11 -12 46.7 11.3
2 -11 12 54.19 13.1
2 -11 12 53.09 11.7
-3 11 -12 108.69 12.7
-3 11 -12 139.69 16.6
3 -11 12 106.09 14.4
3 -11 12 103.99 18.8
-4 11 -12 -0.6 3.5
-4 11 -12 2.9 4.2
4 -11 12 10.6 7.6
4 -11 12 3.2 3.7
-5 11 -12 136.59 18
-5 11 -12 109.49 14.4
5 -11 12 145.19 19.7
5 -11 12 106.89 14.2
-6 11 -12 0 6.9
-6 11 -12 1.6 5.3
6 -11 12 11.1 5.2
-7 11 -12 132.69 22.2
7 -11 12 155.28 18.7
-8 11 -12 -7.2 5.1
8 -11 12 -2.8 4.2
-9 11 -12 286.77 32
-10 11 -12 17.2 9.6
-9 -10 12 27.1 11.3
-9 -10 12 26.4 8
-9 -10 12 31.6 10.3
-9 -10 12 4.6 10.4
-8 -10 12 39.9 10.5
-8 -10 12 30.9 10.2
-8 -10 12 29.2 11.1
-8 -10 12 28.7 11.9
-7 -10 12 23.3 9.5
-7 -10 12 6.1 6.8
-7 -10 12 19.3 6.9
-7 -10 12 13.7 9.2
6 10 -12 10 7.4
-6 -10 12 15.6 6.9
-6 -10 12 11.3 7.5
-6 -10 12 2 6.1
5 10 -12 210.78 20.4
-5 -10 12 179.38 23.2
-5 -10 12 257.07 22.2
-5 -10 12 186.98 20
4 10 -12 223.68 19.4
-4 -10 12 179.48 22.2
-4 -10 12 211.08 21.5
-4 -10 12 208.58 19.3
3 10 -12 8.9 4.1
-3 -10 12 16 6.2
-3 -10 12 4.7 4.4
-3 -10 12 0.1 6
2 10 -12 689.73 43.9
-2 -10 12 595.94 43.4
-2 -10 12 653.13 48.2
-2 -10 12 701.03 51.79
1 10 -12 324.47 24.2
-1 -10 12 326.87 24.7
-1 -10 12 309.97 28.6
-1 -10 12 338.27 30.7
0 10 -12 938.81 58.29
0 -10 12 984.6 65.39
0 -10 12 781.82 57.99
0 -10 12 1046.3 66.39
-1 10 -12 57.09 9.1
1 -10 12 61.19 12.6
1 -10 12 71.49 13.8
-2 10 -12 16.2 5
2 -10 12 15.2 6.6
2 -10 12 12.7 6.4
-3 10 -12 478.45 34.7
-3 10 -12 503.75 39.8
3 -10 12 472.85 36.8
3 -10 12 480.05 41
-4 10 -12 69.79 11.9
-4 10 -12 88.89 15.7
4 -10 12 72.69 12.9
4 -10 12 85.19 17.1
-5 10 -12 789.02 63.29
-5 10 -12 993.6 68.89
5 -10 12 959.6 60.79
5 -10 12 870.91 67.19
-6 10 -12 7.9 7.7
-6 10 -12 15.8 7.6
6 -10 12 5.3 12.9
6 -10 12 11.3 6.4
7 -10 12 65.39 10.8
-8 10 -12 44.9 13.2
8 -10 12 36.9 7.3
-9 10 -12 -3.5 6.9
-10 10 -12 101.59 19.4
-9 -9 12 2.5 8.4
-9 -9 12 10.4 9.2
-9 -9 12 5.2 9.2
-9 -9 12 6.1 6.5
-8 -9 12 107.69 18.8
-8 -9 12 115.79 14.7
-8 -9 12 130.69 23.6
-8 -9 12 151.68 18.7
-7 -9 12 241.98 27.5
-7 -9 12 258.17 22.3
-7 -9 12 223.08 22.1
-7 -9 12 192.98 23.3
6 9 -12 36.5 9.2
-6 -9 12 49 11
-6 -9 12 36.4 11.8
-6 -9 12 37.3 9.3
5 9 -12 34.4 7.9
-5 -9 12 42.9 10
-5 -9 12 40.1 9.3
-5 -9 12 36.2 11.2
4 9 -12 146.69 15
-4 -9 12 165.48 20.5
-4 -9 12 150.58 17
-4 -9 12 160.68 15.9
3 9 -12 39.6 7.5
-3 -9 12 39.4 9.6
-3 -9 12 44.7 11.6
-3 -9 12 30.4 7.1
2 9 -12 2.5 3.4
-2 -9 12 5.9 3.3
-2 -9 12 -5.1 3.7
-2 -9 12 10 5.8
1 9 -12 1252.87 73.39
-1 -9 12 1301.07 81.89
-1 -9 12 1049.99 72.89
-1 -9 12 1248.08 79.49
0 9 -12 469.85 35.7
0 -9 12 489.45 38.9
0 -9 12 539.05 39.6
-1 9 -12 852.91 53.29
1 -9 12 825.52 59.39
1 -9 12 841.52 58.79
-2 9 -12 291.97 23.1
2 -9 12 329.47 27.1
2 -9 12 297.17 28.4
-3 9 -12 615.64 41.1
-3 9 -12 630.44 46.3
3 -9 12 545.15 42.6
3 -9 12 618.44 47.5
-4 9 -12 404.26 30.2
-4 9 -12 393.76 33.3
4 -9 12 362.66 34.6
4 -9 12 353.66 29.8
-5 9 -12 93.39 14.2
-5 9 -12 65.89 14
5 -9 12 65.39 11.5
5 -9 12 75.79 16.8
-6 9 -12 215.98 24.8
6 -9 12 270.97 57.19
6 -9 12 281.27 29.3
-7 9 -12 123.89 20.4
7 -9 12 137.09 14.4
-8 9 -12 0 5.9
8 -9 12 1.8 3.6
-9 9 -12 7.1 7.5
-10 9 -12 67.19 15.8
-9 -8 12 70.99 16.3
-9 -8 12 51.99 15.9
-9 -8 12 65.09 15.3
-9 -8 12 52.99 10.8
-8 -8 12 118.89 21.8
-8 -8 12 121.39 20.4
-8 -8 12 137.29 20.1
-8 -8 12 134.49 15.7
-7 -8 12 -2.3 5.4
-7 -8 12 10 6.4
-7 -8 12 3.8 11.4
-7 -8 12 5.2 5.2
-6 -8 12 110.09 14.1
-6 -8 12 100.39 13.4
-6 -8 12 98.09 19.1
5 8 -12 172.58 16.5
-5 -8 12 185.58 18.3
-5 -8 12 165.48 16.6
-5 -8 12 137.79 19.8
4 8 -12 217.08 18.7
-4 -8 12 203.88 23.4
-4 -8 12 208.78 18.8
-4 -8 12 261.27 21.8
3 8 -12 340.47 24.3
-3 -8 12 331.47 28.1
-3 -8 12 346.27 30.8
-3 -8 12 315.97 24.2
2 8 -12 7.9 3.5
-2 -8 12 4.3 5.5
-2 -8 12 1.2 4.8
-2 -8 12 5.5 3.3
1 8 -12 21.3 4.5
-1 -8 12 21.1 6.7
-1 -8 12 15.9 4.2
-1 -8 12 13.1 6.2
0 8 -12 1423.26 82.49
0 -8 12 1397.86 89.69
0 -8 12 1305.57 88.29
-1 8 -12 1578.54 92.49
1 -8 12 1554.44 98.49
1 -8 12 1465.15 96.79
-2 8 -12 1034.6 63.19
2 -8 12 982.5 66.89
2 -8 12 1016.3 69.39
-3 8 -12 162.08 15.1
3 -8 12 139.79 17.4
3 -8 12 138.49 15.8
-4 8 -12 211.98 22.1
-4 8 -12 224.98 20.2
4 -8 12 223.38 23.6
4 -8 12 203.28 19.7
-5 8 -12 70.59 14.4
5 -8 12 77.49 11
5 -8 12 93.79 17.6
-6 8 -12 69.99 14.9
6 -8 12 55.49 10.6
6 -8 12 80.19 16.5
-7 8 -12 331.77 33.5
7 -8 12 415.56 29.7
7 -8 12 376.36 36.8
-8 8 -12 204.48 24.4
8 -8 12 213.18 17.6
-9 8 -12 389.76 36.5
-10 8 -12 66.79 15
-10 8 -12 64.99 15.8
-10 -7 12 68.29 14.4
-10 -7 12 67.49 17.5
-10 -7 12 73.49 16.1
-10 -7 12 58.59 13.4
-9 -7 12 154.68 25.2
-9 -7 12 166.58 19.3
-9 -7 12 125.79 21.1
-8 -7 12 271.37 35.6
-8 -7 12 275.97 25.6
-8 -7 12 241.78 26.8
-7 -7 12 303.57 29.9
-7 -7 12 356.46 28.5
-7 -7 12 345.17 33.4
-6 -7 12 30.9 11.4
-6 -7 12 64.39 10.7
-5 -7 12 912.31 57.99
-5 -7 12 868.91 64.89
4 7 -12 375.56 26.4
-4 -7 12 389.76 33.8
-4 -7 12 348.77 26.6
3 7 -12 80.59 8.4
-3 -7 12 80.19 13.5
-3 -7 12 61.19 13.3
-3 -7 12 75.69 8.5
2 7 -12 559.84 34.7
-2 -7 12 491.25 34
-2 -7 12 544.25 39.6
-2 -7 12 582.04 43.1
1 7 -12 6.4 3
-1 -7 12 -0.2 2.8
-1 -7 12 6.6 4.2
0 7 -12 1140.29 69.69
0 -7 12 1199.68 76.49
0 -7 12 1166.38 76.69
-1 7 -12 198.58 15
1 -7 12 169.88 19.1
1 -7 12 182.58 19
-2 7 -12 46 7.6
2 -7 12 30.6 8.2
2 -7 12 28.8 8.2
-3 7 -12 1203.38 74.29
3 -7 12 1167.88 79.59
3 -7 12 1181.28 76.49
4 -7 12 1.2 4.3
4 -7 12 5.9 4.6
-5 7 -12 44 10.9
5 -7 12 61.09 13.7
5 -7 12 58.49 11.1
-6 7 -12 199.48 23
6 -7 12 257.37 26.9
6 -7 12 219.18 20.4
-7 7 -12 55.09 12.7
7 -7 12 54.99 9.3
7 -7 12 48.1 14.1
-8 7 -12 1.9 6.8
8 -7 12 -0.7 3.5
8 -7 12 13.6 10.7
-9 7 -12 -5.1 6.3
-10 7 -12 51.59 15.8
-10 -6 12 21.4 9.7
-10 -6 12 0 8.4
-10 -6 12 44.9 12.8
-9 -6 12 34.9 11.9
-9 -6 12 57.09 12.6
-9 -6 12 40.1 12.8
-8 -6 12 109.29 19.6
-8 -6 12 108.19 20.2
-8 -6 12 127.59 15.6
-7 -6 12 123.39 14.5
-7 -6 12 110.09 19.8
-7 -6 12 109.59 19.1
-6 -6 12 624.34 42.2
-6 -6 12 573.14 47.8
-5 -6 12 87.49 10.6
-5 -6 12 78.09 15.5
4 6 -12 2105.59 119.29
-4 -6 12 1998 119.19
-4 -6 12 1955.2 127.39
3 6 -12 765.22 46.5
-3 -6 12 720.33 46.3
-3 -6 12 789.62 55.09
2 6 -12 259.27 17.1
-2 -6 12 204.18 16.3
-2 -6 12 283.07 23
-2 -6 12 264.57 24.4
1 6 -12 1302.97 77.59
-1 -6 12 1317.67 85.99
-1 -6 12 1360.16 84.59
0 6 -12 391.06 25.8
0 -6 12 409.46 31.8
0 -6 12 398.16 32.1
-1 6 -12 334.37 23.2
1 -6 12 326.47 28
1 -6 12 351.76 28.5
-2 6 -12 84.99 12.5
2 -6 12 84.69 13.9
2 -6 12 66.99 12
3 -6 12 259.27 25.5
3 -6 12 296.37 24.8
4 -6 12 361.16 31.7
4 -6 12 348.17 29
5 -6 12 30.8 9.4
5 -6 12 34.1 10.5
6 -6 12 242.38 22.1
6 -6 12 288.37 49.4
7 -6 12 72.29 16.3
7 -6 12 85.49 11.2
-8 6 -12 101.39 19.5
8 -6 12 93.19 11
8 -6 12 119.99 20.8
-9 6 -12 121.89 22.1
9 -6 12 68.29 29.5
-10 6 -12 4.5 7.7
-10 -5 12 52.39 13.7
-10 -5 12 42.5 14.4
-10 -5 12 46.5 13.8
-9 -5 12 1 7.5
-9 -5 12 17.7 8.7
-9 -5 12 2.8 6.8
-8 -5 12 112.99 20.6
-8 -5 12 107.89 18.9
-8 -5 12 114.09 14.9
-7 -5 12 -9.7 4.2
-7 -5 12 -4.1 5
-7 -5 12 0.9 3.3
-6 -5 12 71.19 14.3
-6 -5 12 94.29 10.8
-6 -5 12 61.29 14.3
-5 -5 12 667.53 51.29
-5 -5 12 691.73 44.3
-4 -5 12 522.35 40.7
-4 -5 12 490.15 32.5
3 5 -12 1556.64 90.39
-3 -5 12 1700.23 101.09
-3 -5 12 1440.66 89.99
2 5 -12 416.16 25.7
-2 -5 12 417.56 34.3
1 5 -12 470.75 28.7
-1 -5 12 474.05 36.7
-1 -5 12 464.25 35.2
0 5 -12 1197.68 68.69
0 -5 12 1127.99 75.99
0 -5 12 1163.18 75.19
-1 5 -12 170.68 12.9
1 -5 12 140.59 16.4
1 -5 12 152.48 16.6
-2 5 -12 315.87 26.1
2 -5 12 287.97 25.8
2 -5 12 305.97 25.9
-3 5 -12 559.84 39.9
3 -5 12 548.25 41
3 -5 12 505.35 39.4
-4 5 -12 380.16 29.8
4 -5 12 352.46 31.4
4 -5 12 366.56 30
5 -5 12 18.9 8.3
5 -5 12 22.7 6.9
6 -5 12 190.28 18.2
6 -5 12 146.79 19.7
-7 5 -12 31.9 18.2
7 -5 12 33.4 7.7
7 -5 12 23.2 19.8
-8 5 -12 146.19 22.9
8 -5 12 119.29 13.1
8 -5 12 155.08 23.7
-9 5 -12 -9 7
9 -5 12 3.5 9.5
-10 5 -12 255.37 29.6
-10 -4 12 28.8 13.6
-10 -4 12 49.3 13.6
-10 -4 12 32.8 12.9
-9 -4 12 231.28 27.1
-9 -4 12 211.78 27.7
-9 -4 12 235.58 24
-8 -4 12 39.9 9.3
-8 -4 12 30 10.5
-8 -4 12 14.4 9.3
-7 -4 12 614.74 41.6
-7 -4 12 518.75 46.2
-7 -4 12 589.94 47.3
-6 -4 12 303.57 30
-6 -4 12 293.47 30.1
-6 -4 12 355.36 25.2
-5 -4 12 193.58 21.8
-5 -4 12 199.18 16
-4 -4 12 805.32 57.69
-4 -4 12 807.02 48.9
-3 -4 12 50.49 11
-3 -4 12 24.9 2.9
-2 -4 12 17.2 6.5
1 4 -12 57.09 4.7
-1 -4 12 69.89 12.3
0 4 -12 1.7 1.8
0 4 -12 -1.5 3.2
0 -4 12 3.4 3.8
0 -4 12 9.9 4.8
-1 4 -12 47.9 10.1
1 -4 12 24.9 7.7
1 -4 12 37.4 8.4
-2 4 -12 1173.78 74.89
2 -4 12 1154.68 75.19
2 -4 12 1131.99 74.89
-3 4 -12 586.44 40.7
3 -4 12 509.45 40.4
3 -4 12 562.24 41.4
-4 4 -12 98.09 12.9
4 -4 12 107.79 13.7
4 -4 12 96.99 15.9
-5 4 -12 0.1 4.3
-5 4 -12 10.1 5
5 -4 12 6.5 5.4
5 -4 12 2.4 4.3
-6 4 -12 911.41 66.59
-6 4 -12 1143.39 73.49
6 -4 12 1012.2 83.99
6 -4 12 1147.69 73.79
-7 4 -12 92.09 30.7
7 -4 12 78.19 16.2
7 -4 12 86.29 12.3
-8 4 -12 235.08 26.1
8 -4 12 206.48 33.4
8 -4 12 217.68 19.6
-9 4 -12 -11.1 6.6
9 -4 12 -19.9 9
-10 4 -12 6.5 19.9
10 -4 12 24.7 13.7
-10 -3 12 110.69 21.4
-10 -3 12 129.19 22.9
-10 -3 12 109.39 18.4
-9 -3 12 42.3 12.7
-9 -3 12 37.5 10.6
-9 -3 12 32.1 10.2
-8 -3 12 312.57 32.1
-8 -3 12 398.86 35.9
-8 -3 12 316.37 27.6
-7 -3 12 419.46 35.7
-7 -3 12 358.26 35
-7 -3 12 376.76 29.4
-6 -3 12 246.48 19.1
-6 -3 12 221.18 24
-6 -3 12 202.28 24.1
-5 -3 12 141.09 17.3
-5 -3 12 144.09 12.3
-4 -3 12 274.07 26.1
-4 -3 12 275.37 18
-3 -3 12 2150.18 133.39
2 3 -12 254.07 23.5
-2 -3 12 269.17 24.4
1 3 -12 3096.69 181.88
1 3 -12 3254.67 191.68
-1 -3 12 3304.57 192.48
0 3 -12 2399.96 139.69
0 3 -12 2466.95 139.19
0 3 -12 2429.96 147.49
0 -3 12 2424.96 147.99
-1 3 -12 406.16 28.2
-1 3 -12 457.35 33.9
1 -3 12 390.16 32.8
1 -3 12 437.96 32.6
-2 3 -12 224.18 17.5
-2 3 -12 200.08 19.6
2 -3 12 198.68 20.2
2 -3 12 186.38 18.5
-3 3 -12 82.19 11.6
-3 3 -12 75.89 11.6
3 -3 12 69.19 12.5
3 -3 12 77.49 13.7
-4 3 -12 671.83 44
-4 3 -12 550.74 42.2
4 -3 12 546.55 43.2
4 -3 12 595.64 44.1
-5 3 -12 7.7 5.5
-5 3 -12 5.9 5.4
5 -3 12 5.3 5.5
5 -3 12 1 5.5
-6 3 -12 -3.8 5.7
-6 3 -12 -2.9 4.1
6 -3 12 -0.4 5.8
6 -3 12 -9.8 3.7
-7 3 -12 21.4 6.4
-7 3 -12 38 11.1
7 -3 12 25.1 9.7
7 -3 12 43.5 11.4
-8 3 -12 49.6 13.6
8 -3 12 21.1 12
8 -3 12 31.2 7.7
-9 3 -12 72.69 17.3
9 -3 12 72.69 25.3
-10 3 -12 186.68 35.3
10 -3 12 136.79 23.4
-11 -2 12 -5 8.6
-11 -2 12 7.7 9.1
-11 -2 12 -13.8 10.8
-10 -2 12 198.38 23
-10 -2 12 190.08 23.9
-10 -2 12 209.28 27.8
-9 -2 12 16.1 9.4
-9 -2 12 7.7 8.2
-9 -2 12 5.7 6.9
-8 -2 12 520.55 48
-8 -2 12 583.84 41.5
-8 -2 12 571.04 46.7
-7 -2 12 63.19 12.2
-7 -2 12 49 13.9
-7 -2 12 43.8 11.9
-6 -2 12 59.59 14.1
-6 -2 12 57.79 13.3
-6 -2 12 63.29 9.1
-5 -2 12 119.69 17.2
-5 -2 12 132.59 17.1
-5 -2 12 143.79 11.5
-4 -2 12 245.38 23.7
-4 -2 12 211.78 14
3 2 -12 283.07 26.1
-3 -2 12 318.07 27.8
2 2 -12 1011.7 67.19
-2 -2 12 1013.9 68.39
1 2 -12 650.63 46.9
-1 -2 12 666.63 48
0 2 -12 2055.49 120.99
0 2 -12 2130.19 128.99
0 -2 12 2125.19 129.79
-1 2 -12 13.1 3.7
-1 2 -12 6.9 4.1
1 -2 12 -0.3 4.1
-2 2 -12 14 6.1
-2 2 -12 15.6 5
2 -2 12 5.8 4
2 -2 12 7.8 4.3
-3 2 -12 86.99 11.3
-3 2 -12 112.49 14.1
3 -2 12 117.59 14.8
3 -2 12 96.29 12.5
-4 2 -12 148.09 16.6
-4 2 -12 175.18 18.4
4 -2 12 151.98 18
4 -2 12 180.68 18.2
-5 2 -12 91.69 12.2
-5 2 -12 63.09 12.3
5 -2 12 57.59 11.7
5 -2 12 58.89 11.8
-6 2 -12 1222.98 77.69
-6 2 -12 1179.98 80.89
6 -2 12 1223.08 79.19
6 -2 12 1154.78 79.59
-7 2 -12 207.28 21.1
-7 2 -12 264.97 26.7
7 -2 12 255.77 23.7
7 -2 12 243.88 24.3
-8 2 -12 278.07 28.8
-8 2 -12 239.08 21.2
8 -2 12 260.07 26.9
8 -2 12 232.18 24.9
-9 2 -12 15.5 11.2
9 -2 12 26.3 11.2
-10 2 -12 112.09 22.6
10 -2 12 70.89 17
-11 -1 12 176.68 29.4
-11 -1 12 178.78 23.8
-11 -1 12 174.68 22.2
-10 -1 12 14.8 8.6
-10 -1 12 40 13.6
-10 -1 12 19.7 10.4
-9 -1 12 171.78 18.9
-9 -1 12 159.38 22.2
-9 -1 12 148.39 26.6
-8 -1 12 29 12
-8 -1 12 37.7 8.7
-8 -1 12 40.8 12.1
-7 -1 12 80.09 16.9
-7 -1 12 90.29 10.8
-7 -1 12 70.19 15.1
-6 -1 12 1271.77 70.09
-6 -1 12 986.2 77.79
-6 -1 12 1087.89 77.69
-5 -1 12 45.3 5.7
-5 -1 12 44.4 11.4
-5 -1 12 58.69 13.5
4 1 -12 1562.74 96.59
-4 -1 12 1711.13 99.89
-4 -1 12 1486.55 85.99
-4 -1 12 1375.36 85.79
3 1 -12 26.8 7.3
-3 -1 12 16.1 6.6
2 1 -12 518.75 38.2
-2 -1 12 485.95 39
1 1 -12 1718.83 105.49
-1 -1 12 1635.24 106.39
0 1 -12 410.86 26.4
0 1 -12 429.56 33.3
0 -1 12 412.56 33.9
-1 1 -12 15.1 6.3
-1 1 -12 3.4 2.4
1 -1 12 0.6 2.9
-2 1 -12 1716.33 110.49
-2 1 -12 1919.11 115.69
2 -1 12 1871.51 116.69
2 -1 12 1915.51 113.89
-3 1 -12 4.9 4.5
-3 1 -12 6.6 4.4
3 -1 12 6.5 4.5
3 -1 12 8.3 5.8
-4 1 -12 131.19 15.1
-4 1 -12 128.99 15.3
4 -1 12 124.29 16.4
4 -1 12 109.09 13.9
-5 1 -12 581.54 40.5
-5 1 -12 506.55 40.4
5 -1 12 476.95 39.5
5 -1 12 513.85 39.5
-6 1 -12 432.96 36.6
-6 1 -12 448.66 34.4
6 -1 12 400.06 34.4
6 -1 12 384.86 33.7
-7 1 -12 259.27 26.8
-7 1 -12 225.48 22.2
7 -1 12 230.38 23.6
7 -1 12 258.67 24.4
-8 1 -12 64.29 15.8
8 -1 12 57.99 11.1
8 -1 12 41.6 12.6
-9 1 -12 756.52 55.79
-9 1 -12 550.54 41.6
9 -1 12 607.94 46.8
-11 0 12 36.6 17.7
-11 0 12 75.99 17.5
-11 0 12 47.3 13.2
-10 0 12 173.28 35.6
-10 0 12 158.58 22.8
-10 0 12 158.78 20.1
-9 0 12 19 7
-9 0 12 11.7 8
-9 0 12 34.6 13.2
-8 0 12 777.02 53.19
-8 0 12 850.11 60.69
-8 0 12 724.43 61.69
-7 0 12 204.18 23.4
-7 0 12 202.28 17.9
-7 0 12 187.58 25
-6 0 12 -2.5 4.4
-6 0 12 0.4 3.3
-6 0 12 11.1 7.9
5 0 -12 853.71 56.49
-5 0 12 722.23 47.3
-5 0 12 837.22 58.59
-5 0 12 848.12 60.59
-5 0 12 785.22 48.4
4 0 -12 0.4 4.1
-4 0 12 11.1 1.6
-4 0 12 18.1 7.9
-4 0 12 13.3 6.9
-4 0 12 9.3 1.6
3 0 -12 1046.9 70.69
-3 0 12 1101.59 73.69
2 0 -12 684.93 49.2
-2 0 12 697.93 51.29
1 0 -12 371.56 22.3
1 0 -12 374.76 30.7
-1 0 12 370.36 32.1
0 0 -12 1027.2 63.79
0 0 -12 1099.79 71.69
0 0 12 1120.69 73.19
-1 0 -12 1173.18 74.39
-1 0 -12 1271.07 81.29
1 0 12 1275.57 82.39
-2 0 -12 386.06 27.5
-2 0 -12 373.66 30.9
2 0 12 339.07 31.4
-3 0 -12 849.32 57.99
-3 0 -12 952.2 61.69
3 0 12 877.91 58.59
3 0 12 846.02 61.59
-4 0 -12 293.47 26.1
-4 0 -12 355.96 28.5
4 0 12 300.17 28.4
4 0 12 267.77 24.7
-5 0 -12 19.1 8.4
-5 0 -12 6.3 7.2
5 0 12 4.1 4.9
5 0 12 6.3 6.6
-6 0 -12 297.17 28.9
-6 0 -12 314.27 27.2
6 0 12 302.17 26.9
6 0 12 266.77 27.3
-7 0 -12 74.59 13.4
-7 0 -12 102.09 18.2
7 0 12 88.49 14.7
7 0 12 95.29 15.6
-8 0 -12 267.97 25.6
-8 0 -12 328.57 31.7
8 0 12 324.17 28
8 0 12 314.57 28.2
-9 0 -12 19.1 7.5
-9 0 -12 13 11.2
9 0 12 -4.6 7.8
-11 1 12 128.29 26
-11 1 12 117.19 21.6
-10 1 12 41.4 12.9
-10 1 12 45.2 16.2
-10 1 12 56.29 12.1
-9 1 12 215.98 33
-9 1 12 174.08 23.9
-9 1 12 221.38 21.2
-8 1 12 2.2 4.5
-8 1 12 -6.1 6.1
-8 1 12 2.1 8.7
-7 1 12 569.14 39.6
-7 1 12 660.53 48.5
-7 1 12 496.85 48.1
6 -1 -12 237.78 22.9
-6 1 12 256.07 28.2
-6 1 12 214.38 16.8
-6 1 12 242.78 18.6
-6 1 12 213.38 24.6
5 -1 -12 116.89 15.2
-5 1 12 103.59 9
-5 1 12 134.39 17.6
-5 1 12 139.29 21.9
-5 1 12 114.19 9.9
4 -1 -12 212.38 20.1
-4 1 12 190.08 12.5
-4 1 12 232.28 24.1
-4 1 12 175.28 12.5
-4 1 12 234.38 23.2
3 -1 -12 185.88 19.7
-3 1 12 231.08 23.3
2 -1 -12 2023.9 127.89
-2 1 12 2118.19 130.49
1 -1 -12 2462.65 142.69
1 -1 -12 2505.25 152.68
-1 1 12 2536.55 154.58
0 -1 -12 4.5 3.5
0 -1 -12 4.7 2.5
0 1 12 0.9 2.9
-1 -1 -12 2189.48 131.09
-1 -1 -12 2079.69 123.99
1 1 12 2048.9 131.99
-2 -1 -12 65.49 12.8
-2 -1 -12 75.29 11.5
2 1 12 66.09 13.9
-3 -1 -12 567.74 40.8
-3 -1 -12 613.04 44.9
3 1 12 590.54 45.4
3 1 12 546.15 40.3
-4 -1 -12 88.69 14.2
-4 -1 -12 114.89 14.9
4 1 12 72.09 12.1
4 1 12 67.39 14.2
-5 -1 -12 13.2 7.5
-5 -1 -12 8.5 6.8
5 1 12 5.5 6.7
5 1 12 0.7 4.9
-6 -1 -12 56.59 13.1
-6 -1 -12 61.69 14.1
6 1 12 67.99 12.6
6 1 12 77.69 14.8
-7 -1 -12 445.36 39.4
-7 -1 -12 601.84 46.5
7 1 12 562.64 42.8
7 1 12 516.15 39.7
-8 -1 -12 -1 8.2
-8 -1 -12 10.1 8
8 1 12 6.2 6.2
8 1 12 -12.1 6.2
-9 -1 -12 327.77 29.4
-9 -1 -12 378.16 37.4
9 1 12 381.56 30.5
-11 2 12 41.3 14.1
-11 2 12 55.59 13.4
-11 2 12 40.2 16.5
-10 2 12 112.89 17.3
-10 2 12 115.69 20.5
-10 2 12 76.19 20.8
-9 2 12 -0.4 5.5
-9 2 12 4.8 6.9
-8 2 12 39.7 9.2
-8 2 12 49.3 12.6
-8 2 12 28.6 11.7
-8 2 12 41.2 7.7
7 -2 -12 187.28 19.5
-7 2 12 222.58 24
-7 2 12 169.78 15.3
-7 2 12 168.08 16.1
-7 2 12 162.58 27
6 -2 -12 1670.03 100.49
-6 2 12 1711.93 108.49
-6 2 12 1651.43 94.69
-6 2 12 1465.55 103.09
-6 2 12 1404.06 92.29
5 -2 -12 775.12 53.29
-5 2 12 810.92 59.19
-5 2 12 688.13 45.1
-5 2 12 772.82 56.69
4 -2 -12 353.86 29.3
-4 2 12 318.17 21.2
-4 2 12 349.37 31.7
-4 2 12 358.36 32.8
3 -2 -12 306.07 26.7
-3 2 12 307.77 29.2
-3 2 12 266.77 17.8
-3 2 12 317.87 28.8
2 -2 -12 110.59 14.8
2 -2 -12 126.89 8.4
-2 2 12 101.99 8.5
-2 2 12 128.09 16.4
1 -2 -12 658.93 37.8
1 -2 -12 637.24 46.4
-1 2 12 619.04 47.6
-1 2 12 555.14 38.1
0 -2 -12 212.88 15.9
0 -2 -12 192.38 21.2
0 2 12 196.98 22.2
-1 -2 -12 53.59 11.9
-1 -2 -12 56.89 8.9
1 2 12 60.79 13.4
-2 -2 -12 187.18 17.6
-2 -2 -12 199.48 21.5
2 2 12 213.08 23.1
-3 -2 -12 63.19 12.6
-3 -2 -12 29.2 8
3 2 12 49.9 12.2
3 2 12 45.7 9.5
-4 -2 -12 743.83 53.09
-4 -2 -12 684.13 49.7
4 2 12 678.63 53.09
4 2 12 699.93 48.2
-5 -2 -12 407.76 34.5
-5 -2 -12 418.06 35
5 2 12 406.96 31.8
5 2 12 383.36 35.6
-6 -2 -12 363.56 57.29
-6 -2 -12 495.45 38.2
6 2 12 395.56 36.3
6 2 12 413.06 33.3
-7 -2 -12 150.78 19.1
-7 -2 -12 170.08 21.5
7 2 12 136.59 19
7 2 12 140.19 16.7
-8 -2 -12 9.7 8.4
-8 -2 -12 5.8 9.8
8 2 12 23 7.8
8 2 12 15.3 9
-9 -2 -12 20.9 8.8
-9 -2 -12 23.7 21.1
9 2 12 32.1 20
-11 3 12 -6.9 10
-11 3 12 -10.6 8.9
-11 3 12 -10.4 8
-10 3 12 124.09 22.2
-10 3 12 79.59 21.6
-10 3 12 144.19 16.5
-10 3 12 117.89 15.6
-9 3 12 1.8 5.8
-9 3 12 8.1 9.2
-9 3 12 16.5 9.2
-9 3 12 5.1 5.2
-8 3 12 16.7 9.3
-8 3 12 12 10.2
-8 3 12 -0.8 4.1
-8 3 12 13 5.3
7 -3 -12 81.99 14.5
-7 3 12 58.19 8.9
-7 3 12 80.29 16.2
-7 3 12 79.29 17.9
6 -3 -12 690.83 48.1
-6 3 12 658.83 51.79
-6 3 12 600.44 40.8
-6 3 12 683.13 54.69
5 -3 -12 206.28 19.7
-5 3 12 161.88 13.4
-5 3 12 168.08 20.8
-5 3 12 240.38 26
4 -3 -12 7 5.6
-4 3 12 3.9 5.7
-4 3 12 13.2 3.3
-4 3 12 20.9 8.3
3 -3 -12 165.18 17.7
-3 3 12 153.68 19
-3 3 12 147.19 19.3
-3 3 12 145.89 11.4
2 -3 -12 620.64 45.8
2 -3 -12 630.14 36.9
-2 3 12 655.73 48.7
-2 3 12 521.65 37.2
-2 3 12 661.23 48.5
1 -3 -12 32.9 9.8
1 -3 -12 46.1 5.6
-1 3 12 44.8 11.8
-1 3 12 36 6.1
0 -3 -12 2084.79 121.69
0 -3 -12 2053.09 129.99
0 3 12 2113.59 122.89
0 3 12 2018.2 131.19
-1 -3 -12 375.46 27.5
-1 -3 -12 363.06 32.9
1 3 12 387.26 34.5
1 3 12 383.66 28.7
-2 -3 -12 39.7 8.4
-2 -3 -12 30.4 9.2
2 3 12 34.1 10.7
-3 -3 -12 150.98 19.8
-3 -3 -12 162.58 16.8
3 3 12 177.68 21.3
3 3 12 147.39 15.7
-4 -3 -12 373.16 33.6
-4 -3 -12 378.96 31.1
4 3 12 333.87 27.6
4 3 12 339.17 33.5
-5 -3 -12 215.28 23.8
-5 -3 -12 184.28 22.3
5 3 12 212.18 24.1
5 3 12 194.18 19.3
-6 -3 -12 152.58 22.4
-6 -3 -12 99.79 17.8
6 3 12 116.59 14.6
6 3 12 127.79 20.3
-7 -3 -12 9.2 7.4
-7 -3 -12 -8.6 6.9
7 3 12 0.7 6.6
7 3 12 7.5 6.4
-8 -3 -12 33.4 12.9
-8 -3 -12 50.79 15.4
8 3 12 20.3 10.2
8 3 12 53.39 10.6
-9 -3 -12 21 11.9
9 3 12 3.6 5.4
9 3 12 15.8 4.8
-11 4 12 47.5 13.4
-11 4 12 52.39 19
-11 4 12 19.1 12.5
-10 4 12 3.3 8.3
-10 4 12 26.5 8
-10 4 12 -2.2 8.2
-10 4 12 22.7 9
-9 4 12 5.7 9.3
-9 4 12 -3.3 5
-9 4 12 6.8 5.2
8 -4 -12 27.9 9.1
-8 4 12 26.8 6.9
-8 4 12 32.4 12.9
-8 4 12 18.8 9.8
7 -4 -12 11 6.8
-7 4 12 4.2 5.7
-7 4 12 12.2 9
-7 4 12 8 4
6 -4 -12 38.8 9.4
-6 4 12 38.4 6.2
-6 4 12 18.3 8.9
-6 4 12 43.9 13.8
5 -4 -12 8.1 6
-5 4 12 8.1 5.9
-5 4 12 21.9 8.9
-5 4 12 14.9 3.7
4 -4 -12 1448.06 93.59
-4 4 12 1566.44 99.59
-4 4 12 1329.97 84.99
-4 4 12 1480.55 97.69
3 -4 -12 1451.65 94.49
3 -4 -12 1468.25 85.39
-3 4 12 1614.74 99.59
-3 4 12 1268.27 85.69
-3 4 12 1572.34 99.29
2 -4 -12 396.66 25.3
2 -4 -12 412.66 34
-2 4 12 420.26 36.2
-2 4 12 418.26 35.2
-2 4 12 334.57 25.9
1 -4 -12 148.49 17.9
1 -4 -12 143.09 11.6
-1 4 12 120.49 17.1
-1 4 12 133.59 17.4
-1 4 12 105.99 11.6
0 -4 -12 799.72 59.99
0 -4 -12 789.22 51.89
0 4 12 838.82 61.89
0 4 12 876.91 54.69
-1 -4 -12 1874.71 120.49
-1 -4 -12 1814.22 112.79
1 4 12 1873.51 121.79
1 4 12 1938.41 114.59
-2 -4 -12 79.09 15.4
-2 -4 -12 82.89 10.9
2 4 12 73.69 12
2 4 12 81.79 16.4
-3 -4 -12 743.63 55.79
-3 -4 -12 681.23 50.29
3 4 12 756.12 56.69
-4 -4 -12 122.29 15.5
-4 -4 -12 129.89 21.2
4 4 12 140.19 19.7
4 4 12 132.09 14.3
-5 -4 -12 26.6 17.7
-5 -4 -12 0.9 6.3
5 4 12 10.5 6.1
5 4 12 16 7.5
-6 -4 -12 75.29 16
-6 -4 -12 107.09 18.6
6 4 12 48.8 10.3
6 4 12 84.99 17
-7 -4 -12 118.09 20.9
-7 -4 -12 135.59 21
7 4 12 83.89 17.6
7 4 12 84.39 26.5
-8 -4 -12 -1.8 8.4
-8 -4 -12 23.2 11.4
8 4 12 -9.1 3.6
8 4 12 1.7 7.9
8 4 12 1.7 5
-11 5 12 14.1 13
-11 5 12 29.1 18.9
-11 5 12 5.4 11.6
-10 5 12 117.19 18.6
-10 5 12 104.49 21
-10 5 12 134.59 27.2
-10 5 12 143.59 16.4
-9 5 12 1.6 5.4
-9 5 12 -5.3 7.2
-9 5 12 13.5 10.8
8 -5 -12 53.29 11.6
-8 5 12 55.99 15.1
-8 5 12 62.19 9.6
-8 5 12 42.9 16.6
7 -5 -12 2.2 4.8
-7 5 12 3.3 2.8
-7 5 12 -5.7 7.5
-7 5 12 -0.1 5.8
6 -5 -12 102.19 13.7
-6 5 12 61.99 17.1
-6 5 12 72.49 15.8
5 -5 -12 653.23 46.4
-5 5 12 549.65 38.6
-5 5 12 580.94 49
-5 5 12 656.23 52.49
4 -5 -12 45.2 10.9
-4 5 12 45.1 13.6
-4 5 12 40.6 12.1
-4 5 12 58.89 7
3 -5 -12 287.07 19.2
3 -5 -12 278.77 26.6
-3 5 12 305.27 29.5
-3 5 12 293.87 29.2
-3 5 12 217.88 19.3
2 -5 -12 2.9 2.8
2 -5 -12 0.9 4.2
-2 5 12 5.4 4.9
-2 5 12 -0.5 4.2
-2 5 12 4.2 3
1 -5 -12 315.67 24.1
1 -5 -12 351.86 32.4
-1 5 12 348.67 33.6
-1 5 12 358.56 25.9
-1 5 12 343.07 31.9
0 -5 -12 836.32 62.09
0 -5 -12 819.82 54.09
0 5 12 854.21 61.59
0 5 12 905.71 56.29
0 5 12 830.92 63.59
-1 -5 -12 210.58 23.3
-1 -5 -12 185.58 17.8
1 5 12 240.28 26.8
1 5 12 184.68 19.2
1 5 12 233.38 22.9
-2 -5 -12 14.2 6
-2 -5 -12 13.5 7.1
2 5 12 11 6.1
2 5 12 18.9 7.8
2 5 12 8.6 5.4
-3 -5 -12 551.24 41.5
-3 -5 -12 530.65 59.49
3 5 12 579.54 43.7
3 5 12 558.74 47.8
3 5 12 563.44 42.4
-4 -5 -12 82.59 16.8
-4 -5 -12 68.99 13.7
4 5 12 67.49 12.3
4 5 12 71.69 11.4
-5 -5 -12 722.13 53.79
5 5 12 585.54 51.49
5 5 12 631.64 84.99
5 5 12 635.34 44.2
-6 -5 -12 10.2 9.1
-6 -5 -12 -16.3 5.7
6 5 12 -2.4 7.5
6 5 12 7.2 4.6
6 5 12 -6.8 5.9
-7 -5 -12 217.58 26.8
-7 -5 -12 184.78 23.7
7 5 12 212.88 26
7 5 12 174.78 16.6
7 5 12 196.68 16.9
-8 -5 -12 80.19 22.7
-8 -5 -12 45.7 14.8
-11 6 12 114.59 21.2
-11 6 12 98.39 21.6
-11 6 12 114.89 26.2
-10 6 12 81.29 13.8
-10 6 12 55.69 19.6
-10 6 12 79.59 17.7
9 -6 -12 236.78 24.3
-9 6 12 195.58 35.2
-9 6 12 270.27 22.1
-9 6 12 222.48 27.2
8 -6 -12 223.18 38.8
-8 6 12 255.87 29.4
-8 6 12 182.48 32.1
-8 6 12 272.47 21.4
7 -6 -12 249.78 23.7
-7 6 12 187.38 25.7
-7 6 12 190.28 31.7
-7 6 12 193.88 17.2
6 -6 -12 136.69 16.5
-6 6 12 139.49 25
-6 6 12 119.29 21.7
-6 6 12 107.79 11.4
5 -6 -12 0.4 3.6
-5 6 12 -3.4 7.2
-5 6 12 6.4 6.6
-5 6 12 -2.6 2.6
4 -6 -12 116.09 15.8
-4 6 12 82.49 18.9
-4 6 12 125.19 22.6
-4 6 12 117.59 11.3
3 -6 -12 117.19 10.6
3 -6 -12 111.59 15.3
-3 6 12 100.89 19.6
-3 6 12 118.19 12
-3 6 12 112.99 19.8
2 -6 -12 903.81 66.39
2 -6 -12 838.22 56.59
-2 6 12 899.31 68.49
-2 6 12 1035.9 59.59
-2 6 12 939.71 67.99
1 -6 -12 1620.94 94.79
1 -6 -12 1425.86 102.79
-1 6 12 1670.23 96.79
-1 6 12 1595.64 104.29
-1 6 12 1512.75 105.79
0 -6 -12 1360.76 94.49
0 -6 -12 1352.16 85.79
0 6 12 1497.85 88.49
0 6 12 1433.46 93.79
0 6 12 1353.56 96.59
-1 -6 -12 735.43 51.29
-1 -6 -12 690.83 79.89
1 6 12 824.22 54.19
1 6 12 797.92 61.09
1 6 12 766.12 56.39
-2 -6 -12 93.69 18
-2 -6 -12 74.29 12.8
2 6 12 119.69 15
2 6 12 77.29 13.5
2 6 12 67.29 16.6
-3 -6 -12 27.3 7.9
-3 -6 -12 9.6 9.4
3 6 12 9.6 6
3 6 12 16.8 7.3
3 6 12 28.1 11.5
-4 -6 -12 143.49 18.6
-4 -6 -12 193.48 22.9
4 6 12 168.28 16.2
4 6 12 164.28 22.8
4 6 12 167.18 18.4
-5 -6 -12 243.58 26.8
-5 -6 -12 227.68 25.2
5 6 12 237.48 21.7
5 6 12 221.08 19.4
5 6 12 182.38 25.5
-6 -6 -12 296.17 29.8
-6 -6 -12 412.56 69.39
6 6 12 312.57 24.3
6 6 12 274.37 31.2
6 6 12 280.57 23.2
-7 -6 -12 -3.9 8.2
7 6 12 7.7 4.2
7 6 12 17.6 10.5
7 6 12 3.6 3.8
-8 -6 -12 22.4 13
-11 7 12 44.7 15.4
-11 7 12 45.1 19.2
-10 7 12 98.49 25.1
-10 7 12 107.99 20.7
-10 7 12 116.09 15.3
9 -7 -12 210.68 20.4
-9 7 12 142.79 16.6
-9 7 12 135.89 29.5
-9 7 12 142.69 24.3
8 -7 -12 -0.5 6
-8 7 12 18.1 9.8
-8 7 12 7.4 10.1
-8 7 12 11.1 5.8
7 -7 -12 55.29 13.3
-7 7 12 81.09 11.3
-7 7 12 63.09 16.3
-7 7 12 49.99 16.9
6 -7 -12 7.3 7.8
-6 7 12 10.5 4.2
-6 7 12 4.3 7.3
-6 7 12 -9.4 6.5
-5 7 12 -3.2 6.1
-5 7 12 13.8 5.1
-5 7 12 3.9 5.2
4 -7 -12 246.08 19.7
-4 7 12 281.37 31.2
-4 7 12 219.58 27.2
-4 7 12 277.67 21.3
3 -7 -12 206.98 16.9
-3 7 12 231.78 19.2
-3 7 12 222.18 26.4
-3 7 12 196.68 25.5
2 -7 -12 9.6 8.4
2 -7 -12 8.1 3.7
-2 7 12 0.5 4.2
-2 7 12 10.8 6.6
1 -7 -12 143.69 14.1
1 -7 -12 138.09 19
-1 7 12 152.18 15.6
-1 7 12 157.68 21.7
-1 7 12 142.19 19.5
0 -7 -12 2227.58 134.79
0 -7 -12 2263.47 144.29
0 7 12 2280.37 147.29
0 7 12 2377.46 137.49
0 7 12 2124.49 141.89
-1 -7 -12 147.79 16
-1 -7 -12 151.98 21
1 7 12 140.19 18.5
1 7 12 133.59 24
1 7 12 168.58 17.9
-2 -7 -12 460.35 42.7
-2 -7 -12 457.95 36.6
2 7 12 456.05 38.7
2 7 12 517.45 39.1
2 7 12 523.25 45.5
-3 -7 -12 5.8 5.5
-3 -7 -12 17 8.9
3 7 12 11.2 6.4
3 7 12 -10.9 6.9
3 7 12 13.8 8.4
-4 -7 -12 265.87 27.2
-4 -7 -12 336.57 39.1
4 7 12 258.67 31
4 7 12 294.87 25.8
4 7 12 276.87 22.8
-5 -7 -12 237.58 26.6
5 7 12 252.57 22.2
5 7 12 243.58 28.8
5 7 12 220.98 19.7
-6 -7 -12 22.6 7.7
6 7 12 18.7 5.5
6 7 12 15.5 6.1
6 7 12 14.9 10.3
-7 -7 -12 28.2 11.8
7 7 12 45.6 14.4
-11 8 12 7.6 8.7
-11 8 12 -1.7 13.5
10 -8 -12 144.19 19.2
-10 8 12 128.29 16.1
-10 8 12 108.99 24.7
-10 8 12 116.99 22.9
9 -8 -12 258.37 25.3
-9 8 12 256.17 26.4
-9 8 12 201.48 35.5
-9 8 12 229.68 28.8
8 -8 -12 275.37 27.4
-8 8 12 256.47 35.9
-8 8 12 296.37 33.2
-8 8 12 352.96 26.2
7 -8 -12 335.57 29.8
-7 8 12 304.47 37.2
-7 8 12 298.57 33.5
-7 8 12 307.77 24.9
6 -8 -12 16.4 9
-6 8 12 11.8 9.9
-6 8 12 26.4 14.4
-6 8 12 37.2 7.7
5 -8 -12 107.99 18.5
-5 8 12 166.48 27.5
-5 8 12 134.59 13.5
-5 8 12 96.19 19.9
4 -8 -12 78.19 15.1
4 -8 -12 62.19 10.1
-4 8 12 98.19 11.2
-4 8 12 70.99 17.5
-4 8 12 65.99 16.5
3 -8 -12 315.87 32.3
3 -8 -12 332.07 25.4
-3 8 12 398.96 28.2
-3 8 12 335.27 35.7
-3 8 12 340.37 35.1
2 -8 -12 855.81 57.49
2 -8 -12 862.01 66.29
-2 8 12 897.71 68.39
-2 8 12 954.4 60.49
-2 8 12 986 71.39
1 -8 -12 299.17 25.5
1 -8 -12 365.56 33.8
-1 8 12 335.77 35.2
-1 8 12 331.17 27.9
-1 8 12 338.47 33.1
0 -8 -12 40.9 13.2
0 -8 -12 46.7 9.9
0 8 12 51.39 13.3
0 8 12 60.99 15.5
0 8 12 60.79 11.5
-1 -8 -12 158.48 17.8
-1 -8 -12 157.38 25.7
1 8 12 210.18 20.3
1 8 12 170.58 20.7
1 8 12 203.58 26.1
-2 -8 -12 149.49 18.1
-2 -8 -12 154.08 22.4
2 8 12 225.48 27.4
2 8 12 160.08 20
2 8 12 184.38 20.5
-3 -8 -12 388.36 33.6
3 8 12 366.96 38.8
3 8 12 396.86 35.6
3 8 12 402.96 33.7
-4 -8 -12 177.48 20.9
4 8 12 175.28 16.6
4 8 12 157.38 18.1
-5 -8 -12 72.29 15.6
5 8 12 61.09 16.8
5 8 12 71.29 11.8
-6 -8 -12 27.4 12
6 8 12 41.6 14.9
6 8 12 45.5 7.2
6 8 12 44.3 7.2
-7 -8 -12 21.7 10.6
7 8 12 6.7 12.5
-11 9 12 135.89 29.6
-11 9 12 140.29 24.1
10 -9 -12 49.99 12.8
-10 9 12 94.59 24.3
-10 9 12 69.49 16.9
9 -9 -12 238.78 25.3
-9 9 12 278.77 23.7
-9 9 12 209.48 38
-9 9 12 226.18 30.6
8 -9 -12 150.68 19.2
-8 9 12 150.28 16.4
-8 9 12 139.09 26.4
-8 9 12 113.99 25.7
7 -9 -12 216.38 23.5
-7 9 12 228.38 31.3
-7 9 12 199.98 28
-7 9 12 239.58 20.7
6 -9 -12 130.19 18.1
-6 9 12 105.19 23.2
-6 9 12 91.19 20.9
-6 9 12 148.69 15.3
5 -9 -12 -3.2 6.4
-5 9 12 4.6 4.4
-5 9 12 10.8 10.9
-5 9 12 7.1 7.8
4 -9 -12 287.37 23
4 -9 -12 284.27 29.9
-4 9 12 282.27 32.8
-4 9 12 272.97 32.6
-4 9 12 309.17 24.8
3 -9 -12 265.37 28.5
3 -9 -12 285.97 22
-3 9 12 233.78 30.6
-3 9 12 273.27 24
-3 9 12 274.07 31.8
2 -9 -12 101.89 19.2
2 -9 -12 118.59 12.9
-2 9 12 130.69 14.8
-2 9 12 103.99 21.2
-2 9 12 115.29 22.3
1 -9 -12 23.5 10.2
1 -9 -12 23.3 7.3
-1 9 12 42.2 10.5
-1 9 12 35.3 12.1
-1 9 12 26.4 12.2
0 -9 -12 605.04 44.8
0 -9 -12 591.54 52.69
0 9 12 626.64 55.39
0 9 12 654.03 51.99
0 9 12 723.63 48.9
-1 -9 -12 114.99 14.8
1 9 12 125.09 20.8
1 9 12 160.98 33.6
1 9 12 131.79 24.4
-2 -9 -12 559.24 43.3
2 9 12 567.04 59.49
2 9 12 597.34 46.6
2 9 12 579.74 45.9
-3 -9 -12 154.58 25.8
3 9 12 185.08 26
3 9 12 178.98 20.5
-4 -9 -12 418.26 37.1
4 9 12 444.46 34.6
4 9 12 389.76 42
4 9 12 424.56 31
-5 -9 -12 -2.8 6.2
5 9 12 1.9 5.5
5 9 12 2 4.5
5 9 12 -3.5 7.9
-6 -9 -12 44.6 13.9
6 9 12 27.8 13.3
10 -10 -12 88.99 16.7
-10 10 12 110.49 21.7
-10 10 12 84.89 24.3
9 -10 -12 49.3 13.9
-9 10 12 97.79 14.2
-9 10 12 60.39 16
-9 10 12 50.19 19
8 -10 -12 181.68 22.5
-8 10 12 189.28 33.8
-8 10 12 204.38 28.1
7 -10 -12 563.04 45.4
-7 10 12 522.25 50.49
-7 10 12 634.64 41.5
-7 10 12 454.65 51.89
6 -10 -12 145.49 21
-6 10 12 159.28 28.2
-6 10 12 171.48 30.8
-6 10 12 204.48 18.5
5 -10 -12 2.3 8.2
-5 10 12 4.7 7.9
-5 10 12 13.8 9.7
-5 10 12 2.6 5.9
4 -10 -12 7.3 4.7
4 -10 -12 0.9 8.3
-4 10 12 7.5 8
-4 10 12 8.1 4.8
-4 10 12 24.1 11.4
3 -10 -12 1047.2 80.89
3 -10 -12 1064.99 69.49
-3 10 12 1102.89 82.29
-3 10 12 1190.88 72.79
-3 10 12 1057.99 82.89
2 -10 -12 257.27 22.1
-2 10 12 278.47 24.5
-2 10 12 257.07 30.5
-2 10 12 217.28 30.5
1 -10 -12 -3.6 4
-1 10 12 -0.6 8.1
-1 10 12 -12.6 4.6
-1 10 12 -1.3 7.3
0 -10 -12 483.25 38.3
0 10 12 581.84 59.09
0 10 12 509.35 41.6
0 10 12 539.75 45.1
-1 -10 -12 5 5.1
1 10 12 -9.5 6.6
1 10 12 9 7.5
1 10 12 3.3 6.9
-2 -10 -12 46.4 11
2 10 12 48.7 11.4
2 10 12 34 15.4
-3 -10 -12 423.76 36.9
3 10 12 451.75 45.4
3 10 12 460.25 37.3
-4 -10 -12 0.7 6.3
4 10 12 5.6 8.2
4 10 12 -2 4.2
4 10 12 2.9 7
-5 -10 -12 175.48 22.5
5 10 12 159.88 13.9
5 10 12 109.69 23.6
5 10 12 132.29 14.7
-6 -10 -12 2.1 8.3
6 10 12 15.2 11.7
-10 11 12 35.6 14.4
-10 11 12 5.6 14.1
-9 11 12 118.19 28
-9 11 12 163.88 24.2
-9 11 12 144.59 26.3
-8 11 12 91.49 22.2
-8 11 12 141.99 16.2
-8 11 12 117.89 26.8
-7 11 12 144.69 16.6
-7 11 12 99.89 24.1
-7 11 12 84.29 23
-6 11 12 301.67 37.3
-6 11 12 362.46 29.9
-6 11 12 425.46 44.7
5 -11 -12 214.78 20.4
-5 11 12 181.28 31.3
-5 11 12 220.48 35
-5 11 12 224.68 22.3
4 -11 -12 743.53 53.29
-4 11 12 674.53 65.09
-4 11 12 870.51 79.79
-4 11 12 931.61 56.79
3 -11 -12 3.9 5
-3 11 12 8.3 6.4
-3 11 12 13.7 13.7
-3 11 12 0.8 8.6
2 -11 -12 1009.4 65.49
-2 11 12 1110.09 69.49
-2 11 12 818.02 86.39
-2 11 12 962.7 75.79
1 -11 -12 115.59 14.7
-1 11 12 109.89 21.9
-1 11 12 85.69 19.7
-1 11 12 111.29 22.7
0 -11 -12 2.1 5.5
0 11 12 3.5 8.2
0 11 12 -8.2 6
0 11 12 -10.6 5.8
-1 -11 -12 489.55 39.8
1 11 12 519.25 43.2
1 11 12 492.35 43.2
1 11 12 524.05 49.99
-2 -11 -12 26 9.3
2 11 12 28.1 11.7
2 11 12 37.6 11.6
-3 -11 -12 131.19 20.8
3 11 12 102.49 17.5
3 11 12 154.78 27.8
-4 -11 -12 109.29 19.7
4 11 12 136.39 37.7
4 11 12 127.29 13.4
4 11 12 86.89 21.5
-5 -11 -12 -0.3 6.8
5 11 12 -4.6 9.7
5 11 12 7.6 4.7
5 11 12 6.8 5.1
-10 12 12 19 13.4
-10 12 12 -20.6 13.2
-9 12 12 27.4 14.6
-9 12 12 14.6 11.9
-8 12 12 98.99 23
-8 12 12 91.89 21.5
-8 12 12 110.59 16.1
-7 12 12 -4.5 5.8
-7 12 12 -7.3 8.6
-7 12 12 0.4 8.5
-6 12 12 257.07 31
-6 12 12 199.08 33.8
-6 12 12 222.68 36.5
5 -12 -12 612.44 43.4
-5 12 12 503.25 53.09
-5 12 12 597.04 44.1
-5 12 12 633.04 56.89
4 -12 -12 110.99 13.1
-4 12 12 70.19 18.7
-4 12 12 126.89 25.5
-4 12 12 92.09 16.1
3 -12 -12 1722.83 103.29
-3 12 12 1394.56 114.89
-3 12 12 1745.23 108.09
-3 12 12 1726.23 117.59
2 -12 -12 31.8 9.2
-2 12 12 56.49 13.1
-2 12 12 31.7 13.6
-2 12 12 26.8 10.9
1 -12 -12 78.69 13.5
-1 12 12 71.29 19.1
-1 12 12 76.49 15.6
-1 12 12 87.89 18.6
0 -12 -12 275.07 27.5
0 12 12 346.77 39
0 12 12 313.87 32.9
0 12 12 318.17 30.4
-1 -12 -12 431.26 42.7
1 12 12 490.25 48.9
1 12 12 471.65 42.1
-2 -12 -12 160.08 19.8
2 12 12 155.38 28.7
2 12 12 125.59 20.3
-3 -12 -12 5.7 5.5
3 12 12 46 15.3
3 12 12 18.7 8.7
-4 -12 -12 116.09 20.1
4 12 12 108.79 12.7
4 12 12 117.99 25
-5 -12 -12 66.59 14.5
5 12 12 55.29 7.3
5 12 12 45.2 19.4
-9 13 12 -9.7 9.9
-9 13 12 -20.9 7.4
-8 13 12 41.3 14.4
-8 13 12 5.3 10.4
-7 13 12 207.18 21
-7 13 12 178.18 32.2
-7 13 12 146.99 31
-6 13 12 -11.3 8.2
-6 13 12 8.4 6.1
-6 13 12 -0.4 10.4
5 -13 -12 89.79 14.2
-5 13 12 127.99 18.1
-5 13 12 126.19 25.7
-5 13 12 56.39 18.6
4 -13 -12 305.57 26.2
-4 13 12 291.37 36.3
-4 13 12 233.48 34.5
-4 13 12 310.87 28.7
3 -13 -12 283.17 26
-3 13 12 370.16 30.1
-3 13 12 202.08 36
-3 13 12 339.37 37.7
2 -13 -12 111.39 17.1
-2 13 12 105.29 22.6
-2 13 12 153.08 19.1
-2 13 12 108.29 24.4
1 -13 -12 30 9.2
-1 13 12 33.9 14.6
-1 13 12 15.7 9.5
-1 13 12 56.49 17.1
0 -13 -12 578.84 51.19
0 13 12 624.64 51.69
0 13 12 565.84 56.49
-1 -13 -12 409.96 36.6
1 13 12 442.96 40.4
1 13 12 451.25 47.6
-2 -13 -12 81.99 17
2 13 12 75.39 21.1
2 13 12 79.89 16.6
-3 -13 -12 314.77 30.9
3 13 12 273.37 36.4
3 13 12 290.77 28.3
-4 -13 -12 1.9 7.7
4 13 12 -6 7.7
4 13 12 2 6
-9 14 12 73.59 19.7
-9 14 12 72.19 23.2
-8 14 12 33 13.3
-8 14 12 25.7 18
-7 14 12 57.89 18.3
-7 14 12 118.69 25.7
-6 14 12 279.77 49.3
-6 14 12 298.07 36.8
-6 14 12 227.28 32.8
5 -14 -12 -0.3 4.8
-5 14 12 14.2 7.9
-5 14 12 18.1 11.4
-5 14 12 -6.3 8.9
4 -14 -12 349.07 29
-4 14 12 347.87 39.6
-4 14 12 339.07 30.5
-4 14 12 249.58 36.1
3 -14 -12 422.76 33.4
-3 14 12 305.47 40.6
-3 14 12 428.76 42.5
-3 14 12 411.36 43
2 -14 -12 63.39 12.9
-2 14 12 52.49 17.9
-2 14 12 41.4 14.5
1 -14 -12 643.14 45.8
-1 14 12 514.45 54.39
-1 14 12 555.34 51.89
0 -14 -12 12.7 8.4
0 14 12 1.4 8.8
0 14 12 14 9.9
-1 -14 -12 374.06 33.8
1 14 12 345.07 35.8
1 14 12 332.27 42.7
-2 -14 -12 90.49 17
2 14 12 99.09 17.3
2 14 12 76.29 21.2
-3 -14 -12 4.7 8.3
3 14 12 10.7 8.5
3 14 12 -13.8 11.4
-9 15 12 -6.9 11.8
-8 15 12 277.07 36.9
-8 15 12 323.07 74.49
-7 15 12 0.7 10.2
-7 15 12 3.5 14.3
-6 15 12 3.1 11
-6 15 12 12 9.8
5 -15 -12 152.78 32.7
-5 15 12 150.48 29.9
-5 15 12 236.28 37.1
4 -15 -12 143.69 22.7
-4 15 12 106.89 25.2
-4 15 12 152.38 29.9
3 -15 -12 47.6 11.4
-3 15 12 18.1 12.1
-3 15 12 50.39 17.1
2 -15 -12 354.36 31
-2 15 12 269.17 37
-2 15 12 362.16 39.7
1 -15 -12 0.4 7.4
-1 15 12 19.7 11.5
-1 15 12 9.9 8.9
0 -15 -12 379.66 35
0 15 12 378.96 45.5
0 15 12 376.86 39.1
-1 -15 -12 0.3 7.8
1 15 12 15.2 10.8
1 15 12 6.2 7.3
-2 -15 -12 176.98 22
2 15 12 127.49 28.2
2 15 12 191.78 24
-3 -15 -12 215.88 27.4
-8 16 12 -5.6 11.4
-8 16 12 -4.4 11.1
-7 16 12 107.39 25.6
-7 16 12 51.99 18.1
-6 16 12 46.1 19.3
-6 16 12 52.49 16.5
5 -16 -12 51.09 11.5
-5 16 12 50.59 18.3
-5 16 12 64.09 22.1
4 -16 -12 31.4 9.5
-4 16 12 67.89 19.9
-4 16 12 23.9 11.5
3 -16 -12 94.19 16.2
-3 16 12 103.89 24.3
-3 16 12 44.4 18.6
2 -16 -12 50.89 11.9
-2 16 12 53.59 19.3
-2 16 12 12.9 12.9
1 -16 -12 194.58 22.7
-1 16 12 126.79 29.2
-1 16 12 164.48 30
0 -16 -12 1.4 7
0 16 12 31.8 24.5
0 16 12 -10.2 10.4
-1 -16 -12 127.69 22
1 16 12 139.29 24.1
1 16 12 159.18 53.29
-2 -16 -12 4.6 6.4
2 16 12 21.4 11.3
2 16 12 21.1 12.5
-7 17 12 -3.5 11.4
-7 17 12 -1.8 8.5
6 -17 -12 65.99 15.1
-6 17 12 93.79 24
-6 17 12 122.99 28.7
5 -17 -12 42.5 12.1
-5 17 12 51.09 18.9
-5 17 12 21.8 12.2
4 -17 -12 13 7.6
-4 17 12 15.7 11.5
-4 17 12 13.4 14.5
3 -17 -12 60.99 13.4
-3 17 12 45.9 18.7
-3 17 12 68.99 20.3
2 -17 -12 -0.8 8.9
-2 17 12 43.1 16.3
-2 17 12 4.7 13.9
1 -17 -12 128.69 21.2
-1 17 12 115.99 27.2
-1 17 12 170.88 28.3
0 -17 -12 28.7 10.2
0 17 12 -12.1 10.1
0 17 12 17.3 12.4
6 -18 -12 5.9 8.8
-6 18 12 30.7 15.9
-6 18 12 24.3 14.5
5 -18 -12 127.69 20.5
-5 18 12 118.29 27.7
-5 18 12 132.49 29.5
-4 18 12 -19.5 9.4
-4 18 12 -5.9 13
3 -18 -12 6.5 8
-3 18 12 8.2 15.2
-3 18 12 -3.7 11.5
2 -18 -12 18.3 9.5
-2 18 12 26.7 14.7
-2 18 12 50.29 17.8
1 -18 -12 7.3 8.8
-1 18 12 15.6 11.1
-1 18 12 5.2 14.3
1 -22 13 132.39 23.1
-2 22 -13 106.59 19.9
2 -22 13 82.19 18.7
-3 22 -13 57.99 16
-4 22 -13 23.6 12.2
-1 -21 13 83.19 16.9
0 -21 13 91.69 18.9
1 -21 13 5.6 8.3
-2 21 -13 137.19 23.2
2 -21 13 111.59 21.9
-3 21 -13 126.79 22.6
-4 21 -13 -0.1 5.6
-5 21 -13 89.29 21.3
-6 21 -13 7.1 9.9
-2 -20 13 107.69 19.7
-1 -20 13 55.69 15.4
0 -20 13 186.48 24.2
-1 20 -13 245.18 25.7
1 -20 13 172.68 23.9
-2 20 -13 36.3 11.9
2 -20 13 35 13.6
-3 20 -13 190.78 24.7
-4 20 -13 140.89 24.6
-5 20 -13 26.9 11.5
-6 20 -13 62.29 17.3
6 -20 13 90.99 18.2
-3 -19 13 150.88 23.2
-2 -19 13 14.4 9.9
-1 -19 13 225.78 26.3
0 -19 13 162.68 21.7
-1 19 -13 -7.4 4.2
1 -19 13 8.1 7.4
-2 19 -13 475.15 41.3
2 -19 13 389.76 38.5
-3 19 -13 68.89 16.5
-4 19 -13 248.98 29.2
-5 19 -13 72.19 17.3
5 -19 13 39.9 13.4
-6 19 -13 33.7 12.5
6 -19 13 37.8 12.8
-7 19 -13 343.37 38.8
7 -19 13 401.96 35.8
-4 -18 13 166.18 25.4
-3 -18 13 117.59 20.2
-2 -18 13 338.97 32.2
-1 -18 13 57.49 14.7
0 -18 13 374.46 35.8
-1 18 -13 119.49 19.6
1 -18 13 99.39 18.9
-2 18 -13 51.19 14.7
-3 18 -13 359.26 35.1
-4 18 -13 6.1 8.2
-5 18 -13 85.79 18.9
5 -18 13 66.89 23.7
-6 18 -13 104.29 20.5
6 -18 13 134.79 38.4
6 -18 13 95.59 18.1
-7 18 -13 -11.4 7.8
7 -18 13 -11.8 11.1
7 -18 13 8.5 7.7
-8 18 -13 245.28 33.5
8 -18 13 355.76 30
8 -18 13 329.47 57.29
-5 -17 13 39.4 12.7
-5 -17 13 65.09 15.5
-4 -17 13 123.79 36.6
-4 -17 13 97.39 17.7
-3 -17 13 155.28 22.6
-2 -17 13 261.37 26.7
1 17 -13 220.68 39.8
-1 -17 13 214.68 24.5
0 17 -13 17 8.2
0 -17 13 30.2 9.6
-1 17 -13 89.89 17.7
1 -17 13 74.49 15.2
-2 17 -13 517.75 44.4
-3 17 -13 230.68 26.7
-4 17 -13 200.38 26.5
4 -17 13 244.18 26.4
-5 17 -13 -11.7 6.2
5 -17 13 7.8 7.1
-6 17 -13 118.29 22.5
6 -17 13 118.09 20
-7 17 -13 108.09 21.6
7 -17 13 114.69 21.5
7 -17 13 158.78 18.7
-8 17 -13 20.8 9.2
8 -17 13 8.9 8.2
8 -17 13 33.1 13
-6 -16 13 10.8 12
-6 -16 13 38.6 12
-5 -16 13 189.98 22.1
-5 -16 13 169.18 23.4
-4 -16 13 59.59 13.4
-4 -16 13 53.79 20.3
3 16 -13 200.98 27
-3 -16 13 262.17 29.4
-3 -16 13 222.78 24.4
2 16 -13 333.27 28.2
-2 -16 13 268.57 27.4
1 16 -13 111.19 16
-1 -16 13 66.69 13.4
0 16 -13 655.03 45.5
0 -16 13 584.24 46.6
-1 16 -13 15 7.1
1 -16 13 4.7 7.5
-2 16 -13 26 9.9
-2 16 -13 6.3 6.1
-3 16 -13 988.4 70.59
-3 16 -13 931.31 66.19
-4 16 -13 355.36 36.2
4 -16 13 387.96 34.7
-5 16 -13 222.98 26.1
5 -16 13 196.88 22.7
-6 16 -13 45.6 13.2
6 -16 13 50.09 12
-7 16 -13 84.89 20.1
7 -16 13 125.89 20.6
7 -16 13 129.09 17
8 -16 13 235.68 25.3
8 -16 13 195.88 21
-9 16 -13 1.3 5.8
-6 -15 13 99.09 17.7
-6 -15 13 124.19 19.4
-5 -15 13 43.1 13.6
4 15 -13 262.77 26.3
-4 -15 13 236.08 25.1
-4 -15 13 245.88 28.5
3 15 -13 49.7 11
-3 -15 13 33.4 13.7
-3 -15 13 58.69 12.7
2 15 -13 141.49 16.5
-2 -15 13 124.49 18.5
-2 -15 13 113.29 21.1
1 15 -13 315.17 31.4
-1 -15 13 371.36 30.5
-1 -15 13 328.27 33.9
0 15 -13 40.3 8.8
0 -15 13 25.7 8.8
1 -15 13 289.47 26.8
-2 15 -13 660.03 48.1
-2 15 -13 707.03 53.19
-3 15 -13 1698.33 110.69
-3 15 -13 1592.04 104.59
3 -15 13 1734.23 110.39
-4 15 -13 499.65 40
-4 15 -13 438.66 42
4 -15 13 547.75 42.4
-5 15 -13 59.69 15.5
5 -15 13 43.4 11.9
-6 15 -13 178.48 25.3
6 -15 13 248.68 24
-7 15 -13 6.8 8.5
7 -15 13 8.6 6.2
-8 15 -13 51.29 15.4
8 -15 13 33.8 11.8
8 -15 13 42.3 9.9
-9 15 -13 32.4 13.8
9 -15 13 44.2 8.5
9 -15 13 40.5 18.9
-7 -14 13 -8.5 7.8
-7 -14 13 7 7
-7 -14 13 19.3 10.8
-6 -14 13 90.59 16.8
-6 -14 13 100.89 21.5
-6 -14 13 113.09 18.3
5 14 -13 48.5 12.3
-5 -14 13 62.69 13.4
-5 -14 13 100.09 17.3
4 14 -13 136.19 16.8
-4 -14 13 110.89 17.3
-4 -14 13 145.69 18.9
3 14 -13 322.77 29.4
-3 -14 13 414.36 31.9
-3 -14 13 339.07 33.1
2 14 -13 63.89 11.8
-2 -14 13 44.3 13.4
-2 -14 13 69.49 13.3
1 14 -13 250.67 20.9
-1 -14 13 199.78 21.2
-1 -14 13 204.88 24.2
0 14 -13 277.97 23.5
0 -14 13 260.47 29
0 -14 13 268.87 24.3
-1 14 -13 0.9 5
1 -14 13 8.4 7.7
1 -14 13 16.5 6.9
-2 14 -13 827.92 57.89
-2 14 -13 904.01 63.89
2 -14 13 881.61 63.99
-3 14 -13 1.8 5.6
-3 14 -13 14.6 6.7
3 -14 13 9.3 6.5
-4 14 -13 137.89 16.4
-4 14 -13 114.69 20.1
4 -14 13 134.19 17.3
-5 14 -13 375.56 36.8
5 -14 13 399.36 33.2
-6 14 -13 82.49 16.6
6 -14 13 91.09 15
-7 14 -13 427.56 42.4
7 -14 13 531.15 38.3
-8 14 -13 -7.7 5.4
8 -14 13 -12.2 7
8 -14 13 3.6 5.3
-9 14 -13 58.49 16
9 -14 13 74.49 11.4
9 -14 13 77.19 10.8
-7 -13 13 148.39 18.4
-7 -13 13 109.39 23.2
-7 -13 13 106.19 20.1
6 13 -13 3.9 9.4
-6 -13 13 -7.4 9.5
-6 -13 13 8.7 9.2
-6 -13 13 13.4 9.1
5 13 -13 451.15 36.7
-5 -13 13 484.15 37.9
-5 -13 13 449.76 38.6
4 13 -13 105.29 13.8
-4 -13 13 119.49 15
-4 -13 13 107.49 18.5
3 13 -13 286.57 24.8
-3 -13 13 274.97 25.4
-3 -13 13 291.77 28.7
2 13 -13 811.82 54.29
-2 -13 13 775.12 54.49
-2 -13 13 814.72 59.99
1 13 -13 132.99 14.4
-1 -13 13 149.69 18.6
-1 -13 13 118.19 14.6
0 13 -13 43.2 8.7
0 -13 13 41 12.4
0 -13 13 44.4 9.8
-1 13 -13 24.6 6.7
1 -13 13 25.3 8.5
1 -13 13 24 9.5
-2 13 -13 337.67 31.6
-2 13 -13 332.67 27.4
2 -13 13 342.87 34.1
2 -13 13 364.36 32.1
-3 13 -13 816.02 60.79
-3 13 -13 834.92 55.69
3 -13 13 814.22 59.09
-4 13 -13 10.2 8.5
-4 13 -13 3.5 5.6
4 -13 13 7.7 5.7
-5 13 -13 12.7 7.8
-5 13 -13 20.2 7.1
5 -13 13 8.7 6.2
-6 13 -13 190.78 24.6
6 -13 13 220.08 21.7
-7 13 -13 66.89 16.1
7 -13 13 71.49 11.9
-8 13 -13 145.89 24.8
8 -13 13 159.28 43.1
-9 13 -13 -8.9 8.1
9 -13 13 25.3 6.6
9 -13 13 14.9 5.2
-8 -12 13 47.1 12.1
-8 -12 13 19.3 12.1
-8 -12 13 50.29 11.3
-8 -12 13 27 10.6
-7 -12 13 2.7 6.3
-7 -12 13 -3.5 7.8
-7 -12 13 3.5 6.6
6 12 -13 135.39 16.8
-6 -12 13 93.19 27.3
-6 -12 13 70.69 18.4
-6 -12 13 103.99 17.1
5 12 -13 4.4 6.4
-5 -12 13 4.9 5.8
-5 -12 13 -8.5 5
4 12 -13 155.58 17.2
-4 -12 13 186.18 18.4
-4 -12 13 129.59 22.7
-4 -12 13 173.68 37.6
3 12 -13 257.87 21.9
-3 -12 13 212.48 21.7
-3 -12 13 291.57 32.3
2 12 -13 46.2 8.6
-2 -12 13 14.8 7.1
-2 -12 13 11.8 5.7
1 12 -13 91.19 10.6
-1 -12 13 73.09 11.6
-1 -12 13 83.39 16.1
-1 -12 13 108.59 18
0 12 -13 3.5 4
0 -12 13 -4.6 3
0 -12 13 8.9 6.9
0 -12 13 -2.1 3.7
-1 12 -13 603.34 41.2
1 -12 13 617.74 47.3
1 -12 13 567.44 47.6
-2 12 -13 973.7 63.09
2 -12 13 985.5 68.29
2 -12 13 975.5 71.59
-3 12 -13 4.4 5
-3 12 -13 8.2 5
3 -12 13 18.7 9
3 -12 13 -4.9 3.6
-4 12 -13 135.49 18.2
4 -12 13 134.99 16.5
-5 12 -13 334.17 28.5
-5 12 -13 339.27 32.4
5 -12 13 313.07 28
-6 12 -13 405.76 39.3
6 -12 13 475.85 35.8
-7 12 -13 132.59 23.5
7 -12 13 164.58 17.2
-8 12 -13 10.6 9.6
8 -12 13 12.6 6.2
-9 12 -13 129.19 25.4
9 -12 13 195.88 14.7
9 -12 13 181.88 14.8
-8 -11 13 26 8.9
-8 -11 13 18 8
-8 -11 13 11.2 9
-8 -11 13 14.6 10.5
-7 -11 13 23.1 9.2
-7 -11 13 31.5 9.5
-7 -11 13 40.5 13.1
6 11 -13 20 8
-6 -11 13 5.8 8.7
-6 -11 13 8.1 8.1
-6 -11 13 22 8.6
5 11 -13 1145.59 71.49
-5 -11 13 1090.19 73.49
-5 -11 13 959.7 77.39
-5 -11 13 1104.19 71.79
4 11 -13 101.89 12.2
-4 -11 13 103.59 16.6
-4 -11 13 93.49 12.5
-4 -11 13 79.49 17.5
3 11 -13 318.37 25.7
-3 -11 13 366.16 30.8
-3 -11 13 308.27 32
-3 -11 13 321.87 26.4
2 11 -13 44.1 8.6
-2 -11 13 43.4 10.8
-2 -11 13 34.2 11.5
-2 -11 13 50.39 9.3
1 11 -13 114.29 12.3
-1 -11 13 119.09 12.9
-1 -11 13 144.89 18.7
0 11 -13 1747.73 101.99
0 -11 13 1529.95 102.49
0 -11 13 1802.12 110.69
0 -11 13 1699.13 110.09
-1 11 -13 14.8 4.9
1 -11 13 12 6.6
1 -11 13 3.6 4.8
-2 11 -13 88.39 11
2 -11 13 98.89 18
2 -11 13 79.39 14.5
-3 11 -13 138.99 14.4
-3 11 -13 137.09 18.2
3 -11 13 130.39 18.4
3 -11 13 129.89 16.1
-4 11 -13 149.79 19.7
-4 11 -13 173.68 17.1
4 -11 13 163.78 17.9
4 -11 13 159.88 21.5
-5 11 -13 364.46 34
-5 11 -13 401.36 31.3
5 -11 13 356.56 30.3
-6 11 -13 -1.9 3.1
6 -11 13 -0.1 4.4
-7 11 -13 7.1 7.5
7 -11 13 19.8 7
-8 11 -13 394.96 40.3
8 -11 13 505.05 34.5
-9 11 -13 14.4 9.1
9 -11 13 -0.5 2.8
9 -11 13 -1.4 3.2
-10 11 -13 124.39 22.2
-8 -10 13 -10 7.7
-8 -10 13 14.3 7.2
-8 -10 13 -3 7.8
-8 -10 13 -5 8
-7 -10 13 83.19 18.7
-7 -10 13 85.59 16
-7 -10 13 124.89 16.3
-7 -10 13 90.39 16.1
6 10 -13 69.69 12.3
-6 -10 13 80.99 13.7
-6 -10 13 38.4 13
-6 -10 13 66.79 12.8
5 10 -13 22 7.4
-5 -10 13 21.7 8
-5 -10 13 32 8.3
-5 -10 13 13.6 6.9
4 10 -13 94.29 11.8
-4 -10 13 82.39 16.8
-4 -10 13 85.29 15.1
-4 -10 13 82.79 12.6
3 10 -13 69.29 9.1
-3 -10 13 57.59 13.9
-3 -10 13 59.39 12.2
2 10 -13 981.5 61.19
-2 -10 13 984.5 66.79
-2 -10 13 875.91 60.69
-2 -10 13 1061.89 70.69
1 10 -13 211.18 17.7
-1 -10 13 266.17 24
-1 -10 13 190.18 17.5
-1 -10 13 222.48 23.5
0 10 -13 15.6 4.9
0 -10 13 13.2 7.5
0 -10 13 20.8 8.2
-1 10 -13 707.13 44.2
1 -10 13 691.13 50.39
1 -10 13 508.55 68.19
-2 10 -13 59.49 9.3
2 -10 13 56.79 11.6
2 -10 13 60.79 13.9
-3 10 -13 2029.9 119.99
3 -10 13 1970.9 128.49
3 -10 13 1957.1 123.29
-4 10 -13 105.89 13.3
-4 10 -13 117.69 18.9
4 -10 13 111.99 14.4
4 -10 13 121.49 21.1
-5 10 -13 24.9 7.9
-5 10 -13 2 6.9
5 -10 13 25.8 10.2
5 -10 13 24.9 7
-6 10 -13 730.83 52.39
-6 10 -13 563.34 52.59
6 -10 13 705.83 48.2
-7 10 -13 23.5 9.7
7 -10 13 28.5 7.7
-8 10 -13 17.2 9.9
8 -10 13 38.6 8.1
-9 10 -13 56.29 15.6
-10 10 -13 -15 7.3
-9 -9 13 -1.6 8.2
-9 -9 13 23.4 11.1
-9 -9 13 5.8 6.4
-9 -9 13 16.6 15.2
-8 -9 13 47.6 11.2
-8 -9 13 70.09 17.2
-8 -9 13 23.3 11.7
-7 -9 13 25.7 8.5
-7 -9 13 27.3 10.5
-7 -9 13 38 10
-7 -9 13 18.3 9.3
-6 -9 13 60.69 15.4
-6 -9 13 52.79 12.4
-6 -9 13 75.69 12.3
5 9 -13 -1.3 4.3
-5 -9 13 3.4 4.7
-5 -9 13 -6.2 4.8
-5 -9 13 4.6 7
4 9 -13 129.39 13.3
-4 -9 13 135.09 15.7
-4 -9 13 106.59 18.8
-4 -9 13 126.79 16
3 9 -13 1105.59 85.69
-3 -9 13 1327.87 81.59
-3 -9 13 1306.57 85.39
-3 -9 13 1176.58 75.69
2 9 -13 66.89 8.3
-2 -9 13 57.89 11.6
-2 -9 13 64.39 8.2
-2 -9 13 61.09 13.5
1 9 -13 385.16 26.4
-1 -9 13 390.06 33.5
-1 -9 13 353.06 26.3
-1 -9 13 386.46 32.2
0 9 -13 323.77 24.2
0 -9 13 320.77 30.1
0 -9 13 363.46 30.3
-1 9 -13 307.37 21.2
1 -9 13 250.77 25.6
1 -9 13 235.38 24.3
-2 9 -13 927.51 59.09
2 -9 13 1092.59 87.19
2 -9 13 880.91 63.39
-3 9 -13 136.09 13.4
3 -9 13 99.29 14.1
3 -9 13 103.29 17.9
-4 9 -13 477.95 34.8
4 -9 13 445.56 35.3
4 -9 13 443.86 40
-5 9 -13 313.97 43
-5 9 -13 374.86 33.5
5 -9 13 362.46 30.4
5 -9 13 404.96 36.5
-6 9 -13 389.56 36.7
6 -9 13 439.56 33.7
6 -9 13 451.15 84.09
-7 9 -13 96.09 26.6
7 -9 13 117.99 36.2
-8 9 -13 1.1 7.6
8 -9 13 0.6 4.2
-9 9 -13 17.8 9.2
-10 9 -13 46.4 23.5
-9 -8 13 7.3 8.3
-9 -8 13 0.9 8.3
-9 -8 13 13.1 6.9
-9 -8 13 -15.4 6.1
-8 -8 13 -7.9 7.3
-8 -8 13 9 6.3
-8 -8 13 -2.5 6.8
-8 -8 13 -8.7 6.7
-7 -8 13 13.9 6.9
-7 -8 13 35.1 12.2
-7 -8 13 24.1 9.6
-7 -8 13 -3.1 6.5
-6 -8 13 -0.6 6.9
-6 -8 13 10.4 6.6
-6 -8 13 6.4 5.2
5 8 -13 26.7 6.7
-5 -8 13 41.5 10.1
-5 -8 13 36.9 9.5
-5 -8 13 21.9 9.5
4 8 -13 140.99 23.7
-4 -8 13 136.89 13.9
-4 -8 13 124.59 21.1
-4 -8 13 180.18 18
3 8 -13 153.98 13.7
-3 -8 13 179.18 18.3
-3 -8 13 164.68 20.3
-3 -8 13 155.68 14
2 8 -13 784.12 48.6
-2 -8 13 789.42 57.49
-2 -8 13 707.73 48.1
-2 -8 13 862.51 55.89
1 8 -13 2.2 2.9
-1 -8 13 2.8 4.2
-1 -8 13 1.3 3.2
0 8 -13 577.84 36.9
0 -8 13 581.44 43.8
0 -8 13 558.54 43.2
-1 8 -13 1866.11 115.59
1 -8 13 1919.91 120.39
1 -8 13 1947.91 119.59
-2 8 -13 683.53 44.9
2 -8 13 710.63 51.89
2 -8 13 687.13 49.4
-3 8 -13 1200.08 72.29
3 -8 13 1114.19 84.49
3 -8 13 1102.29 74.89
-4 8 -13 61.39 11.4
4 -8 13 58.49 11.1
4 -8 13 60.39 13.5
5 -8 13 343.37 34.1
5 -8 13 359.76 29.6
6 -8 13 88.89 14.3
6 -8 13 80.99 16.9
7 -8 13 65.39 11.5
8 -8 13 81.19 11.1
-9 8 -13 121.19 22.2
-10 8 -13 19.9 21.2
-9 -7 13 18.1 11.2
-9 -7 13 8.5 11.9
-9 -7 13 46.2 11.6
-8 -7 13 63.39 12.4
-8 -7 13 55.79 15
-8 -7 13 38.7 12.2
-7 -7 13 9.1 5.9
-7 -7 13 13 8
-7 -7 13 7.2 12
-6 -7 13 484.55 33.9
-6 -7 13 400.56 39.1
-5 -7 13 40.9 7.8
-5 -7 13 25.4 10
4 7 -13 1193.38 71.89
-4 -7 13 1177.38 72.09
-4 -7 13 1159.08 80.79
3 7 -13 26.7 5.3
-3 -7 13 37.8 10.7
-3 -7 13 24.3 5
-3 -7 13 27.8 8.7
2 7 -13 52.39 5.9
-2 -7 13 49.2 11
-2 -7 13 34.1 5.5
-2 -7 13 40.8 9.5
1 7 -13 2038.4 119.19
-1 -7 13 2091.89 127.19
-1 -7 13 2035.6 128.49
0 7 -13 11.7 3.5
0 -7 13 16.2 5.4
0 -7 13 9.3 4.7
-1 7 -13 506.05 31.9
1 -7 13 463.85 37.2
1 -7 13 459.25 37.4
-2 7 -13 554.94 37.2
2 -7 13 573.04 43.3
2 -7 13 549.05 41.5
-3 7 -13 77.89 9.9
3 -7 13 70.39 12.8
3 -7 13 75.49 14.3
4 -7 13 337.47 28.6
4 -7 13 360.06 55.29
5 -7 13 289.37 29.7
5 -7 13 333.97 27.6
6 -7 13 954.2 63.69
6 -7 13 933.01 69.69
7 -7 13 359.56 37.4
7 -7 13 409.26 31.2
8 -7 13 16.6 6.5
-9 7 -13 50.69 15.3
9 -7 13 42.1 5.4
-10 7 -13 -4.4 18.3
-10 -6 13 76.09 14.9
-10 -6 13 46.6 15.4
-10 -6 13 59.59 16.5
-9 -6 13 -2.7 7.4
-9 -6 13 14.4 6.9
-9 -6 13 18.2 9.5
-8 -6 13 138.49 15.9
-8 -6 13 97.19 18.9
-8 -6 13 104.19 21.1
-7 -6 13 81.29 16.2
-7 -6 13 87.49 17.5
-7 -6 13 68.39 11.7
-6 -6 13 22.9 7.3
-6 -6 13 23.6 10
-5 -6 13 125.39 17.8
-5 -6 13 137.59 13.1
-4 -6 13 36.5 10.6
-4 -6 13 32.4 6
3 6 -13 948.91 56.39
-3 -6 13 1035.5 67.69
-3 -6 13 878.11 55.99
2 6 -13 248.48 16.5
-2 -6 13 210.08 23.5
-2 -6 13 252.87 22.7
1 6 -13 41.4 5.1
-1 -6 13 47.1 11.7
-1 -6 13 46 10.2
0 6 -13 64.59 6.6
0 -6 13 60.19 11.6
0 -6 13 71.29 13.1
-1 6 -13 163.18 13.4
1 -6 13 164.48 17.9
1 -6 13 165.18 18.2
-2 6 -13 811.42 48.9
2 -6 13 739.93 53.69
2 -6 13 715.13 52.59
3 -6 13 711.13 52.09
3 -6 13 785.72 54.99
4 -6 13 248.58 24
4 -6 13 259.27 25.9
5 -6 13 516.85 38.1
5 -6 13 423.56 53.09
6 -6 13 20.2 8.5
6 -6 13 6.5 6.6
-7 6 -13 106.89 19
7 -6 13 130.39 22.3
7 -6 13 105.89 17.3
-8 6 -13 33.3 10.9
8 -6 13 52.39 9.6
8 -6 13 36.5 13.1
-9 6 -13 17.8 10.8
9 -6 13 12.9 4.1
-10 6 -13 20.8 13
-10 -5 13 90.59 19.6
-10 -5 13 66.39 17.5
-10 -5 13 80.69 16
-9 -5 13 206.48 22.9
-9 -5 13 201.58 26.8
-9 -5 13 237.98 27.4
-8 -5 13 -5.4 6.3
-8 -5 13 0.8 7.2
-8 -5 13 0.2 4.8
-7 -5 13 99.19 18.2
-7 -5 13 89.89 17.7
-7 -5 13 90.99 13.3
-6 -5 13 31.1 9.8
-6 -5 13 28.6 6.7
-5 -5 13 339.67 33.4
-5 -5 13 403.06 26.7
-4 -5 13 556.84 36
-4 -5 13 617.24 46.6
-3 -5 13 154.38 18.4
-3 -5 13 134.09 9.6
2 5 -13 3398.36 196.08
-2 -5 13 3531.55 208.08
1 5 -13 1.9 1.7
-1 -5 13 3.2 4.8
0 5 -13 431.96 26.6
0 -5 13 392.06 32.5
0 -5 13 428.66 34.5
-1 5 -13 890.71 52.79
1 -5 13 830.22 59.09
1 -5 13 851.81 58.89
-2 5 -13 388.66 31.7
2 -5 13 378.36 31.3
2 -5 13 377.16 31.4
-3 5 -13 1301.07 81.79
3 -5 13 1259.57 82.09
3 -5 13 1202.58 82.19
-4 5 -13 22.2 7.8
4 -5 13 29.2 9.3
4 -5 13 35.8 9.3
5 -5 13 20.1 7.3
5 -5 13 13.8 7.8
-6 5 -13 193.18 21.9
6 -5 13 161.98 29.9
6 -5 13 202.58 20.2
-7 5 -13 33.2 11.7
7 -5 13 21.3 11.4
-8 5 -13 203.08 25.5
8 -5 13 209.68 26.1
8 -5 13 186.88 19
-9 5 -13 92.09 19.6
9 -5 13 56.49 27.8
9 -5 13 85.59 9.7
-10 5 -13 24.6 11.6
-10 -4 13 114.19 20.7
-10 -4 13 109.49 18.2
-10 -4 13 109.29 21.8
-9 -4 13 39.1 13.7
-9 -4 13 61.79 12
-9 -4 13 32.2 15.7
-8 -4 13 294.57 32
-8 -4 13 368.76 28.6
-8 -4 13 302.17 32.4
-7 -4 13 13.7 8.8
-7 -4 13 13.3 5.6
-7 -4 13 17.3 8.4
-6 -4 13 415.26 28.3
-6 -4 13 345.97 34.7
-6 -4 13 394.76 35.6
-5 -4 13 41.1 6.5
-5 -4 13 33.1 10.9
-4 -4 13 164.08 11.8
-4 -4 13 181.58 20.4
-3 -4 13 338.57 30.4
-2 -4 13 829.82 58.79
1 4 -13 0.5 4.6
1 4 -13 3.7 1.3
-1 -4 13 -5.4 2.7
0 4 -13 93.49 12.8
0 4 -13 89.19 7.3
0 -4 13 79.29 13.5
0 -4 13 72.79 12.6
-1 4 -13 187.38 19.4
1 -4 13 202.28 20.6
1 -4 13 198.78 19.6
-2 4 -13 960.8 63.39
2 -4 13 895.61 63.59
2 -4 13 937.61 63.09
-3 4 -13 -1.2 4.1
3 -4 13 4.2 5.3
3 -4 13 1.7 3.4
-4 4 -13 278.87 25
-4 4 -13 249.08 23.8
4 -4 13 291.47 26.2
4 -4 13 289.87 26.5
-5 4 -13 263.77 24.7
-5 4 -13 246.58 23
5 -4 13 234.48 23.7
5 -4 13 254.37 25.7
-6 4 -13 66.79 12.2
-6 4 -13 123.69 18.8
6 -4 13 91.49 14.6
6 -4 13 125.59 19.8
-7 4 -13 291.97 29.7
7 -4 13 282.27 25.3
7 -4 13 278.77 30.4
-8 4 -13 133.49 21.5
8 -4 13 118.49 14.9
8 -4 13 142.89 22.4
-9 4 -13 149.88 24.9
9 -4 13 180.38 25.8
9 -4 13 175.68 15.9
-10 -3 13 96.69 17.1
-10 -3 13 70.09 18.9
-10 -3 13 73.99 22.5
-9 -3 13 17.7 8.5
-9 -3 13 19.4 11
-9 -3 13 20.2 10
-8 -3 13 104.59 19.3
-8 -3 13 104.99 13.5
-8 -3 13 96.49 19.9
-7 -3 13 41.7 12.9
-7 -3 13 63.89 14.6
-7 -3 13 61.49 10
-6 -3 13 1.1 6.1
-6 -3 13 9.1 4
-6 -3 13 3.5 6
-5 -3 13 1706.33 101.69
-5 -3 13 1789.22 113.39
-4 -3 13 129.59 8.4
-4 -3 13 131.99 17.4
-3 -3 13 503.65 40.3
2 3 -13 68.09 13.3
-2 -3 13 111.69 14.1
1 3 -13 211.88 21.8
-1 -3 13 235.28 22.7
0 3 -13 488.75 31.3
0 3 -13 508.05 30.9
0 3 -13 507.65 38.9
0 -3 13 522.05 39.8
-1 3 -13 576.34 42.9
-1 3 -13 568.94 37.1
1 -3 13 558.54 43.5
1 -3 13 594.84 42.2
-2 3 -13 228.28 22.3
-2 3 -13 248.88 19.7
2 -3 13 222.58 22.6
2 -3 13 231.18 21.7
-3 3 -13 672.13 45.8
-3 3 -13 671.43 47.8
3 -3 13 694.53 49.4
3 -3 13 621.54 47.2
-4 3 -13 20.2 7.4
-4 3 -13 24.9 7.7
4 -3 13 23.7 8
4 -3 13 20.5 7.7
-5 3 -13 228.88 22.4
-5 3 -13 215.08 21
5 -3 13 201.18 22.3
5 -3 13 213.68 22.2
-6 3 -13 385.76 33.5
6 -3 13 344.57 32.7
6 -3 13 375.66 31.6
-7 3 -13 40.6 8.7
-7 3 -13 59.19 13.7
7 -3 13 51.19 10.9
7 -3 13 55.89 13.1
-8 3 -13 318.87 32.1
-8 3 -13 294.57 24.9
8 -3 13 295.37 35.1
8 -3 13 399.06 75.89
-9 3 -13 14.8 11.3
9 -3 13 31 13.1
9 -3 13 20.8 7.6
-10 -2 13 67.89 16.1
-10 -2 13 31.3 15.3
-10 -2 13 76.79 14.5
-9 -2 13 105.79 20.5
-9 -2 13 134.59 16.4
-9 -2 13 134.29 23.6
-8 -2 13 146.49 16
-8 -2 13 153.48 25.3
-8 -2 13 152.38 21.5
-7 -2 13 49 13.3
-7 -2 13 49.9 13
-7 -2 13 44.6 8.6
-6 -2 13 1022.4 55.79
-6 -2 13 818.02 63.49
-6 -2 13 748.03 63.89
-5 -2 13 970 57.89
-5 -2 13 975.5 68.99
-4 -2 13 171.88 19.8
3 2 -13 1092.99 73.89
-3 -2 13 1121.09 75.49
2 2 -13 19.6 6.8
-2 -2 13 36.9 9.2
1 2 -13 2081.39 127.09
-1 -2 13 2014.5 127.79
0 2 -13 0.9 1.8
0 -2 13 2.5 4.2
-1 2 -13 1242.98 75.09
-1 2 -13 1198.68 81.09
1 -2 13 1299.87 82.89
-2 2 -13 891.71 56.79
-2 2 -13 929.81 61.49
2 -2 13 901.21 62.49
2 -2 13 838.72 59.29
-3 2 -13 504.35 36.3
-3 2 -13 517.65 38.9
3 -2 13 496.65 37.8
3 -2 13 472.25 39.1
-4 2 -13 1489.95 90.39
-4 2 -13 1340.27 88.09
4 -2 13 1377.26 90.69
4 -2 13 1332.37 89.09
-5 2 -13 266.27 24.4
-5 2 -13 264.67 24.6
5 -2 13 271.77 25.8
5 -2 13 240.38 25.3
-6 2 -13 -5.1 3.3
-6 2 -13 7.7 6
6 -2 13 12.2 6.7
6 -2 13 -9.2 6.4
-7 2 -13 116.49 15.8
-7 2 -13 145.79 22.5
7 -2 13 157.28 18.7
7 -2 13 154.98 18.1
-8 2 -13 -8 4.3
-8 2 -13 9.8 6.2
8 -2 13 -9.8 5.1
8 -2 13 -6.2 6.2
-9 2 -13 357.16 36.7
9 -2 13 343.47 38.3
9 -2 13 327.87 28.5
-11 -1 13 38.6 14.3
-11 -1 13 45.1 15.1
-10 -1 13 49.4 16.1
-10 -1 13 57.99 12.9
-10 -1 13 35.8 16.2
-9 -1 13 24.9 10.9
-9 -1 13 40.3 14
-9 -1 13 56.89 11.3
-8 -1 13 251.27 31.6
-8 -1 13 306.87 30.9
-8 -1 13 312.87 25.3
-7 -1 13 716.83 44.2
-7 -1 13 647.04 51.39
-7 -1 13 551.84 52.29
-6 -1 13 1235.58 93.19
-6 -1 13 1280.97 91.99
-6 -1 13 1542.15 82.99
-5 -1 13 1216.68 84.49
-5 -1 13 1238.48 70.09
-5 -1 13 1149.69 70.49
-5 -1 13 1231.18 82.99
4 1 -13 -3.1 3.1
-4 -1 13 -2.5 4.1
3 1 -13 1422.56 95.49
-3 -1 13 1574.64 98.49
2 1 -13 643.44 47.7
-2 -1 13 678.83 49.8
1 1 -13 1.6 4.7
-1 -1 13 13.1 6.3
0 1 -13 75.79 13.6
0 1 -13 72.39 6.9
0 -1 13 55.99 12.7
-1 1 -13 1008.4 67.69
-1 1 -13 1006.8 61.29
1 -1 13 969.9 68.59
-2 1 -13 69.69 12.6
-2 1 -13 48.3 8.6
2 -1 13 46.1 11.5
2 -1 13 46 10.1
-3 1 -13 1755.42 105.09
-3 1 -13 1581.34 100.49
3 -1 13 1621.14 105.49
3 -1 13 1589.64 101.99
-4 1 -13 159.18 17.6
-4 1 -13 147.99 18.5
4 -1 13 149.59 17.2
4 -1 13 159.38 19
-5 1 -13 607.14 42.8
-5 1 -13 513.35 41.5
5 -1 13 508.55 41.2
5 -1 13 535.35 42.5
-6 1 -13 109.69 18.6
-6 1 -13 132.99 16.6
6 -1 13 117.99 15.8
6 -1 13 126.59 17.5
-7 1 -13 488.25 39.8
-7 1 -13 374.96 33.7
7 -1 13 498.95 37.5
7 -1 13 432.86 37.1
-8 1 -13 300.87 29.8
-8 1 -13 202.28 21
8 -1 13 214.48 24.3
8 -1 13 197.88 22
-9 1 -13 60.89 11.1
-9 1 -13 61.59 17
9 -1 13 93.49 14.3
9 -1 13 84.99 16.8
-11 0 13 21.9 9.1
-11 0 13 10 11.9
-10 0 13 146.39 26
-10 0 13 178.78 19.8
-10 0 13 148.99 24.9
-9 0 13 263.37 24
-9 0 13 225.28 26.8
-8 0 13 22 9.9
-8 0 13 39.6 8.9
-8 0 13 51.59 14.4
-7 0 13 22.4 10.4
-7 0 13 15.2 8.2
-7 0 13 12.3 5.4
-6 0 13 725.13 57.39
-6 0 13 687.83 44.4
-6 0 13 649.14 54.29
-6 0 13 815.72 46.2
5 0 -13 509.65 38.7
-5 0 13 474.05 41.6
-5 0 13 479.65 40.7
-5 0 13 437.46 29.5
-5 0 13 512.45 29.2
4 0 -13 519.55 40.5
-4 0 13 526.65 42.9
3 0 -13 -0.4 3.5
-3 0 13 11.3 6.4
2 0 -13 228.58 22.8
-2 0 13 245.08 24.5
1 0 -13 1114.79 65.39
1 0 -13 1108.59 75.39
-1 0 13 1210.88 78.29
0 0 -13 330.17 28.8
0 0 -13 317.07 21.8
0 0 13 350.86 31.1
-1 0 -13 26.6 9.2
-1 0 -13 37.2 6.6
1 0 13 25.6 9.6
-2 0 -13 653.93 44.1
-2 0 -13 689.93 49.6
2 0 13 665.73 50.49
2 0 13 642.54 46.2
-3 0 -13 67.69 13.2
-3 0 -13 63.49 10.7
3 0 13 71.69 13.7
3 0 13 54.19 10.7
-4 0 -13 955.7 63.39
-4 0 -13 850.91 60.39
4 0 13 889.21 64.09
4 0 13 884.21 60.49
-5 0 -13 371.96 32.7
-5 0 -13 362.86 31.9
5 0 13 355.26 33.2
5 0 13 389.96 31.9
-6 0 -13 185.28 21.1
-6 0 -13 195.48 22
6 0 13 148.49 19.6
6 0 13 185.98 21.5
-7 0 -13 -1.1 6.9
-7 0 -13 2.8 6.1
7 0 13 -12.4 6.5
7 0 13 -10.1 5.4
-8 0 -13 76.99 13.9
-8 0 -13 129.29 22.3
8 0 13 81.99 16.5
8 0 13 80.89 14.7
-9 0 -13 11.7 7.7
-9 0 -13 0.9 9.2
9 0 13 2.8 9
-11 1 13 89.09 25
-11 1 13 135.39 24
-11 1 13 167.48 20.9
-10 1 13 38 15.2
-10 1 13 54.59 11.9
-10 1 13 49.1 15.4
-9 1 13 -4.6 4.4
-9 1 13 -5.2 8.4
-9 1 13 -9.9 4.6
-8 1 13 90.79 19.8
-8 1 13 110.99 20.1
-8 1 13 109.89 12.9
-8 1 13 96.79 11.3
-7 1 13 16.3 8.1
-7 1 13 -0.9 3.1
-7 1 13 26.7 11.8
-7 1 13 8.2 4.4
6 -1 -13 1179.48 74.89
-6 1 13 1061.59 79.49
-6 1 13 1010.6 76.69
-6 1 13 1036.4 65.09
-6 1 13 1173.48 66.79
5 -1 -13 801.62 55.59
-5 1 13 827.32 46.1
-5 1 13 701.73 46.2
-5 1 13 748.43 57.99
-5 1 13 802.02 60.29
4 -1 -13 375.46 31.3
-4 1 13 362.96 34.7
-4 1 13 372.56 33.6
3 -1 -13 1168.08 79.39
-3 1 13 1244.88 82.89
2 -1 -13 6.4 5.3
-2 1 13 0 2.9
1 -1 -13 456.45 28.6
1 -1 -13 468.95 37.8
-1 1 13 499.85 39.9
0 -1 -13 1962 120.69
0 -1 -13 1865.51 111.49
0 1 13 1913.11 122.19
-1 -1 -13 361.96 30.9
-1 -1 -13 336.87 24.6
1 1 13 320.37 31.1
-2 -1 -13 420.56 34.1
-2 -1 -13 360.46 28.7
2 1 13 394.96 34.4
-3 -1 -13 22.4 6.7
-3 -1 -13 30 9
3 1 13 19.3 6.3
3 1 13 34.5 10.1
-4 -1 -13 99.69 15.5
-4 -1 -13 88.49 16.8
4 1 13 86.59 13.9
4 1 13 92.09 16.8
-5 -1 -13 600.84 45.8
-5 -1 -13 658.73 47
5 1 13 557.94 46.8
5 1 13 556.04 43.2
-6 -1 -13 92.49 27.3
-6 -1 -13 85.69 15.9
6 1 13 54.69 14.5
6 1 13 96.99 14.9
-7 -1 -13 281.77 27.3
-7 -1 -13 343.87 32.5
7 1 13 268.07 28.6
7 1 13 319.27 28
-8 -1 -13 21.7 9.3
-8 -1 -13 -2.3 7.6
8 1 13 6.3 7.7
8 1 13 12.5 8.4
-9 -1 -13 34.6 10.7
9 1 13 69.69 12.9
-11 2 13 5.6 11
-11 2 13 -1.6 7.7
-11 2 13 -10.6 6.5
-10 2 13 70.19 17.2
-10 2 13 62.79 19
-10 2 13 47.4 18.1
-10 2 13 65.19 13.2
-9 2 13 166.28 29.6
-9 2 13 154.08 16.2
-9 2 13 180.48 19
-9 2 13 194.08 24.9
-8 2 13 56.79 14.3
-8 2 13 44.3 8.4
-8 2 13 42.3 15.3
-8 2 13 58.19 10.3
7 -2 -13 184.78 35.5
-7 2 13 179.18 15.8
-7 2 13 178.38 22.6
-7 2 13 138.79 15.1
-7 2 13 181.58 28.8
6 -2 -13 1145.79 72.29
-6 2 13 981.3 62.89
-6 2 13 1127.89 64.79
-6 2 13 1030.7 75.59
-6 2 13 970 76.59
5 -2 -13 208.58 20.7
-5 2 13 188.18 23
-5 2 13 180.88 13.9
-5 2 13 202.78 13.9
-5 2 13 169.28 22.9
4 -2 -13 533.15 40.1
-4 2 13 532.75 44
-4 2 13 480.05 30
-4 2 13 508.55 42.4
3 -2 -13 498.35 38.7
-3 2 13 531.15 42
-3 2 13 479.25 40.9
-3 2 13 439.96 27.4
2 -2 -13 1414.56 82.59
2 -2 -13 1440.86 93.79
-2 2 13 1469.45 96.39
1 -2 -13 27.6 8.6
1 -2 -13 24.7 4.2
-1 2 13 37 10.8
0 -2 -13 470.35 37.1
0 -2 -13 435.06 29.3
0 2 13 418.76 37.9
-1 -2 -13 35.7 10.2
-1 -2 -13 41.6 7.6
1 2 13 38.3 10.5
-2 -2 -13 8.6 6.1
-2 -2 -13 13.9 5
2 2 13 8.3 5.8
-3 -2 -13 243.58 24.8
-3 -2 -13 215.88 21.5
3 2 13 243.58 21.9
3 2 13 240.08 25.8
-4 -2 -13 17.2 7
-4 -2 -13 3.6 6.5
4 2 13 -10.9 4.5
4 2 13 -1.5 5.2
-5 -2 -13 7.2 6.5
-5 -2 -13 4.6 6.8
5 2 13 -1.8 5.8
5 2 13 6.8 7.3
-6 -2 -13 220.68 25.6
-6 -2 -13 321.47 29.6
6 2 13 254.37 28.1
6 2 13 279.47 24.9
-7 -2 -13 60.89 13.6
-7 -2 -13 78.19 14.8
7 2 13 42.6 11.3
7 2 13 71.89 14.8
-8 -2 -13 209.48 24.7
-8 -2 -13 140.79 21.4
8 2 13 158.78 19.2
8 2 13 186.38 22.1
-11 3 13 14 15.2
-11 3 13 28.9 9.9
-11 3 13 30.1 13.7
-10 3 13 -11.7 5.2
-10 3 13 -3.3 7.1
-10 3 13 -4.5 10.3
-10 3 13 -9.4 11.2
-9 3 13 248.58 20.8
-9 3 13 217.98 21.9
-9 3 13 225.08 30.1
-9 3 13 224.48 28.2
-8 3 13 328.37 26.5
-8 3 13 328.97 24.9
-8 3 13 338.47 33.8
-8 3 13 325.67 38.7
7 -3 -13 15.7 9.1
-7 3 13 21.4 5.7
-7 3 13 4.3 8.2
-7 3 13 17.9 10.1
-7 3 13 12.3 7.3
6 -3 -13 35.7 10.4
-6 3 13 48.5 14.3
-6 3 13 45.2 13.1
-6 3 13 46.2 5.9
5 -3 -13 97.49 13.8
-5 3 13 94.19 17.8
-5 3 13 104.89 20.4
-5 3 13 87.69 8.5
4 -3 -13 458.25 38.3
-4 3 13 424.76 40.5
-4 3 13 494.75 30.1
-4 3 13 534.05 43.6
3 -3 -13 510.35 39.9
-3 3 13 570.24 43.7
-3 3 13 437.96 30
-3 3 13 500.75 42.3
2 -3 -13 72.49 14.2
2 -3 -13 108.89 7.9
-2 3 13 98.49 17.5
-2 3 13 73.39 7.9
-2 3 13 108.99 18.4
1 -3 -13 800.92 45.6
1 -3 -13 760.82 54.89
-1 3 13 613.74 45.5
-1 3 13 804.92 57.79
0 -3 -13 199.38 22.4
0 -3 -13 185.28 15.8
0 3 13 199.88 23.2
0 3 13 211.18 17.4
-1 -3 -13 627.94 42.5
-1 -3 -13 647.64 49.5
1 3 13 627.44 50.69
-2 -3 -13 12 7.4
-2 -3 -13 13.2 5.1
2 3 13 7.3 7.6
-3 -3 -13 1.4 6.6
3 3 13 -7.1 5.2
3 3 13 9.8 5.6
-4 -3 -13 813.32 58.99
-4 -3 -13 874.51 62.99
4 3 13 848.62 63.99
4 3 13 862.01 57.09
-5 -3 -13 9.8 8.2
5 3 13 30.9 10.7
5 3 13 20.3 7.7
-6 -3 -13 97.29 19.2
-6 -3 -13 136.89 20.9
6 3 13 110.89 14.9
6 3 13 126.69 21.1
-7 -3 -13 51.89 13.2
-7 -3 -13 51.59 13.9
7 3 13 32.5 9.5
7 3 13 36.8 12.2
-8 -3 -13 71.99 17
-8 -3 -13 59.89 14.6
8 3 13 89.79 18
8 3 13 85.99 13.2
-11 4 13 28 10.5
-11 4 13 24.3 12.6
-11 4 13 46 16.1
-10 4 13 266.77 27.2
-10 4 13 281.67 26.6
-10 4 13 277.27 30.9
-10 4 13 288.87 37.9
-9 4 13 -0.6 4.4
-9 4 13 9.6 7.9
-9 4 13 5 4.9
-9 4 13 0.4 7.2
8 -4 -13 62.09 13.1
-8 4 13 67.79 10
-8 4 13 76.59 17.7
-8 4 13 76.59 19.8
7 -4 -13 31.4 9.3
-7 4 13 24.7 5.3
-7 4 13 43.4 14.5
-7 4 13 21.2 9.4
6 -4 -13 164.68 31
-6 4 13 188.18 24.4
-6 4 13 169.38 22.3
-6 4 13 145.89 13.3
5 -4 -13 1117.39 74.39
-5 4 13 1137.79 81.09
-5 4 13 1123.79 79.09
-5 4 13 1029.7 65.59
4 -4 -13 34.2 10.4
-4 4 13 31.5 5.3
-4 4 13 24.3 9
-4 4 13 35.4 11.4
3 -4 -13 255.37 25.6
-3 4 13 236.38 17.7
-3 4 13 265.87 28
-3 4 13 261.07 27.9
2 -4 -13 65.29 13.8
2 -4 -13 82.29 7.5
-2 4 13 93.19 17.5
-2 4 13 76.99 15.6
-2 4 13 68.39 8
1 -4 -13 235.08 17
1 -4 -13 215.28 23.4
-1 4 13 195.18 17.3
-1 4 13 225.28 24.8
-1 4 13 234.18 25.8
0 -4 -13 2084.29 134.59
0 -4 -13 2014.9 125.39
0 4 13 2254.37 131.09
0 4 13 2177.58 137.69
-1 -4 -13 436.06 31.7
-1 -4 -13 466.85 39.6
1 4 13 442.66 33.3
1 4 13 419.26 39.5
-2 -4 -13 1453.25 98.99
-2 -4 -13 1416.76 89.69
2 4 13 1430.56 98.39
-3 -4 -13 392.36 32.3
-3 -4 -13 380.86 42.3
3 4 13 422.96 38.2
-4 -4 -13 290.77 31.6
-4 -4 -13 307.27 28.6
4 4 13 330.17 26.4
4 4 13 336.37 33.2
-5 -4 -13 54.29 13.7
-5 -4 -13 98.69 17.7
5 4 13 63.59 15.1
5 4 13 66.19 11.6
-6 -4 -13 5 6.2
-6 -4 -13 13.3 9.8
6 4 13 2.5 5.5
6 4 13 -0.5 7.9
-7 -4 -13 6.1 9
-7 -4 -13 27.1 11.4
7 4 13 13.5 9.5
7 4 13 20.9 7.9
7 4 13 -4.3 27.2
-8 -4 -13 43.8 13.3
-8 -4 -13 12.1 10.1
8 4 13 31.2 8.1
8 4 13 48.2 13.8
8 4 13 36.3 7.7
-11 5 13 50.29 17.5
-11 5 13 52.49 12.4
-11 5 13 29.7 13.4
-10 5 13 11.6 13.2
-10 5 13 14.5 7.3
-10 5 13 -7.2 9.4
-10 5 13 20.3 8.3
9 -5 -13 398.76 31.8
-9 5 13 373.76 41.9
-9 5 13 278.67 25.4
-9 5 13 346.77 35.8
8 -5 -13 43.8 11.4
-8 5 13 49.9 13.8
-8 5 13 35.7 14.8
-8 5 13 55.19 8.6
7 -5 -13 54.29 11.3
-7 5 13 34.7 16.9
-7 5 13 21.4 10.1
-7 5 13 36.6 6.8
6 -5 -13 7.8 6.1
-6 5 13 15.8 9.7
-6 5 13 4.4 7.7
-6 5 13 5.8 4
5 -5 -13 -2.4 9.2
-5 5 13 -0.9 5.8
-5 5 13 0.4 3.6
-5 5 13 0.6 2.8
4 -5 -13 174.18 23.4
-4 5 13 239.68 26.7
-4 5 13 164.78 14.4
-4 5 13 182.38 23.6
3 -5 -13 2.4 2.7
3 -5 -13 0.8 3.1
-3 5 13 8.7 4.9
-3 5 13 6.3 5.5
-3 5 13 2 3.1
2 -5 -13 105.79 9.9
2 -5 -13 85.99 16.8
-2 5 13 125.69 20.7
-2 5 13 105.69 10.9
-2 5 13 116.09 20.5
1 -5 -13 529.55 49.6
1 -5 -13 537.35 35.3
-1 5 13 526.75 44.2
-1 5 13 581.04 47.2
-1 5 13 496.95 36.4
0 -5 -13 633.24 67.89
0 -5 -13 513.45 51.79
0 5 13 726.63 45.6
0 5 13 644.04 53.39
0 5 13 691.73 51.49
-1 -5 -13 900.01 67.89
-1 -5 -13 901.01 59.69
1 5 13 958.1 70.39
1 5 13 914.71 65.59
1 5 13 942.71 61.79
-2 -5 -13 56.09 10.8
-2 -5 -13 60.09 14.6
2 5 13 52.09 14.9
2 5 13 57.69 12
2 5 13 72.59 12.8
-3 -5 -13 150.58 17.4
-3 -5 -13 159.08 21.2
3 5 13 162.58 18.6
3 5 13 160.28 25.9
-4 -5 -13 -5.7 7.3
-4 -5 -13 10.6 6.4
4 5 13 -10.7 3.7
4 5 13 -2.7 5.1
4 5 13 0.9 4.4
-5 -5 -13 7.9 6.5
-5 -5 -13 13.5 9.9
5 5 13 -9.2 4
5 5 13 2.4 5.6
5 5 13 -1.9 6.6
-6 -5 -13 37.4 10.8
-6 -5 -13 63.49 18
6 5 13 26.5 11.5
6 5 13 24.4 8.6
6 5 13 31.1 8.2
-7 -5 -13 -4.8 8.1
7 5 13 -3.3 4.7
7 5 13 20.6 18.9
7 5 13 4.9 8.2
-8 -5 -13 -6.5 10.5
8 5 13 15.8 4.2
8 5 13 3.7 4
-11 6 13 77.89 19.8
-11 6 13 88.49 17.1
-11 6 13 55.29 15.8
-10 6 13 45.5 17.4
-10 6 13 23.1 8.8
-10 6 13 23.7 9.2
-10 6 13 37.6 14.1
9 -6 -13 166.58 20.6
-9 6 13 138.29 15.5
-9 6 13 184.08 25.5
-9 6 13 142.49 30.1
8 -6 -13 888.91 59.69
-8 6 13 719.13 52.29
-8 6 13 808.82 69.59
-8 6 13 876.71 66.29
7 -6 -13 53.29 12.2
-7 6 13 36.8 14.1
-7 6 13 40.9 13.6
-7 6 13 51.19 8.3
6 -6 -13 42.7 11.2
-6 6 13 44.8 15.1
-6 6 13 61.09 15.5
-6 6 13 51.69 8.1
5 -6 -13 410.56 35
-5 6 13 362.76 37.9
-5 6 13 401.36 28.3
-5 6 13 438.76 42
4 -6 -13 897.21 63.39
-4 6 13 887.21 67.69
-4 6 13 982 70.39
-4 6 13 778.72 54.29
3 -6 -13 202.88 22.7
3 -6 -13 213.98 16
-3 6 13 220.08 25.9
-3 6 13 185.98 24.3
-3 6 13 184.08 16.7
2 -6 -13 15.1 8.8
2 -6 -13 13.7 4.3
-2 6 13 -3.3 6.3
-2 6 13 13.5 6.8
-2 6 13 7.6 7.2
1 -6 -13 -1.2 3.8
1 -6 -13 6.8 3.6
-1 6 13 4.2 6
-1 6 13 -3.7 3.3
-1 6 13 2.3 6.9
0 -6 -13 188.38 16.9
0 -6 -13 180.28 22.7
0 6 13 200.58 23.1
0 6 13 177.38 18.3
0 6 13 181.48 25.2
-1 -6 -13 140.29 15.4
-1 -6 -13 135.59 19.9
1 6 13 155.28 26.2
1 6 13 174.88 18
1 6 13 181.48 20.9
-2 -6 -13 451.85 37.2
-2 -6 -13 511.35 44.2
2 6 13 522.65 46.6
2 6 13 531.65 40.5
2 6 13 531.25 41.7
-3 -6 -13 20.1 11.1
-3 -6 -13 36.5 9.7
3 6 13 35.3 9.8
3 6 13 26.4 8.9
3 6 13 36.3 12
-4 -6 -13 119.19 23.6
-4 -6 -13 112.89 18.1
4 6 13 122.99 13.7
4 6 13 135.89 16.6
4 6 13 131.89 22.9
-5 -6 -13 154.28 19.6
5 6 13 103.59 21.3
5 6 13 124.39 13.8
5 6 13 101.09 14.2
-6 -6 -13 20.8 8.9
6 6 13 21.5 19.4
6 6 13 7.1 5.7
6 6 13 18.1 7.2
-7 -6 -13 247.38 28.2
7 6 13 217.78 18.7
7 6 13 256.17 28.4
7 6 13 223.98 18.7
-11 7 13 4.6 13.5
-11 7 13 -13.9 9
-11 7 13 -7.2 7.3
-10 7 13 68.29 19.6
-10 7 13 60.29 16.1
-10 7 13 62.89 11.5
9 -7 -13 382.36 31.5
-9 7 13 300.47 38.7
-9 7 13 349.27 37.4
-9 7 13 281.07 25.3
8 -7 -13 11.3 8.5
-8 7 13 8.5 4.5
-8 7 13 -3.4 8.1
-8 7 13 9.5 10.3
7 -7 -13 965.5 63.69
-7 7 13 802.72 71.59
-7 7 13 915.91 69.59
-7 7 13 806.32 55.79
6 -7 -13 320.57 28.9
-6 7 13 273.27 22.2
-6 7 13 272.77 31.8
-6 7 13 256.67 45.6
5 -7 -13 171.78 20.4
-5 7 13 160.08 15.6
-5 7 13 208.38 25.8
-5 7 13 212.68 26.9
4 -7 -13 47.2 12.4
-4 7 13 58.79 15.1
-4 7 13 57.59 15.7
-4 7 13 63.69 9.9
3 -7 -13 11.4 7.4
3 -7 -13 25.3 5.4
-3 7 13 19.9 5.5
-3 7 13 5.2 7.9
-3 7 13 20.6 10.1
2 -7 -13 367.06 28.2
2 -7 -13 348.87 34.8
-2 7 13 441.96 30.3
-2 7 13 377.76 38.3
-2 7 13 380.36 36.8
1 -7 -13 28.4 9.2
1 -7 -13 14.1 4.9
-1 7 13 12.4 8
-1 7 13 -2.8 6.8
-1 7 13 0.1 3.7
0 -7 -13 694.33 57.19
0 -7 -13 690.73 48.6
0 7 13 772.72 51.49
0 7 13 807.52 57.49
0 7 13 687.33 59.59
-1 -7 -13 155.48 15.5
-1 -7 -13 102.49 20.3
1 7 13 150.38 20.8
1 7 13 120.19 16.3
1 7 13 168.08 19.4
-2 -7 -13 40.8 11.7
-2 -7 -13 48.9 10.5
2 7 13 35.9 13
2 7 13 46.7 11
2 7 13 47.7 11.9
-3 -7 -13 768.32 58.29
3 7 13 857.01 67.79
3 7 13 851.01 59.89
3 7 13 890.81 62.49
-4 -7 -13 19.3 9.9
4 7 13 56.59 11.3
4 7 13 25.9 6.5
4 7 13 28 18.8
-5 -7 -13 53.99 13.7
5 7 13 60.89 10.5
5 7 13 47.5 10.1
5 7 13 72.59 17.6
-6 -7 -13 26.3 10.5
6 7 13 34.2 13.3
6 7 13 41.3 8.7
6 7 13 27.7 12.6
-7 -7 -13 24.1 9.8
7 7 13 4.1 2.9
7 7 13 12.1 3.5
7 7 13 4.1 8.2
10 -8 -13 -11.2 10
-10 8 13 30.8 8
-10 8 13 15.1 11.6
-10 8 13 1.8 10.4
9 -8 -13 100.49 17.4
-9 8 13 95.79 24.7
-9 8 13 92.49 20.3
-9 8 13 89.99 14.1
8 -8 -13 504.25 41.4
-8 8 13 556.64 48.7
-8 8 13 458.55 35.8
-8 8 13 536.75 53.69
7 -8 -13 42.4 11
-7 8 13 52.39 9
-7 8 13 18.4 13.7
-7 8 13 31 13.8
6 -8 -13 861.51 60.19
-6 8 13 756.32 52.69
-6 8 13 776.42 65.09
-6 8 13 850.71 69.19
5 -8 -13 19.2 8.5
-5 8 13 37.4 13.4
-5 8 13 31.8 7.3
-5 8 13 33.1 13.1
4 -8 -13 263.77 28.2
4 -8 -13 270.17 22.2
-4 8 13 216.38 29.5
-4 8 13 330.77 34.6
-4 8 13 338.87 24.7
3 -8 -13 104.89 11.2
3 -8 -13 133.99 22.3
-3 8 13 118.89 13.1
-3 8 13 127.59 23.2
-3 8 13 100.89 21.6
2 -8 -13 202.98 18
2 -8 -13 222.68 25.8
-2 8 13 230.48 20.4
-2 8 13 229.18 28.7
-2 8 13 181.48 24.6
1 -8 -13 9.1 6
1 -8 -13 11.2 4.9
-1 8 13 8.9 7.2
-1 8 13 9.9 7.7
-1 8 13 11.2 5.6
0 -8 -13 94.59 12.5
0 -8 -13 103.89 20.8
0 8 13 100.19 19.1
0 8 13 131.49 15.7
0 8 13 113.19 21.6
-1 -8 -13 -1.7 2.6
1 8 13 12.6 7.9
1 8 13 8.1 5.5
1 8 13 6 6.3
-2 -8 -13 431.76 35.2
2 8 13 396.76 44.3
2 8 13 466.75 38.7
2 8 13 461.25 38.2
-3 -8 -13 21.2 7.6
3 8 13 3.2 8.9
3 8 13 4.8 7
-4 -8 -13 34.9 11
4 8 13 50.29 9.3
4 8 13 44.8 14.6
4 8 13 34 9.4
-5 -8 -13 117.49 20.3
5 8 13 109.39 13.2
5 8 13 138.29 24.9
-6 -8 -13 45.5 13.5
6 8 13 35.6 7.7
6 8 13 43.1 8
6 8 13 33.1 14.5
-10 9 13 48.2 15.5
-10 9 13 68.89 18.6
-10 9 13 67.89 21.6
-9 9 13 -11.8 10.1
-9 9 13 5 10.3
-9 9 13 4.1 7.2
-8 9 13 17.3 7.6
-8 9 13 19.6 15.1
-8 9 13 -0.4 9.1
-7 9 13 201.28 32.4
-7 9 13 185.08 33.8
-7 9 13 227.38 20.5
6 -9 -13 30 16.6
-6 9 13 63.59 18
-6 9 13 53.09 9.4
-6 9 13 29.5 13.4
5 -9 -13 881.81 73.19
-5 9 13 801.02 70.79
-5 9 13 936.71 74.49
-5 9 13 992.2 60.69
4 -9 -13 273.87 35.4
4 -9 -13 288.57 23.8
-4 9 13 347.47 26.5
-4 9 13 260.97 33.2
-4 9 13 331.57 36.3
3 -9 -13 263.37 22.3
3 -9 -13 356.06 58.79
-3 9 13 308.37 24.8
-3 9 13 269.57 31.2
-3 9 13 247.98 31.5
2 -9 -13 3.8 4.8
-2 9 13 6.4 8.3
-2 9 13 1.4 4.7
-2 9 13 4.1 6.4
1 -9 -13 27.3 7.3
-1 9 13 24.2 8
-1 9 13 18.3 10.7
-1 9 13 30.6 11.9
0 -9 -13 149.88 15.8
0 9 13 108.69 21.1
0 9 13 135.29 29.3
0 9 13 139.29 17.9
-1 -9 -13 39.2 9
1 9 13 28.1 9.6
1 9 13 11.1 11
1 9 13 36.9 11.2
-2 -9 -13 103.59 16.9
2 9 13 129.89 25.2
2 9 13 124.99 19.9
2 9 13 117.19 19.6
-3 -9 -13 18 8.7
3 9 13 4.5 5.7
3 9 13 37.1 13.4
-4 -9 -13 25 9.8
4 9 13 30.1 12.6
4 9 13 27.8 7.7
4 9 13 9.4 7.9
-5 -9 -13 133.99 21
5 9 13 101.39 16.1
5 9 13 111.09 22.9
5 9 13 85.49 12.3
-6 -9 -13 22.3 10.5
6 9 13 16.1 13.7
6 9 13 31.8 6.1
6 9 13 19.9 5.6
-10 10 13 11 12.8
-10 10 13 -20.1 10.2
-9 10 13 178.48 50.19
-9 10 13 224.68 20.9
-9 10 13 146.69 30.3
-8 10 13 38.5 15.8
-8 10 13 9.4 34
-8 10 13 36.2 12.2
-7 10 13 59.79 17.7
-7 10 13 93.49 13.6
-7 10 13 55.99 21
-6 10 13 106.09 25.4
-6 10 13 154.38 16.2
-6 10 13 136.39 27
-5 10 13 -11.9 7.7
-5 10 13 0 5.3
-5 10 13 0.1 9
4 -10 -13 563.14 39.9
-4 10 13 508.55 89.49
-4 10 13 460.35 51.39
-4 10 13 677.33 43.2
3 -10 -13 38.4 8.5
-3 10 13 50.19 16.4
-3 10 13 16.3 15.3
-3 10 13 58.39 11
2 -10 -13 1151.38 76.79
-2 10 13 1279.27 89.99
-2 10 13 938.91 97.19
-2 10 13 1425.96 81.59
1 -10 -13 105.99 15.5
-1 10 13 85.29 20.7
-1 10 13 101.79 16.4
-1 10 13 124.89 23.1
0 -10 -13 4.8 6.1
0 10 13 10.3 7.7
0 10 13 -4.6 8.6
0 10 13 -3.3 7.5
-1 -10 -13 152.08 18.1
1 10 13 170.58 21.5
1 10 13 156.88 19.8
1 10 13 161.78 29.7
-2 -10 -13 44.4 11.8
2 10 13 54.79 18
2 10 13 63.39 15.1
-3 -10 -13 73.59 13.8
3 10 13 71.19 14.7
3 10 13 64.79 18.7
-4 -10 -13 280.37 29
4 10 13 261.17 23.1
4 10 13 239.48 32.4
4 10 13 307.27 27.1
-5 -10 -13 5.3 8.7
5 10 13 -4.7 11.9
5 10 13 -7.2 5.5
-10 11 13 38.7 24.6
-10 11 13 4.9 10
-9 11 13 -6.5 7.1
-9 11 13 21.7 11.3
-9 11 13 22.5 14.7
-8 11 13 79.19 21.6
-8 11 13 136.29 16.4
-8 11 13 107.09 23.8
-7 11 13 25.4 8
-7 11 13 29 14.1
-7 11 13 32.5 15.6
-6 11 13 199.78 20.4
-6 11 13 173.38 30.3
-6 11 13 159.68 30.7
5 -11 -13 14.6 6.4
-5 11 13 42.5 14.5
-5 11 13 39.4 10.1
-5 11 13 11.9 10.4
4 -11 -13 30.6 8.2
-4 11 13 22.6 12.5
-4 11 13 32 9.5
-4 11 13 64.29 18.2
3 -11 -13 506.55 37.3
-3 11 13 620.34 41.7
-3 11 13 394.16 46.4
-3 11 13 513.15 58.19
2 -11 -13 23.7 8
-2 11 13 23 12.2
-2 11 13 -0.5 6.3
-2 11 13 15.5 10.4
1 -11 -13 1708.13 109.19
-1 11 13 1975.4 116.19
-1 11 13 1723.13 119.49
-1 11 13 1589.54 122.09
0 -11 -13 4.1 5.5
0 11 13 0.4 10.4
0 11 13 -2.3 8.3
0 11 13 -4.3 6
-1 -11 -13 380.56 32.5
1 11 13 383.06 37
1 11 13 344.07 40.6
-2 -11 -13 43.1 11.1
2 11 13 58.79 14.3
2 11 13 18.2 10.7
-3 -11 -13 51.89 13.4
3 11 13 55.39 17.6
3 11 13 61.89 13.8
-4 -11 -13 28.5 10.9
4 11 13 3.5 8.3
4 11 13 42 13.3
4 11 13 30.9 8.3
-5 -11 -13 136.69 23.5
5 11 13 157.88 14.8
5 11 13 160.38 29.8
5 11 13 149.49 15.6
-9 12 13 54.99 18.7
-9 12 13 24.1 14.6
-8 12 13 80.29 13.3
-8 12 13 69.89 19.6
-8 12 13 72.29 22.1
-7 12 13 760.12 50.19
-7 12 13 624.14 63.29
-7 12 13 577.54 59.39
-6 12 13 5.7 12
-6 12 13 20.4 10.2
-6 12 13 25.6 11.1
5 -12 -13 332.27 27.8
-5 12 13 382.26 42.3
-5 12 13 273.07 37.2
-5 12 13 357.56 30.9
4 -12 -13 226.58 20.8
-4 12 13 242.78 23.7
-4 12 13 247.58 33.1
-4 12 13 164.98 31.3
3 -12 -13 141.79 16
-3 12 13 164.68 31.6
-3 12 13 76.99 20.5
-3 12 13 115.29 24.8
2 -12 -13 1157.98 75.29
-2 12 13 905.71 85.89
-2 12 13 1224.88 88.49
-2 12 13 1285.17 79.59
1 -12 -13 43.6 11
-1 12 13 31.7 14.1
-1 12 13 22.9 12.4
-1 12 13 56.39 14
0 -12 -13 859.31 60.49
0 12 13 932.11 74.19
0 12 13 793.32 66.19
-1 -12 -13 62.49 13.7
1 12 13 62.79 19.7
1 12 13 73.69 16.9
-2 -12 -13 19.1 8.2
2 12 13 1.4 7
2 12 13 -1.8 8.9
-3 -12 -13 467.95 39.3
3 12 13 446.16 47.3
3 12 13 390.76 36.2
-4 -12 -13 2.9 6.7
4 12 13 5.1 6.6
4 12 13 -0.9 6.6
4 12 13 1.3 9.8
-9 13 13 108.19 24.6
-9 13 13 91.79 28.4
-8 13 13 44.6 16.8
-8 13 13 66.39 20.8
-7 13 13 52.19 17.2
-7 13 13 62.79 12.9
-7 13 13 66.89 20.3
-6 13 13 410.46 45.9
-6 13 13 368.66 31.4
-6 13 13 300.47 40.1
5 -13 -13 5.4 6.8
-5 13 13 33 9
-5 13 13 12.6 12.1
-5 13 13 6.2 11.2
4 -13 -13 37.4 9.4
-4 13 13 29.7 13.5
-4 13 13 38.2 10.3
-4 13 13 48.2 16.7
3 -13 -13 247.88 24.3
-3 13 13 240.58 33.8
-3 13 13 313.27 35.3
-3 13 13 271.07 26.8
2 -13 -13 4 6.9
-2 13 13 10.1 12.5
-2 13 13 14.8 10
-2 13 13 19.7 10.1
1 -13 -13 1460.55 92.29
-1 13 13 1419.16 101.79
-1 13 13 1342.87 105.89
0 -13 -13 13.4 8.7
0 13 13 15.8 9.6
0 13 13 15.1 10.7
-1 -13 -13 325.57 31.6
1 13 13 358.06 41.7
1 13 13 334.87 35
-2 -13 -13 102.89 17.5
2 13 13 64.99 22.2
2 13 13 96.59 18
-3 -13 -13 59.39 14.3
3 13 13 49.3 16
3 13 13 60.19 13.9
-4 -13 -13 189.28 24
4 13 13 173.48 33.7
-9 14 13 18.1 13.6
-9 14 13 -4.1 15.9
-8 14 13 232.38 39.3
-8 14 13 380.76 51.29
-7 14 13 120.59 27.4
-7 14 13 102.69 25.5
-6 14 13 -2.8 10
-6 14 13 -13.2 7.9
5 -14 -13 132.99 16.8
-5 14 13 125.49 28.9
-5 14 13 85.89 25.2
-5 14 13 129.19 20.7
4 -14 -13 -3.3 6.3
-4 14 13 12.1 9.4
-4 14 13 -9.2 8.8
-4 14 13 -4.4 9.9
3 -14 -13 38.2 10.5
-3 14 13 34.2 15.9
-3 14 13 53.39 16.3
-2 14 13 539.35 49.9
-2 14 13 402.96 47.6
1 -14 -13 65.79 14
-1 14 13 55.59 18.7
-1 14 13 86.59 20.2
0 -14 -13 187.08 21.8
0 14 13 176.78 30.3
0 14 13 181.38 33.7
-1 -14 -13 44.6 13.5
1 14 13 49.5 14.5
1 14 13 35.1 16.5
-2 -14 -13 229.38 26.2
2 14 13 215.48 36.2
2 14 13 212.98 25.9
-3 -14 -13 191.98 24.1
3 14 13 160.28 37.4
3 14 13 155.38 22.2
-8 15 13 5.1 13.5
-8 15 13 13.1 16.1
-7 15 13 112.59 28
-7 15 13 214.38 37.7
-6 15 13 85.39 23.5
-6 15 13 56.19 20.6
5 -15 -13 124.29 18.3
-5 15 13 117.59 28.6
4 -15 -13 121.09 16
-4 15 13 142.89 28.7
-4 15 13 135.89 29
3 -15 -13 17.6 8.5
-3 15 13 20.1 11.8
-3 15 13 17.5 10.5
2 -15 -13 65.79 13.3
-2 15 13 45.4 17.2
-2 15 13 66.09 19.9
1 -15 -13 162.38 19.2
-1 15 13 100.29 23.7
-1 15 13 156.28 28.2
0 -15 -13 83.09 16.4
0 15 13 117.19 26.7
0 15 13 67.99 29.1
-1 -15 -13 186.48 23.3
1 15 13 163.98 32.5
1 15 13 195.18 27.1
-2 -15 -13 57.89 15.4
2 15 13 43.8 14.3
2 15 13 56.79 24
-7 16 13 7.2 16.6
-7 16 13 -1 11.5
-6 16 13 106.89 24.9
-6 16 13 142.59 31.6
5 -16 -13 92.09 16
-5 16 13 44.4 19.8
-5 16 13 74.79 21.1
4 -16 -13 12.9 8.3
-4 16 13 -12.4 8.2
-4 16 13 17.7 11.7
3 -16 -13 18 8.7
-3 16 13 -10.3 9.2
-3 16 13 8.5 13.6
2 -16 -13 52.59 12.3
-2 16 13 28.6 15.6
-2 16 13 29.9 15.6
1 -16 -13 85.39 16.4
-1 16 13 72.19 23.2
-1 16 13 64.29 19.1
0 -16 -13 72.19 15.5
0 16 13 67.09 18.5
0 16 13 91.09 52.59
-1 -16 -13 -3.5 8.5
1 16 13 6 9.3
1 16 13 1.5 11.9
-6 17 13 12.2 15.2
-6 17 13 38.6 23.7
5 -17 -13 195.58 22.8
-5 17 13 188.08 34
-5 17 13 172.28 33.3
4 -17 -13 3.3 7.1
-4 17 13 13 12.5
-4 17 13 2.7 10.9
3 -17 -13 57.89 12.9
-3 17 13 49.99 16.6
-3 17 13 82.09 21.4
2 -17 -13 -4.3 6.5
-2 17 13 0.9 11.7
-2 17 13 -12.6 13.3
1 -17 -13 -8.9 8
-1 17 13 14.1 10.2
-2 22 -14 95.69 18.7
2 -22 14 48.9 15.8
-3 22 -14 29.6 17.2
-1 -21 14 111.69 20.6
0 -21 14 19 9.5
1 -21 14 40.4 12.5
-2 21 -14 7.9 8.3
-3 21 -14 71.99 18.1
-5 21 -14 1.3 10
5 -21 14 -0.8 7.9
-2 -20 14 6.4 7.7
-1 -20 14 74.89 17.3
0 -20 14 2.6 7.9
1 -20 14 34.5 11.9
-2 20 -14 294.07 31.5
-3 20 -14 -6.5 6.8
-4 20 -14 89.39 18.3
-5 20 -14 32.6 15.7
5 -20 14 55.19 14.7
-6 20 -14 18.1 12.4
6 -20 14 50.39 13.5
-3 -19 14 6.5 7.6
-2 -19 14 135.39 22.1
-1 -19 14 99.79 19.1
0 -19 14 214.48 26.4
1 -19 14 72.09 15.6
-2 19 -14 38.8 12.4
-3 19 -14 211.18 26.5
-4 19 -14 -3.2 7.5
4 -19 14 12.5 7.8
-5 19 -14 99.39 20.7
5 -19 14 111.59 20.5
-6 19 -14 78.89 23.8
6 -19 14 127.09 20.4
-7 19 -14 -10.6 5
7 -19 14 -4.1 14
-4 -18 14 105.39 19.6
-3 -18 14 11.5 7
-2 -18 14 61.59 14.3
-1 -18 14 488.45 41.3
0 -18 14 17.6 10.9
1 -18 14 461.15 42.2
-2 18 -14 56.99 14.7
-3 18 -14 141.29 23.6
-4 18 -14 324.47 33.3
4 -18 14 267.97 30.9
-5 18 -14 7 6.3
5 -18 14 5.7 7.6
-6 18 -14 150.78 26.7
6 -18 14 248.18 30
7 -18 14 70.49 19.2
7 -18 14 57.89 13.6
-5 -17 14 136.09 21.9
-4 -17 14 15.7 9.4
-3 -17 14 118.89 24.4
-2 -17 14 371.46 33.4
1 17 -14 1.9 6.5
-1 -17 14 6.8 7.9
0 17 -14 494.35 39.5
0 -17 14 517.65 41.5
-1 17 -14 108.19 19.3
1 -17 14 75.49 15.9
-2 17 -14 100.19 18.7
-3 17 -14 151.78 20.8
3 -17 14 130.99 18.8
-4 17 -14 11.2 7.9
4 -17 14 18.7 8.7
-5 17 -14 384.86 38.7
5 -17 14 398.86 37
-6 17 -14 89.79 20.3
6 -17 14 71.29 15.5
-7 17 -14 243.18 29.7
7 -17 14 246.68 30.6
7 -17 14 226.58 24.7
-8 17 -14 115.09 23.7
8 -17 14 160.78 23.5
8 -17 14 132.89 18.2
-5 -16 14 55.29 13.8
-4 -16 14 336.97 32.9
3 16 -14 5.7 9.3
-3 -16 14 7 7.3
2 16 -14 143.69 18.2
-2 -16 14 189.88 20.1
1 16 -14 306.47 28.3
-1 -16 14 353.26 29.8
0 16 -14 10.1 6.5
0 -16 14 0 5.7
-1 16 -14 277.17 25.4
1 -16 14 282.27 27
-2 16 -14 50.29 10.2
-2 16 -14 45 12.4
2 -16 14 44.9 13.1
-3 16 -14 215.88 25.7
-3 16 -14 202.58 36.8
-4 16 -14 365.66 36.5
4 -16 14 403.06 36.2
-5 16 -14 54.79 13.3
5 -16 14 39.6 11.3
-6 16 -14 389.36 39.4
6 -16 14 412.36 35.1
-7 16 -14 77.99 19.4
7 -16 14 101.19 16.2
-8 16 -14 142.59 26
8 -16 14 122.99 22.4
8 -16 14 143.59 18.1
-6 -15 14 172.68 21.4
-6 -15 14 91.49 21.4
-6 -15 14 118.09 20.2
-5 -15 14 7.9 7.8
-5 -15 14 12.6 6.8
-5 -15 14 1.9 9.1
4 15 -14 2 7.7
-4 -15 14 5.6 16
-4 -15 14 0.4 7.2
3 15 -14 147.69 18.1
-3 -15 14 125.89 19.1
2 15 -14 68.19 19.6
-2 -15 14 81.39 14.4
1 15 -14 112.69 16.5
-1 -15 14 142.79 17.1
0 15 -14 498.75 38.5
0 -15 14 559.74 41.4
1 -15 14 22 10
-2 15 -14 719.13 52.09
2 -15 14 813.72 59.89
-3 15 -14 2.3 4.8
-3 15 -14 -8.5 4.4
3 -15 14 8.6 6.2
-4 15 -14 27.2 10.1
4 -15 14 16.3 8.7
-5 15 -14 495.25 45
5 -15 14 534.15 42.6
-6 15 -14 1.3 6.9
6 -15 14 -1.6 6.2
-7 15 -14 47.8 14.9
7 -15 14 72.79 13.7
-8 15 -14 7 7.8
8 -15 14 2.5 6.6
8 -15 14 0.3 10.5
-7 -14 14 158.48 22.1
-7 -14 14 156.08 20.2
-7 -14 14 135.59 25.1
-6 -14 14 5 8.8
-6 -14 14 -4.6 7.1
-6 -14 14 2.9 9.2
5 14 -14 283.87 27.5
-5 -14 14 272.57 32.8
-5 -14 14 262.17 27.2
-5 -14 14 352.46 31.3
4 14 -14 46.2 10.7
-4 -14 14 45.3 14
-4 -14 14 49.4 12.7
-4 -14 14 34.4 11
3 14 -14 3.9 6.7
-3 -14 14 -7.7 7.5
-3 -14 14 -7.4 4.6
2 14 -14 473.05 37.1
-2 -14 14 524.75 38.5
-2 -14 14 482.85 42.4
1 14 -14 249.97 22.2
-1 -14 14 323.47 94.69
-1 -14 14 239.18 23.1
0 14 -14 88.09 13.1
0 -14 14 83.79 13.6
0 -14 14 82.79 17.7
-1 14 -14 30.1 7.6
1 -14 14 14 7.3
-2 14 -14 36.3 8.8
2 -14 14 12.6 7.5
-3 14 -14 88.79 13.5
-3 14 -14 87.49 16.6
3 -14 14 76.69 15.4
-4 14 -14 330.37 28.4
-4 14 -14 309.17 32
4 -14 14 315.47 30.5
-5 14 -14 506.75 47.2
5 -14 14 635.84 46.2
-6 14 -14 141.99 24.8
6 -14 14 176.28 20.2
-7 14 -14 9.8 7.8
7 -14 14 13.5 6.5
-8 14 -14 235.08 29.5
8 -14 14 262.27 24.3
-9 14 -14 81.19 17.8
9 -14 14 50.39 9.8
9 -14 14 45.7 30.4
-7 -13 14 -3.2 8.2
-7 -13 14 29.5 9.5
-7 -13 14 -8.8 6.5
6 13 -14 267.37 27.5
-6 -13 14 249.68 31.7
-6 -13 14 282.17 28.2
-6 -13 14 362.86 31.2
5 13 -14 13.2 8
-5 -13 14 3.4 5.8
-5 -13 14 9 7.8
-5 -13 14 3.6 8.4
4 13 -14 577.34 42
-4 -13 14 560.54 42.6
-4 -13 14 541.05 49.2
-4 -13 14 573.64 45.9
3 13 -14 183.98 17.9
-3 -13 14 161.88 17.9
-3 -13 14 132.19 23.4
-3 -13 14 155.08 20.3
2 13 -14 169.08 16.1
-2 -13 14 130.49 20.7
-2 -13 14 128.49 22.4
-2 -13 14 127.29 15.3
1 13 -14 328.87 26.5
-1 -13 14 329.17 32.7
-1 -13 14 299.77 56.29
-1 -13 14 353.06 27.9
0 13 -14 25.5 6.8
0 -13 14 7.6 6.5
0 -13 14 13 8.3
0 -13 14 18.2 6.3
-1 13 -14 789.32 52.79
1 -13 14 795.62 59.99
-2 13 -14 6.4 5
2 -13 14 -1.7 4.5
-3 13 -14 35.9 8.7
-3 13 -14 36.4 12.4
3 -13 14 38.3 10.8
-4 13 -14 289.27 24.8
-4 13 -14 245.48 27.9
4 -13 14 262.87 26.5
-5 13 -14 529.15 55.49
-5 13 -14 439.46 42.1
5 -13 14 513.75 39.6
-6 13 -14 81.29 17.4
6 -13 14 87.39 15.5
-7 13 -14 116.89 21.4
7 -13 14 131.69 16.5
-8 13 -14 38.3 10.5
8 -13 14 57.29 11.2
-9 13 -14 123.89 23.5
9 -13 14 135.89 15.4
9 -13 14 153.48 14.5
-7 -12 14 191.88 21.8
-7 -12 14 197.48 26.7
-7 -12 14 185.68 20.8
6 12 -14 196.08 22.1
-6 -12 14 155.18 27
-6 -12 14 194.18 22.6
-6 -12 14 196.48 21
5 12 -14 380.26 31.8
-5 -12 14 438.36 33.8
-5 -12 14 351.66 37.9
-5 -12 14 438.46 36.3
4 12 -14 15.8 7.6
-4 -12 14 7.7 8.1
-4 -12 14 15.6 9.6
-4 -12 14 26.1 8
3 12 -14 206.88 19.3
-3 -12 14 198.48 25
-3 -12 14 217.98 19.8
-3 -12 14 188.98 22.1
2 12 -14 22.2 6.8
-2 -12 14 15.9 6.2
-2 -12 14 13.8 8
1 12 -14 311.07 24.3
-1 -12 14 318.87 30.5
-1 -12 14 262.67 23.8
-1 -12 14 342.27 31.9
0 12 -14 1661.73 100.69
0 -12 14 1699.73 109.79
0 -12 14 1606.84 108.89
-1 12 -14 135.99 13.9
1 -12 14 146.59 19.5
1 -12 14 125.69 17.8
-2 12 -14 238.88 20.6
2 -12 14 238.18 30.9
2 -12 14 235.78 25.2
-3 12 -14 27.4 7.1
3 -12 14 14.9 7.6
-4 12 -14 136.79 19
-4 12 -14 153.98 17
4 -12 14 166.38 18.9
-5 12 -14 916.61 58.19
-5 12 -14 722.73 60.99
5 -12 14 819.32 58.09
-6 12 -14 12.5 9.1
6 -12 14 9 5.9
-7 12 -14 16.9 10
7 -12 14 7.4 5.7
-8 12 -14 128.29 23.7
8 -12 14 178.18 18
-9 12 -14 2.3 8.7
9 -12 14 11.9 6.4
9 -12 14 0.8 4.8
-8 -11 14 -9.9 7.8
-8 -11 14 -9.9 10.7
-8 -11 14 -4.2 8.3
-8 -11 14 6.5 7.2
-7 -11 14 138.39 19.3
-7 -11 14 138.09 17.3
-7 -11 14 115.39 21
6 11 -14 29.8 9.6
-6 -11 14 15 8.3
-6 -11 14 24.7 9.2
-6 -11 14 7.6 6.8
5 11 -14 2.1 4.9
-5 -11 14 2.4 5.6
-5 -11 14 2.9 6.6
-5 -11 14 3.1 6.5
4 11 -14 115.89 13.6
-4 -11 14 102.49 19.7
-4 -11 14 119.69 14.4
-4 -11 14 141.29 18
3 11 -14 15.2 6.2
-3 -11 14 8.7 6.3
-3 -11 14 11.7 5.1
2 11 -14 2364.56 139.59
-2 -11 14 2481.45 150.48
-2 -11 14 2502.35 147.49
-2 -11 14 2096.39 139.09
1 11 -14 6.2 4
-1 -11 14 6.4 4.1
-1 -11 14 12.6 7
-1 -11 14 25.4 9.1
0 11 -14 -0.9 3.3
0 -11 14 -7.2 5.6
0 -11 14 -2 3.3
-1 11 -14 130.39 13
1 -11 14 116.89 19
1 -11 14 121.79 20.1
-2 11 -14 13 5.8
2 -11 14 21.3 7.9
2 -11 14 11.9 7
-3 11 -14 698.53 46.8
3 -11 14 690.23 50.69
3 -11 14 653.13 56.69
-4 11 -14 491.15 35.3
4 -11 14 424.96 36.6
-5 11 -14 4.1 5.4
-5 11 -14 -0.8 3.5
5 -11 14 -2.6 4.6
-6 11 -14 79.19 16.8
6 -11 14 116.59 15.3
-7 11 -14 83.19 18.4
7 -11 14 92.19 13.2
-8 11 -14 46.7 14.5
-9 11 -14 107.39 20.8
9 -11 14 106.09 11.2
9 -11 14 114.49 12.4
-8 -10 14 30.8 8.7
-8 -10 14 9 9.6
-8 -10 14 10.5 10.3
-8 -10 14 13.3 8.8
-7 -10 14 2.7 7.4
-7 -10 14 -4.1 5.4
-7 -10 14 -14.7 5.4
-6 -10 14 14 7.7
-6 -10 14 10.6 6.8
-6 -10 14 -0.3 5.8
5 10 -14 103.39 12.9
-5 -10 14 85.09 13.3
-5 -10 14 113.39 14.8
-5 -10 14 63.09 16.2
4 10 -14 14.3 5.5
-4 -10 14 5.1 6.2
-4 -10 14 6 6.9
-4 -10 14 0.5 4.4
3 10 -14 1557.54 92.89
-3 -10 14 1489.85 92.89
-3 -10 14 1591.34 99.49
-3 -10 14 1459.05 101.89
2 10 -14 81.99 9.6
-2 -10 14 82.59 16.7
-2 -10 14 88.49 15.2
-2 -10 14 66.99 9.2
1 10 -14 339.77 24.8
-1 -10 14 300.07 24.8
-1 -10 14 393.46 32.4
-1 -10 14 372.06 33.4
0 10 -14 351.16 25.7
0 -10 14 347.67 31.9
0 -10 14 379.66 33
-1 10 -14 630.74 40.7
1 -10 14 615.24 47
1 -10 14 565.84 47
-2 10 -14 779.12 51.29
2 -10 14 765.02 59.09
2 -10 14 822.32 57.19
-3 10 -14 75.19 11.9
3 -10 14 76.99 14.6
3 -10 14 77.99 16.3
-4 10 -14 8.1 5.5
4 -10 14 1.6 4.4
4 -10 14 1.5 10
-5 10 -14 47.3 10.5
5 -10 14 62.09 11.8
-6 10 -14 165.98 22.9
6 -10 14 246.28 22.9
-7 10 -14 366.46 36.7
7 -10 14 436.26 33.4
-8 10 -14 84.79 18.2
8 -10 14 73.49 11.8
9 -10 14 0.8 4.2
-9 -9 14 50.79 14.4
-9 -9 14 33.2 10.2
-9 -9 14 19.1 12.4
-8 -9 14 129.89 18.7
-8 -9 14 101.49 21.6
-8 -9 14 84.09 16.5
-8 -9 14 115.99 17.2
-7 -9 14 123.49 22
-7 -9 14 134.39 23.4
-7 -9 14 166.08 18
-7 -9 14 186.58 19.1
-6 -9 14 29.5 8
-6 -9 14 29.7 10.5
-6 -9 14 41.3 11
5 9 -14 120.39 14.2
-5 -9 14 158.08 18.1
-5 -9 14 111.19 20.9
-5 -9 14 162.68 15.1
4 9 -14 160.58 14.6
-4 -9 14 181.58 20.5
-4 -9 14 141.99 14.4
-4 -9 14 140.89 19.8
3 9 -14 194.88 15.8
-3 -9 14 164.88 15
-3 -9 14 171.78 22.2
-3 -9 14 162.08 31.1
2 9 -14 49.7 7.3
-2 -9 14 45.8 11.4
-2 -9 14 30.4 6.1
1 9 -14 136.09 12.7
-1 -9 14 149.39 30.4
-1 -9 14 185.58 20.2
0 9 -14 1160.28 69.29
0 -9 14 1162.58 77.49
0 -9 14 1069.59 77.89
-1 9 -14 388.76 27.2
1 -9 14 392.76 34
1 -9 14 371.56 32.8
-2 9 -14 19 5.4
2 -9 14 13.3 6.2
2 -9 14 8.4 6.8
-3 9 -14 763.62 49.2
3 -9 14 709.83 55.69
3 -9 14 726.33 52.69
-4 9 -14 324.97 26.2
4 -9 14 289.87 31
4 -9 14 293.37 26.6
-5 9 -14 321.47 26.8
5 -9 14 290.77 54.89
5 -9 14 272.57 25.8
6 -9 14 290.37 26.4
7 -9 14 7.3 5
8 -9 14 76.29 12.1
9 -9 14 64.39 8.4
-9 -8 14 125.49 23.9
-9 -8 14 99.19 19.6
-9 -8 14 105.79 17.6
-9 -8 14 156.38 18.4
-8 -8 14 111.79 16.8
-8 -8 14 103.29 20.6
-8 -8 14 94.69 18.1
-8 -8 14 82.69 14.7
-7 -8 14 10.3 8.5
-7 -8 14 11.8 6.5
-7 -8 14 14.9 7.1
-7 -8 14 10.5 7.8
-6 -8 14 11.5 8.7
-6 -8 14 28.9 9.2
-6 -8 14 9.6 5.8
-5 -8 14 51.79 9.2
-5 -8 14 55.19 14.1
-5 -8 14 62.49 12.6
4 8 -14 65.19 9.3
-4 -8 14 73.09 8.9
-4 -8 14 62.19 14.4
3 8 -14 352.16 25.1
-3 -8 14 358.26 25
-3 -8 14 376.86 34.3
-3 -8 14 379.16 31.2
2 8 -14 573.34 36
-2 -8 14 600.94 45.7
-2 -8 14 572.74 43.1
-2 -8 14 514.35 35.5
1 8 -14 662.53 40.6
-1 -8 14 632.74 49.3
-1 -8 14 625.74 47.5
0 8 -14 13.9 4.3
0 -8 14 4.2 5.6
0 -8 14 7.7 5.6
-1 8 -14 231.78 22
1 -8 14 213.48 22.4
-2 8 -14 354.26 25.4
2 -8 14 304.27 30.3
2 -8 14 363.06 30.5
-3 8 -14 51.99 9.3
3 -8 14 50.49 11
3 -8 14 49.3 12.8
-4 8 -14 6.1 5.1
4 -8 14 3.3 5.3
4 -8 14 2.1 4.9
5 -8 14 130.99 15.9
5 -8 14 85.49 18.6
6 -8 14 350.56 30.5
7 -8 14 258.07 23.7
8 -8 14 45.6 9.3
-9 8 -14 43.2 12.7
9 -8 14 19 5
-9 -7 14 53.49 15.6
-9 -7 14 37.8 11.6
-9 -7 14 57.39 15.8
-8 -7 14 143.49 23.8
-8 -7 14 174.38 18.6
-8 -7 14 167.28 26.8
-7 -7 14 13 9.3
-7 -7 14 12.4 6.2
-7 -7 14 9.3 8.3
-6 -7 14 71.49 17.1
-6 -7 14 81.39 20.9
-5 -7 14 1.5 3.2
-5 -7 14 2.8 5.3
4 7 -14 18.3 4.5
-4 -7 14 19.7 5
-4 -7 14 20.8 8.2
3 7 -14 110.09 9.2
-3 -7 14 106.99 14
-3 -7 14 80.39 16.2
-3 -7 14 88.39 8.6
2 7 -14 591.84 37.8
-2 -7 14 665.03 46.3
-2 -7 14 589.74 47.1
1 7 -14 88.99 8.4
-1 -7 14 97.49 15.8
-1 -7 14 97.19 16.4
0 7 -14 144.59 12
0 -7 14 149.09 17.4
0 -7 14 171.58 19
-1 7 -14 664.73 43
1 -7 14 685.23 49.99
1 -7 14 703.63 50.49
-2 7 -14 902.11 55.59
2 -7 14 833.72 60.39
2 -7 14 896.11 67.49
-3 7 -14 1086.79 66.09
3 -7 14 1046.8 72.19
3 -7 14 952.4 68.79
4 -7 14 487.65 37.9
4 -7 14 453.95 39.5
5 -7 14 105.59 19.1
5 -7 14 90.39 15.3
6 -7 14 27 9.3
6 -7 14 27.4 11.7
7 -7 14 137.49 16
-8 7 -14 119.19 21.6
8 -7 14 103.09 13.8
-9 7 -14 22.8 10.8
9 -7 14 6.9 4.4
-9 -6 14 141.29 23.8
-9 -6 14 120.09 17.7
-9 -6 14 108.39 21.4
-8 -6 14 13.5 6.9
-8 -6 14 13.9 8.6
-8 -6 14 31.1 11.6
-7 -6 14 130.79 14.1
-7 -6 14 92.59 18.2
-7 -6 14 117.29 25
-6 -6 14 75.69 17.2
-6 -6 14 88.79 10.9
-5 -6 14 94.89 18.1
-5 -6 14 107.69 10.6
-4 -6 14 4.4 5.7
-4 -6 14 7.5 2.9
3 6 -14 186.38 12.5
-3 -6 14 206.78 22.1
-3 -6 14 150.58 11.7
2 6 -14 727.73 43.8
-2 -6 14 709.43 54.29
-2 -6 14 780.52 52.99
1 6 -14 92.59 7.5
-1 -6 14 63.29 13.5
-1 -6 14 81.29 14.1
0 6 -14 57.49 6.3
0 -6 14 70.09 13.7
0 -6 14 66.39 12.4
-1 6 -14 701.93 46.2
1 -6 14 800.62 54.19
1 -6 14 758.72 53.79
-2 6 -14 16.7 4.9
2 -6 14 23.2 7.8
2 -6 14 32.3 9.3
3 -6 14 41.6 10
3 -6 14 22.8 10.5
4 -6 14 133.29 16.9
4 -6 14 140.19 18.2
5 -6 14 131.99 17
5 -6 14 148.49 22.8
6 -6 14 619.74 51.69
6 -6 14 649.64 47.5
-7 6 -14 14.7 8.2
7 -6 14 3.1 10.9
7 -6 14 23.5 8
-8 6 -14 154.98 25.2
8 -6 14 213.48 22
-9 6 -14 67.49 16.4
9 -6 14 47.8 8.3
-10 -5 14 10.9 21.8
-10 -5 14 83.69 14.6
-10 -5 14 55.29 17.4
-9 -5 14 77.79 17.9
-9 -5 14 69.09 12.4
-9 -5 14 53.69 14.3
-8 -5 14 86.59 13.3
-8 -5 14 68.49 17
-8 -5 14 94.09 19.4
-7 -5 14 125.29 14
-7 -5 14 93.39 18.7
-7 -5 14 108.29 19.7
-6 -5 14 1.8 5.8
-6 -5 14 12.2 4.7
-5 -5 14 52.49 6.6
-5 -5 14 30.3 11.2
-4 -5 14 228.98 25.2
-4 -5 14 236.88 15.6
-3 -5 14 327.47 30.7
-2 -5 14 36.7 10.4
1 5 -14 3277.77 183.38
-1 -5 14 3168.88 195.18
0 5 -14 184.88 13.4
0 -5 14 220.08 20.6
0 -5 14 171.38 20
-1 5 -14 443.06 30.9
-1 5 -14 513.65 38.7
1 -5 14 501.55 38.1
1 -5 14 478.45 38.3
-2 5 -14 966.2 66.29
2 -5 14 908.91 65.89
2 -5 14 1033.8 67.09
-3 5 -14 103.09 14.5
3 -5 14 130.49 15.8
3 -5 14 103.89 14.6
-4 5 -14 588.94 44.2
4 -5 14 605.24 51.19
4 -5 14 581.14 44.6
-5 5 -14 351.76 30.9
-5 5 -14 368.06 30.1
5 -5 14 363.16 33.3
5 -5 14 337.37 30.8
-6 5 -14 36.5 10.9
6 -5 14 29 9
6 -5 14 63.69 15.1
-7 5 -14 237.38 26.1
7 -5 14 216.18 27.2
7 -5 14 252.17 23.2
-8 5 -14 10.1 7.9
8 -5 14 -4 14.2
-9 5 -14 194.58 24.2
9 -5 14 138.79 14.9
-10 -4 14 117.49 23.2
-10 -4 14 128.79 24.1
-10 -4 14 123.79 18.6
-9 -4 14 61.89 17
-9 -4 14 62.79 12.2
-9 -4 14 68.99 15.8
-8 -4 14 16.8 6.5
-8 -4 14 12.3 8.8
-8 -4 14 17.7 10.1
-7 -4 14 379.26 36.2
-7 -4 14 320.17 34.6
-7 -4 14 384.56 27.7
-6 -4 14 2.9 6.4
-6 -4 14 -1.8 2.8
-6 -4 14 4.1 5.9
-5 -4 14 502.45 43.3
-5 -4 14 537.45 33.1
-4 -4 14 20.6 8.8
-3 -4 14 170.78 20.3
-2 -4 14 726.53 53.69
1 4 -14 17.8 1.9
1 4 -14 14.1 6.3
-1 -4 14 16.6 6.9
0 4 -14 1532.15 96.79
0 4 -14 1428.06 86.49
0 4 -14 1506.05 87.39
0 -4 14 1538.45 95.49
0 -4 14 1480.55 96.89
-1 4 -14 164.58 19.3
-1 4 -14 185.78 14.4
-1 4 -14 192.08 15.1
1 -4 14 151.48 19.1
1 -4 14 205.68 19.6
-2 4 -14 160.08 15
-2 4 -14 167.58 18.4
2 -4 14 152.68 18.3
2 -4 14 156.68 18.1
-3 4 -14 36.4 8.3
-3 4 -14 53.29 10.8
3 -4 14 37.2 9.6
3 -4 14 43.2 10.6
-4 4 -14 213.98 21.4
-4 4 -14 196.98 20.2
4 -4 14 198.18 21.3
4 -4 14 197.38 21.6
-5 4 -14 126.59 15.8
-5 4 -14 117.29 17.9
5 -4 14 117.49 18.4
5 -4 14 127.49 31.1
-6 4 -14 612.24 48.7
-6 4 -14 676.33 47
6 -4 14 619.74 47.7
6 -4 14 631.44 50.09
-7 4 -14 81.79 16.3
7 -4 14 70.29 13.6
7 -4 14 82.19 16.3
-8 4 -14 359.76 34.1
8 -4 14 322.37 33.3
8 -4 14 281.87 26.8
-9 4 -14 12.8 9.8
9 -4 14 17.1 6.4
9 -4 14 18.3 22.3
-10 -3 14 5.3 7.7
-10 -3 14 4 9.4
-10 -3 14 6.9 8.3
-9 -3 14 120.29 14.7
-9 -3 14 65.89 34
-9 -3 14 111.39 22.3
-8 -3 14 280.17 23.1
-8 -3 14 251.97 29.9
-8 -3 14 255.47 29.5
-7 -3 14 44.2 12.7
-7 -3 14 40 7.6
-7 -3 14 48.1 13.2
-6 -3 14 835.22 64.29
-6 -3 14 941.91 54.19
-6 -3 14 793.82 65.09
-5 -3 14 448.26 39
-5 -3 14 443.26 27.5
-4 -3 14 451.95 38.4
-3 -3 14 190.18 21.2
2 3 -14 541.95 42
-2 -3 14 525.15 42.2
1 3 -14 1913.61 120.29
-1 -3 14 1915.51 121.49
0 3 -14 70.69 13
0 3 -14 67.79 6
0 3 -14 57.79 6.2
0 -3 14 52.49 11.9
-1 3 -14 492.45 32.9
-1 3 -14 519.55 39.5
1 -3 14 463.25 39.7
1 -3 14 515.95 38.5
-2 3 -14 1025.3 65.49
-2 3 -14 1114.09 71.19
2 -3 14 998.1 71.19
2 -3 14 1036.1 69.69
-3 3 -14 5.9 4.2
-3 3 -14 3.6 4.4
3 -3 14 -4.2 3.4
3 -3 14 8.4 5.1
-4 3 -14 1923.31 121.79
-4 3 -14 2080.99 124.09
4 -3 14 1993.1 125.39
4 -3 14 1919.71 124.19
-5 3 -14 36.3 10.3
-5 3 -14 33.7 9.8
5 -3 14 28.4 10.4
5 -3 14 20.9 9.6
-6 3 -14 87.09 15.1
-6 3 -14 101.59 17.6
6 -3 14 97.59 16.6
-7 3 -14 128.09 16.7
-7 3 -14 198.48 22.4
7 -3 14 180.78 19.6
7 -3 14 153.38 23.8
-8 3 -14 62.29 16.9
-8 3 -14 54.69 11.1
8 -3 14 73.49 12.5
8 -3 14 84.19 16.3
-9 3 -14 152.48 24.6
9 -3 14 110.89 41.2
9 -3 14 164.58 24.9
-10 -2 14 89.19 19
-10 -2 14 118.19 21
-10 -2 14 75.39 14.2
-9 -2 14 8.1 11.9
-9 -2 14 21.9 7
-8 -2 14 117.59 23.4
-8 -2 14 148.49 20.8
-8 -2 14 143.49 15
-7 -2 14 145.79 24.8
-7 -2 14 143.69 23.8
-7 -2 14 156.28 14.4
-6 -2 14 117.79 21.6
-6 -2 14 143.79 12
-6 -2 14 134.99 22.3
-5 -2 14 297.87 18.1
-5 -2 14 291.47 29.6
4 2 -14 93.19 13.3
-4 -2 14 97.89 17.2
3 2 -14 489.35 38.9
-3 -2 14 481.45 40.4
2 2 -14 183.28 19.7
-2 -2 14 165.88 20.2
1 2 -14 233.38 23
-1 -2 14 191.58 21.9
0 2 -14 409.36 33.2
0 2 -14 392.86 25.2
0 -2 14 379.16 33.8
-1 2 -14 196.28 15.7
-1 2 -14 203.28 21
1 -2 14 182.68 21.3
-2 2 -14 1325.67 82.79
-2 2 -14 1204.38 76.49
2 -2 14 1193.58 82.99
2 -2 14 1228.68 80.29
-3 2 -14 762.02 53.89
-3 2 -14 731.93 50.49
3 -2 14 749.42 52.79
3 -2 14 723.83 54.59
-4 2 -14 33.4 10.2
-4 2 -14 27.4 7.9
4 -2 14 16.7 7.6
4 -2 14 25.2 8.7
-5 2 -14 291.27 26.2
-5 2 -14 257.97 25.7
5 -2 14 258.27 26.4
5 -2 14 288.47 27.6
-6 2 -14 68.59 14.9
-6 2 -14 72.59 13
6 -2 14 73.29 14.8
6 -2 14 72.39 14.9
-7 2 -14 177.08 22.3
-7 2 -14 119.59 16.1
7 -2 14 164.58 37.3
7 -2 14 148.09 18.5
-8 2 -14 172.38 25.6
-8 2 -14 138.09 16.4
8 -2 14 165.18 21.7
8 -2 14 147.29 18.4
-9 2 -14 3.5 8.3
9 -2 14 15.2 12.5
9 -2 14 9.4 7.9
-10 -1 14 35.4 16.8
-10 -1 14 48 11.6
-10 -1 14 30.7 13.6
-9 -1 14 198.28 20.4
-9 -1 14 198.48 27.8
-9 -1 14 217.08 27.1
-8 -1 14 38.8 14.4
-8 -1 14 51.99 13.8
-8 -1 14 69.39 11.4
-7 -1 14 17.4 8.5
-7 -1 14 19.6 5.4
-7 -1 14 4.5 8.1
-6 -1 14 567.14 35.4
-6 -1 14 492.35 47.3
-6 -1 14 624.84 36.6
-6 -1 14 566.04 47.3
-5 -1 14 131.29 19.1
-5 -1 14 165.18 21.5
4 1 -14 1579.84 101.69
-4 -1 14 1563.04 103.79
3 1 -14 102.39 16.5
-3 -1 14 77.39 16.2
2 1 -14 658.73 49.9
-2 -1 14 723.13 53.19
1 1 -14 1345.07 88.69
-1 -1 14 1366.56 90.79
0 1 -14 936.31 57.19
0 1 -14 1018.6 66.99
0 -1 14 926.31 67.19
-1 1 -14 2252.87 133.19
-1 1 -14 2094.29 124.59
1 -1 14 2019.8 133.49
-2 1 -14 116.79 16.2
-2 1 -14 121.39 12.8
2 -1 14 127.69 14.9
2 -1 14 116.29 16.6
-3 1 -14 122.59 14.1
-3 1 -14 135.29 17.1
3 -1 14 133.89 15.7
3 -1 14 112.59 19
-4 1 -14 15 6.5
-4 1 -14 7 6.4
4 -1 14 0.6 5.1
4 -1 14 0.1 4.9
-5 1 -14 5.6 5.8
-5 1 -14 -7.3 5.5
5 -1 14 12.2 6.8
5 -1 14 -4.5 5.1
-6 1 -14 448.56 40.2
-6 1 -14 514.45 39.5
6 -1 14 457.65 39.5
6 -1 14 500.75 40.5
-7 1 -14 1.5 5.5
-7 1 -14 31.4 11.1
7 -1 14 8.6 7.7
7 -1 14 25.8 10
-8 1 -14 -5.2 7.6
-8 1 -14 -14.3 6.2
8 -1 14 14.7 11
8 -1 14 9.1 7.5
-9 1 -14 141.79 17.6
-9 1 -14 225.78 26.3
9 -1 14 195.78 21
9 -1 14 170.38 24.9
-10 0 14 92.59 24.7
-10 0 14 64.39 12
-10 0 14 60.59 17.6
-9 0 14 -12 5.8
-9 0 14 14.3 11.3
-9 0 14 6 5.7
-8 0 14 255.97 29.1
-8 0 14 246.58 57.39
-7 0 14 86.59 9.7
-7 0 14 73.59 18.6
-7 0 14 97.89 18.4
-7 0 14 70.29 8.3
-6 0 14 59.89 6.7
-6 0 14 63.49 15.6
-6 0 14 51.69 5.8
-6 0 14 56.79 14.6
5 0 -14 563.54 51.39
-5 0 14 606.94 51.19
-5 0 14 655.13 50.39
4 0 -14 -2.5 4.6
-4 0 14 -1.6 5.1
3 0 -14 915.21 66.09
-3 0 14 1024.7 70.09
2 0 -14 30.5 8.5
-2 0 14 22.5 8.8
1 0 -14 1203.38 77.99
1 0 -14 1103.99 65.89
-1 0 14 1166.28 79.49
0 0 -14 384.66 32.1
0 0 -14 351.36 23.8
0 0 14 345.07 32.8
-1 0 -14 21.2 5
-1 0 -14 25 8.7
1 0 14 10 6.6
-2 0 -14 123.39 15.7
-2 0 -14 141.89 18.2
2 0 14 141.99 17.9
2 0 14 137.89 15.5
-3 0 -14 105.99 17.9
-3 0 -14 128.99 14.4
3 0 14 120.69 19.9
3 0 14 137.09 15.7
-4 0 -14 549.54 43
-4 0 -14 616.44 47
4 0 14 593.54 47.5
4 0 14 605.34 44.1
-5 0 -14 360.16 29.8
-5 0 -14 263.87 26.6
5 0 14 267.27 28
5 0 14 264.77 26.1
-6 0 -14 310.77 34.5
-6 0 -14 341.37 30.5
6 0 14 270.57 27.4
6 0 14 305.47 30.2
-7 0 -14 169.68 21.9
-7 0 -14 238.68 25.8
7 0 14 230.28 24
7 0 14 242.38 24.9
-8 0 -14 -1.4 6.9
-8 0 -14 -0.2 7.7
8 0 14 -9.2 7.7
8 0 14 5.8 6.9
-9 0 -14 25.2 11
-10 1 14 43.3 14.6
-10 1 14 31.4 8
-10 1 14 35.6 10
-10 1 14 7.1 12.4
-9 1 14 96.99 12.2
-9 1 14 57.29 16.4
-9 1 14 65.19 18
-9 1 14 67.39 10.5
-8 1 14 154.68 27.1
-8 1 14 180.88 29.4
-8 1 14 162.58 22.4
-8 1 14 145.19 14.2
-7 1 14 143.19 12.8
-7 1 14 168.58 22.1
-7 1 14 170.88 14.4
-7 1 14 160.48 26.8
6 -1 -14 68.69 13.9
-6 1 14 57.09 6.7
-6 1 14 46.9 13.6
-6 1 14 50.19 5.6
-6 1 14 61.89 14.6
5 -1 -14 63.79 16.4
-5 1 14 70.69 4.8
-5 1 14 86.39 16.9
-5 1 14 42.1 13.1
-5 1 14 57.39 4.7
4 -1 -14 612.54 47.1
-4 1 14 644.44 51.39
-4 1 14 612.04 49.99
3 -1 -14 43 10.8
-3 1 14 25.9 9.9
2 -1 -14 1000.7 67.99
-2 1 14 952.8 69.69
1 -1 -14 56.49 5.6
1 -1 -14 60.29 12.5
-1 1 14 46.1 12.3
0 -1 -14 1088.69 71.79
0 -1 -14 1028.3 61.89
0 1 14 948.21 71.89
-1 -1 -14 429.86 30.2
-1 -1 -14 439.96 36.5
1 1 14 422.46 37.8
-2 -1 -14 257.57 21.4
-2 -1 -14 254.87 25.9
2 1 14 234.28 26
-3 -1 -14 747.63 52.39
-3 -1 -14 847.32 58.19
3 1 14 758.12 53.19
3 1 14 735.63 57.89
-4 -1 -14 372.16 31.5
-4 -1 -14 377.66 34.7
4 1 14 372.66 31.1
4 1 14 397.36 35.7
-5 -1 -14 1205.98 79.89
-5 -1 -14 1171.38 78.39
5 1 14 1105.19 76.19
5 1 14 1134.59 80.79
-6 -1 -14 186.08 22.6
-6 -1 -14 177.98 22.4
6 1 14 171.58 22.1
6 1 14 177.78 20.3
-7 -1 -14 67.79 15.7
-7 -1 -14 59.99 15
7 1 14 58.79 13.3
7 1 14 50.29 13.4
-8 -1 -14 -10.6 8.1
8 1 14 18.7 10
8 1 14 6.3 7
-11 2 14 44.5 18
-11 2 14 63.19 13.3
-11 2 14 69.09 30.6
-11 2 14 61.99 12.4
-10 2 14 18.3 12.7
-10 2 14 32.4 9
-10 2 14 25.5 12.4
-10 2 14 22.9 8.8
-9 2 14 164.68 29.9
-9 2 14 151.48 25
-9 2 14 136.09 15.1
-9 2 14 179.88 17.5
-8 2 14 93.99 20.6
-8 2 14 69.09 16.4
-8 2 14 63.89 9.5
7 -2 -14 36.1 10.6
-7 2 14 13.8 10.7
-7 2 14 30.4 5.9
-7 2 14 37.9 7
-7 2 14 24.9 10.2
6 -2 -14 214.38 22.3
-6 2 14 172.78 24.8
-6 2 14 196.78 15.1
-6 2 14 192.08 14.3
-6 2 14 191.48 24.4
5 -2 -14 128.69 16.7
-5 2 14 126.89 9.2
-5 2 14 110.79 19.9
-5 2 14 123.09 9.1
-5 2 14 113.79 21.6
4 -2 -14 35.7 16.7
-4 2 14 38.1 11.3
-4 2 14 41.5 11.8
3 -2 -14 161.08 20.5
-3 2 14 212.28 24.3
-3 2 14 209.18 23.8
2 -2 -14 1.3 1.5
2 -2 -14 3.4 5.6
-2 2 14 -0.7 4.4
1 -2 -14 2199.98 136.49
1 -2 -14 2105.89 124.99
-1 2 14 2212.98 139.09
0 -2 -14 -0.5 2.5
0 -2 -14 5 6.4
0 2 14 1.7 3.8
-1 -2 -14 387.56 34
-1 -2 -14 353.36 27.1
1 2 14 396.16 35.3
-2 -2 -14 95.99 16.8
-2 -2 -14 74.99 12
2 2 14 105.69 18.8
-3 -2 -14 140.39 15.9
-3 -2 -14 173.38 20.4
3 2 14 135.79 19.7
3 2 14 156.38 17
-4 -2 -14 45.4 19.8
-4 -2 -14 34.4 9.5
4 2 14 27.1 8.8
4 2 14 54.89 13.8
-5 -2 -14 75.19 14.7
-5 -2 -14 77.89 17.1
5 2 14 77.79 14
5 2 14 90.59 17.9
-6 -2 -14 197.68 23.8
-6 -2 -14 213.88 24.6
6 2 14 212.38 25.8
6 2 14 212.28 22.6
-7 -2 -14 176.68 23.3
-7 -2 -14 172.78 22.3
7 2 14 202.68 23.4
7 2 14 141.89 19.4
-8 -2 -14 17 9.8
8 2 14 5.5 8.1
8 2 14 13.9 9.4
-11 3 14 79.39 18.1
-11 3 14 68.79 14.3
-11 3 14 103.49 15.9
-11 3 14 71.39 21.4
-10 3 14 58.49 10.7
-10 3 14 57.79 11.8
-10 3 14 40.1 17.6
-10 3 14 64.39 16.5
-9 3 14 18 5.7
-9 3 14 9.2 6.7
-9 3 14 38.7 12.7
-9 3 14 -2.4 9.4
-8 3 14 126.09 23.3
-8 3 14 149.79 13.4
-8 3 14 116.59 22.3
-8 3 14 119.29 24.9
7 -3 -14 7.3 6.2
-7 3 14 13.1 15.7
-7 3 14 -9.9 4.6
-7 3 14 2.7 2.8
-7 3 14 -3.8 2.8
6 -3 -14 -2.1 5.5
-6 3 14 6.4 6.1
-6 3 14 -3.8 4.4
-6 3 14 -1.6 2.7
-6 3 14 3 2.8
5 -3 -14 874.41 61.09
-5 3 14 914.51 67.99
-5 3 14 817.42 64.59
-5 3 14 825.12 50.99
4 -3 -14 245.78 25.4
-4 3 14 249.78 27.9
-4 3 14 220.88 15.4
-4 3 14 261.77 27.9
-3 3 14 624.84 48.5
-3 3 14 645.54 49
-3 3 14 489.45 33.1
2 -3 -14 12.6 7.4
2 -3 -14 10.8 2.8
-2 3 14 5.2 5.7
-2 3 14 8.1 6.7
-2 3 14 6.4 2.8
1 -3 -14 5.7 2.7
1 -3 -14 2.3 4.3
-1 3 14 -2.2 3.7
-1 3 14 -0.3 2.4
0 -3 -14 594.94 51.99
0 -3 -14 555.84 37
0 3 14 554.44 47.1
-1 -3 -14 208.58 38.7
-1 -3 -14 216.08 19.4
1 3 14 215.88 25.9
-2 -3 -14 1243.78 78.29
-2 -3 -14 1189.78 92.69
2 3 14 1254.47 86.99
-3 -3 -14 -7.2 4.2
-3 -3 -14 3.1 6.1
3 3 14 2.6 6.3
3 3 14 -1.2 4.3
-4 -3 -14 39.8 10.4
-4 -3 -14 51.69 13.2
4 3 14 25 10.7
4 3 14 57.19 11
-5 -3 -14 640.54 50.69
-5 -3 -14 705.53 53.89
5 3 14 658.93 48.1
5 3 14 673.83 54.69
-6 -3 -14 27.5 11.9
-6 -3 -14 38.9 12.5
6 3 14 43.2 10.6
6 3 14 35.3 13.4
-7 -3 -14 144.29 22.4
-7 -3 -14 103.19 18.3
7 3 14 115.69 17.4
7 3 14 109.89 19.7
-8 -3 -14 165.68 21.4
-8 -3 -14 118.49 22.4
8 3 14 130.49 18.1
8 3 14 114.79 21
-11 4 14 21 9.9
-11 4 14 36.4 14.5
-11 4 14 23.5 14.6
-11 4 14 50.69 10.7
-10 4 14 20.2 12
-10 4 14 47.5 14.7
-10 4 14 37.4 10.4
-10 4 14 28.9 8.8
-9 4 14 153.88 15.2
-9 4 14 233.68 30.8
-9 4 14 149.79 25.4
-9 4 14 142.99 17
8 -4 -14 -1.9 6.2
-8 4 14 -1.2 3.2
-8 4 14 -1.6 8
-8 4 14 5.4 4.6
-8 4 14 -8.6 6.4
7 -4 -14 385.06 31.9
-7 4 14 326.17 34
-7 4 14 316.67 35.8
-7 4 14 261.27 28.8
6 -4 -14 12.7 8.3
-6 4 14 14 9.9
-6 4 14 17.4 4.6
-6 4 14 21.5 10.7
5 -4 -14 56.79 12.4
-5 4 14 52.49 14.9
-5 4 14 49.6 14.7
-5 4 14 47.9 6.4
4 -4 -14 429.86 36.3
-4 4 14 386.66 38.7
-4 4 14 446.76 41
-4 4 14 412.96 27.2
3 -4 -14 427.46 36.6
-3 4 14 443.66 40
-3 4 14 513.95 42.6
-3 4 14 395.66 27.7
2 -4 -14 339.77 21.7
2 -4 -14 335.67 31.3
-2 4 14 263.67 21.9
-2 4 14 368.36 34.3
-2 4 14 367.86 34.5
1 -4 -14 49.9 7
1 -4 -14 29.8 10.4
-1 4 14 26.6 5.8
-1 4 14 24.5 9.6
-1 4 14 34.2 11.2
0 -4 -14 168.08 15.5
0 -4 -14 185.88 22.1
0 4 14 185.78 17
0 4 14 179.68 23
-1 -4 -14 1403.46 86.49
-1 -4 -14 1350.16 94.29
1 4 14 1422.16 88.09
1 4 14 1402.66 97.19
-2 -4 -14 9.6 7.2
-2 -4 -14 5.8 5.1
2 4 14 8.5 7
-3 -4 -14 335.17 28.9
-3 -4 -14 326.97 33.6
3 4 14 361.26 35.4
-4 -4 -14 35.8 9.9
-4 -4 -14 33.3 11.3
4 4 14 26.9 8.4
4 4 14 11.4 9.5
-5 -4 -14 41.1 13.8
-5 -4 -14 79.69 15
5 4 14 59.69 10.9
5 4 14 72.09 17.1
-6 -4 -14 347.27 41
-6 -4 -14 340.57 32.8
6 4 14 323.67 29.1
6 4 14 411.36 37.7
-7 -4 -14 13.8 9.2
7 4 14 3.8 6.2
7 4 14 -5.6 7.3
7 4 14 14.1 10.2
-10 5 14 -5.3 11.4
-10 5 14 3.2 8.2
-10 5 14 6.6 7.7
-10 5 14 9.4 6.5
9 -5 -14 25.3 11.9
-9 5 14 18.9 6.7
-9 5 14 14 6.2
-9 5 14 8.6 8.4
-9 5 14 22.3 11
8 -5 -14 332.77 29.8
-8 5 14 309.07 34
-8 5 14 301.67 36
-8 5 14 279.27 22.9
7 -5 -14 49.4 12.5
-7 5 14 43.7 15.1
-7 5 14 46.5 7.7
-7 5 14 60.49 16.4
6 -5 -14 75.29 14.5
-6 5 14 66.29 16.6
-6 5 14 71.49 8.7
5 -5 -14 466.05 37.2
-5 5 14 383.56 28.2
-5 5 14 416.26 40.5
-5 5 14 458.55 42.7
4 -5 -14 43.9 10.9
-4 5 14 39.9 6.6
-4 5 14 43.7 14.2
-4 5 14 37.2 12
3 -5 -14 555.14 45.6
3 -5 -14 593.44 35.8
-3 5 14 569.24 48.6
-3 5 14 500.55 36.4
-3 5 14 629.74 50.39
2 -5 -14 12.2 3.7
2 -5 -14 3.4 6.4
-2 5 14 3.4 2.7
-2 5 14 10 7.7
-2 5 14 11.2 8.2
1 -5 -14 361.46 33.7
1 -5 -14 332.47 24.6
-1 5 14 348.47 35.6
-1 5 14 364.66 34
0 -5 -14 59.09 9.7
0 -5 -14 60.29 14.4
0 5 14 54.49 10.4
0 5 14 57.29 14
0 5 14 61.29 15.7
-1 -5 -14 28.5 10.2
-1 -5 -14 2.2 4.7
1 5 14 11.8 7.2
1 5 14 17.5 10.6
1 5 14 9.1 5.6
-2 -5 -14 479.35 42.3
-2 -5 -14 479.85 35.8
2 5 14 519.35 45.1
2 5 14 478.55 37.8
2 5 14 426.06 38.7
-3 -5 -14 0.8 7.4
-3 -5 -14 -5.3 3.4
3 5 14 -14.2 6.3
3 5 14 3.1 4.5
-4 -5 -14 266.77 26.1
-4 -5 -14 292.67 37.1
4 5 14 286.67 26.4
4 5 14 232.28 29.3
4 5 14 245.88 23
-5 -5 -14 29.1 8.5
5 5 14 42.8 9.6
5 5 14 13.5 6.8
5 5 14 6.1 9.4
-6 -5 -14 24.2 10.5
6 5 14 22.2 9.1
6 5 14 28.3 7.8
-7 -5 -14 56.29 13.6
7 5 14 87.79 12.9
7 5 14 40.2 14.3
-10 6 14 117.99 18.4
-10 6 14 144.89 16.1
-10 6 14 142.69 28.6
-10 6 14 138.29 24.2
-9 6 14 18.6 7.1
-9 6 14 14.5 11.1
-9 6 14 27 11.7
8 -6 -14 36.5 12.8
-8 6 14 47 15.6
-8 6 14 17.2 11.6
-8 6 14 28.3 6.8
7 -6 -14 672.53 49
-7 6 14 594.34 41.2
-7 6 14 548.35 54.99
-7 6 14 675.93 55.29
6 -6 -14 -0.7 6.2
-6 6 14 5.6 7.1
-6 6 14 10.4 9.5
5 -6 -14 115.69 16.7
-5 6 14 117.39 11.7
-5 6 14 109.29 21
-5 6 14 151.58 25.4
4 -6 -14 145.49 19.2
-4 6 14 151.68 26.1
-4 6 14 121.29 22.8
-4 6 14 126.69 12.6
3 -6 -14 56.39 13.8
3 -6 -14 61.29 7.3
-3 6 14 41.4 7.8
-3 6 14 56.79 15.1
-3 6 14 73.39 17.5
2 -6 -14 170.38 14.3
2 -6 -14 164.88 20.5
-2 6 14 139.89 24.1
-2 6 14 171.68 22.7
1 -6 -14 11.2 6.3
1 -6 -14 -0.5 5.5
-1 6 14 8 7.2
-1 6 14 8.7 4.8
-1 6 14 5.4 7.1
0 -6 -14 -2.6 2.5
0 -6 -14 10.2 6.3
0 6 14 14.2 8.8
0 6 14 2.5 6.2
-1 -6 -14 331.97 33.5
-1 -6 -14 312.07 26.2
1 6 14 347.27 28.4
1 6 14 304.47 33.9
1 6 14 320.77 31.3
-2 -6 -14 10.5 6.2
-2 -6 -14 16.9 11.2
2 6 14 -6.6 6.4
2 6 14 6.1 5.5
2 6 14 7.5 6.7
-3 -6 -14 258.47 24.6
3 6 14 266.87 26.8
3 6 14 265.27 30.8
-4 -6 -14 8.7 14.1
4 6 14 13 16.5
4 6 14 42.6 11.1
4 6 14 37.1 8.8
-5 -6 -14 111.99 17.7
5 6 14 120.99 16.2
5 6 14 115.19 14.4
5 6 14 126.69 23.6
-6 -6 -14 37.9 12.5
6 6 14 44.2 9.6
6 6 14 54.69 10.8
6 6 14 51.49 15.7
-7 -6 -14 27.8 12.5
7 6 14 9.9 8.5
7 6 14 35.8 8.5
7 6 14 35.8 14.1
-10 7 14 1.4 5.8
-10 7 14 23.2 13.4
-9 7 14 105.69 24.5
-9 7 14 95.49 21.5
-9 7 14 107.29 13.2
-8 7 14 27.5 16.5
-8 7 14 53.39 9.2
-8 7 14 54.19 17.6
7 -7 -14 46.7 42
-7 7 14 51.59 16.1
-7 7 14 69.39 18.8
-7 7 14 46.7 8.8
6 -7 -14 44.2 11.8
-6 7 14 39.5 13.5
-6 7 14 24.7 5.8
-6 7 14 18.5 9.7
5 -7 -14 519.95 42.4
-5 7 14 494.85 46.7
-5 7 14 476.65 84.79
-5 7 14 483.25 34.4
4 -7 -14 39.2 12
-4 7 14 40.6 13.5
-4 7 14 54.29 16.5
-4 7 14 35.2 9
3 -7 -14 237.38 25.9
3 -7 -14 239.28 18.5
-3 7 14 228.68 28.2
-3 7 14 204.18 19.3
-3 7 14 294.07 31.1
2 -7 -14 29.3 10.1
-2 7 14 37.3 13.1
-2 7 14 47.8 15
-2 7 14 35.1 8.3
1 -7 -14 35.1 12.4
1 -7 -14 43.9 8.1
-1 7 14 47.8 9.1
-1 7 14 48.7 13.5
-1 7 14 36.6 12.6
0 -7 -14 116.49 12.8
0 7 14 92.59 18.3
0 7 14 90.19 20.4
0 7 14 111.39 14.1
-1 -7 -14 90.09 13.5
1 7 14 105.19 21.2
1 7 14 88.89 15.4
1 7 14 84.99 16.7
-2 -7 -14 121.59 15.6
2 7 14 135.79 17.9
2 7 14 145.29 22.2
2 7 14 112.99 27.9
-3 -7 -14 121.99 18.1
3 7 14 89.69 21
3 7 14 106.29 18.9
3 7 14 103.39 17.5
-4 -7 -14 22 9.8
4 7 14 39.2 10.3
4 7 14 38.3 9.6
4 7 14 28.2 12.8
-5 -7 -14 44.8 12.1
5 7 14 69.19 16.7
5 7 14 49.99 10
5 7 14 51.29 11.4
-6 -7 -14 36.1 14.5
6 7 14 88.29 19.9
6 7 14 62.29 11.1
-10 8 14 138.19 26.6
-10 8 14 180.48 18.2
-10 8 14 114.09 28
-9 8 14 21.2 14.2
-9 8 14 -8.6 10.3
-9 8 14 0.5 5.9
-8 8 14 442.46 33.9
-8 8 14 489.05 83.49
-8 8 14 487.25 50.39
-7 8 14 2.2 4.1
-7 8 14 4.1 7.4
-7 8 14 -2.7 8.3
-6 8 14 3.4 7.8
-6 8 14 8.7 4.5
-6 8 14 5.4 8.9
-5 8 14 71.69 18.2
-5 8 14 123.49 24.2
-5 8 14 74.19 11.3
4 -8 -14 204.08 17.6
-4 8 14 200.78 27.3
-4 8 14 196.68 18.3
-4 8 14 144.49 27.4
3 -8 -14 130.89 12.8
-3 8 14 140.89 24.9
-3 8 14 107.69 22.2
-3 8 14 118.79 13.5
2 -8 -14 100.69 11.7
-2 8 14 113.59 13.7
-2 8 14 108.79 21.8
-2 8 14 114.89 21.9
1 -8 -14 329.27 26.3
-1 8 14 360.86 28.6
-1 8 14 330.27 34.9
-1 8 14 321.27 37.1
0 -8 -14 27.2 7.4
0 8 14 17.7 7.2
0 8 14 36.5 11.4
-1 -8 -14 -5.8 4.3
1 8 14 -0.3 6
1 8 14 4.7 6.3
-2 -8 -14 127.29 15.9
2 8 14 135.99 26.1
2 8 14 125.09 21.3
2 8 14 147.59 21.3
-3 -8 -14 166.68 26.6
3 8 14 177.08 21.7
3 8 14 183.68 30
-4 -8 -14 16.3 8.8
4 8 14 19.2 6.3
4 8 14 9.2 7.5
4 8 14 25.2 12.2
-5 -8 -14 166.68 24.3
5 8 14 137.19 25.5
5 8 14 140.69 17
5 8 14 133.39 16.4
-6 -8 -14 10.7 8.9
6 8 14 4.9 6.3
6 8 14 3 9.2
-10 9 14 -2.9 11.1
-10 9 14 14.9 15.7
-10 9 14 16.1 8.2
-9 9 14 80.09 15.4
-9 9 14 106.39 25.8
-9 9 14 99.19 23.1
-8 9 14 10.4 6.1
-8 9 14 14.3 12.2
-8 9 14 18.8 11.7
-7 9 14 714.13 60.79
-7 9 14 621.04 44.9
-7 9 14 656.03 60.99
-6 9 14 48.8 9.5
-6 9 14 29.8 17.2
-6 9 14 20.3 13
-5 9 14 4.7 19.9
-5 9 14 18.5 6.7
-5 9 14 4.9 7.9
4 -9 -14 335.47 26.3
-4 9 14 261.17 62.19
-4 9 14 384.16 28.9
-4 9 14 346.37 38.6
3 -9 -14 2.3 3.7
-3 9 14 2.7 4.7
-3 9 14 -1.2 4.9
-3 9 14 -3.7 9.9
2 -9 -14 176.28 16.7
-2 9 14 146.49 27.5
-2 9 14 186.18 26.1
-2 9 14 198.18 20.1
1 -9 -14 19.3 6.9
-1 9 14 29.9 10.9
-1 9 14 6.9 6.8
-1 9 14 17.3 9.9
0 -9 -14 25.8 7.8
0 9 14 27.7 13.7
0 9 14 34.8 12.1
0 9 14 61.19 11.9
-1 -9 -14 -1.6 5.2
1 9 14 12.2 7.5
1 9 14 -0.9 4.3
1 9 14 -12.3 6.9
-2 -9 -14 225.28 22.5
2 9 14 169.38 23.4
2 9 14 197.08 32.3
2 9 14 158.98 79.39
-3 -9 -14 188.08 21.2
3 9 14 172.48 29.8
3 9 14 145.49 20.4
-4 -9 -14 102.59 18.8
4 9 14 105.59 17.2
4 9 14 120.69 22.8
4 9 14 85.39 13.5
-5 -9 -14 42.4 12.8
5 9 14 43.5 15.1
5 9 14 40 10.2
5 9 14 26 8.7
-10 10 14 -0.7 13
-10 10 14 27.3 14
-9 10 14 42.8 19.3
-9 10 14 32.4 15.2
-9 10 14 41.6 9.4
-8 10 14 125.49 15
-8 10 14 105.89 25
-8 10 14 112.99 25.6
-7 10 14 24.6 11.4
-7 10 14 29.7 7.7
-7 10 14 13.4 12.7
-6 10 14 374.66 31
-6 10 14 526.45 49.8
-6 10 14 359.66 42.1
-5 10 14 394.26 29.5
-5 10 14 334.57 39.9
-5 10 14 296.57 38.6
4 -10 -14 5 4.9
-4 10 14 0.9 9.3
-4 10 14 -12.9 4.8
-4 10 14 -9.2 7.2
3 -10 -14 235.68 20.7
-3 10 14 256.67 23.2
-3 10 14 219.48 41.3
-3 10 14 206.88 28.2
2 -10 -14 131.59 15
-2 10 14 121.49 25.7
-2 10 14 168.08 27.7
-2 10 14 158.88 18.2
1 -10 -14 607.34 45.1
-1 10 14 594.94 53.89
-1 10 14 708.53 49.3
-1 10 14 646.54 58.39
0 -10 -14 227.68 22.5
0 10 14 213.28 30
0 10 14 231.18 24.7
0 10 14 239.18 28.4
-1 -10 -14 -6.1 5.2
1 10 14 7.3 9.1
1 10 14 1.1 8.8
1 10 14 9.2 9.2
-2 -10 -14 106.19 16.7
2 10 14 102.59 24.1
2 10 14 72.89 17.8
-3 -10 -14 55.09 13.6
3 10 14 84.69 19.8
3 10 14 40.2 13.1
-4 -10 -14 126.29 20.8
4 10 14 93.39 22.4
4 10 14 122.69 19
4 10 14 116.69 15.2
-5 -10 -14 182.78 23.5
5 10 14 190.98 17.8
5 10 14 202.98 45.7
5 10 14 133.29 29
-9 11 14 39.4 18.3
-9 11 14 35.1 16.3
-9 11 14 37.6 10.2
-8 11 14 36.2 9.5
-8 11 14 35.4 17.1
-8 11 14 3.8 10.7
-7 11 14 168.38 30.7
-7 11 14 226.88 21.6
-7 11 14 206.78 36
-6 11 14 159.68 30.6
-6 11 14 263.87 22.4
-6 11 14 227.08 37.7
-5 11 14 281.07 35.6
-5 11 14 289.77 26.3
-5 11 14 325.07 38.2
4 -11 -14 264.57 22.8
-4 11 14 209.08 35.5
-4 11 14 279.17 34.6
-4 11 14 252.17 24
3 -11 -14 7.5 5.8
-3 11 14 8.4 8
-3 11 14 3.7 6.2
-3 11 14 7.9 9.4
2 -11 -14 464.35 34.9
-2 11 14 476.45 38.6
-2 11 14 483.35 63.29
-2 11 14 363.56 43.6
1 -11 -14 71.89 12.7
-1 11 14 66.99 15.3
-1 11 14 64.89 17.7
-1 11 14 95.09 24.1
0 -11 -14 509.65 40.2
0 11 14 486.45 50.99
0 11 14 544.45 44
0 11 14 539.45 47.9
-1 -11 -14 108.19 28.5
1 11 14 92.19 22.6
1 11 14 94.19 19.8
-2 -11 -14 24 8.4
2 11 14 4.6 8.9
2 11 14 -13 8.6
-3 -11 -14 226.58 24.1
3 11 14 147.29 28.7
3 11 14 148.09 21.2
-4 -11 -14 20 10.7
4 11 14 5.1 9.4
4 11 14 19.4 14.9
4 11 14 33.5 9.1
-9 12 14 43.6 16.1
-9 12 14 55.79 20.5
-8 12 14 51.99 10.8
-8 12 14 21.6 12.2
-8 12 14 46.7 16.7
-7 12 14 85.49 14.2
-7 12 14 85.29 25
-6 12 14 477.55 50.29
-6 12 14 552.54 54.69
-6 12 14 421.36 41.2
5 -12 -14 457.55 35.8
-5 12 14 428.26 47.7
-5 12 14 553.44 53.09
-5 12 14 464.45 42.6
4 -12 -14 610.94 43.9
-4 12 14 632.94 65.29
-4 12 14 621.54 58.69
-4 12 14 585.34 57.59
3 -12 -14 280.77 25.9
-3 12 14 345.87 38.2
-3 12 14 307.27 38.3
-3 12 14 347.77 30.3
2 -12 -14 9.2 6.9
-2 12 14 8.1 9.2
-2 12 14 -1.8 8.5
-2 12 14 -18 6.7
1 -12 -14 1049.7 67.69
-1 12 14 893.71 80.49
-1 12 14 994.3 80.59
0 -12 -14 121.59 19
0 12 14 87.29 21.6
0 12 14 85.79 23.2
-1 -12 -14 359.36 33.1
1 12 14 383.66 43.3
1 12 14 374.36 37.3
-2 -12 -14 224.98 25.3
2 12 14 241.88 27
2 12 14 247.68 35
-3 -12 -14 43.1 13.1
3 12 14 58.39 21.5
3 12 14 73.19 15.5
-4 -12 -14 112.49 19.5
4 12 14 65.79 20.8
4 12 14 88.79 15.9
4 12 14 78.89 12.8
-9 13 14 -15 12.3
-9 13 14 9.1 13.4
-8 13 14 55.99 18.8
-8 13 14 89.99 30.9
-7 13 14 125.09 28.2
-7 13 14 205.88 35.2
-7 13 14 143.69 20.1
-6 13 14 1.7 11.1
-6 13 14 22.5 14.3
-6 13 14 -5.2 6.9
5 -13 -14 447.66 35.2
-5 13 14 483.95 37.5
-5 13 14 500.35 51.29
-5 13 14 329.67 43.5
4 -13 -14 67.39 12.7
-4 13 14 78.29 15.7
-4 13 14 79.59 20.6
-4 13 14 46.2 17.8
3 -13 -14 269.47 23.8
-3 13 14 234.48 26.5
-3 13 14 187.68 35.1
-3 13 14 242.68 33.6
2 -13 -14 528.35 41
-2 13 14 575.84 52.69
-2 13 14 598.34 52.39
-2 13 14 413.06 49.2
1 -13 -14 34.4 18.7
-1 13 14 51.89 17.2
-1 13 14 10 11.5
0 -13 -14 297.97 29.8
0 13 14 329.17 37.4
0 13 14 363.16 41.4
-1 -13 -14 76.99 14.7
1 13 14 72.09 16.7
1 13 14 56.69 19.9
-2 -13 -14 306.37 30.4
2 13 14 219.98 39.4
2 13 14 339.47 32.2
-3 -13 -14 72.19 15.7
3 13 14 78.79 15.3
3 13 14 38.4 17.8
-8 14 14 21.1 16
-8 14 14 23.9 14.3
-7 14 14 70.09 22.9
-7 14 14 31.4 17.7
-6 14 14 233.68 38.6
-6 14 14 241.38 40.3
5 -14 -14 4 5.3
-5 14 14 -3.4 5.7
-5 14 14 -7.9 12.3
4 -14 -14 523.85 39.9
-4 14 14 460.95 51.79
-4 14 14 533.25 53.39
3 -14 -14 16.8 8.5
-3 14 14 9.3 10.7
-3 14 14 3.6 9.2
2 -14 -14 11.1 8.1
-2 14 14 7.9 12.4
-2 14 14 49.5 16.4
1 -14 -14 194.48 22.3
-1 14 14 204.38 28.2
-1 14 14 149.88 31.6
0 -14 -14 7.1 8.4
0 14 14 -3.4 7
0 14 14 17.7 11.8
-1 -14 -14 373.26 34.5
1 14 14 360.86 38.2
1 14 14 395.46 45.6
-2 -14 -14 18.3 11.5
2 14 14 10.7 10.4
2 14 14 11.2 26.7
-7 15 14 -16.1 13.5
-7 15 14 27.3 15.7
-6 15 14 178.58 35
-6 15 14 211.48 36.9
5 -15 -14 269.77 25.8
-5 15 14 206.38 38
-5 15 14 281.07 37.4
4 -15 -14 64.39 14
-4 15 14 82.59 22.3
-4 15 14 72.49 22.2
3 -15 -14 37.2 11.9
-3 15 14 36.2 15.6
-3 15 14 12 13.8
2 -15 -14 31.7 10.2
-2 15 14 -3.2 10.7
-2 15 14 10.9 10.9
1 -15 -14 82.99 15.2
-1 15 14 65.89 21.1
-1 15 14 38.5 17
0 -15 -14 88.19 16.5
0 15 14 58.49 21.4
0 15 14 74.89 19.8
-1 -15 -14 -5 8
1 15 14 0.3 12
1 15 14 -4 19.5
-6 16 14 34.2 27.3
5 -16 -14 229.38 23.4
-5 16 14 149.88 32.1
-5 16 14 225.28 38.4
4 -16 -14 96.39 17
-4 16 14 86.59 23.7
-4 16 14 90.09 26.7
3 -16 -14 39.1 11.6
-3 16 14 29.8 13.3
-3 16 14 -1.5 13.5
2 -16 -14 168.48 21.9
-2 16 14 225.48 30.6
-2 16 14 133.59 42.8
1 -16 -14 2.3 7.4
-1 16 14 13.5 13.1
0 -16 -14 91.39 16.7
0 16 14 95.69 22.4
0 16 14 74.49 21
5 -17 -14 0.6 9.4
4 -17 -14 108.99 17.2
-4 17 14 84.89 23.9
-4 17 14 106.49 25.7
3 -17 -14 133.19 19.9
-3 17 14 67.89 22.9
-3 17 14 66.19 22.1
2 -17 -14 23 11.5
-2 17 14 11.3 15.6
0 -21 15 -2.2 8.2
1 -21 15 14.6 9.4
-3 21 -15 93.09 30
-4 21 -15 214.98 28.5
4 -21 15 195.58 27.4
-2 -20 15 62.29 14.9
-1 -20 15 27.3 11.6
0 -20 15 372.46 35.6
1 -20 15 113.69 20.4
-3 20 -15 190.18 25.8
3 -20 15 181.98 25.4
-4 20 -15 1.2 9.6
4 -20 15 -3.8 8
-5 20 -15 112.89 22.5
5 -20 15 112.89 21
-3 -19 15 70.69 16.2
-2 -19 15 210.38 25.6
-1 -19 15 299.57 30.3
0 -19 15 1.9 6.2
1 -19 15 69.89 15.7
-3 19 -15 16.1 9.3
3 -19 15 15 8.9
-4 19 -15 435.96 41.4
4 -19 15 412.86 41
-5 19 -15 15.9 9.7
5 -19 15 22.3 10.1
6 -19 15 78.99 16.3
-4 -18 15 -7 6.5
-3 -18 15 112.39 19.2
-2 -18 15 102.09 18.2
-1 -18 15 75.99 15.9
0 -18 15 394.56 52.69
1 -18 15 1.1 8.1
2 -18 15 320.77 34.5
-3 18 -15 215.68 26.4
3 -18 15 150.38 25.5
-4 18 -15 12.1 8.7
4 -18 15 -1.4 6.4
-5 18 -15 329.47 37.2
5 -18 15 408.66 37.7
-6 18 -15 7.5 8.5
6 -18 15 -7.2 7.3
-7 18 -15 135.49 25
7 -18 15 167.58 21.3
-4 -17 15 46.3 12.7
-3 -17 15 172.18 27.6
-2 -17 15 64.89 14.8
1 17 -15 504.45 39.2
-1 -17 15 494.05 41.1
0 17 -15 -0.7 5.3
0 -17 15 15.9 8.3
-1 17 -15 312.97 32
1 -17 15 344.37 35.3
2 -17 15 132.79 23
-3 17 -15 271.17 29.5
3 -17 15 256.17 29
-4 17 -15 189.58 24.5
4 -17 15 153.48 20.7
-5 17 -15 86.39 18.6
5 -17 15 117.29 20.8
-6 17 -15 92.99 18.5
-7 17 -15 37.6 19.5
-5 -16 15 65.39 14.4
-5 -16 15 35.9 16.2
-4 -16 15 15.8 8.4
-4 -16 15 -5.5 5.4
3 16 -15 261.67 24.2
-3 -16 15 229.58 24.4
-3 -16 15 159.88 28.5
2 16 -15 22.4 8.2
-2 -16 15 44.3 11.5
1 16 -15 179.48 19.5
-1 -16 15 215.68 25.9
-1 -16 15 177.78 20.9
0 16 -15 248.68 23.9
0 -16 15 306.37 32.5
0 -16 15 272.97 26.6
-1 16 -15 75.99 12.8
1 -16 15 59.09 15.8
-2 16 -15 137.69 16.7
2 -16 15 154.98 21.2
-3 16 -15 169.38 22.3
3 -16 15 166.38 21.7
-4 16 -15 107.19 20.1
-5 16 -15 108.49 21.5
5 -16 15 148.79 19.4
-6 16 -15 96.59 20.6
6 -16 15 114.69 18.6
-7 16 -15 143.19 25.2
7 -16 15 202.48 22.1
-8 16 -15 6.4 7.4
8 -16 15 3.7 7.1
8 -16 15 3.8 12.8
-6 -15 15 -0.7 8.7
-5 -15 15 248.48 31.5
-5 -15 15 260.17 26.8
4 15 -15 104.99 16.5
-4 -15 15 108.09 17.5
-4 -15 15 77.29 17.8
3 15 -15 129.39 17.1
-3 -15 15 118.69 21.9
-3 -15 15 126.59 16.8
2 15 -15 52.49 11.6
-2 -15 15 50.99 11.9
-2 -15 15 34.2 12.1
1 15 -15 261.37 23.7
-1 -15 15 292.57 32.3
-1 -15 15 277.67 25.6
0 15 -15 167.68 17.5
0 -15 15 135.49 17.3
0 -15 15 186.98 23
1 -15 15 937.91 70.29
-2 15 -15 76.89 12.7
2 -15 15 81.89 16.8
-3 15 -15 178.08 19.3
3 -15 15 208.28 25.3
-4 15 -15 34.1 12.2
4 -15 15 57.49 13
-5 15 -15 495.05 46.8
5 -15 15 581.44 44.9
-6 15 -15 36.4 14.2
6 -15 15 81.99 15.5
-7 15 -15 131.59 23.2
7 -15 15 139.89 18.3
-8 15 -15 131.19 25
8 -15 15 180.98 20.4
-6 -14 15 252.17 33.1
-6 -14 15 300.27 28.1
5 14 -15 3.8 8.1
-5 -14 15 -12.1 6.4
-5 -14 15 -6.9 5.8
4 14 -15 229.78 36.3
-4 -14 15 258.47 24.3
-4 -14 15 191.78 26.6
3 14 -15 13.4 7.2
-3 -14 15 2.8 6.5
-3 -14 15 -2.1 5.3
2 14 -15 83.39 12.6
-2 -14 15 50.39 14.6
-2 -14 15 70.99 12.3
1 14 -15 179.48 16.5
-1 -14 15 139.29 17.1
-1 -14 15 122.09 22.5
0 14 -15 167.08 17.4
0 -14 15 184.78 19.4
0 -14 15 226.78 25.9
-1 14 -15 158.58 17.1
1 -14 15 190.88 24.2
-2 14 -15 134.99 15.3
2 -14 15 127.29 20.9
-3 14 -15 -5.8 4.5
-4 14 -15 1049.4 72.99
-4 14 -15 1091.99 79.59
4 -14 15 1204.68 78.19
-5 14 -15 6.1 6.4
5 -14 15 4.3 5.7
-6 14 -15 728.13 61.69
6 -14 15 815.92 57.29
-7 14 -15 113.59 23.4
7 -14 15 129.39 17.6
-8 14 -15 19.7 12
8 -14 15 43.6 11.1
-7 -13 15 52.59 15.3
-7 -13 15 62.39 14.8
6 13 -15 141.59 18.9
-6 -13 15 136.99 25.5
-6 -13 15 141.89 18.6
5 13 -15 184.18 26.6
-5 -13 15 201.28 27.6
-5 -13 15 249.38 22.9
4 13 -15 -2.1 5.6
-4 -13 15 -1 6.2
-4 -13 15 -3.7 5.6
3 13 -15 676.13 45.6
-3 -13 15 652.43 45.6
-3 -13 15 575.44 52.49
2 13 -15 115.89 13.5
-2 -13 15 122.39 21.7
-2 -13 15 110.69 13.9
1 13 -15 394.66 29.2
-1 -13 15 411.76 37.9
-1 -13 15 354.86 30.1
0 13 -15 65.09 10.7
0 -13 15 78.99 26.3
-1 13 -15 187.88 18.7
1 -13 15 231.48 25.2
-2 13 -15 128.09 14.4
2 -13 15 156.78 19.5
-3 13 -15 110.09 15.8
3 -13 15 115.99 19.1
-4 13 -15 192.88 20.2
4 -13 15 233.78 23.9
-5 13 -15 112.79 20.6
5 -13 15 118.59 16.3
-6 13 -15 6 8.5
6 -13 15 13.9 7.5
-7 13 -15 198.48 26.1
7 -13 15 260.97 24.3
-8 13 -15 51.39 15.5
8 -13 15 65.49 13.3
-7 -12 15 140.19 24.8
-7 -12 15 116.39 32.2
-7 -12 15 130.29 17.2
-6 -12 15 253.47 31.4
-6 -12 15 294.57 33.7
-6 -12 15 305.67 27.3
5 12 -15 1.8 6.3
-5 -12 15 5.2 6.3
-5 -12 15 -2 6.3
-5 -12 15 13.7 10
4 12 -15 1115.49 72.99
-4 -12 15 1026.6 81.79
-4 -12 15 1224.88 79.79
-4 -12 15 1177.18 74.19
3 12 -15 -6.2 4.2
-3 -12 15 -7.9 5.9
-3 -12 15 5.7 7.6
-3 -12 15 4.4 5
2 12 -15 812.92 52.69
-2 -12 15 804.32 61.79
-2 -12 15 770.52 52.59
-2 -12 15 794.82 59.69
1 12 -15 18.4 6
-1 -12 15 17.8 6.3
-1 -12 15 27.6 9.5
0 12 -15 34.3 7.6
0 -12 15 47.4 12.8
-1 12 -15 1526.75 96.19
1 -12 15 1635.04 104.99
-2 12 -15 301.77 24.8
2 -12 15 320.07 29.8
-3 12 -15 750.62 50.19
3 -12 15 722.33 54.69
-4 12 -15 79.29 13.5
4 -12 15 96.59 16.3
-5 12 -15 423.96 34.4
5 -12 15 428.66 35.8
-6 12 -15 311.77 33
6 -12 15 317.27 29
-7 12 -15 180.38 24.8
7 -12 15 191.18 21.3
-8 12 -15 81.49 19
8 -12 15 95.29 15.1
-9 12 -15 122.99 23.6
9 -12 15 113.99 13.5
-8 -11 15 -8.4 7.6
-8 -11 15 10.4 9.3
-8 -11 15 -1 6.2
-7 -11 15 20.8 11.3
-7 -11 15 -2 6.6
-7 -11 15 14.7 10.9
6 11 -15 53.99 11.8
-6 -11 15 73.09 13.2
-6 -11 15 74.19 12.9
-6 -11 15 84.29 18.9
5 11 -15 494.65 36.2
-5 -11 15 539.65 41.5
-5 -11 15 416.46 43.3
-5 -11 15 490.55 36.6
4 11 -15 88.29 12.6
-4 -11 15 62.09 15.8
-4 -11 15 56.19 13.6
-4 -11 15 82.19 12.3
3 11 -15 1093.69 65.79
-3 -11 15 960.3 65.19
-3 -11 15 990.7 75.49
-3 -11 15 1076.69 72.69
-2 -11 15 -1.7 6.4
-2 -11 15 20.2 14.8
1 11 -15 1129.59 71.09
-1 -11 15 1102.99 79.09
-1 -11 15 1217.68 81.99
0 11 -15 684.33 45.5
0 -11 15 717.93 54.49
0 -11 15 701.33 54.09
-1 11 -15 278.27 21.9
1 -11 15 272.37 27.8
1 -11 15 262.27 29.7
-2 11 -15 13.1 5.1
2 -11 15 31.9 9.4
-3 11 -15 141.09 15.2
3 -11 15 141.49 18
-4 11 -15 69.99 14.1
4 -11 15 57.99 12.6
-5 11 -15 403.46 31.7
5 -11 15 338.47 31.3
6 -11 15 44 11.3
7 -11 15 76.19 14.3
8 -11 15 -7.9 6
9 -11 15 4.8 5.3
-8 -10 15 52.19 15.5
-8 -10 15 46.5 11.7
-7 -10 15 64.19 16.8
-7 -10 15 71.89 12.9
-7 -10 15 103.19 16.7
-6 -10 15 27.6 11.5
-6 -10 15 26.4 10.6
-6 -10 15 20.8 7.6
5 10 -15 67.99 10.6
-5 -10 15 52.69 14.4
-5 -10 15 50.79 11.8
-5 -10 15 51.59 10
4 10 -15 1137.19 66.19
-4 -10 15 1114.99 72.89
-4 -10 15 842.42 92.59
-4 -10 15 921.31 74.59
3 10 -15 6.7 4.7
-3 -10 15 -5.9 4.9
-3 -10 15 -4.3 5.4
-3 -10 15 1 3.8
2 10 -15 396.46 37.8
-2 -10 15 341.17 27.9
-2 -10 15 479.95 39.4
-2 -10 15 456.95 36
1 10 -15 60.29 26.6
-1 -10 15 84.29 16.1
-1 -10 15 101.79 18
0 10 -15 640.74 41.1
0 -10 15 607.84 49
0 -10 15 616.34 48.5
-1 10 -15 19.7 5.4
1 -10 15 18.9 7.8
1 -10 15 30.9 9.2
-2 10 -15 91.39 11.3
2 -10 15 86.69 16.9
2 -10 15 96.09 16.7
-3 10 -15 799.12 52.49
3 -10 15 779.52 57.09
-4 10 -15 4.9 4.8
4 -10 15 10.7 5.8
-5 10 -15 375.96 30.3
5 -10 15 307.07 29.3
6 -10 15 14.9 6.4
7 -10 15 9.4 6.2
8 -10 15 114.09 15
9 -10 15 21 6.5
-8 -9 15 9.3 7.3
-8 -9 15 4 7.3
-8 -9 15 5.1 8.7
-7 -9 15 102.89 18.9
-7 -9 15 96.09 20
-7 -9 15 86.59 15.8
-7 -9 15 96.59 14.6
-6 -9 15 140.89 17.6
-6 -9 15 124.99 14.9
-6 -9 15 127.19 23.4
-5 -9 15 11.2 6
-5 -9 15 -5.5 10.4
-5 -9 15 -1.7 4.9
4 9 -15 3.3 7.5
-4 -9 15 26 10.1
-4 -9 15 7.8 4.7
-4 -9 15 27.1 9.5
3 9 -15 209.48 16.6
-3 -9 15 194.98 24.1
-3 -9 15 249.97 23.4
-3 -9 15 182.48 16
2 9 -15 -3.1 2.5
-2 -9 15 1.2 5.5
-2 -9 15 3.2 4.5
-2 -9 15 -2.9 2.1
1 9 -15 126.09 12
-1 -9 15 154.18 19.6
-1 -9 15 162.18 18.4
0 9 -15 186.68 15.4
0 -9 15 228.48 23.5
0 -9 15 172.28 20.7
-1 9 -15 668.93 44.8
1 -9 15 718.23 52.59
1 -9 15 726.23 53.49
-2 9 -15 341.87 24.9
2 -9 15 314.87 29.4
2 -9 15 319.97 31
-3 9 -15 19.6 5.4
3 -9 15 8.3 6.5
3 -9 15 14 8.8
-4 9 -15 66.19 12
4 -9 15 76.89 14.6
-5 9 -15 7.8 5.9
5 -9 15 -2 5.4
6 -9 15 156.88 19.1
7 -9 15 74.39 13.3
8 -9 15 13.2 6.3
-9 9 -15 62.99 15.7
9 -9 15 63.19 9.8
-9 -8 15 49.3 16.7
-9 -8 15 62.69 16.5
-9 -8 15 35.8 11.2
-8 -8 15 33.6 12.6
-8 -8 15 22.5 9.2
-8 -8 15 56.59 15.7
-7 -8 15 59.79 15.8
-7 -8 15 25 10.9
-7 -8 15 45.2 12.1
-7 -8 15 73.79 11.4
-6 -8 15 309.77 25.9
-6 -8 15 285.87 32.7
-6 -8 15 406.76 32.3
-5 -8 15 38.6 11.9
-5 -8 15 42.7 7.4
-5 -8 15 46.4 11.6
4 8 -15 58.69 7.8
-4 -8 15 77.69 13.7
-4 -8 15 68.29 8.1
-4 -8 15 53.49 13.8
3 8 -15 753.32 48.8
-3 -8 15 793.02 48.8
-3 -8 15 867.21 57.79
-3 -8 15 778.32 59.89
2 8 -15 360.96 24.6
-2 -8 15 364.86 31.8
-2 -8 15 388.56 34.5
1 8 -15 125.09 10.7
-1 -8 15 123.49 16.3
-1 -8 15 131.79 17.6
0 8 -15 35.2 5.8
0 -8 15 35.5 9.7
0 -8 15 42.3 11.1
1 -8 15 46.4 11.4
1 -8 15 41.5 11.4
-2 8 -15 216.58 17.2
2 -8 15 195.68 22.6
2 -8 15 172.68 20.6
-3 8 -15 138.69 14.7
3 -8 15 167.18 18.8
3 -8 15 174.88 21.2
-4 8 -15 94.39 12.7
4 -8 15 111.79 19.2
4 -8 15 109.49 14.8
5 -8 15 226.68 23.9
6 -8 15 7 6.5
7 -8 15 206.58 21.4
-8 8 -15 253.17 26.8
8 -8 15 191.28 21
-9 8 -15 -8 7.3
9 -8 15 -5.4 4.4
-9 -7 15 24.9 11.6
-9 -7 15 22.6 7.7
-8 -7 15 146.99 24.2
-8 -7 15 128.09 23.6
-8 -7 15 153.18 16.8
-7 -7 15 170.88 23.6
-7 -7 15 180.28 24.9
-7 -7 15 208.68 18.7
-6 -7 15 205.38 17.4
-6 -7 15 162.38 23.8
-5 -7 15 2.1 6.7
-5 -7 15 -2.9 2.7
-4 -7 15 11.1 7.2
-4 -7 15 3.9 2.4
3 7 -15 41.3 5.2
-3 -7 15 44.3 11
-3 -7 15 56.89 13.7
-3 -7 15 33.9 4.4
2 7 -15 10.7 2.9
-2 -7 15 -0.4 4.2
-2 -7 15 11.6 6.7
1 7 -15 255.17 17
-1 -7 15 218.98 24.8
-1 -7 15 253.57 24.6
0 7 -15 33.2 5.6
0 -7 15 41.8 10.2
0 -7 15 60.79 12.6
-1 7 -15 537.25 34.9
1 -7 15 541.55 42.5
1 -7 15 531.45 42.4
-2 7 -15 0.5 2.4
2 -7 15 -1.3 3.4
2 -7 15 1 3.4
-3 7 -15 559.54 37.9
3 -7 15 521.65 43.4
3 -7 15 515.15 41.7
4 -7 15 680.23 49.9
4 -7 15 628.44 50.99
5 -7 15 272.07 25.9
5 -7 15 254.77 29.2
6 -7 15 4 6.2
-7 7 -15 51.69 13.2
7 -7 15 43.3 10.8
-8 7 -15 102.89 20.5
8 -7 15 136.09 16.2
-9 7 -15 108.99 20.9
9 -7 15 129.99 14.1
-9 -6 15 48.9 15.9
-9 -6 15 48.2 14.5
-9 -6 15 54.69 11.1
-8 -6 15 112.39 14.1
-8 -6 15 114.69 21.6
-8 -6 15 105.29 20.4
-7 -6 15 140.49 24.2
-7 -6 15 200.58 19.9
-7 -6 15 161.18 22.8
-6 -6 15 380.66 64.59
-6 -6 15 449.06 30.8
-5 -6 15 255.67 18
-5 -6 15 206.78 25.8
-4 -6 15 385.06 34.9
-4 -6 15 339.67 22.1
-3 -6 15 54.59 13.5
2 6 -15 31.6 3.1
-2 -6 15 23.4 8.8
-2 -6 15 28.6 8.8
1 6 -15 88.89 7.1
-1 -6 15 77.99 15
-1 -6 15 64.39 16.1
0 6 -15 591.94 36.8
0 -6 15 600.24 51.89
0 -6 15 596.44 46.1
-1 6 -15 28 5.3
1 -6 15 33.1 9.3
1 -6 15 29 8.5
-2 6 -15 295.07 21.5
2 -6 15 251.97 25.9
2 -6 15 281.67 27
3 -6 15 413.46 36
3 -6 15 445.96 37.2
4 -6 15 953.8 67.09
4 -6 15 966.2 69.09
5 -6 15 315.57 31.1
5 -6 15 297.97 28.1
-6 6 -15 156.48 19.2
6 -6 15 128.09 26.7
6 -6 15 115.39 18.7
-7 6 -15 420.86 37.2
7 -6 15 381.66 33.4
-8 6 -15 15.2 9.8
8 -6 15 19.7 7.9
-9 6 -15 137.69 22.5
9 -6 15 120.79 14.7
-9 -5 15 22.7 8
-9 -5 15 20.5 10.7
-9 -5 15 14.6 9.4
-8 -5 15 10.3 6.3
-8 -5 15 0.9 7.5
-8 -5 15 18.7 9.6
-7 -5 15 227.08 28.1
-7 -5 15 223.88 28.3
-7 -5 15 295.07 21.5
-6 -5 15 27.1 11.3
-6 -5 15 41.8 6.8
-5 -5 15 434.56 27.5
-5 -5 15 434.06 38.9
-4 -5 15 42.5 11.3
-3 -5 15 407.76 36.4
-2 -5 15 726.63 54.69
1 5 -15 201.68 13.2
1 5 -15 224.28 13.2
-1 -5 15 185.08 22.1
-1 -5 15 237.38 39.5
0 5 -15 170.48 12.1
0 -5 15 147.19 18.5
0 -5 15 185.28 23.3
-1 5 -15 111.39 15.1
-1 5 -15 107.29 10.2
1 -5 15 142.29 17.1
1 -5 15 106.79 23.5
-2 5 -15 76.59 14.5
2 -5 15 101.39 14.2
2 -5 15 90.99 18.8
-3 5 -15 696.73 49.4
3 -5 15 629.24 48.8
3 -5 15 615.84 48.9
-4 5 -15 402.56 33
-4 5 -15 371.26 30.8
4 -5 15 353.06 32.4
4 -5 15 358.36 33.1
-5 5 -15 277.47 25.8
-5 5 -15 244.68 24.9
5 -5 15 260.37 27.9
5 -5 15 275.87 26.9
-6 5 -15 58.19 13.1
6 -5 15 31.7 10.3
6 -5 15 31.8 10.5
-7 5 -15 19.8 9
7 -5 15 16.5 8
-8 5 -15 206.78 25.4
8 -5 15 209.88 22.1
-9 5 -15 15.5 11
9 -5 15 3.3 6.7
-10 -4 15 8.7 11.2
-10 -4 15 3.8 7
-10 -4 15 6 11.3
-9 -4 15 233.18 29.5
-9 -4 15 276.87 24.2
-9 -4 15 246.08 30.8
-8 -4 15 101.79 20.3
-8 -4 15 104.49 12.8
-8 -4 15 87.59 24.6
-7 -4 15 175.18 24
-7 -4 15 168.18 15.5
-6 -4 15 311.37 20.8
-6 -4 15 244.68 30.1
-6 -4 15 286.87 30.9
-5 -4 15 158.28 10.5
-5 -4 15 149.29 21.3
-4 -4 15 492.25 41.8
-3 -4 15 891.11 64.89
-2 -4 15 567.44 45.2
1 4 -15 342.87 31.9
-1 -4 15 410.26 34.3
0 4 -15 2.1 5.3
0 4 -15 -0.2 1.8
0 4 -15 4.4 2.3
0 -4 15 5.2 4.4
0 -4 15 -2.2 4.4
-1 4 -15 170.68 13.9
-1 4 -15 169.08 14.2
-1 4 -15 175.88 20.2
1 -4 15 171.38 19.7
1 -4 15 167.38 18.8
-2 4 -15 496.35 35.1
-2 4 -15 499.35 40
2 -4 15 503.05 41
2 -4 15 511.35 44.2
-3 4 -15 32.1 8.3
-3 4 -15 22.3 7
3 -4 15 26.2 9.1
3 -4 15 16.5 9.2
-4 4 -15 1825.42 111.89
-4 4 -15 1725.33 109.39
4 -4 15 1706.23 112.69
4 -4 15 1756.52 113.19
-5 4 -15 53.99 11.5
-5 4 -15 40.1 11.5
5 -4 15 50.89 13
5 -4 15 64.39 13.4
-6 4 -15 19.7 8.3
-6 4 -15 29.7 9.5
6 -4 15 10.5 9.3
6 -4 15 16 8.7
-7 4 -15 46.3 12.5
7 -4 15 81.09 17.8
7 -4 15 85.79 14.9
-8 4 -15 1.1 8.5
8 -4 15 -16.8 6.2
-9 4 -15 76.19 17.9
-10 -3 15 64.29 21.4
-10 -3 15 66.99 19
-10 -3 15 122.19 15.3
-9 -3 15 11.7 9.5
-9 -3 15 8.3 5.6
-9 -3 15 -8.6 8.1
-8 -3 15 226.18 53.69
-8 -3 15 244.38 31.3
-8 -3 15 324.87 26.6
-7 -3 15 209.28 16.9
-7 -3 15 187.68 24.4
-7 -3 15 175.88 25
-6 -3 15 3.2 2.8
-6 -3 15 -0.6 5
-6 -3 15 10.7 8.4
-5 -3 15 1281.57 88.69
-4 -3 15 1.8 5.3
3 3 -15 1657.23 112.09
-3 -3 15 1873.51 115.69
2 3 -15 373.36 44.4
-2 -3 15 385.96 34.4
1 3 -15 -1.3 4.6
-1 -3 15 12.4 6.6
0 3 -15 1516.85 97.79
0 3 -15 1497.75 87.39
0 3 -15 1482.15 86.89
0 -3 15 1507.05 99.09
-1 3 -15 160.18 19.5
-1 3 -15 168.38 14.2
1 -3 15 188.78 19.6
1 -3 15 164.88 20.1
-2 3 -15 604.04 40.3
-2 3 -15 603.24 45.4
2 -3 15 577.44 44.3
2 -3 15 566.24 46.3
-3 3 -15 631.64 46.3
-3 3 -15 604.64 42.5
3 -3 15 630.94 47.7
3 -3 15 533.25 45.6
-4 3 -15 1.7 4.6
-4 3 -15 2.8 6
4 -3 15 -11.7 6.5
4 -3 15 -1.4 6.8
-5 3 -15 27.1 9.1
-5 3 -15 66.19 13.3
5 -3 15 69.59 14.7
5 -3 15 40.8 11.1
-6 3 -15 407.86 33.7
-6 3 -15 360.06 33.8
6 -3 15 353.96 35.1
6 -3 15 403.76 35
-7 3 -15 60.29 12.3
-7 3 -15 70.09 15.3
7 -3 15 84.79 15
7 -3 15 70.39 15.5
-8 3 -15 99.99 14.4
-8 3 -15 110.09 19.6
8 -3 15 96.99 16
8 -3 15 114.19 20.2
-9 3 -15 65.19 16.6
9 -3 15 50.79 10.9
-10 -2 15 61.99 11.7
-10 -2 15 20.5 13.5
-10 -2 15 28.4 13.6
-9 -2 15 260.97 32.2
-9 -2 15 308.37 24.8
-9 -2 15 251.87 32.5
-8 -2 15 2.1 8.6
-8 -2 15 -0.1 4.2
-8 -2 15 -8.9 10.3
-7 -2 15 272.67 20.2
-7 -2 15 238.38 28.1
-7 -2 15 270.07 30.9
-6 -2 15 195.68 14
-6 -2 15 240.78 14.9
-6 -2 15 190.48 25.6
-6 -2 15 187.08 24.7
-5 -2 15 51.69 14
4 2 -15 884.01 63.09
-4 -2 15 879.81 65.19
3 2 -15 60.29 12.9
-3 -2 15 66.89 14.7
2 2 -15 165.58 22.1
-2 -2 15 133.99 18.3
1 2 -15 122.69 16.3
-1 -2 15 174.58 20.7
0 2 -15 166.98 18.7
0 2 -15 146.79 11.2
0 -2 15 122.09 17.6
-1 2 -15 1346.07 83.49
-1 2 -15 1489.25 92.79
1 -2 15 1363.26 92.99
1 -2 15 1387.86 89.99
-2 2 -15 29.9 7.1
-2 2 -15 25.3 8.4
2 -2 15 36.7 10.9
-3 2 -15 83.19 15.5
-3 2 -15 78.99 12.3
3 -2 15 80.69 16.2
3 -2 15 61.39 12.7
-4 2 -15 1039.2 70.49
-4 2 -15 1152.48 74.19
4 -2 15 1013.7 73.59
4 -2 15 1037.1 74.09
-5 2 -15 160.58 18.9
-5 2 -15 157.98 19.2
5 -2 15 134.69 21.9
5 -2 15 145.79 25.6
-6 2 -15 183.58 20.1
-6 2 -15 134.99 25.2
6 -2 15 145.19 20.5
6 -2 15 153.78 21.1
-7 2 -15 61.39 13.3
-7 2 -15 94.99 17.5
7 -2 15 97.79 16.7
7 -2 15 77.79 16
-8 2 -15 6.1 5.9
-8 2 -15 3.6 8.6
8 -2 15 5.8 8
8 -2 15 -2.7 9.2
-10 -1 15 110.29 22.4
-10 -1 15 124.19 25.8
-10 -1 15 145.19 17.4
-9 -1 15 -8.1 7.2
-9 -1 15 2.4 5.4
-9 -1 15 -1.9 7.9
-8 -1 15 389.16 28.2
-8 -1 15 359.76 39.3
-8 -1 15 359.46 38.9
-7 -1 15 6.4 3.6
-7 -1 15 6.5 7.8
-7 -1 15 17.9 8.6
-7 -1 15 1.3 2.6
-6 -1 15 226.68 15
-6 -1 15 232.58 14.6
-6 -1 15 237.48 27.7
-6 -1 15 180.68 24.9
5 1 -15 936.11 63.19
-5 -1 15 953.2 66.19
-5 -1 15 706.23 63.89
4 1 -15 1294.07 85.29
-4 -1 15 1232.78 87.29
3 1 -15 272.17 26.9
-3 -1 15 268.37 28.5
2 1 -15 15.5 12.5
-2 -1 15 22.5 8.9
1 1 -15 1077.19 76.89
-1 -1 15 1205.48 79.99
0 1 -15 523.95 33.1
0 1 -15 541.15 42.5
0 -1 15 522.65 43.6
-1 1 -15 86.59 15.5
-1 1 -15 84.69 9.4
1 -1 15 83.09 16.5
-2 1 -15 271.77 26.6
2 -1 15 264.57 27.3
2 -1 15 242.48 24.1
-3 1 -15 209.78 20.6
-3 1 -15 252.77 24.8
3 -1 15 225.88 25.6
3 -1 15 228.48 22.4
-4 1 -15 317.77 28.4
-4 1 -15 374.16 32.3
4 -1 15 338.97 30.2
4 -1 15 327.57 32.7
-5 1 -15 326.37 29.1
-5 1 -15 341.67 30.1
5 -1 15 265.97 28.4
5 -1 15 299.37 30.5
-6 1 -15 5.2 8.1
-6 1 -15 9.7 8.8
6 -1 15 9.7 9.1
6 -1 15 4.5 13.9
-7 1 -15 172.38 20.6
-7 1 -15 166.78 22.2
7 -1 15 220.78 23.8
7 -1 15 186.78 22.7
-8 1 -15 25.3 11.6
-8 1 -15 26.5 9.4
8 -1 15 25.8 10.5
8 -1 15 32.5 12.5
-10 0 15 38.8 9.5
-10 0 15 30.2 8.4
-10 0 15 42.8 15.9
-10 0 15 28.1 14.5
-9 0 15 37.4 7.2
-9 0 15 41.9 15
-9 0 15 35.1 14.3
-9 0 15 22.6 7.8
-8 0 15 50.79 9
-8 0 15 31 12.3
-8 0 15 61.89 8.6
-8 0 15 36.2 13.2
-7 0 15 157.58 22.6
-7 0 15 189.28 14.8
-7 0 15 179.18 13.7
-6 0 15 471.35 27.8
-6 0 15 440.96 41.8
-6 0 15 466.75 28.1
-6 0 15 431.26 42.8
5 0 -15 664.33 50.59
-5 0 15 647.84 54.79
-5 0 15 677.93 53.99
4 0 -15 629.04 48.3
-4 0 15 620.24 50.79
3 0 -15 256.27 25.5
-3 0 15 250.47 27.6
2 0 -15 524.45 61.89
-2 0 15 625.64 48.5
1 0 -15 6.4 6.3
-1 0 15 8.8 7.1
0 0 -15 1052.89 72.99
0 0 -15 1055.79 62.79
0 0 15 1022.7 74.09
-1 0 -15 525.05 35.6
-1 0 -15 568.44 43.8
1 0 15 506.65 43.8
-2 0 -15 649.74 46.3
-2 0 -15 733.33 53.39
2 0 15 743.33 55.39
2 0 15 683.13 50.09
-3 0 -15 90.19 13.7
-3 0 -15 85.99 16.5
3 0 15 85.99 17.6
3 0 15 65.69 13.1
-4 0 -15 200.38 21.1
-4 0 -15 195.88 23.9
4 0 15 197.98 21.1
4 0 15 177.98 23.2
-5 0 -15 17.6 13.5
-5 0 -15 6 7.3
5 0 15 21.1 10.1
5 0 15 23.6 10.1
-6 0 -15 12.2 9.2
-6 0 -15 21.7 17.5
6 0 15 18.2 9.5
6 0 15 33 10.1
-7 0 -15 11.2 9.5
-7 0 -15 -12 15.7
7 0 15 4.8 8.7
7 0 15 23.7 8.8
-8 0 -15 78.59 24.5
-8 0 -15 109.39 19.6
8 0 15 61.39 16.2
8 0 15 103.49 17.7
-10 1 15 25.8 11.2
-10 1 15 34.8 13.2
-10 1 15 17.4 7.6
-10 1 15 6 6.8
-9 1 15 110.29 12.5
-9 1 15 119.99 24.4
-9 1 15 114.99 14.2
-9 1 15 120.49 38.2
-8 1 15 77.09 14.1
-8 1 15 83.59 18.7
-8 1 15 73.19 10.7
-8 1 15 86.19 19.9
-7 1 15 315.07 32.8
-7 1 15 295.67 20.4
-7 1 15 290.97 34.1
-7 1 15 295.17 21.5
6 -1 -15 348.77 30.6
-6 1 15 298.17 19.7
-6 1 15 326.67 19.7
-6 1 15 296.57 32.2
-6 1 15 258.17 31.9
5 -1 -15 -2.1 5.6
-5 1 15 0.8 6.7
-5 1 15 3.6 6.7
4 -1 -15 60.39 13.3
-4 1 15 60.39 15.6
-4 1 15 97.69 18.3
3 -1 -15 32.6 8.9
-3 1 15 30.4 10.4
2 -1 -15 382.56 34.9
-2 1 15 436.26 38.4
1 -1 -15 1711.93 123.79
1 -1 -15 1807.82 103.69
-1 1 15 1871.71 118.99
0 -1 -15 50.89 7.1
0 -1 -15 25.4 16.4
0 1 15 38 12.3
-1 -1 -15 1263.97 108.59
-1 -1 -15 1394.76 82.79
1 1 15 1359.16 93.19
-2 -1 -15 476.15 34.1
-2 -1 -15 479.25 46.7
2 1 15 458.45 41.3
-3 -1 -15 517.95 38.3
-3 -1 -15 518.15 44.2
3 1 15 511.55 44.1
3 1 15 508.15 39.3
-4 -1 -15 208.98 23.2
-4 -1 -15 179.98 19.8
4 1 15 160.58 22.8
4 1 15 193.08 20.3
-5 -1 -15 274.37 26.6
-5 -1 -15 272.47 27.9
5 1 15 265.67 25.8
5 1 15 249.97 28.4
-6 -1 -15 173.78 21.6
-6 -1 -15 211.08 25.1
6 1 15 175.18 21.9
6 1 15 157.98 23.1
-7 -1 -15 206.08 23
-7 -1 -15 139.59 22.3
7 1 15 149.09 19.7
7 1 15 149.99 21.5
-8 -1 -15 26 11.7
-8 -1 -15 23.8 10.6
8 1 15 37.1 12.5
8 1 15 44.9 14.2
-10 2 15 46.6 17
-10 2 15 25.9 7.2
-10 2 15 48.9 10.9
-10 2 15 23.9 11.1
-9 2 15 8.9 4.9
-9 2 15 -0.6 5.2
-9 2 15 23.9 13.7
-8 2 15 583.24 51.19
-8 2 15 559.64 38.6
-8 2 15 570.14 38.6
-8 2 15 499.55 51.29
7 -2 -15 145.09 19.5
-7 2 15 120.89 22.7
-7 2 15 130.29 25
-7 2 15 126.29 11.2
-7 2 15 157.88 12.9
6 -2 -15 0.6 5.5
-6 2 15 -1 1.9
-6 2 15 -4.7 5.2
-6 2 15 9.3 7.2
-6 2 15 3.1 2.1
5 -2 -15 1321.47 89.79
-5 2 15 1374.36 96.79
-5 2 15 1375.86 95.29
4 -2 -15 58.79 12.7
-4 2 15 61.79 15.5
-4 2 15 58.49 14.7
3 -2 -15 1410.36 94.29
-3 2 15 1402.96 98.19
-3 2 15 1466.25 98.49
2 -2 -15 230.38 25.2
2 -2 -15 269.47 16.2
-2 2 15 276.27 29.5
1 -2 -15 41.6 11.2
1 -2 -15 63.79 6.4
-1 2 15 56.29 14.1
0 -2 -15 477.55 41.2
0 -2 -15 482.15 32.8
0 2 15 561.14 45.3
-1 -2 -15 136.29 19.2
-1 -2 -15 145.09 14
1 2 15 142.69 20.3
-2 -2 -15 2250.37 137.99
-2 -2 -15 2377.26 145.69
2 2 15 2262.77 147.29
-3 -2 -15 119.29 13.8
-3 -2 -15 97.69 17.8
3 2 15 102.19 14.1
3 2 15 101.99 20.1
-4 -2 -15 103.59 18.1
-4 -2 -15 81.99 14.4
4 2 15 81.69 17.7
4 2 15 76.69 13.7
-5 -2 -15 80.19 15.3
-5 -2 -15 65.49 15.4
5 2 15 70.69 16.7
5 2 15 57.59 12.1
-6 -2 -15 27 10.2
-6 -2 -15 32 12.2
6 2 15 12.1 12.1
6 2 15 32.5 10.2
-7 -2 -15 96.59 19.1
-7 -2 -15 88.19 17.7
7 2 15 98.79 18.7
7 2 15 58.79 15.1
-8 -2 -15 153.08 25.9
-8 -2 -15 214.78 24.1
8 2 15 160.78 24.4
8 2 15 150.48 20.6
-10 3 15 6.8 12.8
-10 3 15 28.1 8.1
-10 3 15 40.9 10
-10 3 15 71.99 18.3
-9 3 15 192.78 19.3
-9 3 15 163.08 30.6
-9 3 15 181.68 16.8
-8 3 15 138.99 13.3
-8 3 15 149.49 26.2
-8 3 15 131.19 26.5
-8 3 15 170.88 15.4
7 -3 -15 258.57 30.9
-7 3 15 253.57 18.7
-7 3 15 255.37 31.6
-7 3 15 261.77 19.9
-7 3 15 250.07 29.7
6 -3 -15 95.59 17.1
-6 3 15 109.39 9.2
-6 3 15 106.79 21.4
-6 3 15 56.69 21
-6 3 15 101.59 9.2
5 -3 -15 393.86 32.9
-5 3 15 339.47 35.8
-5 3 15 342.77 21.2
-5 3 15 312.17 21.1
-5 3 15 350.06 35.4
4 -3 -15 459.85 37.1
-4 3 15 513.95 43.3
-4 3 15 443.16 40.6
-4 3 15 374.16 24
3 -3 -15 16.1 7.1
-3 3 15 22.1 2.9
-3 3 15 26.4 10.5
-3 3 15 28.8 11.1
2 -3 -15 108.59 18.7
2 -3 -15 99.49 8.2
-2 3 15 87.69 18.6
-2 3 15 111.79 20
1 -3 -15 57.09 6.7
1 -3 -15 55.59 12.9
-1 3 15 56.19 15
0 -3 -15 9.9 6.9
0 -3 -15 6.3 3.8
0 3 15 -2.2 4.9
-1 -3 -15 1711.93 112.69
-1 -3 -15 1646.74 103.09
1 3 15 1776.92 115.79
-2 -3 -15 108.19 19
-2 -3 -15 69.69 12.1
2 3 15 84.19 18.2
-3 -3 -15 84.49 13.8
-3 -3 -15 88.19 17.1
3 3 15 77.69 18.2
3 3 15 99.19 13.6
-4 -3 -15 273.07 30
-4 -3 -15 292.37 27.2
4 3 15 290.87 25.7
4 3 15 273.67 30.8
-5 -3 -15 15.6 8.8
-5 -3 -15 2.9 6.2
5 3 15 -4.1 6.8
5 3 15 -3.3 5.9
-6 -3 -15 41.1 12
6 3 15 48.3 14.9
6 3 15 57.19 12.1
-7 -3 -15 18.3 8.4
7 3 15 16.8 11.4
7 3 15 1.4 9.5
-10 4 15 96.39 15.4
-10 4 15 101.19 13
-10 4 15 87.69 21
-10 4 15 110.59 24.1
-9 4 15 169.18 31.9
-9 4 15 210.58 38.3
-9 4 15 182.68 17.1
-9 4 15 215.08 20.1
-8 4 15 241.08 31.4
-8 4 15 201.68 27.5
-8 4 15 214.08 19.5
-8 4 15 230.38 18.1
-7 4 15 -1.2 2.9
-7 4 15 8 8.2
-7 4 15 -1 3.4
6 -4 -15 854.01 59.49
-6 4 15 768.42 65.59
-6 4 15 781.82 63.89
-6 4 15 763.92 48.5
5 -4 -15 200.98 21.8
-5 4 15 157.98 12.9
-5 4 15 196.08 24.9
-5 4 15 165.88 28.1
4 -4 -15 285.87 26.8
-4 4 15 236.28 16.9
-4 4 15 283.77 30.6
-4 4 15 211.08 27.9
3 -4 -15 421.46 36.5
-3 4 15 450.95 40.6
-3 4 15 456.25 40.2
-3 4 15 349.57 25.6
2 -4 -15 13.7 3.4
2 -4 -15 15.5 7.5
-2 4 15 12.9 3.7
-2 4 15 4.4 6.3
-2 4 15 6.8 6.5
1 -4 -15 270.07 27.1
1 -4 -15 219.38 16.9
-1 4 15 181.18 17.3
-1 4 15 249.58 28.7
-1 4 15 230.58 25.9
0 -4 -15 7.6 3.8
0 -4 -15 10.6 7.6
0 4 15 3.4 4.4
0 4 15 -0.6 7.7
-1 -4 -15 -1.6 4.5
-1 -4 -15 6.8 4.6
1 4 15 8.8 8.5
-2 -4 -15 239.28 22.1
-2 -4 -15 249.48 27
2 4 15 239.98 29.5
-3 -4 -15 14 8.6
-3 -4 -15 19.2 6.1
3 4 15 13.1 6.4
3 4 15 3.9 8
-4 -4 -15 120.09 18.2
4 4 15 124.39 22.8
4 4 15 135.79 16.4
-5 -4 -15 31.5 10.3
5 4 15 26 8
5 4 15 18.6 9.8
-6 -4 -15 73.79 16.8
6 4 15 83.29 32
6 4 15 81.19 14.9
-7 -4 -15 120.59 21.3
7 4 15 131.89 16.8
7 4 15 122.39 21.1
7 4 15 127.59 18.1
-10 5 15 108.69 13
-10 5 15 87.09 23.4
-10 5 15 94.39 14.8
-10 5 15 88.09 21.2
-9 5 15 321.17 40.3
-9 5 15 282.17 24.1
-9 5 15 304.27 26
-9 5 15 411.46 39.9
-8 5 15 69.69 21.4
-8 5 15 73.49 9.4
-8 5 15 54.29 18.1
-7 5 15 294.87 33.9
-7 5 15 255.97 31
-7 5 15 219.28 25.5
6 -5 -15 190.28 68.19
-6 5 15 172.08 30.2
-6 5 15 169.28 28.2
-6 5 15 178.18 14.7
5 -5 -15 10.6 7.6
-5 5 15 12 13.9
-5 5 15 17.4 4
-5 5 15 18 9.3
4 -5 -15 -7.9 5.9
-4 5 15 2.3 2.8
-4 5 15 0 6.4
-4 5 15 -3.8 3.9
3 -5 -15 161.08 12.8
3 -5 -15 165.38 22
-3 5 15 177.98 23.6
-3 5 15 180.68 24.2
-3 5 15 149.79 13.5
2 -5 -15 676.33 53.59
2 -5 -15 713.83 42.1
-2 5 15 743.83 57.79
-2 5 15 715.03 56.29
-2 5 15 547.95 42.4
1 -5 -15 35.3 6.7
1 -5 -15 35.5 11.1
-1 5 15 19.2 6.1
-1 5 15 52.29 15.4
-1 5 15 35.1 12.1
0 -5 -15 64.89 9.6
0 -5 -15 56.59 14.3
0 5 15 50.19 10
0 5 15 44.8 14.2
0 5 15 52.79 14
-1 -5 -15 59.29 10.4
-1 -5 -15 56.29 16.1
1 5 15 69.39 15
1 5 15 61.89 11.2
1 5 15 80.69 18.2
-2 -5 -15 18.4 6.5
2 5 15 28.1 9.6
2 5 15 10.6 10
-3 -5 -15 385.56 31.4
3 5 15 357.96 33.7
3 5 15 349.27 37.8
-4 -5 -15 195.98 21.1
4 5 15 149.88 18
4 5 15 170.58 20
4 5 15 154.98 41.2
-5 -5 -15 244.88 26.8
5 5 15 232.58 23
5 5 15 241.68 24.8
5 5 15 221.28 27.7
-6 -5 -15 39.3 12.8
6 5 15 18.4 9.4
6 5 15 20 9.6
6 5 15 48 15
-7 -5 -15 -7.3 8.6
7 5 15 11.7 7.9
7 5 15 18 12.4
7 5 15 28.9 10.6
-10 6 15 17.5 13.3
-10 6 15 8.4 6.6
-10 6 15 4.1 7
-10 6 15 7.3 9.9
-9 6 15 174.98 17.4
-9 6 15 197.28 27.3
-9 6 15 171.18 33.8
-8 6 15 432.56 45.7
-8 6 15 378.16 29.1
-8 6 15 436.76 46.1
-7 6 15 41.9 15.3
-7 6 15 33.1 17.5
-7 6 15 60.59 8.9
-6 6 15 23.8 5.4
-6 6 15 8.3 9.6
-6 6 15 13 9.7
-5 6 15 11.2 8.8
-5 6 15 32 13.7
-5 6 15 14.3 4.5
-4 6 15 652.73 42.1
-4 6 15 566.94 53.99
-4 6 15 703.03 57.99
3 -6 -15 349.07 24.2
3 -6 -15 343.67 58.49
-3 6 15 437.76 39.6
-3 6 15 330.37 25.4
-3 6 15 321.77 36.1
2 -6 -15 72.99 8.4
-2 6 15 54.09 11.3
-2 6 15 61.09 16.5
-2 6 15 61.59 15.2
1 -6 -15 31.5 6.8
-1 6 15 22 6.7
-1 6 15 31.4 12
-1 6 15 21 9.3
0 -6 -15 71.99 11.5
0 6 15 94.29 12.1
0 6 15 64.99 17.4
0 6 15 90.29 17.7
-1 -6 -15 12.2 5.6
1 6 15 25.7 7.5
1 6 15 10.2 7.3
1 6 15 19.4 11.5
-2 -6 -15 13.6 6.4
2 6 15 -2.5 5.6
2 6 15 -15.2 9.9
2 6 15 3.3 7.2
-3 -6 -15 33.8 8.9
3 6 15 12.4 7.2
3 6 15 28.7 11.6
-4 -6 -15 38.6 10.3
4 6 15 39 10.4
4 6 15 24 9.1
4 6 15 42.3 13.8
-5 -6 -15 14 10.3
5 6 15 24.4 11.9
5 6 15 -3.3 6.4
5 6 15 0.9 7.2
-6 -6 -15 10.1 10
6 6 15 35.2 15.7
6 6 15 33.3 9.9
6 6 15 53.09 10.8
-10 7 15 34.3 17
-10 7 15 29 15.6
-10 7 15 41 16.6
-9 7 15 46.4 9.4
-9 7 15 84.59 21
-9 7 15 64.49 20.3
-8 7 15 10.2 5.8
-8 7 15 34.8 14.8
-8 7 15 11.9 12
-7 7 15 147.19 29
-7 7 15 141.99 26.6
-7 7 15 169.58 15.6
-6 7 15 107.29 38.4
-6 7 15 100.79 21.6
-6 7 15 127.49 12.6
-5 7 15 224.48 30.2
-5 7 15 236.18 42.5
-5 7 15 203.88 52.39
-4 7 15 258.27 44.3
-4 7 15 242.78 50.99
-4 7 15 219.98 30.4
3 -7 -15 1.8 3.3
-3 7 15 6.6 5.7
-3 7 15 10.5 7.8
-3 7 15 -0.3 3.7
2 -7 -15 330.27 24
-2 7 15 294.47 33
-2 7 15 337.07 37.4
-2 7 15 259.27 23.7
1 -7 -15 62.99 9.9
-1 7 15 70.59 11.5
-1 7 15 47.7 14.5
-1 7 15 53.99 27.9
0 -7 -15 6.2 6.1
0 7 15 6.3 7.6
0 7 15 11.6 12.3
0 7 15 0.6 5.6
-1 -7 -15 0.4 4.9
1 7 15 11.4 6.8
1 7 15 1.4 6.6
1 7 15 -3 5.9
-2 -7 -15 167.58 18
2 7 15 140.89 19.7
2 7 15 156.18 22.2
2 7 15 124.99 24.2
-3 -7 -15 96.69 16.4
3 7 15 72.39 19.2
3 7 15 91.09 16.7
-4 -7 -15 17.1 8
4 7 15 24.5 11.9
4 7 15 33.9 10
4 7 15 22.5 8.1
-5 -7 -15 55.39 13.8
5 7 15 45.5 11.5
5 7 15 72.09 12.6
5 7 15 38.1 14.3
-6 -7 -15 8 10.1
6 7 15 3.5 8.4
6 7 15 8.6 7.1
6 7 15 5.9 11.1
-10 8 15 143.09 26.1
-10 8 15 97.79 15.5
-10 8 15 105.49 32.7
-9 8 15 65.99 19.6
-9 8 15 83.59 12.5
-9 8 15 70.59 21.7
-8 8 15 15.4 12.7
-8 8 15 21.2 7.4
-8 8 15 14.4 11.6
-7 8 15 -3.4 6.8
-7 8 15 10.4 5.4
-7 8 15 14 11.1
-6 8 15 460.55 33.6
-6 8 15 437.86 48.6
-6 8 15 506.85 48
-5 8 15 266.87 22
-5 8 15 260.77 35.2
-5 8 15 256.07 32
4 -8 -15 287.07 24
-4 8 15 308.57 35.6
-4 8 15 262.57 22.6
-4 8 15 227.18 30.8
3 -8 -15 18.7 5.4
-3 8 15 23.8 11.5
-3 8 15 12.4 16.7
-3 8 15 9.7 5.4
2 -8 -15 240.78 20.9
-2 8 15 280.27 32.9
-2 8 15 212.78 30.2
-2 8 15 304.67 24.2
1 -8 -15 0.8 3.7
-1 8 15 20.1 7
-1 8 15 -1.5 6.1
-1 8 15 -1.2 7.6
0 -8 -15 73.59 12
0 8 15 67.99 16.4
0 8 15 56.79 12.5
0 8 15 54.89 15.8
-1 -8 -15 4.3 5.8
1 8 15 1.9 6.4
1 8 15 17.4 10.8
1 8 15 1.1 5.3
-2 -8 -15 1.5 4.9
2 8 15 16.3 10.1
2 8 15 5.6 8.6
2 8 15 13 8.6
-3 -8 -15 44.2 11.6
3 8 15 25.8 13.6
3 8 15 46 11.9
-4 -8 -15 85.89 16.6
4 8 15 75.99 14.9
4 8 15 92.89 13.7
4 8 15 64.19 17.9
-5 -8 -15 7.3 8.7
5 8 15 2.3 7.2
5 8 15 2.9 9.8
5 8 15 13.7 7.6
-10 9 15 33.7 10.1
-10 9 15 -2.9 15.4
-10 9 15 48.1 17.8
-9 9 15 56.89 11.5
-9 9 15 110.39 24.4
-9 9 15 58.89 18.5
-8 9 15 54.39 10.9
-8 9 15 48.2 17.9
-8 9 15 67.89 19.8
-7 9 15 -14.9 8.8
-7 9 15 -8.9 7.1
-7 9 15 -0.1 5.1
-6 9 15 106.09 23.6
-6 9 15 96.99 23.9
-6 9 15 95.89 12.5
-5 9 15 89.79 20.5
-5 9 15 44.8 16
-5 9 15 36.4 9.3
4 -9 -15 134.79 13.2
-4 9 15 84.89 21.1
-4 9 15 118.29 14.7
-4 9 15 90.79 22.8
3 -9 -15 17.8 5.4
-3 9 15 12.1 6
-3 9 15 10.7 11.5
-3 9 15 18.1 11.1
2 -9 -15 247.18 20.6
-2 9 15 246.08 23.1
-2 9 15 204.38 29.1
-2 9 15 193.68 27.6
1 -9 -15 59.59 10.6
-1 9 15 72.89 12.8
-1 9 15 59.49 17.1
-1 9 15 56.79 18.2
0 -9 -15 93.19 14.3
0 9 15 118.09 24.2
0 9 15 71.69 17.5
0 9 15 106.19 17.7
-1 -9 -15 120.29 17
1 9 15 104.09 23.7
1 9 15 92.79 19.4
1 9 15 86.99 16.5
-2 -9 -15 93.09 16.2
2 9 15 92.89 22.7
2 9 15 75.49 17.6
-3 -9 -15 36.2 9.6
3 9 15 14.3 8.1
3 9 15 7.2 8.4
-4 -9 -15 126.99 20
4 9 15 88.39 15.9
4 9 15 57.89 12.4
4 9 15 82.29 20.7
-5 -9 -15 85.09 18.3
5 9 15 106.29 16.4
5 9 15 82.19 13.3
5 9 15 83.89 21.3
-9 10 15 140.39 31.4
-9 10 15 72.29 13.9
-9 10 15 110.39 25.9
-8 10 15 118.29 14.9
-8 10 15 123.49 27.9
-8 10 15 136.09 28.2
-7 10 15 79.99 12.5
-7 10 15 82.09 22.2
-7 10 15 94.79 24.3
-6 10 15 0.6 10.3
-6 10 15 14.6 11.7
-6 10 15 27.9 7.4
-5 10 15 216.58 36.7
-5 10 15 248.68 23.4
-5 10 15 340.27 38.8
4 -10 -15 154.28 15.4
-4 10 15 135.19 16
-4 10 15 145.29 27.9
-4 10 15 90.49 22.4
3 -10 -15 24.2 6.8
-3 10 15 38.2 9.7
-3 10 15 0.5 9.3
-3 10 15 12.6 11.2
2 -10 -15 838.82 56.59
-2 10 15 918.51 71.29
-2 10 15 691.33 68.69
-2 10 15 940.81 60.69
1 -10 -15 2 4.5
-1 10 15 -13.7 5.6
-1 10 15 -16.9 7
-1 10 15 -1.7 7.7
0 -10 -15 -3.5 5.7
0 10 15 1.2 6.7
0 10 15 -1 7.1
0 10 15 8.6 11.4
1 10 15 714.33 57.49
1 10 15 670.53 62.69
-2 -10 -15 24.4 8.3
2 10 15 21.5 13.7
2 10 15 30.4 11.4
-3 -10 -15 161.88 21.1
3 10 15 143.89 22.8
3 10 15 152.48 28.2
-4 -10 -15 -10.9 6.7
4 10 15 3.3 6.8
4 10 15 0.1 8.2
4 10 15 0.2 10.3
-9 11 15 38.1 10.5
-9 11 15 41.1 18.7
-9 11 15 29 15.7
-8 11 15 101.19 24.8
-8 11 15 121.09 16.7
-8 11 15 106.19 28.5
-7 11 15 18.7 7.3
-7 11 15 6.6 10.1
-7 11 15 19.7 13.5
-6 11 15 210.18 36.7
-6 11 15 190.38 32.2
-6 11 15 128.49 17
-5 11 15 130.39 27.3
-5 11 15 107.69 15.8
-5 11 15 127.99 26.5
4 -11 -15 126.79 15.1
-4 11 15 100.19 23.8
-4 11 15 160.68 18.5
-4 11 15 141.89 28.7
3 -11 -15 162.08 17.6
-3 11 15 161.98 29.6
-3 11 15 143.99 29.4
-3 11 15 171.38 19.9
2 -11 -15 1.9 6.2
-2 11 15 -6.1 10
-2 11 15 -4.9 10.5
-2 11 15 3.6 9.1
1 -11 -15 161.88 18.1
-1 11 15 128.49 26.8
-1 11 15 155.08 30.5
-1 11 15 182.08 20.8
0 -11 -15 85.79 15.5
0 11 15 118.09 20
0 11 15 70.99 19.9
0 11 15 145.89 25.4
-1 -11 -15 167.08 20.3
1 11 15 164.98 32.1
1 11 15 174.48 27.6
-2 -11 -15 34.6 10.6
2 11 15 20.6 11.1
2 11 15 16.7 13
-3 -11 -15 19.1 9.8
3 11 15 27 11.3
3 11 15 36.5 13.9
-4 -11 -15 78.09 17.3
4 11 15 80.39 17.2
4 11 15 67.89 13.1
4 11 15 115.69 24.4
-8 12 15 63.19 19.5
-8 12 15 101.69 39.5
-8 12 15 66.09 13.3
-7 12 15 242.88 23.9
-7 12 15 241.88 39.4
-7 12 15 219.98 40
-6 12 15 18.6 12.9
-6 12 15 17.6 9.8
-6 12 15 11.9 14.9
5 -12 -15 162.88 18.3
-5 12 15 189.08 36.6
-5 12 15 185.88 33.8
-5 12 15 171.58 32
4 -12 -15 -1.1 6.1
-4 12 15 9 11.6
-4 12 15 -0.7 10.1
-4 12 15 4.6 17.9
3 -12 -15 150.48 16.7
-3 12 15 110.99 26.3
-3 12 15 166.48 20.7
-3 12 15 108.59 24.7
2 -12 -15 292.27 26.8
-2 12 15 330.37 31
-2 12 15 276.87 36.1
-2 12 15 204.38 37.4
1 -12 -15 23.9 8.4
-1 12 15 23.9 11.3
-1 12 15 18 11.3
-1 12 15 37.3 15.9
0 -12 -15 286.27 27.3
0 12 15 274.07 36.2
1 12 15 -2.8 8.7
1 12 15 5.7 8.9
-2 -12 -15 211.78 23.6
2 12 15 153.48 25.8
2 12 15 170.98 31.1
-3 -12 -15 25.9 10.1
3 12 15 17 11.6
3 12 15 1.9 11.8
-8 13 15 25.1 13.4
-7 13 15 19.6 9.6
-7 13 15 17.6 15.4
-7 13 15 40 15.8
-6 13 15 53.49 19.2
-6 13 15 103.19 25.9
-6 13 15 81.19 14.9
5 -13 -15 14.5 7.1
-5 13 15 9 9.1
-5 13 15 -0.5 11.8
-5 13 15 5.3 11.3
4 -13 -15 404.26 32.3
-4 13 15 407.36 45.4
-4 13 15 287.97 41.9
-4 13 15 446.06 35.3
3 -13 -15 23.3 8.8
-3 13 15 42 18
-3 13 15 31 14.3
-3 13 15 43.5 12.4
2 -13 -15 214.38 21.1
-2 13 15 127.29 29.4
-2 13 15 197.88 27.4
1 -13 -15 286.67 26.4
-1 13 15 286.37 34.6
-1 13 15 205.08 37.2
0 -13 -15 7.9 7.7
0 13 15 11.3 12.5
0 13 15 2.6 11.1
-1 -13 -15 285.67 28
1 13 15 252.77 31.9
1 13 15 212.78 38
-2 -13 -15 26.5 11.8
2 13 15 31.2 16.3
2 13 15 22.4 11.9
-7 14 15 12.7 13.7
-7 14 15 -0.5 14.4
-6 14 15 103.49 26.9
5 -14 -15 205.18 21.1
-5 14 15 189.38 36.9
-5 14 15 236.28 40.8
4 -14 -15 64.59 12.7
-4 14 15 9.4 14.8
-4 14 15 37.2 18.9
3 -14 -15 228.08 37.1
-3 14 15 250.87 38.1
-3 14 15 179.28 34.2
2 -14 -15 249.97 24.5
-2 14 15 160.98 32.7
-2 14 15 254.07 33.7
1 -14 -15 44.3 12.2
-1 14 15 50.69 16.2
-1 14 15 74.19 19.2
0 -14 -15 209.38 24.3
0 14 15 213.08 29.1
0 14 15 217.78 36.3
-1 -14 -15 112.69 19.2
1 14 15 176.18 22.9
1 14 15 67.59 22.5
-6 15 15 110.69 45.6
-6 15 15 67.59 20.5
5 -15 -15 69.99 13.5
-5 15 15 66.09 19.3
-5 15 15 46.5 19.5
4 -15 -15 70.49 13.4
-4 15 15 32.5 17.7
-4 15 15 89.69 23.4
3 -15 -15 10.4 7
-3 15 15 17.5 11.8
-3 15 15 -10.4 8.3
2 -15 -15 97.79 18.1
-2 15 15 101.49 25.9
-2 15 15 105.09 24.7
1 -15 -15 81.79 16.8
-1 15 15 71.59 19.4
-1 15 15 22.5 19.4
0 -15 -15 187.38 23
0 15 15 152.38 27.9
0 15 15 164.38 31.6
-5 16 15 -15.6 13.3
-5 16 15 -7 25.6
4 -16 -15 326.97 30.4
-4 16 15 339.67 42.8
-4 16 15 264.67 38.6
3 -16 -15 57.29 13.6
-3 16 15 68.39 22.8
-3 16 15 9.7 15.6
2 -16 -15 4.4 7.8
-2 16 15 19.8 15.9
-2 16 15 12.1 11.8
2 -21 16 66.79 18.4
-1 -20 16 128.59 21.4
0 -20 16 8.6 9.9
1 -20 16 229.58 29.9
2 -20 16 34.4 12.5
3 -20 16 11.4 9.5
-4 20 -16 161.58 28.1
4 -20 16 210.28 26.4
-2 -19 16 123.29 19.6
-1 -19 16 60.79 13.5
0 -19 16 365.16 39.4
0 -19 16 397.16 35.6
1 -19 16 -2.2 4.5
2 -19 16 228.98 28.6
3 -19 16 200.68 26.1
-4 19 -16 -14.7 7.8
4 -19 16 0.3 8.7
-5 19 -16 195.58 27.1
5 -19 16 274.57 29.5
-3 -18 16 25.3 10.2
-3 -18 16 4.6 10
-2 -18 16 8.9 7.5
-2 -18 16 -0.8 7.1
-1 -18 16 -0.5 15.3
-1 -18 16 -2.9 9.4
0 -18 16 20.1 9.5
1 -18 16 509.45 47.6
2 -18 16 21.4 10.4
3 -18 16 88.69 18.3
-4 18 -16 148.29 25.3
4 -18 16 174.38 24.3
-5 18 -16 3.8 7.6
5 -18 16 9.8 8.4
-6 18 -16 47.3 15.1
6 -18 16 72.99 17.2
-4 -17 16 7.9 9.1
-4 -17 16 14.1 9.3
-3 -17 16 94.19 20
-3 -17 16 132.19 19.7
2 17 -16 44.5 12.7
-2 -17 16 30.4 9.7
-2 -17 16 25.4 12.6
1 17 -16 20.8 8.2
-1 -17 16 17.2 9.7
-1 -17 16 6.4 6.7
0 17 -16 413.66 35
0 -17 16 455.75 37.9
0 -17 16 476.95 44.2
-1 17 -16 22.8 9.5
1 -17 16 16.6 10.8
2 -17 16 448.76 42.5
3 -17 16 140.79 23.4
-4 17 -16 243.48 28.7
4 -17 16 258.07 28.5
-5 17 -16 15.4 10.4
5 -17 16 25.8 10.5
-6 17 -16 21.3 12.7
6 -17 16 29 11
-7 17 -16 84.29 19.7
7 -17 16 158.28 20.5
-5 -16 16 62.19 17.9
-5 -16 16 71.19 14.8
4 16 -16 69.89 25.7
-4 -16 16 60.99 16.8
-4 -16 16 56.49 13.3
3 16 -16 63.39 13.9
-3 -16 16 37.5 13.4
-3 -16 16 75.39 13.7
2 16 -16 37.4 9.9
-2 -16 16 27.6 8.8
-2 -16 16 34.4 12.2
1 16 -16 -9.1 6
-1 -16 16 0.2 6.9
-1 -16 16 -0.6 5.4
0 16 -16 135.79 15.7
0 -16 16 125.29 16.8
0 -16 16 161.78 22.2
-1 16 -16 169.18 17.9
1 -16 16 167.78 23.9
-2 16 -16 15.3 6.5
2 -16 16 6.7 8
3 -16 16 417.16 39
4 -16 16 100.19 19
-5 16 -16 68.09 17
5 -16 16 77.79 26.8
-6 16 -16 103.99 20.8
6 -16 16 137.49 18.8
-7 16 -16 22.7 11.4
7 -16 16 48.6 11.3
5 15 -16 55.19 13.1
-5 -15 16 15 11.4
-5 -15 16 28 10.3
4 15 -16 54.69 11.8
-4 -15 16 47.6 14.8
-4 -15 16 50.09 11.4
3 15 -16 150.18 31.3
-3 -15 16 94.39 21.6
-3 -15 16 137.49 16.8
2 15 -16 456.45 34.8
-2 -15 16 436.96 35.4
-2 -15 16 427.76 42.7
1 15 -16 183.68 18.6
-1 -15 16 156.88 18.7
-1 -15 16 202.08 26.4
0 15 -16 9.7 5.5
0 -15 16 9.5 7.6
1 -15 16 98.39 19.3
-2 15 -16 241.38 22.8
2 -15 16 230.08 27.4
-3 15 -16 14.9 6.8
3 -15 16 26.6 10.1
4 -15 16 383.66 54.59
-5 15 -16 55.89 15.1
5 -15 16 54.69 12.8
-6 15 -16 -5.5 4.7
6 -15 16 8.2 7.2
-7 15 -16 220.38 29
7 -15 16 223.88 24.8
-8 15 -16 69.59 22.8
8 -15 16 77.29 15.3
6 14 -16 102.19 18.1
-6 -14 16 86.79 22.1
-6 -14 16 97.59 17
5 14 -16 201.38 22.7
-5 -14 16 227.18 23
-5 -14 16 220.98 29.6
4 14 -16 -0.6 6.4
-4 -14 16 4.6 9.1
-4 -14 16 15.3 7.3
3 14 -16 201.78 20.7
-3 -14 16 204.28 27.7
-3 -14 16 223.18 21.5
2 14 -16 266.67 22.8
-2 -14 16 238.18 22.6
-2 -14 16 217.18 28.4
1 14 -16 118.89 13.5
-1 -14 16 108.09 15.6
-1 -14 16 99.39 20.2
0 14 -16 179.18 17.6
0 -14 16 180.48 22.9
-1 14 -16 86.79 12.8
1 -14 16 59.59 16
-2 14 -16 444.96 34.1
2 -14 16 434.16 39.6
-3 14 -16 619.04 45.9
3 -14 16 682.83 52.59
-4 14 -16 140.19 17.1
4 -14 16 135.59 19.1
5 -14 16 89.29 16.3
-6 14 -16 216.08 27.4
6 -14 16 261.67 26
-7 14 -16 424.26 43.5
7 -14 16 500.95 39.5
-8 14 -16 192.58 26
8 -14 16 221.18 23.3
6 13 -16 200.58 22.6
-6 -13 16 167.58 30.3
-6 -13 16 241.88 22.9
5 13 -16 0.3 6.9
-5 -13 16 -2.4 6.1
-5 -13 16 -2.9 8.2
4 13 -16 446.76 34.7
-4 -13 16 411.06 42.4
-4 -13 16 498.05 35.8
3 13 -16 -3.8 4.9
-3 -13 16 -9.9 6.3
-3 -13 16 0.4 4.5
2 13 -16 775.92 51.99
-2 -13 16 820.82 62.69
-2 -13 16 745.13 52.19
1 13 -16 111.89 12.5
-1 -13 16 115.99 21.1
-1 -13 16 110.69 13.8
0 13 -16 337.87 27.4
0 -13 16 404.46 36.6
-1 13 -16 996.6 62.39
1 -13 16 900.31 76.99
-2 13 -16 25.8 7.6
2 -13 16 35.5 11.3
3 -13 16 137.59 18.9
-4 13 -16 111.09 16.4
4 -13 16 97.59 17
5 -13 16 46.8 12.5
6 -13 16 482.95 39.9
7 -13 16 190.18 22.1
8 -13 16 223.38 24
-7 -12 16 85.89 15.2
-7 -12 16 91.79 20.1
6 12 -16 52.59 12
-6 -12 16 54.59 16
-6 -12 16 22.9 8.6
5 12 -16 131.09 15.8
-5 -12 16 112.19 22.4
-5 -12 16 110.39 14.4
4 12 -16 94.19 13.6
-4 -12 16 74.69 18.7
-4 -12 16 97.19 12.4
3 12 -16 438.16 32.4
-3 -12 16 467.95 33.2
-3 -12 16 417.46 41.4
2 12 -16 33 8
-2 -12 16 19.9 7.2
-2 -12 16 37.2 12.2
1 12 -16 707.83 47.7
-1 -12 16 760.82 58.79
0 12 -16 725.63 46.5
0 -12 16 634.54 61.09
-1 12 -16 352.16 26.2
1 -12 16 320.47 32
-2 12 -16 5.1 4.3
2 -12 16 -0.3 4.5
-3 12 -16 6.4 6.4
3 -12 16 7 6.8
-4 12 -16 158.18 17.4
4 -12 16 144.79 18.7
5 -12 16 300.37 28.6
6 -12 16 30.9 10.2
7 -12 16 358.96 31.9
8 -12 16 8.9 7.8
-7 -11 16 238.28 22.8
-7 -11 16 235.38 30.4
-6 -11 16 16.2 10.3
-6 -11 16 3.1 5.6
5 11 -16 222.58 19.4
-5 -11 16 190.68 19
-5 -11 16 173.58 25
4 11 -16 60.89 10.5
-4 -11 16 72.79 17.6
-4 -11 16 83.69 10.8
3 11 -16 -4 3.5
-3 -11 16 -0.4 3.8
-3 -11 16 -9.8 6.1
2 11 -16 1386.26 82.39
-2 -11 16 1493.95 95.29
-2 -11 16 1201.58 81.79
1 11 -16 7.9 4.5
-1 -11 16 1.7 10.5
0 11 -16 16.3 4.7
0 -11 16 26.2 10
-1 11 -16 1.8 3.8
1 -11 16 -2.2 5.5
-2 11 -16 320.77 24.7
2 -11 16 299.57 30.2
-3 11 -16 361.56 29.7
3 -11 16 404.86 34.7
-4 11 -16 1.1 5.5
4 -11 16 0.1 4.8
-5 11 -16 80.09 14.2
5 -11 16 90.89 16.5
6 -11 16 255.97 26.1
7 -11 16 12.5 7.4
8 -11 16 213.78 22.7
-8 -10 16 195.58 20.4
-8 -10 16 133.09 23.4
-8 -10 16 196.28 26.2
-7 -10 16 45.8 16.3
-7 -10 16 64.29 12
-6 -10 16 48.8 14.4
-6 -10 16 59.89 10.5
5 10 -16 8.9 5
-5 -10 16 6.4 4.9
-5 -10 16 11.1 7.4
4 10 -16 45.2 8.2
-4 -10 16 43.4 8.1
-4 -10 16 54.09 14.1
3 10 -16 396.16 27.6
-3 -10 16 363.96 26.9
-3 -10 16 346.67 36.3
-3 -10 16 419.46 41.2
2 10 -16 470.95 32.3
-2 -10 16 475.75 41.8
-2 -10 16 500.05 49.99
1 10 -16 727.03 47.6
-1 -10 16 722.53 58.29
-1 -10 16 820.22 59.29
0 10 -16 52.29 8.1
0 -10 16 64.79 14.6
0 -10 16 -0.4 25.4
-1 10 -16 1899.91 112.29
1 -10 16 1858.31 121.39
-2 10 -16 478.85 33.9
2 -10 16 487.15 40.4
-3 10 -16 -1.7 4.1
3 -10 16 7.3 6.6
-4 10 -16 12 6.7
4 -10 16 2.7 6.2
-5 10 -16 277.57 26.4
5 -10 16 300.97 28.7
6 -10 16 2.6 6.1
7 -10 16 168.78 19.8
8 -10 16 -5.2 6.2
-8 -9 16 29.3 11.4
-8 -9 16 30.2 12.9
-8 -9 16 29.9 8.3
-7 -9 16 41.8 9.2
-7 -9 16 39.3 14
-6 -9 16 32.3 13.2
-6 -9 16 69.89 10.5
-5 -9 16 64.39 9.6
-5 -9 16 47 14.1
4 9 -16 -1.9 3.5
-4 -9 16 1.1 3.8
-4 -9 16 4.9 3.4
-4 -9 16 7 7.5
3 9 -16 -7.1 2.7
-3 -9 16 1.1 4.6
-3 -9 16 16.1 8.4
-3 -9 16 8.1 3.2
2 9 -16 170.98 13.5
-2 -9 16 137.39 18.2
-2 -9 16 163.88 21
1 9 -16 98.69 9.4
-1 -9 16 91.89 18.1
-1 -9 16 107.39 17.4
0 9 -16 200.98 15.5
0 -9 16 148.19 20.9
0 -9 16 209.18 23.1
-1 9 -16 57.99 8.7
1 -9 16 59.69 13.5
1 -9 16 77.79 15.3
-2 9 -16 49.1 8.3
2 -9 16 57.89 13.2
-3 9 -16 188.58 17.9
3 -9 16 196.28 21.8
-4 9 -16 861.71 56.29
4 -9 16 781.72 59.19
-5 9 -16 166.38 18.5
5 -9 16 149.19 19.2
6 -9 16 -2.6 5.4
7 -9 16 58.29 12.8
8 -9 16 115.49 16.2
-9 9 -16 -12.2 9
-8 -8 16 0.9 5.5
-8 -8 16 7.4 8.8
-8 -8 16 4.4 7.9
-7 -8 16 -14.2 6.6
-7 -8 16 9.2 5.7
-6 -8 16 109.29 12
-6 -8 16 102.29 20.8
-5 -8 16 17 10.1
-5 -8 16 23.7 17.4
-5 -8 16 16.2 4.8
-4 -8 16 13.9 8.9
-4 -8 16 12.4 3.7
-4 -8 16 20.5 8.9
3 8 -16 35.7 5.4
-3 -8 16 34.3 10.7
-3 -8 16 35.6 10.3
2 8 -16 253.77 17.9
-2 -8 16 281.77 28.4
-2 -8 16 239.08 25.6
1 8 -16 144.09 11.9
-1 -8 16 157.28 19.9
-1 -8 16 152.68 19.2
0 8 -16 35.3 5.9
0 -8 16 35.3 10.3
0 -8 16 23.9 9
-1 8 -16 428.26 40.5
1 -8 16 572.54 43.1
1 -8 16 525.15 42.2
-2 8 -16 4.7 3.7
2 -8 16 -1.6 3.9
2 -8 16 4.3 4.7
-3 8 -16 662.63 44
3 -8 16 613.24 48.9
-4 8 -16 4.4 5
4 -8 16 15.3 7.7
5 -8 16 -11.6 4.9
6 -8 16 151.98 19.7
7 -8 16 19.8 8.8
-8 8 -16 280.77 30.8
8 -8 16 245.98 24.9
-9 8 -16 21 14.4
9 -8 16 57.19 10.7
-9 -7 16 74.99 18.4
-9 -7 16 65.79 12.6
-9 -7 16 52.29 15.5
-8 -7 16 71.99 17.7
-8 -7 16 78.99 19.1
-8 -7 16 73.49 12.3
-7 -7 16 2.4 4.4
-7 -7 16 1.6 5.7
-6 -7 16 54.29 14.8
-6 -7 16 91.59 10.3
-5 -7 16 110.49 10
-5 -7 16 83.39 17.7
-4 -7 16 16.4 13.5
-4 -7 16 14.8 2.9
-3 -7 16 2.1 5
-3 -7 16 12.3 7.1
2 7 -16 2.6 1.8
-2 -7 16 -3.9 3.1
-2 -7 16 -3.2 5.1
1 7 -16 54.09 5.7
-1 -7 16 37.5 10.8
-1 -7 16 65.09 14.2
0 7 -16 46.2 5.9
0 -7 16 46.2 12.1
0 -7 16 57.09 12.3
-1 7 -16 22.2 4.9
1 -7 16 21 8.7
1 -7 16 24.3 8.1
-2 7 -16 84.39 10.1
2 -7 16 101.29 17
2 -7 16 89.39 16.8
-3 7 -16 541.85 36.3
3 -7 16 506.05 42.3
3 -7 16 446.26 39.8
4 -7 16 928.21 66.19
5 -7 16 551.44 44.5
-6 7 -16 200.28 23.4
6 -7 16 187.28 22.2
-7 7 -16 212.78 25
7 -7 16 162.98 20.1
-8 7 -16 18.4 10.4
8 -7 16 12.5 7.7
-9 7 -16 40.4 14.7
-9 -6 16 66.49 18
-9 -6 16 92.09 13.3
-9 -6 16 68.89 17.3
-8 -6 16 4.2 8
-8 -6 16 19.4 10.8
-8 -6 16 7.7 6.1
-7 -6 16 106.19 20.6
-7 -6 16 102.79 12
-6 -6 16 100.19 9.9
-6 -6 16 68.59 17.1
-5 -6 16 201.18 25.3
-5 -6 16 164.68 12.2
-4 -6 16 42.9 11.9
-3 -6 16 79.29 16.2
-2 -6 16 378.46 33.3
-2 -6 16 414.66 36.6
1 6 -16 11.1 2.3
-1 -6 16 11.8 6
-1 -6 16 4.6 4.8
0 6 -16 42.3 5.2
0 -6 16 56.99 13.1
0 -6 16 47.1 11.5
-1 6 -16 193.48 14.9
1 -6 16 198.98 21.6
1 -6 16 168.18 21.1
-2 6 -16 118.19 12.1
2 -6 16 130.89 16.9
2 -6 16 117.89 16.8
3 -6 16 527.65 44.3
3 -6 16 579.74 45.2
4 -6 16 219.38 25.1
4 -6 16 201.08 23.1
-5 6 -16 177.18 21.5
5 -6 16 194.68 22.2
-6 6 -16 332.87 32.2
6 -6 16 345.17 31.8
-7 6 -16 15 9.6
7 -6 16 -6.5 6.5
-8 6 -16 333.37 32.9
8 -6 16 274.17 27.1
-9 -5 16 115.19 22.5
-9 -5 16 112.29 23.2
-9 -5 16 148.79 16.7
-8 -5 16 88.49 18.9
-8 -5 16 105.59 12.4
-8 -5 16 105.79 21.3
-7 -5 16 -11.8 11.2
-7 -5 16 -0.8 3.6
-7 -5 16 -3.2 6.1
-6 -5 16 275.87 31.9
-6 -5 16 314.67 21
-5 -5 16 100.69 20.6
-4 -5 16 132.79 21.8
-3 -5 16 165.98 21.5
-2 -5 16 -3.3 4.2
-1 -5 16 746.53 53.69
-1 -5 16 717.63 55.29
0 5 -16 31.1 4.6
0 5 -16 41.2 5.3
0 -5 16 31.8 9.2
0 -5 16 47 12.1
-1 5 -16 37.2 6.2
-1 5 -16 45 7.4
-1 5 -16 44.9 14.8
1 -5 16 50.89 12.4
1 -5 16 49.99 11.6
-2 5 -16 130.69 23.1
-2 5 -16 132.99 13.6
2 -5 16 125.39 17.3
2 -5 16 123.19 17.7
-3 5 -16 6.2 4.1
-3 5 -16 4 5.2
3 -5 16 10.6 5.4
3 -5 16 -2.5 6
-4 5 -16 638.04 47.6
-4 5 -16 611.94 44.9
4 -5 16 618.84 48.3
4 -5 16 560.94 47.8
-5 5 -16 279.37 26.2
-5 5 -16 224.28 24.4
5 -5 16 242.28 26.1
5 -5 16 245.28 28.3
-6 5 -16 277.57 29.6
6 -5 16 270.67 27.9
-7 5 -16 245.78 26.9
7 -5 16 242.48 25.3
-8 5 -16 26.6 9.8
8 -5 16 43.6 11.2
-9 -4 16 57.19 10.6
-9 -4 16 36.2 14.8
-9 -4 16 43.1 14.7
-8 -4 16 98.79 22
-8 -4 16 148.39 22
-8 -4 16 162.18 26.6
-7 -4 16 236.18 27.9
-7 -4 16 158.38 29.3
-7 -4 16 255.27 18.2
-6 -4 16 70.29 17.6
-6 -4 16 74.19 6.6
-6 -4 16 62.59 19.5
-5 -4 16 772.12 60.39
-4 -4 16 227.48 25.8
-3 -4 16 86.29 17
-2 -4 16 1101.09 77.59
1 4 -16 155.68 19
-1 -4 16 127.89 18.5
0 4 -16 525.15 33
0 4 -16 542.75 33.7
0 4 -16 541.75 43.8
0 -4 16 526.25 43.9
0 -4 16 599.64 43.4
-1 4 -16 72.69 8.8
-1 4 -16 73.49 8
-1 4 -16 60.89 23.3
1 -4 16 88.09 14.5
1 -4 16 87.79 16.3
-2 4 -16 65.89 14
-2 4 -16 44.9 8.6
2 -4 16 63.49 13
2 -4 16 66.89 14.5
-3 4 -16 42.9 9.5
-3 4 -16 67.69 13.5
3 -4 16 51.69 12.7
3 -4 16 68.99 14.2
-4 4 -16 82.19 13.9
-4 4 -16 91.09 15.9
4 -4 16 99.39 17.5
4 -4 16 84.69 16.6
-5 4 -16 472.95 36.5
-5 4 -16 431.16 36.1
5 -4 16 400.46 37.5
5 -4 16 367.16 35.6
-6 4 -16 402.26 51.89
-6 4 -16 370.76 33.4
6 -4 16 401.86 35.3
6 -4 16 377.76 43.5
-7 4 -16 199.78 22.8
7 -4 16 131.69 21
-8 4 -16 19.2 10.3
8 -4 16 31.8 10.7
-10 -3 16 18.4 7.8
-9 -3 16 135.19 15
-9 -3 16 115.79 22.7
-9 -3 16 130.09 23.4
-8 -3 16 5.6 8.1
-8 -3 16 9.2 4.9
-8 -3 16 15.2 11.6
-7 -3 16 59.29 15.5
-7 -3 16 77.19 8.3
-7 -3 16 58.49 16.3
-6 -3 16 402.36 47.2
-6 -3 16 433.86 26.4
-6 -3 16 464.75 43.3
-5 -3 16 9.1 6.6
-4 -3 16 590.54 49
3 3 -16 333.37 31.3
-3 -3 16 348.07 33.7
2 3 -16 1148.69 77.39
-2 -3 16 1077.69 77.89
1 3 -16 1116.99 76.79
-1 -3 16 1115.49 77.99
0 3 -16 119.19 9.2
0 3 -16 108.79 18.6
0 3 -16 118.59 9.6
0 -3 16 138.69 21.5
-1 3 -16 493.15 46.8
-1 3 -16 483.55 32.6
1 -3 16 496.95 39.3
1 -3 16 479.25 41
-2 3 -16 955.5 62.39
-2 3 -16 1066.79 89.69
2 -3 16 943.01 69.59
2 -3 16 985.4 67.89
-3 3 -16 1 6.3
-3 3 -16 6.2 4.8
3 -3 16 -1.5 6
3 -3 16 4.4 5.1
-4 3 -16 153.98 17.7
-4 3 -16 150.68 18.6
4 -3 16 125.19 20.3
4 -3 16 138.19 19.8
-5 3 -16 30.2 9
-5 3 -16 25.7 9.3
5 -3 16 14.4 7.5
5 -3 16 0.4 7.8
-6 3 -16 29.8 12.8
-6 3 -16 27.7 9.6
6 -3 16 32.4 11.6
6 -3 16 43.4 12.4
-7 3 -16 70.69 15.3
7 -3 16 68.99 27.3
7 -3 16 68.79 13.5
-8 3 -16 16.8 8.3
-8 3 -16 0.9 9.2
8 -3 16 27.7 9.9
-10 -2 16 106.29 21.4
-10 -2 16 76.49 21.8
-10 -2 16 98.79 15.2
-9 -2 16 -12 8
-9 -2 16 -1.8 4.5
-9 -2 16 0.2 6.3
-8 -2 16 106.69 20.9
-8 -2 16 104.69 11.7
-8 -2 16 97.79 21.3
-7 -2 16 12.4 8.8
-7 -2 16 11.5 9.1
-7 -2 16 12.8 3.2
-7 -2 16 7.5 3.5
-6 -2 16 31.2 12.6
-6 -2 16 45.5 14.1
-5 -2 16 94.49 18.6
4 2 -16 1.9 6.2
-4 -2 16 9.2 6.2
3 2 -16 542.85 43.8
-3 -2 16 549.95 46.3
2 2 -16 1378.66 93.19
-2 -2 16 1438.26 96.29
1 2 -16 286.87 28.6
-1 -2 16 278.17 29.1
0 2 -16 1015.4 67.89
0 2 -16 935.61 56.69
0 -2 16 913.31 68.69
-1 2 -16 133.99 21
-1 2 -16 123.69 12
1 -2 16 134.09 18.9
1 -2 16 143.89 17.7
-2 2 -16 1443.56 99.39
2 -2 16 1299.47 91.79
2 -2 16 1340.17 88.89
-3 2 -16 435.26 33.7
-3 2 -16 388.56 54.19
3 -2 16 471.65 37.5
3 -2 16 454.55 39.7
-4 2 -16 131.59 33.6
-4 2 -16 165.08 17.7
4 -2 16 139.89 18.5
4 -2 16 165.98 20.8
-5 2 -16 8.2 15.8
-5 2 -16 12.2 6.7
5 -2 16 23.2 10.2
5 -2 16 11 8.1
-6 2 -16 -7.6 11
-6 2 -16 16.2 8.2
6 -2 16 15 8.5
6 -2 16 -9.6 7.4
-7 2 -16 139.19 20.3
-7 2 -16 162.68 24.3
7 -2 16 222.18 24.6
7 -2 16 159.58 21.1
-8 2 -16 21.7 9
-8 2 -16 49.5 15.1
8 -2 16 42.5 12
8 -2 16 27.3 18.5
-10 -1 16 42.8 9.2
-10 -1 16 45.5 9
-10 -1 16 45.9 18.2
-10 -1 16 62.69 17.4
-9 -1 16 35 15.8
-9 -1 16 40.8 8.9
-9 -1 16 13.5 9.3
-9 -1 16 52.49 8.2
-8 -1 16 61.79 9
-8 -1 16 55.99 7.3
-8 -1 16 49.1 16.2
-8 -1 16 65.79 18.2
-7 -1 16 291.77 33.4
-7 -1 16 294.27 38.8
-7 -1 16 290.17 19.5
-7 -1 16 279.27 18.8
-6 -1 16 8 6.6
-6 -1 16 -9 11.3
5 1 -16 1049.79 71.89
-5 -1 16 1071.09 75.59
-5 -1 16 881.41 73.69
4 1 -16 18.3 9
-4 -1 16 16.5 7.7
3 1 -16 134.99 18
-3 -1 16 139.79 23.1
2 1 -16 1171.08 79.59
-2 -1 16 1149.58 81.79
1 1 -16 365.46 33.1
-1 -1 16 365.46 34.7
0 1 -16 36.4 9.6
0 1 -16 37.6 4.9
0 -1 16 28.2 11.1
-1 1 -16 821.22 52.89
-1 1 -16 874.51 61.99
1 -1 16 843.92 63.59
-2 1 -16 112.09 18.3
-2 1 -16 82.99 11
2 -1 16 88.59 17.6
2 -1 16 94.79 15.7
-3 1 -16 1410.06 93.79
-3 1 -16 1567.54 100.49
3 -1 16 1503.65 101.79
3 -1 16 1550.34 97.79
-4 1 -16 11.2 8.3
-4 1 -16 4.4 5.6
4 -1 16 7.2 6.4
4 -1 16 5.2 6.5
-5 1 -16 1109.59 77.29
-5 1 -16 1278.57 80.99
5 -1 16 1144.09 81.49
5 -1 16 1060.19 78.19
-6 1 -16 205.08 23.3
-6 1 -16 225.98 23.6
6 -1 16 189.68 22.8
6 -1 16 180.18 23.9
-7 1 -16 12 8.7
-7 1 -16 12.7 7.8
7 -1 16 6 7.9
7 -1 16 -7 6.4
-8 1 -16 12 11.5
-8 1 -16 21 15
8 -1 16 7.5 9.4
8 -1 16 10.9 13.1
-10 0 16 5.9 6.8
-10 0 16 -17.6 9.2
-10 0 16 8.3 6.5
-10 0 16 14.3 12.6
-9 0 16 22.5 12.7
-9 0 16 23 10
-9 0 16 30.9 6.5
-9 0 16 40.3 12.5
-8 0 16 485.15 44.5
-8 0 16 421.46 44.3
-8 0 16 434.06 30.3
-8 0 16 439.26 29.3
-7 0 16 233.58 16.4
-7 0 16 264.37 17.2
-7 0 16 229.18 30
-6 0 16 106.19 27.8
-6 0 16 98.29 20.1
5 0 -16 6.8 6
-5 0 16 -5.6 6.1
-5 0 16 1.4 5.5
4 0 -16 167.38 20.1
-4 0 16 105.49 20.5
3 0 -16 1995.6 130.09
-3 0 16 2123.09 134.69
2 0 -16 551.64 44.1
-2 0 16 536.55 46
1 0 -16 326.77 20
1 0 -16 346.27 31.8
-1 0 16 353.86 34.2
0 0 -16 391.86 25.9
0 0 -16 396.86 35.2
0 0 16 380.26 36.3
-1 0 -16 450.35 38.3
-1 0 -16 404.26 29.7
1 0 16 452.75 40
-2 0 -16 575.94 41
-2 0 -16 655.33 49.1
2 0 16 555.84 44.6
2 0 16 603.44 49.5
-3 0 -16 110.69 18.8
-3 0 -16 88.09 14.1
3 0 16 116.29 20.4
3 0 16 85.29 15.4
-4 0 -16 473.55 39
-4 0 -16 573.84 44.5
4 0 16 479.15 43.9
4 0 16 522.25 40.9
-5 0 -16 21.4 8.6
-5 0 -16 15.4 10.4
5 0 16 9.4 8.5
5 0 16 -0.7 6
-6 0 -16 17.6 9
-6 0 -16 49.6 12.4
6 0 16 52.79 11.9
6 0 16 51.59 14.3
-7 0 -16 31.2 11.4
-7 0 -16 38.2 12.2
7 0 16 36.7 11.6
-8 0 -16 14.9 9.7
-8 0 -16 -5.1 8.9
8 0 16 7.2 12.9
8 0 16 22.6 11.7
-10 1 16 224.18 20.6
-10 1 16 185.48 30.3
-10 1 16 189.38 18.2
-10 1 16 183.58 31.3
-9 1 16 13.7 4.5
-9 1 16 -17.1 7.5
-9 1 16 -7.7 8
-9 1 16 11.2 10.2
-8 1 16 160.68 29.4
-8 1 16 169.08 13.4
-8 1 16 171.78 27.9
-8 1 16 151.78 14.3
-7 1 16 14 3.5
-7 1 16 15.3 10.8
-7 1 16 12.9 3.1
-6 1 16 154.38 25.5
-6 1 16 122.49 23.8
5 -1 -16 653.43 52.39
-5 1 16 730.13 57.69
-5 1 16 681.03 57.39
4 -1 -16 222.18 23.8
-4 1 16 207.18 26.8
-4 1 16 235.38 27.4
3 -1 -16 525.25 42.8
-3 1 16 514.45 45.4
2 -1 -16 1443.76 98.99
-2 1 16 1557.24 103.29
1 -1 -16 214.98 14.6
1 -1 -16 235.68 24.6
-1 1 16 214.18 25.2
0 -1 -16 865.61 64.09
0 -1 -16 859.81 53.39
0 1 16 896.41 66.39
-1 -1 -16 238.78 19.7
-1 -1 -16 259.67 27.3
1 1 16 234.88 27.2
-2 -1 -16 606.54 42.6
-2 -1 -16 610.74 49.9
2 1 16 631.54 51.79
-3 -1 -16 153.28 16.8
-3 -1 -16 170.08 21.9
3 1 16 150.48 21.3
3 1 16 142.69 19.8
-4 -1 -16 10.7 6.2
-4 -1 -16 18 9.2
4 1 16 15.9 10
4 1 16 8.5 7
-5 -1 -16 663.83 52.29
-5 -1 -16 646.04 49.99
5 1 16 638.44 52.89
5 1 16 622.84 49.8
-6 -1 -16 197.28 24.5
-6 -1 -16 171.58 25.2
6 1 16 167.88 26.9
6 1 16 181.98 23.2
-7 -1 -16 206.28 25.8
-7 -1 -16 200.08 24.9
7 1 16 200.48 26
7 1 16 204.18 25.7
-10 2 16 72.59 20
-10 2 16 47.1 9.7
-10 2 16 56.89 10.9
-10 2 16 74.09 18.6
-9 2 16 74.79 20.9
-9 2 16 88.79 20.2
-9 2 16 92.19 21.5
-9 2 16 118.49 11.3
-8 2 16 202.68 16.3
-8 2 16 204.88 27.8
-8 2 16 186.18 31.5
-8 2 16 175.78 14.9
-7 2 16 187.48 13.4
-7 2 16 173.48 13.6
-7 2 16 184.58 31.1
-6 2 16 347.87 36.1
-6 2 16 293.17 35.2
5 -2 -16 514.95 58.59
-5 2 16 322.57 65.19
-5 2 16 398.56 39.9
4 -2 -16 907.71 63.89
-4 2 16 818.22 65.99
-4 2 16 870.41 68.19
3 -2 -16 759.92 58.49
-3 2 16 823.52 63.09
-3 2 16 788.22 62.19
2 -2 -16 668.93 53.89
-2 2 16 747.13 58.09
1 -2 -16 176.68 22.2
1 -2 -16 207.88 14.4
-1 2 16 197.08 24.4
0 -2 -16 8.8 7
0 -2 -16 6.9 3.7
0 2 16 3.9 7
-1 -2 -16 381.16 39.3
-1 -2 -16 427.06 37.5
1 2 16 425.16 39.7
-2 -2 -16 156.48 22.3
-2 -2 -16 200.28 18.8
2 2 16 180.28 24.9
-3 -2 -16 19.2 7
-3 -2 -16 30.3 11.4
3 2 16 19.3 9.4
3 2 16 28.2 10.4
-4 -2 -16 973.8 70.19
-4 -2 -16 966.9 65.49
4 2 16 815.62 78.49
4 2 16 958.9 71.89
-5 -2 -16 96.19 21
-5 -2 -16 80.79 30.2
5 2 16 78.99 24.2
5 2 16 97.39 19.4
-6 -2 -16 354.76 33.3
6 2 16 317.17 35.7
6 2 16 310.47 33.6
-7 -2 -16 1.1 8.5
7 2 16 16.8 10.2
7 2 16 -1.3 10.7
-10 3 16 160.08 30.3
-10 3 16 148.89 16.8
-10 3 16 199.58 26.9
-10 3 16 114.79 14.4
-9 3 16 70.39 19.9
-9 3 16 82.09 9
-9 3 16 50.59 10.5
-9 3 16 57.79 18.5
-8 3 16 120.09 24.3
-8 3 16 121.99 24.6
-8 3 16 113.59 11.6
-8 3 16 128.99 12.8
-7 3 16 9.5 8
-7 3 16 4.7 3
-7 3 16 2.3 2.8
-7 3 16 9.3 9.1
-6 3 16 373.26 39.9
-6 3 16 455.55 25.8
-6 3 16 399.76 25.6
-6 3 16 403.16 41.3
-5 3 16 528.05 48.5
-5 3 16 536.25 51.19
4 -3 -16 292.57 33.8
-4 3 16 344.17 34.2
-4 3 16 225.18 29.2
3 -3 -16 897.91 66.89
-3 3 16 981.5 71.99
-3 3 16 882.61 69.79
2 -3 -16 89.69 7.2
2 -3 -16 81.69 17
-2 3 16 64.19 16.5
-2 3 16 83.69 17.5
1 -3 -16 423.66 38.2
1 -3 -16 433.96 28.1
-1 3 16 411.16 40
0 -3 -16 771.12 48.8
0 -3 -16 740.63 58.49
0 3 16 778.62 61.59
-1 -3 -16 26.1 10.3
-1 -3 -16 16.9 5.4
1 3 16 10.9 8.9
-2 -3 -16 301.17 32.4
-2 -3 -16 299.77 25.7
2 3 16 337.27 34.2
-3 -3 -16 79.69 13.8
3 3 16 72.19 22.3
3 3 16 97.29 19.8
-4 -3 -16 215.58 22.9
4 3 16 186.18 24.1
4 3 16 235.88 28.6
-5 -3 -16 125.39 19.8
5 3 16 93.29 24.7
5 3 16 120.59 16.2
-6 -3 -16 17.8 10.3
6 3 16 36.5 10.9
6 3 16 56.69 17.3
-7 -3 -16 56.49 15.2
7 3 16 91.99 16.3
7 3 16 69.39 18.1
-10 4 16 202.18 18.8
-10 4 16 207.88 29.7
-10 4 16 207.38 20.5
-10 4 16 258.67 40.1
-9 4 16 10.8 12.3
-9 4 16 15 11.5
-9 4 16 10.8 5.3
-9 4 16 23.1 7.4
-8 4 16 131.79 13.4
-8 4 16 90.09 24.3
-8 4 16 150.68 26.6
-7 4 16 722.43 64.89
-7 4 16 756.32 62.99
-7 4 16 732.83 47
-7 4 16 763.62 46.6
-6 4 16 52.49 6.2
-6 4 16 51.99 6.1
-6 4 16 40.6 25.1
-6 4 16 36.3 14.8
-5 4 16 124.39 23.7
-5 4 16 102.59 21.8
-5 4 16 132.39 9.6
-4 4 16 86.99 24
-4 4 16 51.49 5.1
-4 4 16 59.59 16
-3 4 16 56.09 6
-3 4 16 48.5 14.1
-3 4 16 60.49 16.3
2 -4 -16 1248.08 99.59
2 -4 -16 968.9 57.49
-2 4 16 789.62 58.09
-2 4 16 1057.79 74.39
-2 4 16 1034.7 74.79
1 -4 -16 360.36 60.59
1 -4 -16 403.36 26.9
-1 4 16 387.66 39.2
-1 4 16 375.66 37.1
0 -4 -16 57.79 11.1
0 4 16 40.8 13
-1 -4 -16 256.17 21.8
1 4 16 254.17 30.3
2 4 16 33.7 13.1
-3 -4 -16 209.78 22.5
3 4 16 257.07 55.39
3 4 16 236.08 27.1
-4 -4 -16 26.6 10.2
4 4 16 14.9 10.7
4 4 16 14.2 7.3
-5 -4 -16 96.89 17.6
5 4 16 67.69 17.3
5 4 16 80.09 14.6
-6 -4 -16 53.59 14.5
6 4 16 33.3 11.4
6 4 16 35.4 15.4
-7 -4 -16 -15.8 8.3
-10 5 16 -22.1 9.8
-10 5 16 6.8 7
-10 5 16 -10.8 9.4
-10 5 16 10.9 6.7
-9 5 16 86.79 12.2
-9 5 16 60.79 22.3
-9 5 16 78.99 12.4
-9 5 16 85.69 21.7
-8 5 16 61.79 9.8
-8 5 16 46.6 8.5
-8 5 16 54.19 16.6
-8 5 16 68.69 19.1
-7 5 16 8.8 10
-7 5 16 -2.3 3.2
-7 5 16 -0.5 8.1
-6 5 16 100.29 9.6
-6 5 16 81.79 20.4
-6 5 16 101.39 21.2
-5 5 16 260.27 31.7
-5 5 16 222.88 16.7
-4 5 16 431.06 29.3
-4 5 16 453.75 46
-4 5 16 512.75 47
3 -5 -16 874.61 49.7
-3 5 16 763.92 65.49
-3 5 16 941.21 68.09
-3 5 16 712.73 49.9
2 -5 -16 28.2 5.7
-2 5 16 35.3 12.5
-2 5 16 51.79 15.9
-2 5 16 20.1 5.6
1 -5 -16 465.05 30
-1 5 16 418.36 41.8
-1 5 16 502.25 42.4
-1 5 16 352.46 30.2
0 -5 -16 35.3 7.7
0 5 16 31.3 13.1
0 5 16 45.1 13.7
0 5 16 50.89 9.7
-1 -5 -16 16.3 5.8
1 5 16 9.3 12.4
-2 -5 -16 9.6 5.3
2 5 16 9.7 7.7
2 5 16 4.9 6.3
-3 -5 -16 4.1 5.2
3 5 16 -2.7 5
3 5 16 -12.4 7.2
-4 -5 -16 185.08 22.9
4 5 16 200.68 24
4 5 16 206.28 20.6
4 5 16 183.08 26.3
-5 -5 -16 17.3 8.8
5 5 16 31.3 10.8
5 5 16 33.1 13.7
5 5 16 41.6 11.5
-6 -5 -16 42 12.6
6 5 16 33.3 10.4
6 5 16 41.3 14.9
6 5 16 45 11.9
-10 6 16 154.58 17.4
-10 6 16 132.89 28.9
-10 6 16 161.38 16.8
-10 6 16 133.89 27.1
-9 6 16 31.1 8.1
-9 6 16 44.1 9.9
-9 6 16 65.69 17.7
-9 6 16 65.09 20.2
-8 6 16 232.58 38.6
-8 6 16 274.07 21
-8 6 16 244.98 33.6
-7 6 16 241.98 46.4
-7 6 16 320.67 39.4
-7 6 16 293.27 36
-6 6 16 174.78 30.2
-6 6 16 198.98 32.9
-6 6 16 209.98 16.6
-5 6 16 310.97 34.6
-5 6 16 250.57 31.5
-5 6 16 234.48 18.9
-4 6 16 13.9 4.3
-4 6 16 26.3 13.7
-4 6 16 33.8 12.8
3 -6 -16 4.2 3.2
-3 6 16 8.2 4
-3 6 16 -2.6 8.7
-3 6 16 -15.5 8.5
2 -6 -16 635.54 40.7
-2 6 16 663.33 54.89
-2 6 16 616.54 44.4
-2 6 16 589.94 56.39
1 -6 -16 12.3 5
-1 6 16 4.9 4.4
-1 6 16 13.8 9.2
-1 6 16 3.3 7.1
0 -6 -16 302.07 24.8
0 6 16 341.17 36.2
0 6 16 292.87 26.6
0 6 16 329.07 33.2
-1 -6 -16 106.19 13.8
1 6 16 90.09 14.8
1 6 16 99.09 18.9
1 6 16 138.79 25.4
-2 -6 -16 153.98 16.9
2 6 16 161.78 21.2
2 6 16 130.69 25.9
-3 -6 -16 307.57 27.7
3 6 16 276.77 34
3 6 16 287.37 29.4
-4 -6 -16 -10.3 4.5
4 6 16 -13 6.9
4 6 16 -0.2 6.4
4 6 16 1.1 5.4
-5 -6 -16 113.19 19.7
5 6 16 85.49 20.7
5 6 16 132.99 17.8
5 6 16 106.19 16.5
-6 -6 -16 -1.9 9.9
6 6 16 17.5 13.2
6 6 16 15 10.3
6 6 16 18.1 8.8
-10 7 16 -5.7 5.2
-10 7 16 -8.6 15.9
-10 7 16 14.2 7.9
-9 7 16 178.78 17.9
-9 7 16 208.78 36.4
-9 7 16 188.58 33
-8 7 16 2 4.6
-8 7 16 17.1 11.4
-8 7 16 2.7 9.9
-7 7 16 152.88 29.6
-7 7 16 147.39 14.3
-7 7 16 152.18 27.6
-6 7 16 208.78 30.3
-6 7 16 261.07 42.1
-6 7 16 244.98 32.6
-5 7 16 224.78 30.5
-5 7 16 160.28 15.6
-5 7 16 122.79 25
-4 7 16 286.37 31.9
-4 7 16 380.86 38.2
-4 7 16 291.97 35.8
3 -7 -16 2 3.6
-3 7 16 10.6 8
-3 7 16 3.5 7.8
-3 7 16 10.8 4.6
2 -7 -16 426.06 29.3
-2 7 16 360.96 30.2
-2 7 16 448.06 42.3
-2 7 16 400.56 41.5
1 -7 -16 444.26 34.3
-1 7 16 526.65 49.3
-1 7 16 509.55 37.2
-1 7 16 512.35 46
0 -7 -16 10.3 6.2
0 7 16 24.5 8.3
0 7 16 21.4 12.3
0 7 16 33.1 11.6
-1 -7 -16 485.85 38.3
1 7 16 547.55 46.3
1 7 16 542.25 41.7
1 7 16 531.95 50.39
-2 -7 -16 17.6 6.7
2 7 16 19.9 10.2
2 7 16 3.5 8.8
2 7 16 27.3 10.4
3 7 16 76.39 15.5
3 7 16 75.89 19.5
-4 -7 -16 82.69 15.4
4 7 16 46 11.6
4 7 16 30.3 12.7
4 7 16 47.2 12.6
-5 -7 -16 -7.1 6.2
5 7 16 15.8 9.4
5 7 16 4.1 7.7
5 7 16 38.1 13.2
-9 8 16 1.3 10.4
-9 8 16 2.5 6.3
-9 8 16 6 13.2
-8 8 16 324.37 38
-8 8 16 283.57 39.4
-8 8 16 268.07 23.2
-7 8 16 26.4 13.4
-7 8 16 24.4 14.6
-7 8 16 22 6.1
-6 8 16 350.16 27.6
-6 8 16 362.26 40.7
-6 8 16 407.76 45.1
-5 8 16 462.45 34.1
-5 8 16 526.35 50.19
-5 8 16 439.56 46.5
-4 8 16 261.57 33.4
-4 8 16 332.57 37.4
-4 8 16 254.27 22.3
3 -8 -16 282.57 21
-3 8 16 221.38 31.2
-3 8 16 259.27 22.6
-3 8 16 226.68 36.2
2 -8 -16 227.88 20.6
-2 8 16 288.57 23.1
-2 8 16 224.28 32
-2 8 16 260.17 32.3
1 -8 -16 147.99 15.3
-1 8 16 147.29 18
-1 8 16 109.49 25
-1 8 16 197.28 24.8
0 -8 -16 159.18 17.1
0 8 16 139.89 18
0 8 16 132.09 26.5
0 8 16 135.29 24.1
-1 -8 -16 17.1 6.8
1 8 16 -4.2 5.6
1 8 16 14.3 7.1
1 8 16 12.8 9.5
-2 -8 -16 238.18 24.5
2 8 16 264.07 33.6
2 8 16 388.66 60.39
2 8 16 244.98 28.8
-3 -8 -16 130.69 20.3
3 8 16 139.79 26.6
3 8 16 115.99 20.2
-4 -8 -16 134.59 20.3
4 8 16 90.69 17.6
4 8 16 79.89 14.2
-5 -8 -16 51.19 14
5 8 16 50.39 17.5
5 8 16 54.29 12.8
5 8 16 70.59 14.2
-9 9 16 26.4 8.5
-9 9 16 47.8 18.3
-8 9 16 73.89 11.5
-8 9 16 86.89 22.3
-8 9 16 89.99 24.3
-7 9 16 360.36 41.2
-7 9 16 325.17 41.2
-7 9 16 355.96 27.9
-6 9 16 -13.6 9.4
-6 9 16 6.2 11.3
-6 9 16 21.3 5.9
-5 9 16 112.39 24.7
-5 9 16 104.29 12.8
-5 9 16 62.89 20
4 -9 -16 501.65 33.5
-4 9 16 378.36 45.6
-4 9 16 439.26 35
-4 9 16 564.14 51.39
3 -9 -16 24.5 6.5
-3 9 16 13.8 11.6
-3 9 16 14.2 7
-3 9 16 11.2 11.5
2 -9 -16 327.07 26.4
-2 9 16 301.77 37.6
-2 9 16 347.07 29.2
-2 9 16 350.56 38.5
1 -9 -16 3.1 5.6
-1 9 16 5.3 7.8
-1 9 16 25.4 8.7
-1 9 16 13.2 17.3
0 -9 -16 137.39 16.7
0 9 16 162.88 29
0 9 16 155.78 26
0 9 16 181.28 21.8
-1 -9 -16 48.2 11.5
1 9 16 54.09 17.1
1 9 16 64.09 17.4
1 9 16 75.99 15.6
-2 -9 -16 20 7.3
2 9 16 7.3 10.3
2 9 16 7.5 9.2
-3 -9 -16 19.6 9.1
3 9 16 23.7 12.4
3 9 16 7.4 10.6
-4 -9 -16 63.69 14.9
4 9 16 50.79 15.6
4 9 16 87.99 16.7
4 9 16 46.9 11.4
-9 10 16 192.48 34.8
-9 10 16 223.78 28.6
-9 10 16 164.38 36.9
-8 10 16 54.79 10.1
-8 10 16 46.9 17.8
-8 10 16 25.6 17.3
-7 10 16 -1.9 10.9
-7 10 16 5 11.5
-7 10 16 15.2 6.9
-6 10 16 273.97 24.4
-6 10 16 299.27 38.2
-6 10 16 280.17 35.8
-5 10 16 -5.5 9.3
-5 10 16 0.3 6.1
-5 10 16 5.2 5.5
4 -10 -16 256.97 21.7
-4 10 16 243.68 23.1
-4 10 16 317.77 38.4
-4 10 16 243.08 34.9
3 -10 -16 361.46 26.4
-3 10 16 290.87 38.7
-3 10 16 314.97 38
-3 10 16 292.37 27.8
2 -10 -16 49.5 9.9
-2 10 16 48 14.8
-2 10 16 13.6 9.1
1 -10 -16 609.84 43.7
-1 10 16 574.74 57.69
-1 10 16 593.54 64.09
-1 10 16 638.74 55.19
0 -10 -16 47.1 11.8
0 10 16 65.29 18.9
0 10 16 32.6 11.2
-1 -10 -16 260.07 27.4
1 10 16 292.47 37
1 10 16 303.17 33
-2 -10 -16 5.4 8.7
2 10 16 50.19 14.3
2 10 16 20.8 15
-3 -10 -16 125.59 19.8
3 10 16 133.69 22
3 10 16 86.59 21.8
-4 -10 -16 138.09 21.7
4 10 16 69.39 22.5
4 10 16 102.09 18.3
4 10 16 119.59 16.3
-8 11 16 73.19 33
-8 11 16 99.39 23.7
-8 11 16 78.09 41.1
-7 11 16 96.79 24.2
-7 11 16 137.99 28.2
-7 11 16 118.99 15.7
-6 11 16 2.8 6.3
-6 11 16 5.9 10.8
-6 11 16 17.3 14
-5 11 16 421.86 43.9
-5 11 16 261.67 25.9
-5 11 16 269.77 36
4 -11 -16 1.1 5.2
-4 11 16 -1.4 7.3
-4 11 16 12 10.6
-4 11 16 1.9 10.3
3 -11 -16 42.1 9.3
-3 11 16 17.2 11
-3 11 16 65.29 12.4
-3 11 16 44.1 16.9
2 -11 -16 26.2 8.8
-2 11 16 29.7 14.2
-2 11 16 39.1 14.4
-2 11 16 33.3 11
1 -11 -16 65.39 12.7
-1 11 16 95.39 16.1
-1 11 16 75.39 18.2
-1 11 16 75.69 22.3
0 -11 -16 394.06 33.1
0 11 16 339.07 44
0 11 16 406.86 40.6
-1 -11 -16 -11.8 5.7
1 11 16 -6.7 9.9
1 11 16 1.3 9.7
-2 -11 -16 8.6 8.1
2 11 16 12.2 11.3
2 11 16 17.9 11.8
-3 -11 -16 46.5 12.6
3 11 16 64.89 19.1
3 11 16 56.79 14.7
-8 12 16 -18.3 13.3
-8 12 16 -0.8 8.2
-8 12 16 -0.4 9
-7 12 16 73.59 22.7
-7 12 16 95.19 24.6
-6 12 16 70.69 20.8
-6 12 16 64.89 21.3
-6 12 16 72.59 22.4
-5 12 16 -3.8 7.3
-5 12 16 -9.5 5.7
4 -12 -16 206.78 20.1
-4 12 16 162.78 32.4
-4 12 16 193.78 33.7
-4 12 16 226.28 24.8
3 -12 -16 0.9 4.7
-3 12 16 4.8 9.2
-3 12 16 20.4 12.5
-3 12 16 14.4 9
2 -12 -16 159.98 19.2
-2 12 16 244.88 23
-2 12 16 144.59 29.8
-2 12 16 159.78 29
1 -12 -16 259.77 24.8
-1 12 16 184.38 35.5
-1 12 16 293.47 34.7
0 -12 -16 64.59 13.9
0 12 16 45.3 16.9
0 12 16 27.1 14.4
-1 -12 -16 178.48 22.4
1 12 16 194.08 32.8
-2 -12 -16 -5.7 7.3
2 12 16 54.49 16.6
2 12 16 6.1 12.3
-7 13 16 9.6 7.7
-7 13 16 27.1 14.8
-7 13 16 12.8 11.8
-6 13 16 58.19 20.1
-6 13 16 64.29 21.4
-6 13 16 39.2 11.9
5 -13 -16 97.09 15.1
-5 13 16 147.99 18.7
-5 13 16 155.38 30.3
-5 13 16 119.49 27.8
4 -13 -16 54.39 11
-4 13 16 14.7 13.3
-4 13 16 18.9 10.8
-4 13 16 34.8 15.2
3 -13 -16 112.39 15.7
-3 13 16 70.49 24.8
-3 13 16 96.49 20.1
-3 13 16 103.79 24.1
2 -13 -16 5.5 6.3
-2 13 16 19.7 13.4
-2 13 16 -14.2 6.3
1 -13 -16 353.46 30.3
-1 13 16 324.47 38.4
-1 13 16 260.07 37.7
0 -13 -16 56.49 13
0 13 16 48.5 19.4
0 13 16 21.4 18
-1 -13 -16 40.9 12.3
1 13 16 92.99 35
1 13 16 33.5 14.1
-6 14 16 30.5 20.4
-6 14 16 43.8 17.9
5 -14 -16 80.09 13.6
-5 14 16 70.29 23.2
-5 14 16 60.79 21.1
4 -14 -16 257.17 29.1
-4 14 16 207.98 39.1
-4 14 16 326.67 39.9
3 -14 -16 125.79 16.1
-3 14 16 107.79 26.1
-3 14 16 110.99 27.6
2 -14 -16 370.66 31.7
-2 14 16 280.57 41.9
-2 14 16 417.46 44.6
1 -14 -16 38.4 10.9
-1 14 16 9.3 21.8
-1 14 16 23.7 15.7
0 -14 -16 120.69 19.7
0 14 16 162.38 28.5
0 14 16 178.78 32.8
5 -15 -16 -2.3 5.4
-5 15 16 13 19.5
4 -15 -16 230.98 22.8
-4 15 16 162.28 32.8
-4 15 16 126.89 31.5
3 -15 -16 91.39 15.2
-3 15 16 138.39 29.5
-3 15 16 74.19 22.6
2 -15 -16 75.19 15.5
-2 15 16 74.59 22.5
-2 15 16 105.09 26
0 -20 17 297.17 31.6
0 -20 17 260.67 33
1 -20 17 20.5 19.2
2 -20 17 85.39 19.4
3 -20 17 23.9 11.7
-1 -19 17 206.68 24.3
-1 -19 17 271.57 32.9
0 -19 17 35.1 13.9
1 -19 17 89.59 20.6
2 -19 17 1.6 7.3
3 -19 17 156.78 26
4 -19 17 77.49 18.8
5 -19 17 13.8 9.8
-3 -18 17 113.29 18.1
-3 -18 17 92.99 20.7
-2 -18 17 1.7 8.6
-2 -18 17 4.3 9.5
-1 -18 17 -17.1 6.5
-1 -18 17 4 10.3
0 -18 17 65.19 17.5
1 -18 17 29.4 11.6
2 -18 17 270.07 31.5
3 -18 17 -1.2 7
4 -18 17 56.19 15.6
5 -18 17 46.2 13.5
-6 18 -17 71.79 18.3
-4 -17 17 13.1 10.7
-3 -17 17 19.4 10.5
-3 -17 17 17.2 21.8
2 17 -17 96.79 15.9
-2 -17 17 87.39 15.3
-2 -17 17 66.09 17.1
1 17 -17 144.09 18.4
-1 -17 17 150.28 19.2
-1 -17 17 117.59 23.5
0 17 -17 27.7 7.9
0 -17 17 19.2 10.8
-1 17 -17 142.79 22.4
1 -17 17 148.39 25.3
2 -17 17 2.1 8.2
3 -17 17 567.84 49.5
4 -17 17 38.3 13
5 -17 17 176.38 23.9
6 -17 17 294.57 30.1
4 16 -17 107.69 18.2
-4 -16 17 149.69 17.8
-4 -16 17 80.39 36.8
3 16 -17 244.38 24.4
-3 -16 17 262.37 25.1
-3 -16 17 234.98 30.6
2 16 -17 52.99 11.3
-2 -16 17 55.69 12.2
-2 -16 17 24.9 12.8
1 16 -17 129.69 18.2
-1 -16 17 132.99 19.1
-1 -16 17 152.88 25.8
0 16 -17 -3.2 5.3
0 -16 17 2.7 7.7
-1 16 -17 34.2 9.3
1 -16 17 53.99 15.8
-2 16 -17 533.75 41.6
2 -16 17 594.54 50.19
3 -16 17 103.19 19.8
4 -16 17 227.88 26.2
5 -16 17 70.99 16.3
6 -16 17 370.06 35.8
7 -16 17 24.6 11.1
5 15 -17 180.18 21
-5 -15 17 180.38 20.1
-5 -15 17 97.59 28.5
4 15 -17 20.7 8.6
-4 -15 17 11.4 7.4
-4 -15 17 8.6 8.6
3 15 -17 107.89 15.3
-3 -15 17 49.3 15.8
-3 -15 17 69.59 13.4
2 15 -17 360.56 29.6
-2 -15 17 360.46 37.8
-2 -15 17 346.87 30
1 15 -17 274.27 24.3
-1 -15 17 248.88 24.8
-1 -15 17 300.17 32.3
0 15 -17 654.33 47.8
0 -15 17 778.42 59.59
-1 15 -17 18.1 12.7
1 -15 17 15.4 9.6
-2 15 -17 113.49 14.5
2 -15 17 123.49 21.7
-3 15 -17 139.09 15.6
3 -15 17 118.19 20.9
4 -15 17 24.3 9.3
5 -15 17 472.65 48
6 -15 17 174.48 21
7 -15 17 263.67 27.8
6 14 -17 230.48 26.3
-6 -14 17 282.87 26.6
-6 -14 17 237.58 32
5 14 -17 62.79 20.7
-5 -14 17 57.09 16.6
-5 -14 17 50.19 11.5
4 14 -17 348.17 29.5
-4 -14 17 359.06 29.8
-4 -14 17 355.96 39.3
3 14 -17 132.69 15.6
-3 -14 17 135.99 24.6
-3 -14 17 131.49 15.5
2 14 -17 808.62 53.89
-2 -14 17 780.82 64.39
-2 -14 17 791.72 54.49
1 14 -17 77.99 12.5
-1 -14 17 91.09 20.2
0 14 -17 236.28 20.3
0 -14 17 211.78 26.4
-1 14 -17 277.97 23.2
1 -14 17 271.17 30
-2 14 -17 2.3 4.8
2 -14 17 -3.8 5.8
-3 14 -17 143.99 15.9
3 -14 17 120.79 21.4
-4 14 -17 191.98 36.1
5 -14 17 39.6 12.6
6 -14 17 496.95 42.2
7 -14 17 81.59 15.5
6 13 -17 214.68 38.1
-6 -13 17 212.98 22.9
-6 -13 17 210.98 33.7
5 13 -17 185.28 18.7
-5 -13 17 147.39 17.1
-5 -13 17 118.59 23.8
4 13 -17 140.19 15.4
-4 -13 17 112.99 22.6
-4 -13 17 119.59 14.4
3 13 -17 148.59 15.6
-3 -13 17 87.89 19.5
-3 -13 17 158.68 15.8
2 13 -17 43.6 8.8
-2 -13 17 13.4 10.2
-2 -13 17 31.8 8
1 13 -17 453.75 33.5
-1 -13 17 495.25 44.1
0 13 -17 809.72 52.79
0 -13 17 791.52 62.09
-1 13 -17 -4.2 4.5
1 -13 17 5 8.6
-2 13 -17 335.47 26.4
2 -13 17 315.57 32.4
-3 13 -17 75.49 12.9
3 -13 17 38.9 21.2
-4 13 -17 86.89 13.4
4 -13 17 66.69 14.7
5 -13 17 248.38 27
6 -13 17 -2.9 6.4
7 -13 17 27.7 10.3
8 -13 17 44.3 11.9
-7 -12 17 194.28 33
-7 -12 17 214.78 22.5
-6 -12 17 16 7.6
-6 -12 17 15.7 11.6
5 12 -17 458.15 34
-5 -12 17 392.86 42
-5 -12 17 445.76 33.6
4 12 -17 284.27 23.2
-4 -12 17 273.87 22.7
-4 -12 17 235.98 30.6
3 12 -17 1.4 4.5
-3 -12 17 10.3 4.7
-3 -12 17 -1.8 7.3
2 12 -17 1203.48 71.89
-2 -12 17 1067.49 71.49
-2 -12 17 1158.98 83.69
1 12 -17 10 5
-1 -12 17 6.3 8.1
0 12 -17 19.8 5.9
0 -12 17 20.9 8.7
-1 12 -17 156.78 16
1 -12 17 227.88 25.1
-2 12 -17 109.99 12.9
2 -12 17 129.29 22.2
-3 12 -17 879.61 58.19
3 -12 17 873.81 64.79
-4 12 -17 9.4 7
4 -12 17 3 5.9
5 -12 17 472.35 40.5
6 -12 17 18.8 9.4
7 -12 17 48.5 12.3
8 -12 17 143.89 19.3
-7 -11 17 19.5 7.3
-7 -11 17 24.7 11.4
-6 -11 17 280.77 24.4
-6 -11 17 291.27 34.4
5 11 -17 37.6 8.6
-5 -11 17 33.3 7.2
-5 -11 17 35 12.8
4 11 -17 182.58 16.6
-4 -11 17 153.78 25
-4 -11 17 159.68 26.9
3 11 -17 267.67 19.8
-3 -11 17 201.98 27.4
-3 -11 17 244.78 19.8
2 11 -17 43.2 7.7
-2 -11 17 40 12.9
1 11 -17 209.48 17.6
-1 -11 17 214.98 25
0 11 -17 -5 3.2
0 -11 17 10.8 6.9
-1 11 -17 361.76 26.6
1 -11 17 349.27 34.7
-2 11 -17 588.34 40.4
2 -11 17 573.54 47.6
-3 11 -17 -0.7 4.9
3 -11 17 -8.7 5.1
-4 11 -17 680.33 48.1
4 -11 17 656.63 51.39
-5 11 -17 19 10.6
5 -11 17 14.2 9.1
7 -11 17 -13 6.2
8 -11 17 15 9
-7 -10 17 34.3 13.4
-7 -10 17 48.8 9.8
-6 -10 17 39.1 13.7
-6 -10 17 30.9 7.7
-5 -10 17 55.49 9.5
-5 -10 17 59.99 16.1
4 10 -17 138.19 13.4
-4 -10 17 135.19 12.5
-4 -10 17 117.79 22.8
3 10 -17 399.06 25.7
-3 -10 17 322.07 35.1
-3 -10 17 333.37 24.8
2 10 -17 444.16 30.7
-2 -10 17 483.65 42.8
1 10 -17 64.59 8.7
-1 -10 17 42.3 13.8
0 10 -17 205.98 16.7
0 -10 17 216.18 26.6
-1 10 -17 269.97 21.2
1 -10 17 262.97 28.3
-2 10 -17 48.6 9.1
2 -10 17 63.29 14.3
-3 10 -17 72.09 11.3
3 -10 17 77.49 15.2
4 -10 17 41.9 11.3
-5 10 -17 217.88 23.6
5 -10 17 217.78 24.4
6 -10 17 17.2 9.2
7 -10 17 108.89 17.9
8 -10 17 171.18 20.8
-8 -9 17 24.4 12.2
-8 -9 17 24 10.9
-8 -9 17 12.1 7.2
-7 -9 17 101.99 21.9
-7 -9 17 132.09 14.2
-6 -9 17 -8.6 7.3
-6 -9 17 2.2 4.4
-5 -9 17 40.2 12.7
-5 -9 17 62.09 8.4
-4 -9 17 239.48 17.6
-4 -9 17 249.97 29.7
3 9 -17 32.9 5.3
-3 -9 17 32.1 10.9
2 9 -17 274.37 19.6
-2 -9 17 288.37 31.1
1 9 -17 27.5 5
-1 -9 17 26 10.3
0 9 -17 82.49 9.2
0 -9 17 104.19 18.3
-1 9 -17 1319.97 81.09
1 -9 17 1372.16 91.69
-2 9 -17 51.29 8.4
2 -9 17 54.09 13.3
-3 9 -17 618.04 43.2
3 -9 17 639.24 49.5
-4 9 -17 288.17 25
4 -9 17 278.87 28
-5 9 -17 102.59 17
5 -9 17 92.09 16.9
6 -9 17 356.56 33.2
7 -9 17 -8.4 5.7
-8 9 -17 8.2 10.2
8 -9 17 23.3 10
-8 -8 17 257.87 21.9
-8 -8 17 166.68 29
-8 -8 17 268.87 32.4
-7 -8 17 -7.4 7.8
-7 -8 17 -14.6 7.3
-7 -8 17 -6.2 6.6
-6 -8 17 242.28 19.1
-6 -8 17 224.88 29.6
-5 -8 17 211.08 27.1
-5 -8 17 231.78 16.6
-4 -8 17 305.97 32.4
-3 -8 17 264.37 29.5
2 8 -17 34.9 4.6
-2 -8 17 33.2 21
1 8 -17 19.1 3.8
-1 -8 17 7.8 6.8
0 8 -17 0.6 2.6
0 -8 17 -0.4 5.1
-1 8 -17 -2.7 4.5
1 -8 17 5.4 5.8
-2 8 -17 135.59 13.1
2 -8 17 128.79 18
-3 8 -17 758.82 49.3
3 -8 17 691.83 54.69
-4 8 -17 297.37 26.2
4 -8 17 293.27 29.3
5 -8 17 206.48 23.5
6 -8 17 139.59 18.9
-7 8 -17 165.68 21.9
7 -8 17 160.68 20.1
-8 8 -17 61.79 17.1
8 -8 17 54.49 12.5
-8 -7 17 132.29 14.6
-8 -7 17 112.19 22.5
-8 -7 17 125.89 23.8
-7 -7 17 168.08 28
-7 -7 17 194.78 16.4
-7 -7 17 149.19 26.7
-6 -7 17 -0.2 3
-6 -7 17 -1.4 6.6
-5 -7 17 206.58 14.1
-5 -7 17 215.88 26.5
-4 -7 17 37.8 11.9
-3 -7 17 20.2 10.6
-2 -7 17 11.6 8.4
1 7 -17 127.49 9.7
-1 -7 17 144.49 23
-1 -7 17 136.09 23.8
0 7 -17 102.79 9.1
0 -7 17 91.49 19.9
0 -7 17 103.19 18.2
-1 7 -17 523.55 33.7
1 -7 17 501.05 42.5
-2 7 -17 113.09 11.6
2 -7 17 110.29 18.7
-3 7 -17 377.26 28.4
3 -7 17 341.77 33.4
4 -7 17 66.29 14.4
-5 7 -17 98.89 17
5 -7 17 108.29 18.7
-6 7 -17 217.48 26.3
6 -7 17 268.17 26.7
-7 7 -17 3.6 6.1
7 -7 17 1.6 7.8
-8 7 -17 63.59 16.4
8 -7 17 105.09 16.4
-9 -6 17 304.47 35.8
-9 -6 17 276.67 34.9
-9 -6 17 305.87 25.1
-8 -6 17 211.88 27.6
-8 -6 17 182.88 25.3
-7 -6 17 75.79 18.7
-7 -6 17 48.2 15.5
-7 -6 17 71.49 8.7
-6 -6 17 91.89 8
-6 -6 17 89.49 19.5
-5 -6 17 22.5 10.4
-4 -6 17 476.85 43.2
-3 -6 17 352.46 36.6
-2 -6 17 5.6 7.5
-2 -6 17 8.8 6.8
1 6 -17 2.6 1.1
1 6 -17 1.4 1.3
-1 -6 17 -2.6 4.9
-1 -6 17 -0.8 5.1
0 6 -17 9.9 3.4
0 6 -17 6.9 2.7
0 -6 17 16.2 7.8
0 -6 17 9.6 6.7
-1 6 -17 97.09 9.9
1 -6 17 97.09 17.9
1 -6 17 148.49 17.5
-2 6 -17 2.1 4
-2 6 -17 6.8 7.5
2 -6 17 12.3 7.2
2 -6 17 5.1 8.2
-3 6 -17 557.94 41.5
3 -6 17 586.34 46.9
-4 6 -17 140.49 17.5
4 -6 17 145.09 19.1
-5 6 -17 236.88 23.7
5 -6 17 203.18 25.1
-6 6 -17 441.96 39.7
6 -6 17 445.26 39.1
-7 6 -17 35.8 12.2
7 -6 17 46.9 11.8
-8 6 -17 16.6 10.3
8 -6 17 25.1 10.3
-9 -5 17 137.89 15
-9 -5 17 100.99 23.6
-9 -5 17 133.99 24.6
-8 -5 17 98.39 11.6
-8 -5 17 107.99 21.2
-8 -5 17 92.59 19.9
-7 -5 17 2.6 9.1
-7 -5 17 14.2 3.8
-7 -5 17 -0.8 7.2
-6 -5 17 0.5 1.7
-6 -5 17 2.5 7.1
-5 -5 17 329.97 34.3
-4 -5 17 562.24 71.09
-3 -5 17 411.36 38.1
-2 -5 17 74.99 15.8
-1 -5 17 262.77 27.5
-1 -5 17 244.48 25.3
0 5 -17 494.95 31.4
0 5 -17 501.65 30.8
0 -5 17 500.05 40.7
0 -5 17 504.95 42.6
-1 5 -17 168.58 14.3
-1 5 -17 165.98 13.3
-1 5 -17 176.98 20.4
1 -5 17 147.79 19.2
1 -5 17 133.39 18.1
-2 5 -17 159.98 14.9
-2 5 -17 128.59 24.8
-2 5 -17 181.18 21.5
2 -5 17 155.08 20.5
2 -5 17 166.48 20.6
-3 5 -17 25.8 10.2
-3 5 -17 19.4 6.6
3 -5 17 12.2 12.7
3 -5 17 34.4 11.3
-4 5 -17 81.29 13.9
-4 5 -17 114.19 18
4 -5 17 87.39 16.6
-5 5 -17 133.79 17.5
-5 5 -17 157.38 19.2
5 -5 17 103.69 19.6
6 -5 17 114.99 20.7
-7 5 -17 25.3 12.1
7 -5 17 54.79 12.6
-8 5 -17 46.5 14.9
8 -5 17 41.2 12.4
-9 -4 17 128.29 25.3
-9 -4 17 154.68 15
-9 -4 17 122.49 24.1
-8 -4 17 17.4 10.2
-8 -4 17 22.4 5.5
-8 -4 17 22.8 12.5
-7 -4 17 229.78 31
-7 -4 17 215.38 29.4
-7 -4 17 276.27 17.9
-6 -4 17 346.17 36.9
-6 -4 17 320.67 35.1
-5 -4 17 6.9 7.7
-4 -4 17 51.19 14.5
-3 -4 17 7.4 6.3
-2 -4 17 -0.3 5.6
1 4 -17 6 6.9
-1 -4 17 5.2 5.9
0 4 -17 20.1 3.4
0 4 -17 10.9 8.2
0 4 -17 20.7 3.8
0 -4 17 14.6 8.7
0 -4 17 20.1 8.5
-1 4 -17 156.68 19.2
-1 4 -17 141.99 12.2
-1 4 -17 130.89 12.5
1 -4 17 165.28 20.3
1 -4 17 145.09 18.4
-2 4 -17 121.59 16.7
-2 4 -17 68.59 18.6
2 -4 17 115.89 20
2 -4 17 103.39 17.9
-3 4 -17 65.69 13.9
-3 4 -17 57.19 10.8
3 -4 17 67.69 15.2
3 -4 17 66.09 13.8
-4 4 -17 153.98 17.7
-4 4 -17 153.28 18.8
4 -4 17 91.19 18.3
4 -4 17 119.29 31.3
-5 4 -17 57.69 12.3
-5 4 -17 27.9 10.8
5 -4 17 21.2 9.7
-6 4 -17 83.99 16.2
-6 4 -17 70.69 15.1
6 -4 17 90.89 17.7
-7 4 -17 78.79 17.6
7 -4 17 58.49 14.3
-8 4 -17 144.79 24.5
8 -4 17 148.99 20.5
-9 -3 17 32 15.2
-9 -3 17 43.1 14.5
-8 -3 17 252.57 33.3
-8 -3 17 250.87 18.8
-8 -3 17 286.57 20.2
-8 -3 17 265.07 31.3
-7 -3 17 90.89 19.2
-7 -3 17 101.89 7.4
-7 -3 17 95.49 7.4
-7 -3 17 83.29 20.1
-6 -3 17 690.43 58.89
-6 -3 17 692.93 57.89
-5 -3 17 107.69 21.4
-4 -3 17 2.4 6.7
3 3 -17 576.64 66.99
-3 -3 17 577.84 48.4
2 3 -17 254.97 27.3
-2 -3 17 290.47 29.4
1 3 -17 1199.78 81.59
-1 -3 17 1147.89 82.99
0 3 -17 123.99 9.8
0 3 -17 140.99 10.5
0 3 -17 144.89 18.8
0 -3 17 139.09 19.6
-1 3 -17 121.09 11.7
-1 3 -17 145.59 18.1
1 -3 17 108.29 15.5
1 -3 17 104.69 19.4
-2 3 -17 246.68 25.2
-2 3 -17 173.68 28.7
2 -3 17 200.28 22.1
2 -3 17 187.38 24.2
-3 3 -17 28 7.5
-3 3 -17 53.49 12.8
3 -3 17 24.6 10
3 -3 17 7.8 7.6
-4 3 -17 307.47 26.7
-4 3 -17 300.37 30.2
4 -3 17 263.27 30
4 -3 17 303.77 29.7
-5 3 -17 95.59 16.2
-5 3 -17 79.89 17.1
5 -3 17 73.09 15.7
-6 3 -17 24.2 9.9
-6 3 -17 24.7 9.3
6 -3 17 26.4 10.7
-7 3 -17 64.69 13.9
-7 3 -17 65.29 15.3
7 -3 17 105.49 17.3
-8 3 -17 66.59 16.7
8 -3 17 48.6 13.6
-9 -2 17 13 5.9
-9 -2 17 17.4 5.6
-9 -2 17 22.9 11.9
-9 -2 17 33.9 13.5
-8 -2 17 17.8 4.9
-8 -2 17 16.1 10.9
-8 -2 17 20 10.4
-8 -2 17 23 4.3
-7 -2 17 137.59 24.8
-7 -2 17 148.79 24.6
-6 -2 17 37.9 12.9
-6 -2 17 34 12.7
-5 -2 17 20.4 16.3
-4 -2 17 523.85 46
3 2 -17 93.79 20.5
-3 -2 17 128.59 21.8
2 2 -17 587.24 47
-2 -2 17 597.44 49.8
1 2 -17 70.99 15.3
-1 -2 17 66.59 15.5
0 2 -17 680.63 43
0 2 -17 765.12 55.49
0 2 -17 724.03 43.4
0 -2 17 727.03 56.99
-1 2 -17 45.3 12.1
-1 2 -17 36.6 6.6
1 -2 17 43.2 13
1 -2 17 29.6 9.3
-2 2 -17 98.49 12.9
-2 2 -17 164.88 19.9
2 -2 17 146.89 23.7
2 -2 17 137.89 17
-3 2 -17 163.18 17.3
-3 2 -17 183.68 22.5
3 -2 17 186.48 21.8
3 -2 17 196.48 24.3
-4 2 -17 67.59 12.4
-4 2 -17 73.19 16.8
4 -2 17 74.69 15.6
4 -2 17 81.69 16.7
-5 2 -17 17.2 7.9
-5 2 -17 22.5 10.4
5 -2 17 41.6 12.7
5 -2 17 16.8 9.4
-6 2 -17 38.6 12.3
-6 2 -17 59.69 14.1
6 -2 17 51.59 14.7
-7 2 -17 52.29 12
-7 2 -17 22.4 10.9
7 -2 17 26 11.3
-8 2 -17 22.4 11.4
-8 2 -17 18.2 10
8 -2 17 4.3 9.2
-9 -1 17 23 6.2
-9 -1 17 39.6 9.3
-9 -1 17 32.3 15.1
-9 -1 17 20.4 12.8
-8 -1 17 160.28 28
-8 -1 17 163.48 12.4
-8 -1 17 107.59 23.5
-8 -1 17 128.19 11
-7 -1 17 169.28 23.8
-7 -1 17 120.39 24.8
-6 -1 17 83.99 19.2
-6 -1 17 88.49 19.9
-5 -1 17 63.79 16.3
-4 -1 17 349.07 35.2
3 1 -17 203.28 28
-3 -1 17 185.18 23.8
2 1 -17 751.42 56.09
-2 -1 17 702.73 57.79
1 1 -17 372.76 33.5
-1 -1 17 342.47 34.8
0 1 -17 51.69 11.6
0 1 -17 45.4 5.9
0 -1 17 52.39 13.9
-1 1 -17 585.04 38.7
-1 1 -17 600.04 47.6
1 -1 17 573.94 49.2
-2 1 -17 184.68 17.5
-2 1 -17 190.58 22.5
2 -1 17 190.98 20.8
2 -1 17 159.18 25.8
-3 1 -17 109.59 15.5
-3 1 -17 118.59 20.1
3 -1 17 114.39 21.1
3 -1 17 115.59 18.3
-4 1 -17 635.14 45.3
-4 1 -17 607.14 48.9
4 -1 17 561.44 46.4
4 -1 17 586.94 50.29
-5 1 -17 10.1 8.1
-5 1 -17 5.3 9.2
5 -1 17 -3 8.3
5 -1 17 3.4 7.4
-6 1 -17 133.79 21.6
-6 1 -17 141.19 18.6
6 -1 17 153.08 23
6 -1 17 128.69 23
-7 1 -17 108.79 18.6
-7 1 -17 102.39 19.2
7 -1 17 112.09 34.6
7 -1 17 93.09 18.3
-9 0 17 -4.1 8.6
-9 0 17 -2.7 7.8
-9 0 17 0.5 3.9
-8 0 17 186.38 13.6
-8 0 17 187.98 26.6
-8 0 17 146.19 27.5
-8 0 17 157.28 12.6
-7 0 17 19.2 11.5
-7 0 17 23.5 12.6
-6 0 17 138.89 25.3
-6 0 17 120.89 22.9
-5 0 17 456.75 44.8
-4 0 17 104.79 20.4
-3 0 17 355.16 36.3
2 0 -17 20.6 8.5
-2 0 17 9.6 7.8
1 0 -17 2.5 1
1 0 -17 5.5 7.5
-1 0 17 18.7 8.3
0 0 -17 516.85 42.9
0 0 -17 493.35 32.2
0 0 17 517.15 45
-1 0 -17 379.86 27.5
-1 0 -17 399.46 35.4
1 0 17 371.16 37.1
-2 0 -17 395.56 31.9
-2 0 -17 454.25 39.5
2 0 17 484.85 42.1
2 0 17 462.35 37
-3 0 -17 583.24 47.7
-3 0 -17 568.54 41.9
3 0 17 566.94 49.6
3 0 17 567.84 44.9
-4 0 -17 11.4 6.7
-4 0 -17 -10.9 7
4 0 17 3.2 6.9
-5 0 -17 260.47 28.1
-5 0 -17 220.48 24.5
5 0 17 262.07 30
5 0 17 247.38 27
-6 0 -17 14.4 17.2
-6 0 -17 -8.7 6.5
6 0 17 0.3 7.6
6 0 17 -1.2 9
-7 0 -17 80.19 17.3
7 0 17 100.09 18.8
7 0 17 101.29 20.4
-10 1 17 49.7 18.6
-10 1 17 64.69 17.6
-10 1 17 66.89 11.1
-10 1 17 92.29 29.9
-9 1 17 46.7 17.1
-9 1 17 59.59 16.8
-9 1 17 50.69 9
-8 1 17 133.39 26.7
-8 1 17 128.09 11
-8 1 17 120.79 10.3
-8 1 17 150.78 26.2
-7 1 17 63.39 17.7
-7 1 17 60.59 15.9
-6 1 17 220.98 29.3
-6 1 17 260.37 31.2
-5 1 17 318.67 57.39
-5 1 17 355.06 37.7
-4 1 17 93.89 19.4
-3 1 17 103.99 21.3
2 -1 -17 109.29 30.3
-2 1 17 93.59 19.8
1 -1 -17 169.98 22.6
1 -1 -17 195.88 13.1
-1 1 17 225.98 26.3
0 -1 -17 247.28 18.7
0 -1 -17 266.37 28
0 1 17 277.37 29.8
-1 -1 -17 229.88 26.7
-1 -1 -17 270.67 21.1
1 1 17 286.07 30.9
-2 -1 -17 1047.8 76.39
-2 -1 -17 1026.9 65.69
2 1 17 950.3 75.39
2 1 17 1015.4 69.99
-3 -1 -17 165.88 43.9
-3 -1 -17 165.68 18.8
3 1 17 211.98 26.4
3 1 17 175.88 20.4
-4 -1 -17 261.17 24.5
4 1 17 263.37 25.2
4 1 17 157.48 28.1
-5 -1 -17 50.49 14.8
5 1 17 49.3 13.5
5 1 17 90.29 20.1
-6 -1 -17 107.39 19.2
6 1 17 86.39 18.9
6 1 17 79.59 15.7
-7 -1 -17 103.29 19
7 1 17 102.39 20.2
-10 2 17 80.59 26.2
-10 2 17 81.59 20.9
-10 2 17 73.49 11.6
-10 2 17 42.2 18.2
-9 2 17 0.4 9.9
-9 2 17 20.2 14.8
-9 2 17 11.2 5.1
-8 2 17 126.99 27.8
-8 2 17 122.09 10.4
-8 2 17 113.39 23.3
-8 2 17 115.49 10.8
-7 2 17 57.89 17.5
-7 2 17 40.6 15.4
-6 2 17 106.19 21.5
-6 2 17 102.49 21.3
-5 2 17 103.09 22.2
-5 2 17 120.09 23.3
-4 2 17 77.19 23.4
-4 2 17 121.89 23.3
-3 2 17 392.36 41.3
-3 2 17 550.54 45.9
-2 2 17 96.09 19.6
1 -2 -17 26.6 4.5
-1 2 17 27.5 11.4
0 -2 -17 290.27 20.5
0 2 17 230.68 29.8
-1 -2 -17 3 4.1
1 2 17 16.5 8.8
-2 -2 -17 146.19 15.9
2 2 17 168.18 27.6
-3 -2 -17 43.4 10.7
3 2 17 53.89 12.2
3 2 17 41 14.1
-4 -2 -17 15.1 8.7
4 2 17 15.3 17.5
4 2 17 -3.7 7.9
-5 -2 -17 17.4 7.5
5 2 17 9 8.1
5 2 17 -7.3 8.5
-6 -2 -17 12.8 8.3
6 2 17 13.6 9.9
6 2 17 3.5 9.1
-7 -2 -17 326.67 34.7
7 2 17 293.87 33.3
7 2 17 361.96 36
-10 3 17 222.28 49.7
-10 3 17 288.87 23.7
-10 3 17 238.08 40.4
-9 3 17 57.29 17.9
-9 3 17 71.49 19.6
-9 3 17 103.99 23.4
-9 3 17 86.39 10.7
-8 3 17 3.7 3.5
-8 3 17 -11.2 9.3
-8 3 17 9 10
-8 3 17 5.4 4
-7 3 17 383.66 43.2
-7 3 17 392.06 45.2
-7 3 17 488.35 27.3
-7 3 17 436.56 27.1
-6 3 17 63.19 17.1
-6 3 17 63.89 16.7
-5 3 17 187.48 30
-5 3 17 181.08 30.2
-4 3 17 185.88 36.8
-4 3 17 279.67 31.4
-3 3 17 36.2 14.4
-3 3 17 45.7 22.3
2 -3 -17 91.39 7.3
-2 3 17 90.89 20.1
-2 3 17 93.89 20
1 -3 -17 4.3 3.1
-1 3 17 -4.1 6.5
0 -3 -17 464.85 32.1
0 3 17 476.75 45.5
-1 -3 -17 467.65 33.6
1 3 17 462.85 50.99
-2 -3 -17 243.88 22.6
2 3 17 287.97 63.49
-3 -3 -17 262.97 25.1
3 3 17 307.57 27.8
3 3 17 291.17 33.7
-4 -3 -17 6.6 7.3
4 3 17 25.9 12.1
4 3 17 19.2 9.6
-5 -3 -17 182.28 21.4
5 3 17 154.18 26.9
5 3 17 160.08 20.4
-6 -3 -17 187.18 22
6 3 17 130.59 23.9
6 3 17 111.19 19.6
-9 4 17 103.99 23.7
-9 4 17 107.69 11.3
-9 4 17 86.49 22.3
-9 4 17 90.59 12
-8 4 17 17.7 12.9
-8 4 17 16.4 12.5
-8 4 17 21 4.8
-8 4 17 17.4 4.9
-7 4 17 39.8 5.6
-7 4 17 37 14.4
-7 4 17 35.1 5.3
-7 4 17 63.49 18.6
-6 4 17 56.19 4.3
-6 4 17 66.49 18.3
-6 4 17 60.29 7.5
-6 4 17 52.79 15.9
-5 4 17 -7.2 3.7
-5 4 17 -1.8 6.1
-4 4 17 129.69 25.1
-4 4 17 111.39 22.2
-3 4 17 276.17 32.1
-3 4 17 275.27 32.1
2 -4 -17 155.68 11.7
-2 4 17 118.99 24.9
-2 4 17 126.39 24.6
1 -4 -17 417.06 28.3
-1 4 17 452.15 41
-1 4 17 383.46 41
0 -4 -17 254.27 22.9
0 4 17 257.87 29.8
0 4 17 249.28 31.2
-1 -4 -17 15.7 5.8
1 4 17 7.8 10.1
-2 -4 -17 170.08 18
2 4 17 192.48 27.1
-3 -4 -17 7.3 6.2
3 4 17 3.1 6
3 4 17 11.7 9.9
4 4 17 122.79 17.2
4 4 17 134.39 25.7
-5 -4 -17 2.7 8.3
5 4 17 25.8 13.5
5 4 17 -1.1 8.5
-6 -4 -17 1.4 8.8
6 4 17 -0.9 6.7
6 4 17 -5.4 11.9
6 4 17 -11.2 8.7
-9 5 17 154.28 30
-9 5 17 124.09 27.2
-9 5 17 138.49 14
-8 5 17 78.09 19.4
-8 5 17 64.89 19.8
-8 5 17 56.29 8.9
-8 5 17 57.49 8.6
-7 5 17 422.66 27.2
-7 5 17 375.16 43.4
-7 5 17 395.96 27.3
-7 5 17 399.66 43.1
-6 5 17 115.39 9.6
-6 5 17 107.19 22.5
-6 5 17 93.99 22.3
-5 5 17 516.95 32.7
-5 5 17 544.55 50.79
-5 5 17 562.54 52.09
-4 5 17 26.3 4.7
-4 5 17 49.99 17.6
-4 5 17 26.8 11.8
-3 5 17 115.39 22.5
-3 5 17 104.39 22
-3 5 17 74.39 8.2
2 -5 -17 164.78 12.5
-2 5 17 108.79 23.3
-2 5 17 122.19 12.9
1 -5 -17 5 4.3
-1 5 17 12.5 4.8
-1 5 17 14.5 9.3
-1 5 17 -3.3 8
0 -5 -17 374.46 28.6
0 5 17 361.06 37.9
0 5 17 442.06 42.6
-1 -5 -17 176.28 17.1
1 5 17 185.58 25.7
1 5 17 118.69 22.2
-2 -5 -17 117.29 14.5
2 5 17 103.99 19.7
2 5 17 117.39 23.9
-3 -5 -17 259.27 25.8
3 5 17 259.07 29.2
3 5 17 272.17 33.8
3 5 17 291.67 27.2
-4 -5 -17 10.7 8.2
4 5 17 20.2 8.5
4 5 17 0 8.9
4 5 17 30.1 11
-5 -5 -17 98.99 18.8
5 5 17 106.89 21.9
5 5 17 107.99 18.3
5 5 17 123.09 19
-6 -5 -17 0.7 10
6 5 17 -2.5 12.3
6 5 17 -1.5 10.8
6 5 17 5.5 8.4
-9 6 17 88.69 20.8
-9 6 17 63.59 20.7
-9 6 17 99.69 12.4
-9 6 17 119.99 12.7
-8 6 17 78.89 20.6
-8 6 17 61.09 20.7
-8 6 17 92.99 11.4
-7 6 17 285.57 20.8
-7 6 17 245.18 34.3
-7 6 17 258.27 35.4
-6 6 17 178.08 31.9
-6 6 17 149.79 28.7
-6 6 17 186.68 14.8
-5 6 17 12.6 10
-5 6 17 2.5 5.4
-5 6 17 -3.2 2.9
-4 6 17 447.96 43
-4 6 17 335.37 25.2
-4 6 17 384.46 40.7
3 -6 -17 134.59 11.3
-3 6 17 100.19 11.6
-3 6 17 168.18 27.4
-3 6 17 107.39 23.5
2 -6 -17 353.26 23.8
-2 6 17 309.87 36.7
-2 6 17 392.36 38.7
-2 6 17 274.77 24.6
1 -6 -17 657.53 40.2
-1 6 17 576.94 54.39
-1 6 17 486.45 40.4
-1 6 17 671.43 63.49
0 -6 -17 13.3 6.5
0 6 17 0.2 5.9
0 6 17 19 10.8
0 6 17 20.4 11.2
-1 -6 -17 208.98 19.6
1 6 17 205.18 29.3
1 6 17 177.88 24.5
-2 -6 -17 195.68 21.4
2 6 17 245.48 31.6
2 6 17 258.57 27.9
-3 -6 -17 72.19 14.7
3 6 17 58.79 17.6
3 6 17 78.89 16.9
-4 -6 -17 176.08 21
4 6 17 176.18 20.4
4 6 17 119.39 20.8
4 6 17 159.68 28.2
-5 -6 -17 17 10.9
5 6 17 -6.2 10.2
5 6 17 29.1 15.3
5 6 17 31.9 10.8
-9 7 17 7 5.5
-9 7 17 8.4 12.1
-9 7 17 16.3 13.2
-8 7 17 9.7 13
-8 7 17 7.1 5.3
-8 7 17 20 12.9
-7 7 17 16.9 11.4
-7 7 17 -7.6 9.8
-6 7 17 198.18 16.8
-6 7 17 175.38 31.6
-6 7 17 206.18 34.3
-5 7 17 285.77 22.4
-5 7 17 364.66 39.7
-5 7 17 280.07 35.6
-4 7 17 17.2 11.9
-4 7 17 19.1 5.5
3 -7 -17 451.65 29.4
-3 7 17 351.66 41.9
-3 7 17 381.46 30.3
-3 7 17 553.14 47.9
2 -7 -17 117.69 12.2
-2 7 17 124.99 25.3
-2 7 17 118.09 24.4
-2 7 17 105.49 13
1 -7 -17 476.25 33.5
-1 7 17 436.56 44.1
-1 7 17 432.16 34.7
-1 7 17 505.75 49.3
0 -7 -17 439.36 34.3
0 7 17 520.05 49.2
0 7 17 513.55 38.2
0 7 17 409.96 43.7
-1 -7 -17 19.2 8
1 7 17 25.6 11.6
1 7 17 9.2 8.8
1 7 17 25.6 15.7
-2 -7 -17 73.79 14.1
2 7 17 105.59 23.8
2 7 17 99.69 19.1
-3 -7 -17 -6.1 5.5
3 7 17 -2.3 9.7
3 7 17 9.4 7.9
-4 -7 -17 52.09 11.6
4 7 17 30.5 12.3
4 7 17 22.3 10.7
4 7 17 35 15.1
-5 -7 -17 139.69 22.2
5 7 17 102.89 21.5
5 7 17 105.69 18.2
-9 8 17 26.6 12.6
-9 8 17 -4.7 11.5
-9 8 17 -0.9 5.5
-8 8 17 4 14.2
-8 8 17 21.1 7.4
-8 8 17 46.7 17
-7 8 17 223.38 36.2
-7 8 17 207.18 18.6
-7 8 17 210.58 36.3
-6 8 17 100.19 24.5
-6 8 17 154.38 28.7
-6 8 17 88.39 11.9
-5 8 17 55.59 9.1
-5 8 17 62.49 18.8
-5 8 17 68.69 18.2
-4 8 17 553.24 54.39
-4 8 17 695.53 59.29
-4 8 17 550.94 40.3
3 -8 -17 201.18 17
-3 8 17 219.48 29.3
-3 8 17 199.08 33
-3 8 17 184.58 18.4
2 -8 -17 553.44 35.1
-2 8 17 452.85 49
-2 8 17 415.16 35.6
-2 8 17 546.85 50.19
1 -8 -17 223.08 20.4
-1 8 17 265.87 31.6
-1 8 17 187.58 21.3
-1 8 17 273.37 33.6
0 -8 -17 59.99 11.4
0 8 17 35.1 14.7
0 8 17 55.79 12.4
0 8 17 66.39 20.6
-1 -8 -17 429.76 35.5
1 8 17 451.85 42.8
1 8 17 474.65 49
1 8 17 458.85 38.3
-2 -8 -17 12.4 7.5
2 8 17 1.4 9.7
2 8 17 1.3 9.1
-3 -8 -17 197.28 22.1
3 8 17 226.48 32.1
3 8 17 210.08 25.3
-4 -8 -17 13.8 8.2
4 8 17 29 11.1
4 8 17 16.4 9.9
4 8 17 14.1 11.1
-9 9 17 149.99 17.6
-9 9 17 94.29 27.7
-8 9 17 27 16.8
-8 9 17 5.9 12.8
-8 9 17 17.5 7.6
-7 9 17 9 12.3
-7 9 17 8.9 10.1
-7 9 17 15.5 5.5
-6 9 17 233.18 21.1
-6 9 17 238.78 33.6
-6 9 17 276.87 35.2
-5 9 17 141.49 28.5
-5 9 17 122.59 14.5
-5 9 17 162.98 30.3
4 -9 -17 249.97 19.8
-4 9 17 196.18 20
-4 9 17 267.17 33.2
-4 9 17 200.88 34.8
3 -9 -17 247.18 19.6
-3 9 17 197.18 20.8
-3 9 17 260.27 34.6
-3 9 17 197.68 35
2 -9 -17 -4 3.5
-2 9 17 12 11.3
-2 9 17 -4.3 5.9
1 -9 -17 33.7 9.4
-1 9 17 24.1 9.4
-1 9 17 22.8 12.5
-1 9 17 21.1 12.2
0 -9 -17 285.97 26.2
0 9 17 262.67 36
0 9 17 287.67 33.7
0 9 17 309.97 28.8
-1 -9 -17 32.4 10.1
1 9 17 19.3 11.5
1 9 17 32.9 14.5
-2 -9 -17 34.9 10.7
2 9 17 39.5 16
2 9 17 16.1 10.2
-3 -9 -17 4.6 7.1
3 9 17 -15 7.7
3 9 17 10 9.1
-4 -9 -17 77.59 15.7
4 9 17 58.09 14.2
4 9 17 74.99 15.7
4 9 17 67.89 16.3
-8 10 17 87.29 13.4
-8 10 17 70.59 23.2
-8 10 17 55.59 18.7
-7 10 17 60.99 11.5
-7 10 17 28.9 15.6
-7 10 17 50.79 21
-6 10 17 46.8 18.6
-6 10 17 44.2 9
-6 10 17 41.9 17.4
-5 10 17 109.69 26.3
-5 10 17 73.09 21.2
-5 10 17 135.29 14.7
4 -10 -17 51.99 8.9
-4 10 17 18.7 12.2
-4 10 17 28.1 17.5
-4 10 17 42.5 10.1
3 -10 -17 231.78 19.7
-3 10 17 192.38 34.3
-3 10 17 219.58 21.5
-3 10 17 178.18 32.6
2 -10 -17 338.47 26.9
-2 10 17 422.96 41.9
-2 10 17 251.27 36.9
1 -10 -17 22.8 7.6
-1 10 17 33.5 13.4
-1 10 17 14.1 11
-1 10 17 19.9 9.7
0 -10 -17 128.09 18.3
0 10 17 144.79 25.8
0 10 17 153.28 29.5
0 10 17 125.69 20.2
-1 -10 -17 20.9 9.6
1 10 17 19.7 12
1 10 17 23.1 12.2
-2 -10 -17 243.28 25.7
2 10 17 260.47 34.5
2 10 17 223.18 30.6
-3 -10 -17 59.69 13.7
3 10 17 11.7 12.4
3 10 17 32.6 13.4
-8 11 17 5.8 8.7
-8 11 17 17.8 8.4
-8 11 17 19 9.5
-7 11 17 236.28 22.8
-7 11 17 218.68 37.2
-7 11 17 274.07 71.39
-6 11 17 4.9 5.6
-6 11 17 -10.8 12.1
-6 11 17 0.1 6.8
-5 11 17 -4.9 7.2
-5 11 17 20.3 11
-5 11 17 -7.1 7.2
4 -11 -17 143.59 15.5
-4 11 17 166.78 18.7
-4 11 17 112.79 25.8
-4 11 17 154.88 30.1
3 -11 -17 -1.6 5.4
-3 11 17 -2.5 11.2
-3 11 17 3.6 6.9
-3 11 17 0.8 8
2 -11 -17 105.69 13.5
-2 11 17 63.59 20.1
-2 11 17 108.19 23.2
-2 11 17 109.89 16.8
1 -11 -17 94.19 15.2
-1 11 17 80.59 20.8
-1 11 17 71.59 20.1
-1 11 17 86.19 15.8
0 -11 -17 33.6 17.5
0 11 17 43.8 15.6
0 11 17 25.8 15.4
-1 -11 -17 148.49 22.5
1 11 17 151.98 31.1
1 11 17 144.09 25.3
-2 -11 -17 -1.8 7.2
2 11 17 -8.4 9.4
2 11 17 13.6 14.1
-7 12 17 -6.7 12.9
-7 12 17 8.3 13.2
-7 12 17 13.7 8.3
-6 12 17 266.87 61.79
-6 12 17 331.27 41.9
-6 12 17 290.07 38
-5 12 17 33.6 16.2
-5 12 17 44.7 20.7
4 -12 -17 10.1 6
-4 12 17 9.2 8
-4 12 17 11.1 12.5
-4 12 17 5.8 9.4
3 -12 -17 274.27 24.4
-3 12 17 317.17 38.2
-3 12 17 303.77 29
-3 12 17 180.78 35.7
2 -12 -17 -0.4 6.2
-2 12 17 6.4 12.8
-2 12 17 24 12.1
-2 12 17 10.3 11.6
1 -12 -17 41.6 13.8
-1 12 17 33.5 17.7
-1 12 17 1 11.9
0 -12 -17 102.99 17.5
0 12 17 168.28 27.9
0 12 17 114.39 28.4
-1 -12 -17 -5.5 8
1 12 17 -21.5 10
1 12 17 -7.5 13
-6 13 17 -11.6 14.8
-6 13 17 -7.4 6.7
-5 13 17 79.99 22.7
-5 13 17 100.79 27.7
-5 13 17 83.39 15.7
4 -13 -17 118.49 15.1
-4 13 17 69.39 22.6
-4 13 17 117.89 18.6
-4 13 17 88.09 23.6
3 -13 -17 10 5.4
-3 13 17 18.9 9.7
-3 13 17 5.2 10.3
2 -13 -17 50.09 13.3
-2 13 17 35.3 18.5
-2 13 17 53.69 18.6
1 -13 -17 8.3 7.9
-1 13 17 -0.8 27.9
-1 13 17 3.8 10.6
0 -13 -17 72.99 15.3
0 13 17 129.89 27.5
0 13 17 89.09 22.2
5 -14 -17 9.2 7.4
-5 14 17 28.1 21.5
-5 14 17 -3.7 11.7
4 -14 -17 114.79 26.6
-4 14 17 159.48 31.7
-4 14 17 112.79 27.8
3 -14 -17 16.5 7.1
-3 14 17 0.5 10.9
-3 14 17 16 13.1
2 -14 -17 -3 6.5
-2 14 17 -20.5 10.2
-2 14 17 -20.5 12.1
1 -14 -17 148.09 21.5
-1 14 17 106.49 26.1
0 -19 18 17.1 12.2
1 -19 18 18.2 11.1
2 -19 18 160.18 27.6
3 -19 18 -0.1 8.9
-2 -18 18 49.5 20.4
-2 -18 18 44 14.6
-1 -18 18 -6.5 6.5
-1 -18 18 -1.4 8.7
0 -18 18 62.19 17
1 -18 18 44.1 15.2
2 -18 18 -0.7 10.5
3 -18 18 160.88 26.4
5 -18 18 69.79 16.5
3 17 -18 201.68 23.3
-3 -17 18 121.29 26.1
-3 -17 18 198.98 21.8
2 17 -18 87.29 15.2
-2 -17 18 92.19 24
-2 -17 18 85.49 15.4
1 17 -18 141.39 19.4
-1 -17 18 217.18 27.1
0 17 -18 2.1 6.5
0 -17 18 -2.8 6
-1 17 -18 27.7 12.3
1 -17 18 45.6 14.9
2 -17 18 71.39 17.8
3 -17 18 -3.6 8.1
4 -17 18 244.08 29.6
5 -17 18 28 11.8
4 16 -18 -2.8 9.1
-4 -16 18 2.3 10
-4 -16 18 -8.3 6.9
3 16 -18 139.69 18.5
-3 -16 18 128.29 27.2
-3 -16 18 137.89 17.4
2 16 -18 162.48 18
-2 -16 18 133.19 16.5
-2 -16 18 102.79 22.3
1 16 -18 13.5 8.5
-1 -16 18 9.5 10.6
0 16 -18 246.88 23.1
0 -16 18 256.77 31.4
-1 16 -18 28.1 8.7
1 -16 18 22.5 10.9
-2 16 -18 66.19 12.5
2 -16 18 77.59 17.5
3 -16 18 230.48 27.7
4 -16 18 4.5 7.1
5 -16 18 288.57 32.2
6 -16 18 5 8
4 15 -18 232.68 38.9
-4 -15 18 202.48 21.4
-4 -15 18 196.28 37.7
3 15 -18 130.39 16.8
-3 -15 18 124.89 15.5
-3 -15 18 95.89 22.7
2 15 -18 174.58 17.9
-2 -15 18 137.69 25.9
-2 -15 18 162.38 18
1 15 -18 269.67 24.7
-1 -15 18 356.36 36.3
0 15 -18 10.1 6.3
0 -15 18 6.2 7.6
-1 15 -18 209.48 34.5
1 -15 18 223.08 27.6
-2 15 -18 78.79 13.5
2 -15 18 88.09 18.3
-3 15 -18 159.98 17.8
3 -15 18 151.58 24.8
4 -15 18 266.27 29.4
5 -15 18 3.6 7.4
6 -15 18 2 7.4
5 14 -18 228.48 23.7
-5 -14 18 242.98 22.5
4 14 -18 56.89 12.3
-4 -14 18 83.99 12.7
-4 -14 18 45.7 16.3
3 14 -18 148.99 17.3
-3 -14 18 131.19 25.1
-3 -14 18 153.48 16.5
2 14 -18 78.69 11.7
-2 -14 18 59.09 11.5
-2 -14 18 84.29 19.5
1 14 -18 103.89 14.3
-1 -14 18 96.69 19.8
0 14 -18 371.06 28.2
0 -14 18 333.27 36.6
-1 14 -18 0.3 3.9
1 -14 18 -1.8 7.9
-2 14 -18 450.55 39.1
2 -14 18 506.65 43.8
-3 14 -18 214.98 20.7
3 -14 18 194.78 24.2
4 -14 18 67.19 15.2
5 -14 18 75.29 16.8
6 -14 18 16.8 8.7
7 -14 18 198.08 24.8
-6 -13 18 7.3 7.1
-6 -13 18 -3.1 12.2
5 13 -18 226.88 21
-5 -13 18 173.88 18.7
-5 -13 18 148.99 28.1
4 13 -18 177.78 17.7
-4 -13 18 160.08 16.7
-4 -13 18 138.49 26
3 13 -18 17.6 6.4
-3 -13 18 1.5 4.8
-3 -13 18 0.8 7
2 13 -18 431.06 30.9
-2 -13 18 394.76 40.7
1 13 -18 175.28 16.8
-1 -13 18 197.78 25.7
0 13 -18 950.6 61.79
0 -13 18 996.2 73.89
-1 13 -18 49.4 8.9
1 -13 18 42.5 13.6
-2 13 -18 30.4 7.7
2 -13 18 48.8 13.4
-3 13 -18 19.3 8
3 -13 18 38 11.4
-4 13 -18 -15.2 5.9
4 -13 18 -6.4 5.2
5 -13 18 154.78 21.7
6 -13 18 40.9 12.5
7 -13 18 183.08 23.4
-6 -12 18 247.88 33.7
-6 -12 18 279.97 23.9
5 12 -18 21.8 8.4
-5 -12 18 27.1 13.2
-5 -12 18 17.1 6.8
4 12 -18 147.89 15.4
-4 -12 18 122.39 23.6
-4 -12 18 144.99 14.3
3 12 -18 102.09 11.7
-3 -12 18 68.79 16.8
2 12 -18 4.9 4.7
-2 -12 18 8.6 9.6
1 12 -18 328.77 25.6
-1 -12 18 383.06 36.8
0 12 -18 387.96 28.5
0 -12 18 395.46 37.8
-1 12 -18 574.04 41.5
1 -12 18 689.63 52.59
-2 12 -18 384.46 29
2 -12 18 381.36 36.9
-3 12 -18 237.88 21.2
3 -12 18 201.48 25.4
-4 12 -18 339.37 27.4
4 -12 18 281.47 31.6
5 -12 18 14.6 9.2
6 -12 18 53.39 13.4
7 -12 18 24.9 10
-7 -11 18 14.1 8.2
-7 -11 18 -8.2 5.5
-6 -11 18 -2.8 4.4
-6 -11 18 -8.7 5.7
-5 -11 18 224.78 43.6
-5 -11 18 339.87 36.6
4 11 -18 77.29 26.2
-4 -11 18 106.19 10.7
-4 -11 18 98.89 20.5
3 11 -18 524.75 34.9
-3 -11 18 482.35 45.9
2 11 -18 293.17 22.5
-2 -11 18 305.37 33.4
1 11 -18 17.7 13.8
-1 -11 18 11.2 9.5
0 11 -18 333.17 25
0 -11 18 362.36 35.5
-1 11 -18 118.19 12.8
1 -11 18 151.48 21.1
-2 11 -18 27.5 7.1
2 -11 18 55.79 14.6
-3 11 -18 638.14 44.7
3 -11 18 667.73 54.09
4 -11 18 10.4 7.5
5 -11 18 143.29 19.7
6 -11 18 2.1 7.3
7 -11 18 323.37 31.2
-7 -10 18 55.29 10
-7 -10 18 60.89 17
-6 -10 18 226.78 30.1
-6 -10 18 250.57 37.2
-5 -10 18 6.9 3.8
-5 -10 18 1.4 7.7
-4 -10 18 510.55 33.3
-4 -10 18 516.15 47.6
3 10 -18 -1.8 3.2
-3 -10 18 2.3 6.6
2 10 -18 61.39 7.4
-2 -10 18 58.59 15.2
1 10 -18 1104.19 68.69
-1 -10 18 1188.08 82.69
0 -10 18 -0.7 4
-1 10 -18 1373.16 84.99
1 -10 18 1444.26 98.79
-2 10 -18 80.79 9.8
2 -10 18 68.19 14.8
-3 10 -18 333.17 26.8
3 -10 18 349.67 32.9
-4 10 -18 198.58 19.8
4 -10 18 214.38 24.5
-5 10 -18 172.88 25.9
5 -10 18 185.88 23.6
6 -10 18 582.74 47.4
7 -10 18 9.5 8.8
-7 -9 18 17.9 10.8
-6 -9 18 177.48 14.7
-6 -9 18 143.19 26.1
-5 -9 18 100.99 20.7
-5 -9 18 105.09 9.6
-4 -9 18 97.09 20.8
3 9 -18 207.08 14.7
-3 -9 18 208.68 26.4
2 9 -18 950.2 58.89
-2 -9 18 1071.39 75.69
1 9 -18 910.71 57.79
-1 -9 18 1055.29 73.09
0 9 -18 802.82 50.99
0 -9 18 882.51 66.09
-1 9 -18 10.1 4.3
-2 9 -18 73.69 10.5
2 -9 18 71.59 15.1
-3 9 -18 23.5 6.8
3 -9 18 8.4 8.7
-4 9 -18 312.37 35.9
4 -9 18 357.86 33.6
-5 9 -18 561.94 44.1
5 -9 18 596.44 47.8
6 -9 18 38.2 12
-7 9 -18 33 13.2
7 -9 18 86.69 15.6
-8 9 -18 2.9 10.4
8 -9 18 10.4 9.1
-8 -8 18 76.79 20.2
-8 -8 18 126.99 13.8
-8 -8 18 140.79 26.6
-7 -8 18 136.39 12.9
-7 -8 18 154.58 27.3
-7 -8 18 97.59 21.5
-6 -8 18 93.79 8.9
-6 -8 18 92.49 19.5
-5 -8 18 22.2 10.7
-4 -8 18 401.36 40
-3 -8 18 -1.7 4.4
2 8 -18 962.9 57.69
-2 -8 18 1104.49 76.09
1 8 -18 968 56.99
-1 -8 18 949.01 71.49
0 8 -18 119.19 10.4
0 -8 18 99.99 23.2
-1 8 -18 157.28 32.6
1 -8 18 130.59 21.4
-2 8 -18 57.49 8.9
2 -8 18 66.39 14.9
-3 8 -18 448.86 32.8
3 -8 18 424.76 38.1
-4 8 -18 271.47 24.4
4 -8 18 264.57 28.3
-5 8 -18 11.7 8.7
5 -8 18 16.5 8.6
-6 8 -18 66.29 15.1
6 -8 18 62.59 15.2
-7 8 -18 65.89 15.7
7 -8 18 104.69 18.1
-8 8 -18 111.79 21.7
8 -8 18 125.79 19.3
-8 -7 18 50.79 17.6
-8 -7 18 59.89 16.4
-8 -7 18 40.1 12.6
-7 -7 18 2.5 7.6
-7 -7 18 6.5 8.8
-7 -7 18 13.6 4.6
-6 -7 18 107.39 21.6
-6 -7 18 87.69 7.1
-5 -7 18 9.3 8.1
-4 -7 18 527.35 47.4
-3 -7 18 540.65 47.4
-2 -7 18 5.2 6.5
1 7 -18 49.8 4.4
1 7 -18 51.69 4.4
0 7 -18 569.54 35.6
0 -7 18 584.04 47.7
-1 7 -18 58.29 7.1
1 -7 18 45.7 12.7
-2 7 -18 596.64 40.4
2 -7 18 635.84 49.8
-3 7 -18 8.5 5.7
3 -7 18 11.7 7.2
-4 7 -18 63.09 11.8
-4 7 -18 40.6 10.4
4 -7 18 57.29 14.2
-5 7 -18 48 12.6
5 -7 18 93.09 17.8
-6 7 -18 36.8 10.8
6 -7 18 44.7 13.3
-7 7 -18 78.99 17.3
7 -7 18 99.69 17.5
-8 7 -18 -2.8 8.3
8 -7 18 -7 8.5
-8 -6 18 102.89 10.8
-8 -6 18 82.09 19.4
-8 -6 18 100.19 22.1
-7 -6 18 124.79 24.6
-7 -6 18 160.58 27.6
-7 -6 18 153.88 11.8
-6 -6 18 114.39 22.4
-5 -6 18 364.06 37.9
-4 -6 18 43 12.5
-3 -6 18 273.77 30.3
-2 -6 18 825.12 64.09
-1 -6 18 37.2 11.1
0 6 -18 11.7 3.5
0 6 -18 13.2 3.1
0 -6 18 16.3 9.1
-1 6 -18 490.25 32.5
-1 6 -18 505.55 33.9
1 -6 18 515.35 43.4
-2 6 -18 51.59 9.4
-2 6 -18 60.49 9.2
2 -6 18 69.49 15.2
-3 6 -18 301.67 25.8
-3 6 -18 310.77 25
3 -6 18 288.37 30.3
-4 6 -18 -0.2 6
4 -6 18 13.3 7.2
-5 6 -18 284.47 27
5 -6 18 260.27 28.3
-6 6 -18 7 6.1
6 -6 18 17.4 9
-7 6 -18 45.3 14
7 -6 18 44.9 12.6
-8 6 -18 204.78 26.9
-8 -5 18 2 9.8
-8 -5 18 8.2 3.7
-7 -5 18 56.49 16.5
-7 -5 18 69.09 6
-7 -5 18 69.09 18.4
-6 -5 18 206.88 27.4
-5 -5 18 32.6 11.7
-4 -5 18 226.88 27
-3 -5 18 113.89 21
-1 -5 18 562.04 48.1
0 5 -18 452.05 28.5
0 5 -18 456.35 29.1
0 -5 18 525.55 42.9
-1 5 -18 44.2 12.9
-1 5 -18 70.39 7.6
-1 5 -18 68.29 8.7
1 -5 18 89.39 17.8
-2 5 -18 15.3 6.7
-2 5 -18 6.9 8.3
-2 5 -18 12.5 5
2 -5 18 10.8 6.6
-3 5 -18 -1.8 4.3
-3 5 -18 6.9 7.2
3 -5 18 2.1 5.7
-4 5 -18 25.7 9
-4 5 -18 33.1 10.4
4 -5 18 37.5 12.1
-5 5 -18 3.8 6.9
-5 5 -18 9.4 7.7
5 -5 18 21.2 9.3
-6 5 -18 64.09 13.9
6 -5 18 56.79 14.2
-7 5 -18 33 11.9
7 -5 18 28.3 10.8
-9 -4 18 25.7 14.3
-9 -4 18 24.6 6.4
-8 -4 18 101.49 23
-8 -4 18 94.19 8.6
-8 -4 18 102.89 9.2
-8 -4 18 113.39 22.7
-7 -4 18 72.29 19.1
-7 -4 18 91.99 21.3
-6 -4 18 76.69 19.2
-6 -4 18 98.29 20.7
-5 -4 18 72.99 18
-4 -4 18 5.3 6
-3 -4 18 1091.79 79.69
-2 -4 18 417.16 46
-1 -4 18 410.36 38.8
0 4 -18 724.73 45.2
0 4 -18 805.02 85.09
0 4 -18 771.12 45
0 -4 18 790.22 60.49
-1 4 -18 203.28 16.3
-1 4 -18 183.08 23.5
-1 4 -18 220.58 16
1 -4 18 168.08 23.5
-2 4 -18 366.46 33.8
-2 4 -18 325.87 28.6
2 -4 18 350.36 34.1
-3 4 -18 31.5 8.2
-3 4 -18 32.7 10.9
3 -4 18 33.2 11.2
-4 4 -18 187.68 22.5
-4 4 -18 174.88 19.9
4 -4 18 173.98 22.9
-5 4 -18 -0.9 6.2
-5 4 -18 2.8 5.7
5 -4 18 2.9 7.8
-6 4 -18 -12.5 6.8
-6 4 -18 17.9 8.4
6 -4 18 -4.6 7.7
-7 4 -18 203.18 25
7 -4 18 153.88 21.9
-9 -3 18 43.7 16.6
-9 -3 18 21.2 5.5
-9 -3 18 21 12
-9 -3 18 24.2 6.2
-8 -3 18 40 13.8
-8 -3 18 39.6 16
-8 -3 18 38.7 4.5
-8 -3 18 47.9 5.1
-7 -3 18 135.59 24.8
-7 -3 18 105.69 23.7
-6 -3 18 11.8 9.6
-6 -3 18 5.1 9.2
-5 -3 18 67.39 16.3
-4 -3 18 644.24 54.39
-3 -3 18 615.44 54.09
-2 -3 18 379.66 37.4
-1 -3 18 283.17 31.2
0 3 -18 124.39 9.4
0 3 -18 130.89 9.9
0 -3 18 145.09 23.3
-1 3 -18 1630.04 98.39
-1 3 -18 1671.03 112.29
1 -3 18 1666.13 111.39
-2 3 -18 255.67 28.6
-2 3 -18 297.27 23.1
2 -3 18 261.37 29.8
-3 3 -18 514.55 36.8
-3 3 -18 468.55 41.8
3 -3 18 452.35 42.5
-4 3 -18 4.1 5.4
-4 3 -18 -5.5 6.6
4 -3 18 -10.7 5.2
-5 3 -18 77.09 15.8
-5 3 -18 75.19 14.5
5 -3 18 55.99 15.4
-6 3 -18 211.98 24
6 -3 18 201.68 25.9
-7 3 -18 10 8.1
-7 3 -18 7 10.2
7 -3 18 -0.1 9.2
-9 -2 18 94.09 21.2
-9 -2 18 99.89 9.9
-9 -2 18 81.79 20.1
-9 -2 18 118.29 10.5
-8 -2 18 69.09 18.9
-8 -2 18 72.69 20.7
-7 -2 18 -7.3 7.2
-7 -2 18 15.2 11.7
-6 -2 18 161.98 27.7
-6 -2 18 162.18 28
-5 -2 18 198.18 25.8
-4 -2 18 544.35 48.8
-3 -2 18 256.67 35.2
-2 -2 18 250.97 29.1
-1 -2 18 1090.49 79.59
0 2 -18 45.2 5.3
0 2 -18 38.7 4.9
0 -2 18 42.6 13.3
-1 2 -18 136.39 34
-1 2 -18 142.49 13.3
1 -2 18 169.38 21.8
-2 2 -18 734.63 51.29
-2 2 -18 864.51 69.19
2 -2 18 793.62 61.89
-3 2 -18 349.27 40.1
-3 2 -18 345.57 28.4
3 -2 18 363.46 35.9
-4 2 -18 219.18 22.8
-4 2 -18 240.28 31.6
4 -2 18 251.77 28
-5 2 -18 30.1 21.4
-5 2 -18 10.4 8.2
5 -2 18 -6.5 5.9
-6 2 -18 4.6 8.4
-6 2 -18 31.6 17.8
6 -2 18 -11.4 7
-7 2 -18 144.49 22.6
-7 2 -18 78.69 21.4
7 -2 18 139.29 22.5
-9 -1 18 25.2 4.9
-9 -1 18 25.5 12.5
-9 -1 18 16.2 11.8
-9 -1 18 12.6 4
-8 -1 18 312.87 35.1
-8 -1 18 235.08 32.2
-7 -1 18 138.59 25.9
-7 -1 18 132.39 26.2
-6 -1 18 186.58 26.4
-6 -1 18 146.79 27.3
-5 -1 18 175.38 29.5
-5 -1 18 227.78 28
-4 -1 18 -6.3 2.7
-3 -1 18 489.15 46.8
-2 -1 18 378.66 44
-1 -1 18 64.09 16
0 1 -18 1417.96 81.19
0 -1 18 1322.87 96.29
-1 1 -18 6.8 4.1
1 -1 18 8.5 7
-2 1 -18 271.17 22.3
2 -1 18 232.98 29.2
-3 1 -18 379.36 31.4
3 -1 18 401.86 38.6
-4 1 -18 37 9.2
4 -1 18 31.5 10.5
-5 1 -18 454.85 37.7
5 -1 18 423.16 41.1
-6 1 -18 97.29 17.4
6 -1 18 59.39 15.8
-7 1 -18 33.1 11.4
7 -1 18 24.4 9.9
-9 0 18 234.38 32.5
-9 0 18 229.18 16.7
-9 0 18 207.08 29.8
-9 0 18 226.68 16.1
-8 0 18 199.28 34.4
-8 0 18 235.08 30
-7 0 18 233.78 30.5
-7 0 18 211.38 29.2
-6 0 18 256.27 31.2
-6 0 18 240.68 32
-5 0 18 130.59 25
-5 0 18 147.79 25.6
-4 0 18 244.58 29.2
-4 0 18 228.98 29.4
-3 0 18 -1.9 3.2
-1 0 18 987.1 77.19
0 0 -18 318.87 22.3
0 0 18 361.36 36.2
-1 0 -18 273.77 20.8
1 0 18 235.58 29.2
-2 0 -18 151.88 16.4
2 0 18 154.58 36.5
2 0 18 214.08 25.7
-3 0 -18 136.09 15.8
3 0 18 104.69 21.7
-4 0 -18 296.47 28
4 0 18 416.56 69.59
-5 0 -18 9.8 11.8
5 0 18 6.7 10.6
-6 0 -18 223.38 26
6 0 18 212.18 28.5
-7 0 -18 15.7 9.9
7 0 18 -1 7.1
-9 1 18 46.7 5.9
-9 1 18 61.89 18.7
-9 1 18 8.1 9.6
-9 1 18 28.1 5.1
-8 1 18 127.29 26.3
-8 1 18 144.69 25.6
-7 1 18 12.3 11.8
-7 1 18 10.2 10.7
-6 1 18 18.7 9.7
-6 1 18 13.4 9.3
-5 1 18 9.7 8.3
-5 1 18 26.3 11.3
-4 1 18 95.39 20.4
-4 1 18 107.29 21.9
-3 1 18 312.87 34.3
-2 1 18 133.59 24.5
1 -1 -18 115.79 8.4
-1 1 18 139.29 39.6
0 -1 -18 171.48 13.9
-1 -1 -18 86.39 17.9
-2 -1 -18 692.93 47.5
2 1 18 719.33 75.49
2 1 18 655.53 66.29
-3 -1 -18 89.69 14.6
3 1 18 86.89 19.6
3 1 18 45.2 24.3
-4 -1 -18 177.68 19.4
4 1 18 146.79 25.5
4 1 18 138.79 34.3
-5 -1 -18 265.07 27.7
5 1 18 252.47 32
-6 -1 -18 -8.3 7.1
6 1 18 9.7 9.6
-9 2 18 36.6 14
-9 2 18 43.7 17.7
-9 2 18 53.19 6.9
-9 2 18 55.69 6.9
-8 2 18 8.8 10.1
-8 2 18 0.9 12
-7 2 18 523.15 52.69
-7 2 18 550.34 51.49
-6 2 18 24.3 12.8
-6 2 18 15.7 9.8
-5 2 18 246.98 31.4
-5 2 18 272.67 32.8
-4 2 18 143.89 25.6
-4 2 18 144.59 25.7
-3 2 18 306.27 34.7
-3 2 18 362.06 37.2
-2 2 18 56.29 15.1
1 -2 -18 1.9 2.4
-1 2 18 11.8 8.1
0 -2 -18 410.76 28.3
0 2 18 422.76 41.7
-1 -2 -18 251.07 20.8
1 2 18 247.08 30.3
-2 -2 -18 23 7.9
2 2 18 22.9 10.9
-3 -2 -18 153.78 18.1
3 2 18 153.78 25.7
3 2 18 158.38 26.4
-4 -2 -18 188.58 22.7
4 2 18 222.48 29.1
4 2 18 219.28 28.3
-5 -2 -18 38.1 12.7
5 2 18 51.59 15.1
5 2 18 54.19 16.2
-6 -2 -18 147.69 23.6
6 2 18 159.38 24.4
6 2 18 188.98 29.5
-9 3 18 149.88 12.6
-9 3 18 150.88 32.5
-9 3 18 162.18 13.2
-9 3 18 129.39 26.3
-8 3 18 133.79 8.8
-8 3 18 151.48 28.6
-8 3 18 114.39 25.5
-8 3 18 123.79 8.8
-7 3 18 16.8 12.2
-7 3 18 8.6 9.1
-6 3 18 77.69 21.7
-6 3 18 92.49 20.8
-5 3 18 69.39 18.4
-5 3 18 80.69 19.9
-4 3 18 162.78 28.4
-4 3 18 179.98 25.7
-3 3 18 122.09 23.9
-3 3 18 104.19 22.7
2 -3 -18 147.79 10.1
-2 3 18 149.39 25.7
-2 3 18 125.49 24.8
1 -3 -18 611.64 38.5
-1 3 18 622.74 54.39
0 -3 -18 78.09 9.6
0 3 18 97.39 20.6
-1 -3 -18 253.67 20.7
1 3 18 207.48 28.9
-2 -3 -18 312.87 27.1
2 3 18 350.46 37.4
-3 -3 -18 -5.7 5.8
3 3 18 -13.9 6.6
3 3 18 -20.4 9.5
-4 -3 -18 231.68 26.2
4 3 18 251.37 31.7
4 3 18 254.67 27.5
-5 -3 -18 221.48 24.9
5 3 18 239.38 31.3
5 3 18 196.68 23
-6 -3 -18 115.79 21.1
6 3 18 150.38 27.1
6 3 18 97.59 19.4
-9 4 18 -7.4 11.1
-9 4 18 7.6 4.4
-9 4 18 17 13.8
-9 4 18 14.5 5.2
-8 4 18 312.17 20.2
-8 4 18 288.37 19.9
-8 4 18 275.77 36.7
-8 4 18 361.16 39.8
-7 4 18 97.69 22.8
-7 4 18 84.19 22.2
-6 4 18 5.8 8.2
-6 4 18 -2.4 9.2
-5 4 18 135.09 26.6
-5 4 18 158.28 27.4
-4 4 18 20.5 11.8
-4 4 18 2.3 9.5
-3 4 18 269.17 33.1
2 -4 -18 514.65 31.6
-2 4 18 518.65 48
-2 4 18 465.25 47.1
1 -4 -18 41 6.6
-1 4 18 42.7 14.8
-1 4 18 57.69 16.6
0 -4 -18 494.65 34.6
0 4 18 526.65 71.49
0 4 18 506.35 48.7
-1 -4 -18 215.78 19.6
1 4 18 215.78 29.3
-2 -4 -18 312.57 27.3
2 4 18 349.67 38.9
-3 -4 -18 198.68 21.2
3 4 18 216.58 29.2
3 4 18 204.78 43.3
-4 -4 -18 160.98 20.3
4 4 18 135.39 25.9
4 4 18 155.88 19.5
-5 -4 -18 443.26 39.9
5 4 18 456.85 47.8
5 4 18 477.65 39.6
-9 5 18 373.86 26.3
-9 5 18 259.77 52.89
-8 5 18 71.59 8.6
-8 5 18 113.79 25.7
-8 5 18 99.69 9
-8 5 18 83.79 24.1
-7 5 18 153.38 11.1
-7 5 18 171.08 29.3
-7 5 18 153.78 11.2
-7 5 18 151.08 29.1
-6 5 18 4.2 8.6
-6 5 18 -1.1 8
-5 5 18 -9.1 6.4
-5 5 18 -0.2 7.7
-4 5 18 626.34 54.89
-4 5 18 504.45 50.99
-3 5 18 6.1 9.7
-3 5 18 -9.7 7.5
2 -5 -18 85.99 8.5
-2 5 18 56.79 18.7
-2 5 18 88.59 20.8
1 -5 -18 368.16 26.9
-1 5 18 361.66 40.3
-1 5 18 438.86 41.9
0 -5 -18 282.47 22.5
0 5 18 258.77 32.9
0 5 18 268.87 33.9
-1 -5 -18 881.51 58.89
1 5 18 887.11 78.29
1 5 18 897.61 73.29
-2 -5 -18 363.86 29.9
2 5 18 368.76 36.4
2 5 18 313.27 37.7
-3 -5 -18 35.8 10.7
3 5 18 33.9 14
3 5 18 38.5 12.5
-4 -5 -18 189.38 22.4
4 5 18 202.28 24.6
4 5 18 182.48 31.3
4 5 18 208.18 22.2
-5 -5 -18 26 11.4
5 5 18 9.5 9.9
5 5 18 -6.4 9.3
5 5 18 25.1 11.9
-9 6 18 41.7 17.3
-9 6 18 36 7.8
-9 6 18 27.9 7.2
-9 6 18 -2.9 11.1
-8 6 18 410.06 48.6
-8 6 18 393.86 28.1
-8 6 18 424.26 28.7
-8 6 18 450.25 46.6
-7 6 18 19.4 14.3
-7 6 18 16.5 12
-7 6 18 19.7 4.4
-6 6 18 223.38 15.8
-6 6 18 188.88 33.7
-6 6 18 217.98 30.7
-5 6 18 339.47 40.1
-5 6 18 360.56 41.2
-5 6 18 328.17 22.3
-4 6 18 52.69 16.1
-4 6 18 31.6 5.5
-4 6 18 15.5 13.5
3 -6 -18 368.26 23.5
-3 6 18 294.87 23.7
-3 6 18 314.57 37.8
-3 6 18 393.56 40.6
2 -6 -18 36.7 6.6
-2 6 18 37.1 15.2
-2 6 18 28.1 11.9
-2 6 18 34.7 11.6
1 -6 -18 96.29 11.6
-1 6 18 108.59 25.2
-1 6 18 104.09 13.2
-1 6 18 123.09 23
0 -6 -18 791.42 51.29
0 6 18 731.73 66.09
0 6 18 735.23 62.49
-1 -6 -18 24.6 8.8
1 6 18 28.5 15.8
1 6 18 49.2 17.9
-2 -6 -18 141.59 17
2 6 18 146.69 24.8
2 6 18 106.19 24.2
-3 -6 -18 65.29 16.2
3 6 18 65.19 16.4
3 6 18 32.3 15.8
-4 -6 -18 8.7 7.8
4 6 18 19.3 13.3
4 6 18 27.1 10.6
4 6 18 25.8 10.9
-5 -6 -18 215.98 26.8
-8 7 18 0.3 10
-8 7 18 -6.1 9.4
-7 7 18 146.29 30.8
-7 7 18 171.98 31.5
-7 7 18 196.28 15.8
-6 7 18 100.39 24.3
-6 7 18 103.39 10.5
-6 7 18 116.79 25.9
-5 7 18 250.27 34.8
-5 7 18 228.58 32.5
-5 7 18 222.18 17.6
-4 7 18 145.69 13.8
-4 7 18 151.48 28.8
-4 7 18 187.58 32.8
3 -7 -18 157.38 13.3
-3 7 18 145.39 27.9
-3 7 18 159.28 29.5
-3 7 18 127.19 20.3
2 -7 -18 194.18 16.8
-2 7 18 161.68 29.9
-2 7 18 199.28 18.3
-2 7 18 242.38 31.6
1 -7 -18 125.39 12.8
-1 7 18 87.49 14.8
-1 7 18 84.99 20.6
-1 7 18 98.89 23.9
0 -7 -18 252.67 21.3
0 7 18 241.58 33.5
0 7 18 202.28 21.6
0 7 18 213.08 28.7
-1 -7 -18 171.08 18.3
1 7 18 178.38 28
1 7 18 157.08 29.7
-2 -7 -18 9.1 8
2 7 18 10.1 9.4
-3 -7 -18 60.79 13.9
3 7 18 75.19 20.7
3 7 18 56.69 14.9
-4 -7 -18 64.19 15.2
4 7 18 29.9 12
4 7 18 35.9 13.1
4 7 18 29.1 15.7
-8 8 18 201.08 17.7
-8 8 18 144.09 40.4
-8 8 18 215.98 35.4
-7 8 18 36 13.7
-7 8 18 24.4 14.1
-6 8 18 108.69 24.5
-6 8 18 159.68 30.5
-5 8 18 119.19 26.2
-5 8 18 89.89 23
-5 8 18 116.99 30
-4 8 18 319.27 39.6
-4 8 18 304.87 24.7
-4 8 18 354.96 40.5
3 -8 -18 94.89 10.9
-3 8 18 91.19 22.9
-3 8 18 104.19 12.6
-3 8 18 83.09 22.1
2 -8 -18 29.6 7.3
-2 8 18 33.9 14.8
-2 8 18 57.59 17.6
-2 8 18 36.3 8.7
1 -8 -18 931.91 60.89
-1 8 18 1001.9 76.79
-1 8 18 850.21 62.79
-1 8 18 1016.2 80.29
0 -8 -18 -1 4.9
0 8 18 -3.1 8.2
0 8 18 -8 6.9
0 8 18 6.6 11.5
-1 -8 -18 138.89 16.1
1 8 18 79.29 19.3
1 8 18 151.68 19
1 8 18 150.98 29.4
-2 -8 -18 68.09 14.7
2 8 18 57.69 16.7
2 8 18 47.7 15.7
-3 -8 -18 -9.8 7.2
3 8 18 7.6 10
3 8 18 4 9.8
-8 9 18 34.7 14.9
-8 9 18 33.4 8.1
-8 9 18 31 19
-7 9 18 172.68 32.1
-7 9 18 191.18 18
-7 9 18 192.88 33.5
-6 9 18 2.4 13.2
-6 9 18 19.5 6.2
-6 9 18 13.5 11.5
-5 9 18 25.8 7.8
-5 9 18 66.59 20.9
-5 9 18 34.1 15.5
-4 9 18 37.8 15.8
-4 9 18 37.9 8.8
-4 9 18 27.2 16.6
3 -9 -18 128.59 13
-3 9 18 104.59 24.6
-3 9 18 101.59 15.3
-3 9 18 86.79 21.1
2 -9 -18 113.99 13.5
-2 9 18 128.09 26.3
-2 9 18 113.49 16.5
-2 9 18 80.49 22.2
1 -9 -18 35.9 8.7
-1 9 18 51.29 10.7
-1 9 18 50.99 17.2
-1 9 18 29.6 13.4
0 -9 -18 87.29 14.4
0 9 18 75.59 19.8
0 9 18 129.29 27.1
0 9 18 112.79 17.2
-1 -9 -18 52.59 11.7
1 9 18 58.69 20.2
1 9 18 55.89 16.9
-2 -9 -18 102.29 16.2
2 9 18 62.39 19
2 9 18 70.29 16.4
-3 -9 -18 39.7 11.2
3 9 18 -37.3 16.5
3 9 18 12.9 13
-7 10 18 156.58 30.6
-7 10 18 158.98 33.3
-7 10 18 147.39 16.6
-6 10 18 37.2 14.9
-6 10 18 6.2 12.3
-6 10 18 25.9 7.3
-5 10 18 21.7 7.7
-5 10 18 20.6 14.1
-5 10 18 15.7 11.3
4 -10 -18 138.59 14.1
-4 10 18 119.69 27.8
-4 10 18 99.69 24.8
-4 10 18 102.39 15.6
3 -10 -18 1.9 4.9
-3 10 18 -1.7 7.2
-3 10 18 -4.6 4.7
-3 10 18 5.7 6.4
2 -10 -18 254.57 21.1
-2 10 18 161.58 32.9
-2 10 18 210.78 22
-2 10 18 221.18 36.1
1 -10 -18 226.28 21.7
-1 10 18 156.58 31.9
-1 10 18 253.27 32.2
-1 10 18 234.88 24
0 -10 -18 47.9 11.3
0 10 18 35.5 15.2
0 10 18 40 15.7
0 10 18 38.2 15.8
-1 -10 -18 117.19 17.9
1 10 18 101.39 22.4
1 10 18 145.79 30.1
-2 -10 -18 6.2 9
2 10 18 27.8 16.4
2 10 18 2.4 10
-7 11 18 -1.6 10.5
-7 11 18 5.3 6.9
-7 11 18 -6.6 10.7
-6 11 18 232.28 46.1
-6 11 18 185.68 19.6
-6 11 18 156.78 32.5
-5 11 18 50.99 11
-5 11 18 90.79 25.6
-5 11 18 49.4 18.1
4 -11 -18 2.7 4.9
-4 11 18 -4.8 10.1
-4 11 18 -3.7 6.9
-4 11 18 10.4 10.2
3 -11 -18 48.5 9.5
-3 11 18 34.9 16
-3 11 18 51.19 11.5
-3 11 18 60.89 18.6
2 -11 -18 8.2 6.5
-2 11 18 9.9 8.6
-2 11 18 -3.4 7.3
-2 11 18 -18.6 6.7
1 -11 -18 47.7 11.6
-1 11 18 92.29 20.2
-1 11 18 14.3 14.3
-1 11 18 61.69 16.3
0 -11 -18 35.7 10.5
0 11 18 68.99 19.6
0 11 18 50.89 19.3
-1 -11 -18 33.4 10.9
1 11 18 -4.2 11.8
1 11 18 40.6 17
-6 12 18 12.5 15.4
-6 12 18 21.4 12.8
-6 12 18 8.1 9.6
-5 12 18 125.69 29.3
-5 12 18 7.2 39.1
-5 12 18 100.89 25.8
4 -12 -18 67.09 11.4
-4 12 18 39.4 16
-4 12 18 57.89 13.6
-4 12 18 81.19 23.5
3 -12 -18 61.99 12.5
-3 12 18 72.19 22.2
-3 12 18 108.09 25.6
-3 12 18 117.19 16.5
2 -12 -18 42.4 9.9
-2 12 18 20.2 15.7
-2 12 18 68.39 31.4
-2 12 18 40.1 14.6
1 -12 -18 7.4 7.5
-1 12 18 -11.2 11.8
-1 12 18 7.4 14.4
0 -12 -18 53.39 12.3
0 12 18 29.9 16
0 12 18 77.59 19.2
-5 13 18 7.9 10.4
-5 13 18 25.3 16.5
-5 13 18 29.8 19.5
4 -13 -18 60.09 12.4
-4 13 18 89.69 17.9
-4 13 18 35.4 19.1
-4 13 18 103.49 24.2
3 -13 -18 54.99 11.5
-3 13 18 24.3 15.8
-3 13 18 51.09 19.3
2 -13 -18 11 7.6
-2 13 18 8.9 13.5
-2 13 18 30.8 16.8
1 -13 -18 68.19 15.1
-1 -18 19 193.68 31.9
0 -18 19 17.3 21.6
1 -18 19 25 12.7
2 -18 19 116.69 22.1
3 -18 19 20 10.6
4 -18 19 176.38 25.1
2 17 -19 114.09 17
-2 -17 19 95.89 22.4
-2 -17 19 85.19 15.8
1 17 -19 11.4 10
-1 -17 19 19.2 15.5
0 17 -19 121.89 17.2
0 -17 19 136.89 24.7
-1 17 -19 63.89 13.8
1 -17 19 83.99 19.4
2 -17 19 124.59 24.9
3 -17 19 68.09 16.5
4 -17 19 3.9 8.2
3 16 -19 50.59 14.9
-3 -16 19 72.59 12.8
-3 -16 19 44.4 15.4
2 16 -19 180.38 32.3
-2 -16 19 100.19 22.4
1 16 -19 54.29 19.3
-1 -16 19 73.69 17.7
0 16 -19 11.8 7.9
0 -16 19 20.7 10.5
-1 16 -19 44.4 10.7
1 -16 19 83.69 18.3
-2 16 -19 39.6 9.3
2 -16 19 46 14.2
3 -16 19 64.89 17.1
4 -16 19 152.48 25
5 -16 19 11 10.6
4 15 -19 40.5 11.6
-4 -15 19 40.4 15.6
-4 -15 19 44.9 10.3
3 15 -19 -1.4 7.2
-3 -15 19 12.9 9.4
-3 -15 19 11.5 5.7
2 15 -19 2.1 7.4
-2 -15 19 -0.5 5.8
1 15 -19 64.89 12.3
-1 -15 19 57.59 17
0 15 -19 158.58 16.8
0 -15 19 193.28 27
-1 15 -19 15.4 8.4
1 -15 19 -12 7
-2 15 -19 207.08 20.5
2 -15 19 209.18 26.7
-3 15 -19 30.4 9.6
3 -15 19 27.7 11.7
4 -15 19 90.09 18.1
5 -15 19 194.58 24.6
6 -15 19 33 11.9
5 14 -19 55.99 12.4
-5 -14 19 36.3 16.2
-5 -14 19 50.79 10.9
4 14 -19 49.99 10.3
-4 -14 19 34.3 17.4
-4 -14 19 29.9 8.2
3 14 -19 -2.1 6.5
-3 -14 19 12.6 6.4
-3 -14 19 11.5 9.2
2 14 -19 207.98 19.3
-2 -14 19 195.98 28
1 14 -19 51.79 9.3
-1 -14 19 40.3 15.2
0 14 -19 119.89 14.2
0 -14 19 122.59 23
-1 14 -19 52.39 10.1
1 -14 19 57.89 15.8
-2 14 -19 3.4 12.1
2 -14 19 16.3 11
-3 14 -19 85.49 13.9
3 -14 19 70.19 16.6
4 -14 19 3.6 7.4
5 -14 19 172.88 23.4
6 -14 19 130.79 22.1
5 13 -19 26.1 8.9
-5 -13 19 3.5 29.8
-5 -13 19 22.5 7.3
4 13 -19 365.96 26.4
-4 -13 19 261.97 35.1
-4 -13 19 300.87 25.1
3 13 -19 71.69 10.7
-3 -13 19 70.09 18.9
2 13 -19 145.79 15.3
-2 -13 19 140.99 25.1
1 13 -19 -4.2 4.6
-1 -13 19 13.3 8.7
0 13 -19 13.8 6.1
0 -13 19 26.2 12.7
-1 13 -19 90.19 12
1 -13 19 100.79 19.9
-2 13 -19 225.38 21.8
2 -13 19 298.57 30.3
-3 13 -19 -5.9 5.2
3 -13 19 18.7 9.8
-4 13 -19 347.57 30.2
4 -13 19 321.87 33.1
5 -13 19 295.17 31.5
6 -13 19 55.09 15.5
-6 -12 19 19.4 7
-6 -12 19 14.9 15.1
-5 -12 19 119.39 23.3
-5 -12 19 146.39 35.3
4 12 -19 93.59 11.9
-4 -12 19 84.09 10.3
-4 -12 19 85.79 19.2
3 12 -19 214.08 24.7
-3 -12 19 193.28 26.3
2 12 -19 103.19 12.4
-2 -12 19 76.59 17.8
1 12 -19 127.89 13
-1 -12 19 134.09 24.4
0 12 -19 201.68 17.7
0 -12 19 237.78 27.7
-1 12 -19 30.3 7.3
1 -12 19 53.59 14.8
-2 12 -19 352.36 27.5
2 -12 19 368.16 36.3
-3 12 -19 109.59 18.7
3 -12 19 145.99 20.5
-4 12 -19 26.4 10.1
4 -12 19 34.9 11.9
5 -12 19 296.57 31.2
6 -12 19 3.8 8.3
7 -12 19 275.37 30.3
-6 -11 19 11.5 11.4
-5 -11 19 8.7 10
-5 -11 19 5.5 4.1
-4 -11 19 72.19 18.7
3 11 -19 69.59 8.2
-3 -11 19 27.3 13.3
2 11 -19 58.29 7.8
-2 -11 19 52.79 15.7
1 11 -19 601.64 40.7
-1 -11 19 690.73 54.89
0 11 -19 282.07 22.4
0 -11 19 355.26 34.5
-1 11 -19 533.25 36.1
1 -11 19 514.15 45.8
-2 11 -19 86.29 12.5
2 -11 19 125.59 21.2
-3 11 -19 48 10.1
3 -11 19 37.6 11.9
-4 11 -19 390.16 30.6
4 -11 19 359.16 35.2
5 -11 19 72.79 27.6
6 -11 19 422.66 39.8
7 -11 19 72.39 15.6
-7 -10 19 37 27.3
-7 -10 19 20.5 13
-6 -10 19 60.89 17.2
-6 -10 19 105.09 10.2
-5 -10 19 22.5 4.4
-5 -10 19 10 9.2
3 10 -19 367.76 23.8
-3 -10 19 346.17 37.2
2 10 -19 36.6 5.6
-2 -10 19 43.5 14.1
1 10 -19 437.16 28.8
-1 -10 19 422.56 41.5
0 10 -19 616.04 40.6
0 -10 19 642.84 53.09
-1 10 -19 77.79 9.8
1 -10 19 81.79 17.3
-2 10 -19 88.99 10.4
2 -10 19 71.99 16.4
-3 10 -19 103.19 14.4
3 -10 19 99.79 19.6
-4 10 -19 81.19 12.8
5 -10 19 582.14 49.2
6 -10 19 -5.4 8.2
-7 10 -19 77.89 17
7 -10 19 60.39 14.9
-7 -9 19 230.48 17.5
-7 -9 19 200.78 28.4
-6 -9 19 20 11.8
-6 -9 19 15.3 3.7
-5 -9 19 59.29 16.6
-4 -9 19 150.18 26.6
-3 -9 19 136.99 24.1
2 9 -19 158.58 11
-2 -9 19 184.78 24
1 9 -19 147.69 11.6
-1 -9 19 174.88 27.4
0 9 -19 1.4 2.9
0 -9 19 -1.5 6.5
-1 9 -19 783.42 50.49
1 -9 19 834.12 62.69
-2 9 -19 110.29 11.9
2 -9 19 114.19 20.6
-3 9 -19 664.43 44.9
3 -9 19 621.44 72.79
-4 9 -19 74.99 11.8
4 -9 19 37.2 14
5 -9 19 12.7 8.5
-6 9 -19 132.09 23.2
6 -9 19 212.68 23.4
-7 9 -19 9.3 10.5
7 -9 19 -3.3 8.3
-7 -8 19 -4.8 10
-7 -8 19 -1.5 7.1
-7 -8 19 -0.5 3
-6 -8 19 242.58 31.4
-5 -8 19 28.7 11
-4 -8 19 188.28 25.4
-3 -8 19 60.79 16.3
-2 -8 19 23.1 12.2
1 8 -19 957.8 55.99
-1 -8 19 970.5 72.39
0 8 -19 114.29 10.1
0 -8 19 155.88 21.1
1 -8 19 70.29 15.9
-2 8 -19 367.56 26.9
2 -8 19 369.36 41.4
-3 8 -19 13.6 5.7
3 -8 19 1.2 8.3
-4 8 -19 21.4 7.3
-4 8 -19 36.4 15.1
4 -8 19 7.9 8.1
-5 8 -19 34.8 11.2
-5 8 -19 22.6 10.4
5 -8 19 32.5 12.6
-6 8 -19 21.4 11
6 -8 19 1.2 8.9
-7 8 -19 67.89 16.8
7 -8 19 51.19 14.3
-8 -7 19 60.59 17.6
-8 -7 19 69.79 17.9
-8 -7 19 49.9 7
-7 -7 19 213.28 33.1
-7 -7 19 156.18 28
-6 -7 19 10 9.6
-5 -7 19 147.89 26.5
-4 -7 19 5.2 7.5
-3 -7 19 189.88 25
-2 -7 19 271.57 30.6
-1 -7 19 10.6 6.3
0 7 -19 123.89 10.5
0 7 -19 126.09 9.9
0 -7 19 131.69 22.4
-1 7 -19 87.49 9.1
-1 7 -19 89.29 10.2
1 -7 19 80.19 17.3
-2 7 -19 54.69 8.8
-2 7 -19 47.2 9.1
2 -7 19 70.69 25.5
-3 7 -19 219.28 21.4
-3 7 -19 209.08 19.5
3 -7 19 240.48 27
-4 7 -19 31.7 10.2
-4 7 -19 24.3 8.4
4 -7 19 23.9 10.2
-5 7 -19 173.68 20.6
5 -7 19 148.79 25
-6 7 -19 12.8 10.6
6 -7 19 20.7 10.3
-7 7 -19 63.69 15.3
7 -7 19 54.09 14.3
-8 -6 19 34.3 11.9
-7 -6 19 209.78 29.2
-7 -6 19 210.98 29.1
-6 -6 19 159.58 27.7
-5 -6 19 39 12.2
-4 -6 19 213.08 28
-3 -6 19 109.69 20.3
-2 -6 19 24.7 11.5
-1 -6 19 189.48 23.8
0 6 -19 101.09 8.4
0 6 -19 110.39 8.9
0 -6 19 113.89 20.6
-1 6 -19 173.68 14
-1 6 -19 179.28 15
1 -6 19 153.68 39.6
-2 6 -19 340.77 25.6
-2 6 -19 348.37 27
2 -6 19 367.86 41.1
-3 6 -19 9.3 6.7
-3 6 -19 37 9.1
3 -6 19 24.7 10.9
-4 6 -19 127.59 16.2
4 -6 19 125.89 22.1
-5 6 -19 8.2 8.5
5 -6 19 0.7 7.4
-6 6 -19 114.49 19.7
6 -6 19 100.79 19.4
-7 6 -19 8.2 8.7
7 -6 19 3.7 8.3
-8 -5 19 230.48 29.9
-8 -5 19 245.38 31.8
-7 -5 19 8.8 10.2
-7 -5 19 -3.2 8.9
-6 -5 19 162.38 27.7
-5 -5 19 106.49 22
-4 -5 19 109.49 21.7
-3 -5 19 129.39 23.7
-2 -5 19 40.5 13.6
-1 -5 19 461.75 42.2
0 5 -19 43.3 4.7
0 5 -19 49 5.1
0 -5 19 79.59 16.9
-1 5 -19 45 6.7
-1 5 -19 49.3 7.6
-2 5 -19 80.59 10.1
-2 5 -19 88.39 11
2 -5 19 81.39 17.5
-3 5 -19 41.1 9.5
3 -5 19 41.9 12.1
-4 5 -19 17.9 8.4
4 -5 19 18.9 10
-5 5 -19 200.58 23.1
5 -5 19 180.48 24.3
-6 5 -19 41.1 12
6 -5 19 31 13.1
-7 5 -19 221.38 29
7 -5 19 287.97 30.8
-8 -4 19 20.6 12.4
-8 -4 19 26.1 14.3
-7 -4 19 319.97 35.9
-7 -4 19 373.66 40.4
-6 -4 19 52.09 17.5
-6 -4 19 40 13
-5 -4 19 20.4 10.1
-4 -4 19 370.66 37.6
-3 -4 19 16.6 8
-2 -4 19 738.03 59.69
-1 -4 19 41.4 13.4
0 4 -19 94.89 7.2
0 4 -19 83.29 6.8
0 -4 19 79.09 18.2
-1 4 -19 -4.2 2.8
-1 4 -19 -5.7 2.7
-2 4 -19 68.59 10.8
2 -4 19 107.79 24.4
-3 4 -19 137.19 16
3 -4 19 126.19 22.4
-4 4 -19 214.18 22.6
4 -4 19 222.78 28.2
-5 4 -19 17.6 9.1
5 -4 19 5.9 10.5
-6 4 -19 132.89 21.8
6 -4 19 136.29 23.3
-7 4 -19 43.5 15.1
7 -4 19 47.3 16.2
-8 -3 19 36.5 12.8
-8 -3 19 58.99 16.6
-7 -3 19 -1.6 5.8
-7 -3 19 -1.4 7.8
-6 -3 19 336.17 38.6
-6 -3 19 358.16 38.3
-5 -3 19 -0.3 7.6
-4 -3 19 275.37 31.9
-3 -3 19 47.9 14.1
-2 -3 19 29.7 11.2
-1 -3 19 2035.8 134.79
0 3 -19 85.09 6.6
0 3 -19 77.19 6.7
0 -3 19 68.69 17
-1 3 -19 134.79 12.1
1 -3 19 91.09 23.3
-2 3 -19 144.79 14.7
-3 3 -19 2.8 5.8
3 -3 19 3.2 10.6
-4 3 -19 54.69 12.2
4 -3 19 7.8 17.1
-5 3 -19 64.49 13.6
5 -3 19 79.89 27.9
-6 3 -19 95.39 18
6 -3 19 138.99 28.2
-7 3 -19 53.89 15.3
7 -3 19 62.69 16.7
-8 -2 19 90.99 22.6
-8 -2 19 130.19 25.2
-7 -2 19 85.09 20.3
-7 -2 19 65.79 18.4
-6 -2 19 0.6 6.5
-6 -2 19 -6.1 7.2
-5 -2 19 378.76 39.7
-4 -2 19 6 6.2
-3 -2 19 60.59 15.8
-2 -2 19 1342.77 95.99
-1 -2 19 12.6 8.1
0 2 -19 1171.58 67.99
0 2 -19 1162.78 67.79
0 -2 19 1149.19 85.29
-1 2 -19 67.59 8.2
1 -2 19 50.29 15.5
-2 2 -19 44.9 9.4
2 -2 19 37.6 13
-3 2 -19 304.27 24.7
3 -2 19 227.78 30.9
-4 2 -19 77.19 14.2
4 -2 19 75.19 17.9
-5 2 -19 119.39 19.8
5 -2 19 88.59 20.8
-6 2 -19 8 10.2
6 -2 19 -6.7 9.2
-9 -1 19 168.48 32.4
-9 -1 19 121.39 25.5
-8 -1 19 51.29 16.8
-8 -1 19 34 14.2
-7 -1 19 78.19 19.4
-7 -1 19 80.19 20.3
-6 -1 19 21.2 12.5
-6 -1 19 24.2 11.6
-5 -1 19 7.3 7
-5 -1 19 -0.3 7.3
-4 -1 19 291.27 33.5
-3 -1 19 53.59 15.4
-2 -1 19 67.79 17.1
-1 -1 19 300.27 33.1
0 1 -19 48.4 5.9
0 -1 19 45.9 14.8
-1 1 -19 236.68 18.9
1 -1 19 247.88 29.3
-2 1 -19 254.37 22.5
2 -1 19 292.47 32.5
-3 1 -19 144.19 17.6
3 -1 19 178.78 23.7
-4 1 -19 169.68 19.5
4 -1 19 113.39 22.5
-5 1 -19 51.39 14.1
5 -1 19 61.89 15.7
-6 1 -19 80.89 16.9
6 -1 19 44.1 14.7
-9 0 19 11.1 11.1
-9 0 19 0.9 9.6
-8 0 19 48.8 19
-8 0 19 57.39 17.6
-7 0 19 4 9.8
-7 0 19 8.9 8.8
-6 0 19 79.79 20.1
-6 0 19 77.59 21
-5 0 19 40.1 13.8
-5 0 19 52.19 15.5
-4 0 19 30.8 12.8
-4 0 19 48.8 14.8
-3 0 19 285.07 32.6
-2 0 19 234.78 29
-1 0 19 669.63 57.39
0 0 -19 60.39 6.8
0 0 19 58.79 16.2
-1 0 -19 139.39 13.3
1 0 19 145.19 25
-2 0 -19 722.83 49
2 0 19 718.33 60.09
-3 0 -19 5.1 6.2
3 0 19 7 8.2
-4 0 -19 48.2 12.4
4 0 19 60.49 17.6
-5 0 -19 84.79 17.2
5 0 19 45.5 16
-6 0 -19 107.79 19.7
6 0 19 68.89 18.6
-9 1 19 49.7 17.7
-9 1 19 68.19 18.6
-8 1 19 10.9 13.2
-8 1 19 0.3 9.2
-7 1 19 298.97 37.7
-7 1 19 329.27 38.5
-6 1 19 8.7 7.7
-6 1 19 13.7 9.1
-5 1 19 231.88 29.6
-5 1 19 229.08 30.6
-4 1 19 63.79 17.6
-4 1 19 83.29 19.7
-3 1 19 43.9 14.7
-2 1 19 293.87 33.8
1 -1 -19 91.09 6.5
-1 1 19 115.59 22.1
0 -1 -19 257.57 18
0 1 19 214.78 28.4
-1 -1 -19 277.97 30.8
1 1 19 298.47 34.2
-2 -1 -19 44.5 9.7
2 1 19 54.99 15.7
-3 -1 -19 540.05 39.1
3 1 19 430.16 45.1
-4 -1 -19 120.29 18.9
4 1 19 124.49 23.9
5 1 19 524.75 50.59
-6 -1 -19 184.78 23.8
6 1 19 142.79 26.5
-9 2 19 182.58 31.9
-9 2 19 166.38 30.6
-8 2 19 48.6 19.7
-8 2 19 20.2 14.3
-7 2 19 16.8 9.4
-7 2 19 1.8 13
-6 2 19 27.7 13
-6 2 19 56.79 17.1
-5 2 19 42.2 14.5
-5 2 19 23.6 12.7
-4 2 19 410.66 43.3
-4 2 19 450.45 44.5
-3 2 19 21 10.7
-3 2 19 28.7 11.4
-2 2 19 13.7 8.5
1 -2 -19 163.78 11.9
-1 2 19 159.18 27.6
0 -2 -19 47.6 7.4
0 2 19 52.19 15.6
-1 -2 -19 8.3 5.1
1 2 19 19.4 12.6
-2 -2 -19 569.74 40.3
2 2 19 528.55 49.8
-3 -2 -19 8.5 7.1
3 2 19 13.2 9.1
-4 -2 -19 309.17 31
4 2 19 343.47 38.2
-5 -2 -19 24.9 11.9
5 2 19 -1 12.5
-9 3 19 -3.3 47.6
-9 3 19 4.7 10.9
-8 3 19 21.2 11.9
-8 3 19 13.5 13.8
-7 3 19 175.88 32.6
-7 3 19 198.08 32.1
-6 3 19 -2.2 10
-6 3 19 -0.2 8.4
-5 3 19 321.47 38.7
-5 3 19 370.26 39.4
-4 3 19 49.7 14.9
-4 3 19 20.6 13.5
-3 3 19 456.85 48.9
-3 3 19 671.33 54.69
-2 3 19 401.96 41
-2 3 19 392.56 41.5
1 -3 -19 2.8 3
-1 3 19 13.6 9.4
-1 3 19 12.3 9.7
0 -3 -19 253.97 19.9
0 3 19 253.27 32.1
-1 -3 -19 -1.7 3.8
1 3 19 6.3 7.6
-2 -3 -19 374.96 30.2
2 3 19 386.66 41.4
-3 -3 -19 435.46 34
3 3 19 358.66 41.7
-4 -3 -19 12.8 8.1
4 3 19 -7.8 8.8
-5 -3 -19 200.78 25.6
5 3 19 179.58 31.8
-8 4 19 -12.6 9.6
-8 4 19 13.4 11.8
-7 4 19 167.28 31.5
-7 4 19 169.58 30
-6 4 19 57.19 19.3
-6 4 19 42.4 15.8
-5 4 19 10.7 9.7
-5 4 19 19.1 9.8
-4 4 19 679.43 59.59
-4 4 19 537.85 54.09
-3 4 19 319.27 38
-3 4 19 392.46 40.5
2 -4 -19 201.38 14.3
-2 4 19 217.18 28
-2 4 19 199.48 28.2
1 -4 -19 193.48 15.7
-1 4 19 219.38 30.5
-1 4 19 213.58 28.3
0 -4 -19 34.5 7.2
0 4 19 32.8 14
0 4 19 29.6 12.8
-1 -4 -19 425.16 32.8
1 4 19 433.96 43.1
1 4 19 484.45 47
-2 -4 -19 230.48 22
2 4 19 247.38 32.2
-3 -4 -19 312.37 27.2
3 4 19 262.97 34.8
-4 -4 -19 256.17 25.5
4 4 19 208.18 34.6
-5 -4 -19 -6.7 10
5 4 19 21 15.3
5 4 19 -20.4 14.5
-8 5 19 81.59 20.4
-8 5 19 51.19 19
-7 5 19 31 15.6
-7 5 19 35.6 14.9
-6 5 19 151.38 29.6
-6 5 19 147.49 28.7
-5 5 19 290.37 38
-5 5 19 412.46 42.7
-4 5 19 -16.5 9.7
-4 5 19 5.8 8.7
-3 5 19 351.56 40.5
-3 5 19 376.46 41.6
2 -5 -19 116.39 10.2
-2 5 19 94.19 21.6
-2 5 19 138.79 25.9
1 -5 -19 512.65 35.5
-1 5 19 572.24 50.79
-1 5 19 553.74 52.69
0 -5 -19 185.68 17.7
0 5 19 223.38 31.2
0 5 19 220.98 28.5
-1 -5 -19 140.39 15.4
1 5 19 111.59 24.8
1 5 19 139.29 25.2
-2 -5 -19 158.08 17.7
2 5 19 156.78 29.6
2 5 19 152.68 25.8
-3 -5 -19 88.59 16.2
3 5 19 77.49 18.4
3 5 19 67.49 18.7
-4 -5 -19 11.8 7.7
4 5 19 15.4 10.2
4 5 19 -10.9 9.9
-8 6 19 -2 9.5
-8 6 19 5.2 2.9
-8 6 19 24.6 27.9
-8 6 19 10 3.2
-7 6 19 231.88 39.2
-7 6 19 277.57 36.1
-6 6 19 7.5 13.4
-6 6 19 35.1 14.3
-5 6 19 348.87 40.6
-5 6 19 282.57 36.8
-4 6 19 154.78 12.3
-4 6 19 214.88 34.3
-4 6 19 164.38 29.6
-3 6 19 -7.7 10.3
-3 6 19 -1.7 9.8
2 -6 -19 230.08 16.8
-2 6 19 165.28 30.1
-2 6 19 151.18 29.3
1 -6 -19 193.88 17.6
-1 6 19 217.18 29.2
-1 6 19 271.87 33.5
0 -6 -19 467.85 33.7
0 6 19 464.85 48.3
0 6 19 417.66 44.3
-1 -6 -19 560.54 41.4
1 6 19 603.34 52.39
1 6 19 557.24 55.69
-2 -6 -19 45.9 10.8
2 6 19 -6.8 8.3
2 6 19 10.6 11.5
-3 -6 -19 200.18 23.2
3 6 19 249.88 29
3 6 19 257.97 33.9
-4 -6 -19 9.4 9.8
4 6 19 0.6 9.2
4 6 19 7.8 12.6
-8 7 19 36.5 5.9
-8 7 19 34.3 6.3
-8 7 19 59.29 21.8
-8 7 19 37.3 16.9
-7 7 19 27.4 5
-7 7 19 38.6 18.6
-7 7 19 32 14.9
-6 7 19 358.26 41.1
-6 7 19 307.57 38.3
-6 7 19 306.37 21.2
-5 7 19 14.7 12.1
-5 7 19 10.3 4
-5 7 19 -8.7 11.2
-4 7 19 299.87 22.5
-4 7 19 386.76 43.3
-4 7 19 279.37 36.6
3 -7 -19 89.49 9.8
-3 7 19 83.59 21.2
-3 7 19 98.49 24
2 -7 -19 36.5 6.9
-2 7 19 18.8 6
-2 7 19 4.1 10.7
-2 7 19 36.1 15.1
1 -7 -19 254.37 20.7
-1 7 19 263.87 34.2
-1 7 19 195.48 21.1
-1 7 19 313.47 34.5
0 -7 -19 45.7 10.1
0 7 19 66.59 19.8
0 7 19 25.2 12.6
-1 -7 -19 32.1 9.7
1 7 19 34.6 13.5
1 7 19 59.29 18.4
-2 -7 -19 351.76 30.9
2 7 19 334.37 36.6
2 7 19 386.96 43.8
-3 -7 -19 54.09 13.1
3 7 19 47.7 16.2
3 7 19 57.09 17.6
-7 8 19 65.59 69.59
-7 8 19 110.99 11.5
-7 8 19 103.79 24
-6 8 19 1.4 4.2
-6 8 19 15 12.2
-6 8 19 11.3 12.1
-5 8 19 141.09 28.3
-5 8 19 150.58 14.3
-5 8 19 157.38 30.9
-4 8 19 107.89 24.3
-4 8 19 103.69 13.6
-4 8 19 128.19 28.7
3 -8 -19 397.66 26.3
-3 8 19 299.47 26.6
-3 8 19 305.67 39.5
-3 8 19 404.06 42.7
2 -8 -19 77.09 11.1
-2 8 19 94.69 21.7
-2 8 19 92.29 22.8
-2 8 19 71.79 11.9
1 -8 -19 126.99 14.3
-1 8 19 90.49 15.2
-1 8 19 127.19 24.5
-1 8 19 90.09 24.6
0 -8 -19 256.67 21.7
0 8 19 203.68 35.5
0 8 19 202.78 28
0 8 19 130.89 31.5
-1 -8 -19 16.7 7.5
1 8 19 -5 8
1 8 19 19 13.1
-2 -8 -19 243.08 24.2
2 8 19 269.77 30.6
2 8 19 181.68 33.7
-3 -8 -19 131.59 20.4
3 8 19 88.89 23.3
3 8 19 106.69 20.7
-7 9 19 47.7 20.1
-7 9 19 22.7 7.1
-7 9 19 13.8 14.9
-6 9 19 17.2 6.6
-6 9 19 11.6 13.3
-6 9 19 24.2 13
-5 9 19 35.2 8.4
-5 9 19 47.9 17.1
-5 9 19 46.9 20.2
-4 9 19 226.98 37.8
-4 9 19 224.88 36.7
-4 9 19 180.28 18
3 -9 -19 170.28 15.6
-3 9 19 176.58 33.3
-3 9 19 141.79 16.4
-3 9 19 124.89 26.9
2 -9 -19 141.59 14.7
-2 9 19 147.29 30.1
-2 9 19 111.99 28
-2 9 19 132.19 16
1 -9 -19 115.99 14.3
-1 9 19 97.89 16
-1 9 19 132.99 26.3
-1 9 19 125.09 26.5
0 -9 -19 101.49 14.8
0 9 19 84.29 16.6
0 9 19 72.69 19.3
0 9 19 24.6 16.9
-1 -9 -19 147.89 28.2
1 9 19 199.18 30.7
1 9 19 133.79 28.4
-2 -9 -19 9.9 9.3
2 9 19 9.5 10.5
2 9 19 15.8 12.9
-6 10 19 163.58 30.6
-6 10 19 154.28 16.6
-6 10 19 152.48 33.9
-5 10 19 106.29 27.6
-5 10 19 131.59 15.7
-5 10 19 122.39 29.2
4 -10 -19 32.7 8
-4 10 19 23.2 13.7
-4 10 19 18.5 7.8
-4 10 19 37.4 15.6
3 -10 -19 120.29 14.2
-3 10 19 117.49 27.3
-3 10 19 127.09 28
-3 10 19 141.19 16
2 -10 -19 0.2 5.4
-2 10 19 6.8 9.7
-2 10 19 -12.7 6.4
-2 10 19 0.7 9
1 -10 -19 74.99 13.2
-1 10 19 80.09 21.6
-1 10 19 99.29 23
-1 10 19 113.89 18.1
0 -10 -19 110.39 17.4
0 10 19 104.49 23.4
0 10 19 152.68 37
-1 -10 -19 -5.5 6.4
1 10 19 -17 9.7
1 10 19 7.4 14.2
-6 11 19 24.3 15.8
-6 11 19 38.7 10.7
-5 11 19 36.9 9.4
-5 11 19 27 24
4 -11 -19 108.29 13.6
-4 11 19 90.99 14.9
-4 11 19 163.88 31.3
-4 11 19 85.79 28.6
3 -11 -19 -2.3 5.8
-3 11 19 -16.4 7.3
-3 11 19 68.99 29.9
-3 11 19 9.7 12.2
2 -11 -19 20.6 7.1
-2 11 19 3.7 11.5
-2 11 19 12.3 10.4
1 -11 -19 -5.9 6.4
-1 11 19 -13.1 11.2
-1 11 19 -15.3 8.9
0 -11 -19 84.19 15.3
0 11 19 124.09 28.4
0 11 19 92.19 22.8
4 -12 -19 42.7 9.9
-4 12 19 23 24.5
-4 12 19 38.1 16.9
-4 12 19 43.6 11.1
3 -12 -19 16.8 8
-3 12 19 12.4 15.9
-3 12 19 22.8 10.9
-3 12 19 7.5 13.3
2 -12 -19 7.3 7.8
-2 12 19 3.9 13.8
-2 12 19 32.7 17.7
1 17 -20 256.67 26.1
-1 -17 20 303.17 35.9
0 17 -20 7.5 8.6
0 -17 20 15.2 31.1
-1 17 -20 146.29 19.1
1 -17 20 125.79 24.4
2 -17 20 109.39 21.4
3 -17 20 127.29 23.7
2 16 -20 12.4 9.9
-2 -16 20 -4 5.1
1 16 -20 90.09 14.3
-1 -16 20 90.89 22.6
0 16 -20 132.09 27.9
0 -16 20 173.28 28.6
-1 16 -20 3.4 8.6
1 -16 20 0.3 10
-2 16 -20 32 8.7
2 -16 20 -2.6 9.9
3 -16 20 55.09 15.5
4 -16 20 17.3 11.5
3 15 -20 0 7.8
-3 -15 20 6.9 7.5
2 15 -20 422.36 33.5
-2 -15 20 484.85 49.1
1 15 -20 63.29 11
-1 -15 20 53.79 16.2
0 15 -20 284.97 23.4
0 -15 20 217.88 30.2
-1 15 -20 88.39 14.2
1 -15 20 97.09 19.5
-2 15 -20 5.2 6.7
2 -15 20 1.1 7.7
-3 15 -20 71.59 24
3 -15 20 87.19 18.2
4 -15 20 98.39 19.8
5 -15 20 97.29 19.5
4 14 -20 400.36 28.6
-4 -14 20 338.47 27.3
-4 -14 20 306.57 38.6
3 14 -20 68.39 11.6
-3 -14 20 53.89 16.8
2 14 -20 -0.8 6.5
-2 -14 20 8.4 9.3
1 14 -20 232.48 20.1
-1 -14 20 228.78 29.1
0 14 -20 -1 5.2
0 -14 20 -3 9.1
-1 14 -20 404.56 32
1 -14 20 482.75 43.2
2 -14 20 415.56 40.6
-3 14 -20 27.8 8.9
3 -14 20 32.2 13.1
4 -14 20 101.79 20.1
5 -14 20 35.8 13.1
-5 -13 20 59.09 18.4
-5 -13 20 55.09 12.4
4 13 -20 18.5 7.1
-4 -13 20 47.9 24.8
3 13 -20 45.3 8.4
-3 -13 20 26.1 12.6
2 13 -20 371.76 27.1
-2 -13 20 336.77 38.6
1 13 -20 108.49 12.7
-1 -13 20 128.39 25.1
0 13 -20 518.75 37.2
0 -13 20 584.34 50.39
-1 13 -20 73.19 11.1
1 -13 20 55.29 16.3
-2 13 -20 316.77 26.7
2 -13 20 364.46 36.5
-3 13 -20 239.18 22.1
3 -13 20 227.78 28.4
4 -13 20 -10 8.7
5 -13 20 374.36 37.5
6 -13 20 15 9
-5 -12 20 27.8 6
-5 -12 20 47.3 25.9
-4 -12 20 177.58 30
3 12 -20 52.19 8.1
-3 -12 20 43.2 14.2
2 12 -20 47 8
-2 -12 20 42.8 14.2
1 12 -20 116.69 13.6
-1 -12 20 129.39 24.7
0 12 -20 95.19 11.3
0 -12 20 94.49 20.4
-1 12 -20 578.94 41.1
1 -12 20 680.03 54.19
-2 12 -20 154.48 15.8
2 -12 20 156.08 25.6
3 -12 20 330.47 34.2
-4 12 -20 173.88 19.7
4 -12 20 195.98 24
5 -12 20 15.6 9.7
-6 -11 20 14 12.4
-6 -11 20 17.9 5
-5 -11 20 63.19 16.5
-4 -11 20 13.1 8.7
3 11 -20 314.27 20.5
-3 -11 20 244.58 31.2
2 11 -20 164.28 13.2
-2 -11 20 157.58 27.4
1 11 -20 513.85 33.9
-1 -11 20 524.75 47.6
0 11 -20 602.04 40.9
0 -11 20 575.24 51.39
-1 11 -20 5.8 5.2
1 -11 20 20.7 9.2
-2 11 -20 1221.98 74.29
2 -11 20 1128.99 84.79
-3 11 -20 46.8 9.8
3 -11 20 63.19 16.5
-4 11 -20 175.58 18.9
4 -11 20 193.68 24.9
5 -11 20 114.19 21.9
6 -11 20 21.9 10.2
-6 -10 20 11 11.2
-5 -10 20 130.89 25.5
-4 -10 20 491.95 48.4
-3 -10 20 1.1 6.2
2 10 -20 511.05 31.2
-2 -10 20 532.85 48.1
1 10 -20 10.6 3.6
-1 -10 20 20 11.7
0 10 -20 84.39 9.2
0 -10 20 77.69 18.5
-1 10 -20 492.65 35
1 -10 20 587.34 48.4
-2 10 -20 103.59 12.3
2 -10 20 101.29 20.7
-3 10 -20 294.17 25.1
3 -10 20 322.37 32.6
-4 10 -20 120.29 15.7
4 -10 20 96.29 19.7
5 -10 20 63.99 16.8
-6 10 -20 385.06 37.1
6 -10 20 438.86 39.6
-6 -9 20 139.59 26.7
-5 -9 20 19.4 10.9
-4 -9 20 140.09 25.8
-3 -9 20 72.69 17.8
-2 -9 20 39 13.2
1 9 -20 676.43 40.7
-1 -9 20 704.43 57.79
0 9 -20 18.5 4.2
0 -9 20 18.1 9.8
-1 9 -20 90.59 9.7
1 -9 20 81.09 19.3
-2 9 -20 880.41 57.09
2 -9 20 925.61 68.99
-3 9 -20 78.69 11.8
3 -9 20 71.39 16.3
-4 9 -20 377.86 31.7
4 -9 20 410.46 38.7
-5 9 -20 49.2 13.3
5 -9 20 70.09 16.5
-6 9 -20 75.19 15.6
6 -9 20 65.89 19.8
-7 -8 20 19.8 12.3
-7 -8 20 42.9 15.8
-6 -8 20 18 8.9
-5 -8 20 279.67 34.2
-4 -8 20 58.89 17.3
-3 -8 20 474.85 45
-2 -8 20 287.57 32
-1 -8 20 -4.5 7.1
0 8 -20 146.59 11.3
0 8 -20 136.99 11.7
0 -8 20 140.89 24.1
-1 8 -20 355.46 26.2
-1 8 -20 316.57 28.3
1 -8 20 400.56 36.9
-2 8 -20 367.46 27.8
-2 8 -20 318.87 25.3
2 -8 20 361.76 35.4
-3 8 -20 182.98 19.3
-3 8 -20 168.18 17
3 -8 20 175.18 23.9
-4 8 -20 -2.1 5.6
-4 8 -20 12.5 8.3
4 -8 20 8 7.2
-5 8 -20 189.18 21.8
5 -8 20 155.98 26.3
-6 8 -20 33.1 12.2
6 -8 20 66.29 26.4
-7 -7 20 46.3 15.4
-7 -7 20 11.3 14.3
-6 -7 20 53.49 17.8
-5 -7 20 0.5 8.7
-4 -7 20 312.67 35.7
-3 -7 20 267.77 31
-2 -7 20 767.62 62.59
-1 -7 20 137.79 25
0 7 -20 534.15 33
0 7 -20 533.15 32.5
0 -7 20 533.25 47.5
-1 7 -20 541.35 35.2
-1 7 -20 540.85 36.5
1 -7 20 568.64 48.6
-2 7 -20 22.7 6.5
-2 7 -20 5.9 4.8
2 -7 20 -1.4 8.1
-3 7 -20 116.09 13.3
-3 7 -20 106.09 14.1
-4 7 -20 185.68 20.5
-4 7 -20 166.58 20.3
4 -7 20 213.08 25.2
-5 7 -20 19.4 9.7
5 -7 20 14.9 9.5
-6 7 -20 112.99 18.9
6 -7 20 96.99 24.8
-7 -6 20 20.5 11
-7 -6 20 28.1 12.9
-6 -6 20 199.88 28.4
-5 -6 20 91.09 20
-4 -6 20 9.7 9.8
-3 -6 20 480.05 46
-2 -6 20 99.59 20.7
-1 -6 20 1139.39 83.89
0 6 -20 40.5 4.3
0 6 -20 36.3 4.1
0 -6 20 52.89 14.4
-1 6 -20 6.7 3.8
-1 6 -20 4.4 3.1
1 -6 20 1.6 7.2
-2 6 -20 379.06 28.1
-2 6 -20 347.37 26.2
2 -6 20 363.46 37
-3 6 -20 2.9 5.7
-3 6 -20 25.8 7.2
3 -6 20 16.1 9.7
-4 6 -20 54.79 12.3
4 -6 20 66.59 15.6
-5 6 -20 281.97 27.6
5 -6 20 224.78 29.9
-6 6 -20 5.9 8.2
6 -6 20 -7.6 6.2
-8 -5 20 30.7 13.4
-8 -5 20 15.9 11.8
-7 -5 20 164.28 29.5
-7 -5 20 184.88 31.1
-6 -5 20 13.1 10.3
-5 -5 20 155.98 28
-4 -5 20 -0.6 4.2
-3 -5 20 28.4 10.5
-2 -5 20 300.07 33.2
-1 -5 20 29.4 12.7
0 5 -20 256.77 15.7
0 5 -20 252.17 15.8
0 -5 20 264.87 30.5
-1 5 -20 205.58 15.9
-1 5 -20 239.28 17.4
1 -5 20 192.68 26.1
-2 5 -20 67.59 10.1
-2 5 -20 81.49 10.4
2 -5 20 87.79 19
-3 5 -20 433.26 32.9
3 -5 20 393.06 39.5
-4 5 -20 161.58 19.4
4 -5 20 154.78 22
-5 5 -20 14.4 8.8
5 -5 20 21.7 11
-6 5 -20 141.19 22.4
6 -5 20 175.88 24.7
-8 -4 20 23.1 12.2
-8 -4 20 17.8 13.5
-7 -4 20 35 15.4
-7 -4 20 54.39 18.1
-6 -4 20 222.98 29.2
-6 -4 20 143.59 26.6
-5 -4 20 -10.9 8.1
-4 -4 20 121.39 23.3
-3 -4 20 27 11.6
-2 -4 20 39.2 14.1
-1 -4 20 13.6 9.8
0 4 -20 69.69 4.9
0 4 -20 62.29 4.8
0 -4 20 49.6 13.8
-1 4 -20 288.17 20.7
-1 4 -20 260.07 19.4
1 -4 20 289.47 31.9
-2 4 -20 124.29 12.9
2 -4 20 110.79 22.1
-3 4 -20 28.9 8.3
3 -4 20 19.3 9.3
-4 4 -20 67.99 13.4
4 -4 20 67.29 16.4
-5 4 -20 186.58 21.2
5 -4 20 156.58 26.8
-6 4 -20 11 8.6
6 -4 20 1.3 8.5
-8 -3 20 86.89 20.8
-8 -3 20 65.39 17.6
-7 -3 20 2.1 10.3
-7 -3 20 12.8 9
-6 -3 20 66.79 19.4
-6 -3 20 39.1 15.4
-5 -3 20 364.06 39.8
-4 -3 20 117.79 23.6
-3 -3 20 125.19 23.5
-2 -3 20 5.9 9.1
-1 -3 20 302.07 34.2
0 3 -20 7.2 1.9
0 3 -20 12.9 2.1
0 -3 20 -1.9 7.2
-1 3 -20 279.67 20.9
-1 3 -20 290.87 20.4
1 -3 20 267.67 31.3
-2 3 -20 177.88 17.3
2 -3 20 239.88 28
-3 3 -20 241.38 22.2
3 -3 20 262.67 30.4
-4 3 -20 2.6 6.3
4 -3 20 -4.8 6.1
5 -3 20 85.89 19.9
-6 3 -20 75.89 16
6 -3 20 72.89 19.4
-8 -2 20 18.3 10.9
-8 -2 20 16.8 9.3
-7 -2 20 141.99 28
-7 -2 20 132.19 26.1
-6 -2 20 86.39 21.4
-6 -2 20 126.09 25.4
-5 -2 20 43.1 15.8
-5 -2 20 59.99 16.5
-4 -2 20 127.49 24.5
-3 -2 20 292.67 34.1
-2 -2 20 129.69 24.3
-1 -2 20 8.6 6.9
0 2 -20 14.1 2.8
0 2 -20 18.4 2.9
0 -2 20 6.9 8.6
-1 2 -20 420.86 29.1
1 -2 20 424.56 41.7
-2 2 -20 56.89 9.5
2 -2 20 36.9 12.7
-3 2 -20 101.89 13.4
3 -2 20 85.59 18.5
-4 2 -20 88.39 15
4 -2 20 81.69 18.1
-5 2 -20 19.9 9.7
5 -2 20 22.6 12.5
-6 2 -20 57.79 13.7
6 -2 20 45.2 16.3
-8 -1 20 72.39 17.8
-8 -1 20 28 15.4
-7 -1 20 4 9.6
-7 -1 20 -16.4 7.3
-6 -1 20 62.39 18.2
-6 -1 20 82.09 19.7
-5 -1 20 152.48 27.2
-5 -1 20 136.89 26.2
-4 -1 20 47.1 15.7
-3 -1 20 121.59 24.1
-2 -1 20 9.9 7.4
-1 -1 20 97.09 21.6
0 1 -20 63.19 6.1
0 -1 20 50.99 14.8
-1 1 -20 -6.5 3.4
1 -1 20 -1.4 8.1
-2 1 -20 296.27 24.5
2 -1 20 317.87 35.3
-3 1 -20 5.5 5.4
3 -1 20 5.2 10.1
-4 1 -20 230.08 24.7
4 -1 20 247.18 30.5
-5 1 -20 270.97 27.8
5 -1 20 280.27 34.5
-6 1 -20 193.48 24.6
6 -1 20 207.88 29.5
-8 0 20 6.9 12.3
-8 0 20 11 11.3
-7 0 20 255.47 35.2
-7 0 20 261.17 34
-6 0 20 91.59 23.3
-6 0 20 133.59 26.1
-5 0 20 177.08 31.1
-5 0 20 185.58 26.3
-4 0 20 154.18 28.5
-4 0 20 171.68 29.4
-3 0 20 1.4 7.3
-2 0 20 48.3 15.2
-1 0 20 23.4 11.3
0 0 -20 104.79 9.3
0 0 20 114.99 22.8
-1 0 -20 59.69 9.4
1 0 20 78.19 18.9
-2 0 -20 31.9 7.9
2 0 20 12.4 10.6
-3 0 -20 155.48 17.7
3 0 20 187.38 26.5
-4 0 -20 137.69 16.9
4 0 20 154.98 26.6
-5 0 -20 74.19 15.6
5 0 20 76.09 19.9
-8 1 20 162.78 30.6
-8 1 20 167.78 31
-7 1 20 -0.8 9.8
-7 1 20 20.5 12.3
-6 1 20 140.39 27.2
-6 1 20 140.99 28
-5 1 20 248.58 33.2
-5 1 20 279.47 33.5
-4 1 20 135.89 26.2
-4 1 20 141.09 26.1
-3 1 20 22.8 11.6
-3 1 20 41.9 13.9
-2 1 20 0.2 7.3
-1 1 20 61.79 16.1
0 -1 -20 241.58 17.6
0 1 20 240.98 30.4
-1 -1 -20 439.26 31.5
1 1 20 431.66 43.2
-2 -1 -20 214.78 19.9
2 1 20 203.38 28.2
-3 -1 -20 43.7 11.2
3 1 20 45.7 15
-4 -1 -20 336.77 31.9
4 1 20 368.26 40.1
-5 -1 -20 66.59 16.1
5 1 20 75.99 19.6
-8 2 20 9 16
-8 2 20 21.8 14.9
-7 2 20 313.67 37.5
-7 2 20 332.47 40.2
-6 2 20 45.8 15.8
-6 2 20 23.2 13.5
-5 2 20 43.7 15.5
-5 2 20 32.6 14
-4 2 20 54.79 17.1
-4 2 20 36.3 14.8
-3 2 20 96.29 21.2
-3 2 20 67.49 17.9
-2 2 20 445.36 45.4
1 -2 -20 5 2.1
-1 2 20 -9.1 5.8
0 -2 -20 118.19 11.1
0 2 20 88.29 20.2
-1 -2 -20 1.6 4.1
1 2 20 6.5 8.4
-2 -2 -20 31.5 8
2 2 20 29.2 12.6
-3 -2 -20 129.29 16.5
3 2 20 142.09 25.9
-4 -2 -20 -0.9 8.9
4 2 20 21.2 13.8
-5 -2 -20 300.97 32.2
5 2 20 366.96 40.6
-8 3 20 152.18 49.4
-8 3 20 146.49 29.9
-7 3 20 159.98 29
-7 3 20 170.08 32.4
-6 3 20 280.07 34.3
-6 3 20 211.48 36.8
-5 3 20 10.9 7
-5 3 20 -0.3 9.8
-4 3 20 177.08 30.6
-4 3 20 129.79 26.2
-3 3 20 63.39 17
-3 3 20 40.6 14.5
-2 3 20 282.87 36.6
-2 3 20 399.46 40.2
1 -3 -20 172.48 13.7
-1 3 20 224.08 29.3
-1 3 20 211.68 29.1
0 -3 -20 -7.4 3.1
0 3 20 -6.3 7.4
-1 -3 -20 105.29 12.9
1 3 20 119.89 24.7
-2 -3 -20 18.2 7
2 3 20 12.2 11.4
-3 -3 -20 326.07 28.4
3 3 20 290.07 36
-4 -3 -20 378.86 33.4
4 3 20 382.86 42.9
-8 4 20 87.69 23.9
-8 4 20 125.29 26.9
-7 4 20 -6.8 8.9
-7 4 20 -12.8 8.9
-6 4 20 135.69 29.6
-6 4 20 91.29 22.8
-5 4 20 323.27 39.9
-5 4 20 331.67 40
-4 4 20 64.39 19.5
-4 4 20 91.69 22.3
-3 4 20 187.88 31.1
-3 4 20 159.58 29.1
2 -4 -20 275.47 17.6
-2 4 20 253.77 34
-2 4 20 270.17 34
1 -4 -20 23.2 5.4
-1 4 20 32 13.7
-1 4 20 23.1 11.7
0 -4 -20 97.19 11
0 4 20 79.79 19.4
0 4 20 109.49 23.7
-1 -4 -20 25.8 7.6
1 4 20 50.19 16.7
1 4 20 11.7 8.8
-2 -4 -20 292.17 26
2 4 20 292.07 33.9
2 4 20 329.57 37.2
-3 -4 -20 34.4 10.4
3 4 20 22.3 11.8
3 4 20 42.8 15.4
-4 -4 -20 2.7 6
4 4 20 13.5 12
4 4 20 -10.4 9.3
-8 5 20 6.4 8.1
-8 5 20 1.2 14.5
-7 5 20 339.37 41.2
-7 5 20 373.26 43.6
-6 5 20 43.6 16.9
-6 5 20 27.4 13.2
-5 5 20 36.8 14.9
-5 5 20 27.1 14
-4 5 20 242.38 33.5
-3 5 20 46.8 15
-3 5 20 43.3 13.8
2 -5 -20 230.68 16.4
-2 5 20 226.68 30.6
-2 5 20 193.78 34.4
1 -5 -20 8.9 4.9
-1 5 20 14.3 9.7
-1 5 20 29.3 13.5
0 -5 -20 273.97 22.7
0 5 20 297.47 37.3
0 5 20 286.07 34
-1 -5 -20 181.28 18.4
1 5 20 167.58 27.6
1 5 20 179.58 32.1
-2 -5 -20 -0.4 6.2
2 5 20 7.7 9.9
2 5 20 7.2 10.6
-3 -5 -20 146.09 17.8
3 5 20 104.29 25.2
3 5 20 111.89 23
-7 6 20 61.29 38.5
-7 6 20 67.99 18.6
-6 6 20 337.27 39.2
-6 6 20 247.28 41.2
-5 6 20 48.5 17.8
-5 6 20 23 14
-4 6 20 64.49 19.6
-4 6 20 128.69 26.7
-3 6 20 538.05 51.39
-3 6 20 398.06 46.1
2 -6 -20 75.99 8.9
-2 6 20 97.19 21.7
-2 6 20 61.79 18.7
1 -6 -20 532.05 36.3
-1 6 20 561.14 52.09
-1 6 20 493.05 53.19
0 -6 -20 47.5 9.4
0 6 20 68.19 17.8
0 6 20 69.19 21
-1 -6 -20 57.39 11.2
1 6 20 64.59 19.4
1 6 20 54.29 16.4
-2 -6 -20 207.88 20.6
2 6 20 141.89 25.5
2 6 20 146.69 29.9
-3 -6 -20 94.89 16.1
3 6 20 89.19 19.2
3 6 20 94.99 22.5
-7 7 20 188.68 34.9
-7 7 20 195.08 37.7
-6 7 20 4.8 7.9
-6 7 20 -7.3 9
-5 7 20 189.28 35
-5 7 20 152.78 29.4
-4 7 20 47.6 18.2
-4 7 20 11.5 4.1
-4 7 20 -0.3 10.3
3 -7 -20 186.48 15
-3 7 20 179.88 33.5
-3 7 20 155.58 31.4
2 -7 -20 271.77 20.8
-2 7 20 184.18 34.2
-2 7 20 269.97 35.4
1 -7 -20 9.2 5.7
-1 7 20 -0.6 9.4
-1 7 20 -2.1 10.5
0 -7 -20 65.19 11.3
0 7 20 69.89 20.3
0 7 20 71.19 18.8
-1 -7 -20 52.59 11.1
1 7 20 44.8 16.1
1 7 20 99.99 20.9
-2 -7 -20 102.29 16.9
2 7 20 122.79 23.3
2 7 20 88.39 24.7
-7 8 20 65.79 22.3
-7 8 20 92.79 11.4
-7 8 20 46.9 20
-6 8 20 126.49 28.2
-6 8 20 104.89 9.7
-6 8 20 101.99 31.7
-5 8 20 15.4 4.6
-5 8 20 15.2 13.9
-5 8 20 18.6 12.5
-4 8 20 333.67 32.1
-4 8 20 448.76 47.8
-4 8 20 320.87 42.3
3 -8 -20 -5.6 12.4
-3 8 20 -0.1 9
-3 8 20 -5.2 5.8
-3 8 20 0.7 7.8
2 -8 -20 428.26 29.9
-2 8 20 471.95 48.6
-2 8 20 369.76 45.3
-2 8 20 377.86 31.3
1 -8 -20 166.48 16.5
-1 8 20 162.18 29.9
-1 8 20 117.09 27.2
0 -8 -20 4.7 5.8
0 8 20 6.5 10.8
0 8 20 1.7 9.3
-1 -8 -20 182.88 19.9
1 8 20 185.58 33.8
1 8 20 168.38 29.5
-2 -8 -20 75.39 13.1
2 8 20 28.1 18.5
2 8 20 49.8 15.4
-6 9 20 79.49 22.5
-6 9 20 54.79 22.6
-6 9 20 48.1 12.4
-5 9 20 215.08 38
-5 9 20 198.78 34.5
-5 9 20 247.48 47.1
-4 9 20 14.1 6.4
-4 9 20 8.7 11.6
-4 9 20 8.7 11.2
3 -9 -20 388.46 28.1
-3 9 20 356.06 45.4
-3 9 20 357.86 29.6
-3 9 20 415.36 46.7
2 -9 -20 33.8 8
-2 9 20 -1.5 13.5
-2 9 20 22.5 7.9
1 -9 -20 47.9 10.4
-1 9 20 28 12.7
-1 9 20 50.09 17.1
-1 9 20 11.8 16.7
0 -9 -20 86.29 14.2
0 9 20 78.19 22.1
0 9 20 79.49 39.4
-1 -9 -20 14.9 9.2
1 9 20 12.3 15
1 9 20 20.6 12.3
-5 10 20 46 21.4
-5 10 20 50.89 9.9
-5 10 20 69.19 23.1
-4 10 20 13.7 14.4
-4 10 20 44.8 17.6
-4 10 20 30.4 8.4
3 -10 -20 29.3 7.8
-3 10 20 31.4 8.9
-3 10 20 61.79 19.7
-3 10 20 19 12
2 -10 -20 243.58 20.8
-2 10 20 148.09 32.8
-2 10 20 225.28 36.2
-2 10 20 181.08 23
1 -10 -20 146.49 17.2
-1 10 20 141.59 20.9
-1 10 20 168.48 30.5
-1 10 20 115.89 28.1
0 -10 -20 172.58 32.9
3 -11 -20 129.29 14.9
-3 11 20 84.99 24.4
-3 11 20 112.69 30.7
-3 11 20 98.49 26.5
1 16 -21 5.4 8.6
-1 -16 21 1.3 9.5
0 16 -21 8.3 9.7
-1 16 -21 127.19 17.7
1 -16 21 131.49 24.4
-2 16 -21 7.1 9.4
2 -16 21 4.6 7.2
3 -16 21 121.89 23.7
2 15 -21 31.6 9.7
-2 -15 21 45.1 14.9
1 15 -21 2.5 6.5
-1 -15 21 2.2 10.3
0 15 -21 86.09 13.3
0 -15 21 67.79 18.2
-1 15 -21 30 9.6
1 -15 21 33.6 12
-2 15 -21 165.28 19.2
2 -15 21 224.88 26.9
3 -15 21 23.5 11.5
4 -15 21 141.09 24.7
3 14 -21 67.69 10.9
-3 -14 21 59.39 17.3
2 14 -21 67.59 10.7
-2 -14 21 101.19 26.2
1 14 -21 13.8 6.5
-1 -14 21 9.5 11.7
0 14 -21 53.29 10.4
0 -14 21 56.09 17.2
-1 14 -21 5 7.5
1 -14 21 12.9 10
-2 14 -21 50.59 45.1
2 -14 21 115.29 21.1
-3 14 -21 247.68 24.3
3 -14 21 266.27 30.8
4 -14 21 1.6 9.8
-4 -13 21 66.49 19.4
3 13 -21 20.8 6.2
-3 -13 21 25.2 22.8
-2 -13 21 133.59 25.6
1 13 -21 10.6 5.6
-1 -13 21 8.1 7.2
0 13 -21 32.3 7.9
0 -13 21 44.1 12.4
-1 13 -21 425.86 31.4
1 -13 21 440.26 43
-2 13 -21 -3.8 6.4
2 -13 21 0.6 6.9
-3 13 -21 141.89 16.9
3 -13 21 116.99 22.1
4 -13 21 278.47 31.9
5 -13 21 100.39 20
-4 -12 21 -5.5 16
3 12 -21 159.18 12.6
-3 -12 21 116.99 24.3
2 12 -21 41.4 6.4
-2 -12 21 28 12.6
1 12 -21 66.89 8.7
-1 -12 21 74.49 19.7
0 12 -21 216.38 17.9
0 -12 21 216.78 28.7
-1 12 -21 58.29 9.6
1 -12 21 50.79 13.8
-2 12 -21 459.45 33.8
-3 12 -21 155.98 21.5
3 -12 21 228.68 27.3
-4 12 -21 25.5 9
4 -12 21 38.7 13.7
5 -12 21 47.3 16.5
-5 -11 21 3.3 10.1
-4 -11 21 103.99 21.9
-3 -11 21 52.89 16.3
2 11 -21 95.79 7.7
-2 -11 21 74.39 19.8
1 11 -21 33.6 5.7
-1 -11 21 2.5 9
0 11 -21 23.8 9
0 -11 21 38.6 15
-1 11 -21 72.29 9.9
1 -11 21 32.5 13.2
-2 11 -21 -7.8 4.7
2 -11 21 3.5 8.6
-3 11 -21 121.59 15.7
3 -11 21 158.08 25.5
-4 11 -21 63.19 12.8
4 -11 21 105.69 21.6
5 -11 21 157.48 27
-5 -10 21 16.6 11.2
-4 -10 21 115.89 23.4
-3 -10 21 197.88 27.8
-2 -10 21 12 10.3
1 10 -21 246.48 16
-1 -10 21 217.18 29.7
0 10 -21 59.99 7.3
0 -10 21 49.5 15.1
-1 10 -21 643.34 42
1 -10 21 651.73 54.89
-2 10 -21 276.47 22.2
2 -10 21 291.17 31.6
-3 10 -21 9.9 6.5
3 -10 21 -2.3 7.6
-4 10 -21 279.57 26.2
4 -10 21 317.37 34.5
-5 10 -21 82.09 16.8
5 -10 21 113.59 21.9
-6 -9 21 3.4 16.6
-5 -9 21 281.47 33.5
-4 -9 21 8.5 8.6
-3 -9 21 39 14.2
-2 -9 21 97.29 21.1
-1 -9 21 0.7 7.4
0 9 -21 523.75 33.3
0 9 -21 532.45 34.2
0 -9 21 553.64 49.5
-1 9 -21 47.6 9
1 -9 21 63.79 16.3
-2 9 -21 120.99 12.5
-2 9 -21 89.89 13.7
2 -9 21 95.19 19.5
-3 9 -21 308.97 28.4
-3 9 -21 335.97 26.1
3 -9 21 315.97 34.4
-4 9 -21 -7.4 7.1
-4 9 -21 6.4 6.6
4 -9 21 18 9.2
-5 9 -21 242.58 47.8
5 -9 21 297.27 32.2
-6 9 -21 2.1 9.2
6 -9 21 15.2 9.3
-6 -8 21 263.57 34.9
-5 -8 21 5.9 9.9
-4 -8 21 361.16 40.2
-3 -8 21 13.1 9
-2 -8 21 107.79 21.9
-1 -8 21 365.06 38.4
0 8 -21 85.49 7.4
0 8 -21 86.89 7.8
0 -8 21 93.99 19.8
-1 8 -21 355.16 25.5
-1 8 -21 381.86 27
1 -8 21 399.16 38.5
-2 8 -21 288.27 24.1
-2 8 -21 286.87 22.5
2 -8 21 315.37 34.5
-3 8 -21 120.79 15
-3 8 -21 145.49 16.2
3 -8 21 125.69 23
-4 8 -21 390.46 31.5
-4 8 -21 359.36 32.6
4 -8 21 393.46 38.4
-5 8 -21 67.89 23.4
5 -8 21 95.99 19.8
6 -8 21 289.17 32.7
-6 -7 21 72.99 19.7
-5 -7 21 212.98 29.2
-4 -7 21 64.89 17.3
-3 -7 21 117.49 24.4
-2 -7 21 12.6 11.2
-1 -7 21 477.35 45.1
0 7 -21 388.06 23.4
0 7 -21 375.96 23.5
0 -7 21 454.05 41.7
-1 7 -21 -4 3.1
-1 7 -21 -1.8 3
1 -7 21 -1.5 8.5
-2 7 -21 208.08 17.6
-2 7 -21 202.28 18.8
2 -7 21 230.88 27.4
-3 7 -21 24.5 7.5
-3 7 -21 19 8
3 -7 21 -2.3 8.9
-4 7 -21 228.58 23.1
-4 7 -21 219.08 21.9
4 -7 21 187.88 26.1
-5 7 -21 243.68 32.1
5 -7 21 317.97 34.5
-6 7 -21 6.2 10.4
6 -7 21 12.4 10.1
-7 -6 21 77.59 20.1
-7 -6 21 67.19 19.4
-6 -6 21 161.08 29.8
-5 -6 21 170.48 29.2
-4 -6 21 299.47 34.7
-3 -6 21 214.48 28.5
-2 -6 21 566.54 51.29
-1 -6 21 118.69 22.5
0 -6 21 71.39 18.4
-1 6 -21 126.79 11.1
-1 6 -21 135.19 12.1
1 -6 21 116.49 22.8
-2 6 -21 11.4 4.5
-2 6 -21 12.9 5.4
2 -6 21 4.1 6.1
-3 6 -21 220.18 20.8
-3 6 -21 231.38 21.5
3 -6 21 232.88 29.7
-4 6 -21 139.69 19.9
-4 6 -21 132.49 16.6
4 -6 21 145.69 25.5
-5 6 -21 50.59 22.9
5 -6 21 49.1 16.9
-6 6 -21 108.79 18.9
6 -6 21 127.89 23.4
-7 -5 21 -6.1 8
-7 -5 21 6.7 8.1
-6 -5 21 77.19 18.7
-5 -5 21 1.5 7.5
-4 -5 21 87.69 21
-3 -5 21 150.28 25.9
-2 -5 21 172.28 28.3
-1 -5 21 554.14 50.79
0 -5 21 89.29 19.1
-1 5 -21 132.99 11.1
-1 5 -21 128.49 12
1 -5 21 152.88 25.8
-2 5 -21 36.6 7.1
-2 5 -21 30.7 7.4
2 -5 21 39 13.2
-3 5 -21 -7.8 4.7
-3 5 -21 8.3 6.2
3 -5 21 -8.3 7
-4 5 -21 149.39 19.1
4 -5 21 146.49 25.9
5 -5 21 17.3 12.7
-6 5 -21 -0.5 9.6
6 -5 21 2.6 12.4
-7 -4 21 28.4 14.9
-7 -4 21 23.5 13.4
-6 -4 21 76.39 19.7
-6 -4 21 57.39 17.7
-5 -4 21 102.09 22.3
-4 -4 21 39.2 14.7
-3 -4 21 206.28 27.4
-2 -4 21 283.77 33.5
-1 -4 21 21.9 12.5
0 -4 21 220.38 28.7
-1 4 -21 206.48 15.1
-1 4 -21 192.48 15.6
1 -4 21 193.38 27
-2 4 -21 300.07 24
-2 4 -21 303.07 24.6
2 -4 21 376.26 37.2
-3 4 -21 136.39 15.5
3 -4 21 103.49 21.4
-4 4 -21 19.1 9.1
4 -4 21 27.4 12.6
-5 4 -21 46.6 12.3
5 -4 21 60.39 18.9
-7 -3 21 20.9 14.6
-7 -3 21 10.3 9.1
-6 -3 21 52.59 15.8
-6 -3 21 48.4 15.6
-5 -3 21 189.38 27
-4 -3 21 -0.6 7.2
-3 -3 21 22.1 10.2
-2 -3 21 39.4 13.9
-1 -3 21 150.88 26.4
0 -3 21 32.5 11.7
-1 3 -21 73.89 8.8
-1 3 -21 89.09 9.4
1 -3 21 112.89 22
-2 3 -21 43.4 8.6
2 -3 21 44.2 15.9
-3 3 -21 38.7 9.2
3 -3 21 11.6 9.1
-4 3 -21 68.09 13.6
4 -3 21 83.19 18.3
-5 3 -21 6.3 8.8
5 -3 21 -6.8 9.2
-7 -2 21 3.5 7.9
-7 -2 21 6.2 10.1
-6 -2 21 34.2 12.4
-6 -2 21 10.8 9.3
-5 -2 21 92.89 22
-5 -2 21 102.49 23
-4 -2 21 51.79 16.1
-3 -2 21 337.67 37
-2 -2 21 -6.7 6.5
-1 -2 21 -7 7.2
0 2 -21 348.87 20.8
0 2 -21 352.06 20.8
0 -2 21 356.16 38.2
-1 2 -21 74.39 9
1 -2 21 89.29 20.5
-2 2 -21 44.8 8.7
2 -2 21 51.89 15
-3 2 -21 56.29 11.2
3 -2 21 38.7 14.7
-4 2 -21 78.59 14.8
4 -2 21 94.49 21.8
-5 2 -21 46.1 13.3
5 -2 21 60.89 16
-7 -1 21 21.4 12.3
-7 -1 21 24.9 12.6
-6 -1 21 28.8 15.4
-6 -1 21 19.5 11.8
-5 -1 21 94.89 20.9
-5 -1 21 47.1 17
-4 -1 21 137.59 26.9
-3 -1 21 36.5 12.5
-2 -1 21 29 12.9
-1 -1 21 469.35 46.7
0 1 -21 217.48 14.5
0 1 -21 222.58 14.5
0 -1 21 208.98 32.8
-1 1 -21 495.45 34.2
1 -1 21 540.55 49.6
-2 1 -21 73.29 10.9
2 -1 21 51.99 16
-3 1 -21 92.89 14.2
3 -1 21 62.69 17.1
-4 1 -21 12.1 7
4 -1 21 18.7 11.7
5 -1 21 149.79 26.6
-7 0 21 8.4 9.6
-7 0 21 1.2 12.8
-6 0 21 203.38 34.2
-6 0 21 236.28 31.8
-5 0 21 1.7 8.3
-5 0 21 2.4 9.4
-4 0 21 10.7 10.8
-4 0 21 11.4 7.5
-3 0 21 91.59 20.7
-2 0 21 10.2 10.2
-1 0 21 129.29 25.1
0 0 -21 72.49 7.1
0 0 21 66.89 19.1
-1 0 -21 66.49 9.5
1 0 21 71.19 18.1
-2 0 -21 154.38 15.8
2 0 21 158.68 27.6
-3 0 -21 2.7 5.9
3 0 21 32.4 11.5
-4 0 -21 159.78 19.4
4 0 21 102.69 22.5
-5 0 -21 30.3 11.6
5 0 21 -3.9 11.9
-7 1 21 163.18 32.4
-7 1 21 158.88 28.6
-6 1 21 21.2 11.5
-6 1 21 8.8 10.4
-5 1 21 135.69 28
-5 1 21 182.88 31.3
-4 1 21 109.29 23.2
-4 1 21 87.79 21.7
-3 1 21 55.09 18
-3 1 21 41.9 14.2
-2 1 21 242.68 31.2
-1 1 21 -1.2 6.3
0 -1 -21 208.18 15.8
0 1 21 240.68 30.9
-1 -1 -21 25.1 6.6
1 1 21 12.7 10.3
-2 -1 -21 65.79 12
2 1 21 84.19 20.6
-3 -1 -21 45.3 10.4
3 1 21 36.7 14.7
4 1 21 137.79 26.2
-7 2 21 -8 8.2
-7 2 21 15 8.9
-6 2 21 115.09 26.9
-6 2 21 146.69 28.7
-5 2 21 10.5 11.2
-5 2 21 3.7 6.7
-4 2 21 215.08 31.4
-4 2 21 303.07 36.7
-3 2 21 2.6 9.5
-3 2 21 -2.8 6.1
-2 2 21 108.89 23.7
-2 2 21 85.79 22.4
1 -2 -21 227.08 14.2
-1 2 21 215.88 35.5
0 -2 -21 115.29 10.9
0 2 21 84.49 21
-1 -2 -21 59.79 9.6
1 2 21 53.79 18.5
-2 -2 -21 2.9 5.9
2 2 21 -1.8 9.4
-3 -2 -21 179.98 21
3 2 21 238.58 31.7
-4 -2 -21 38.5 10.9
4 2 21 17.7 13.5
-7 3 21 17.5 10.6
-6 3 21 35.7 16.7
-6 3 21 44 16.4
-5 3 21 387.96 43.7
-5 3 21 394.26 45.1
-4 3 21 9.4 9.5
-4 3 21 9.6 11.1
-3 3 21 300.77 36
-3 3 21 243.18 32.9
-2 3 21 26.4 14.1
-2 3 21 20.2 11.8
1 -3 -21 23.2 4
-1 3 21 22.2 13
-1 3 21 2.6 9.7
0 -3 -21 147.19 13.8
0 3 21 156.28 30.2
-1 -3 -21 10.8 5.6
1 3 21 20.7 13.2
-2 -3 -21 43.1 9.6
2 3 21 49.99 17.1
-3 -3 -21 37.6 10.8
3 3 21 58.79 17.2
-4 -3 -21 89.79 15.9
-7 4 21 136.69 29.3
-7 4 21 202.18 33.6
-6 4 21 0.6 8.3
-6 4 21 -3 11.6
-5 4 21 2.5 9.7
-5 4 21 -7.9 5.9
-4 4 21 184.08 33.6
-4 4 21 260.27 33.8
-3 4 21 3.6 12.7
-3 4 21 12.9 11.1
-2 4 21 199.48 35
-2 4 21 250.97 32.4
1 -4 -21 23.8 5.3
-1 4 21 36.2 14.3
-1 4 21 42.2 15.6
0 -4 -21 139.59 13.9
0 4 21 129.69 25.4
0 4 21 128.49 27.2
-1 -4 -21 75.09 11.8
1 4 21 90.19 22.7
1 4 21 81.19 19.3
-2 -4 -21 -0.3 5.7
2 4 21 -8.4 6.8
-3 -4 -21 116.69 27.2
3 4 21 113.89 25.1
3 4 21 128.59 24
-7 5 21 24.3 15.4
-7 5 21 17.3 11.4
-6 5 21 228.28 38
-6 5 21 255.97 47.9
-5 5 21 3.9 10.9
-5 5 21 5.4 8.3
-4 5 21 19.2 11.2
-4 5 21 32.2 14.8
-3 5 21 48.3 16.7
-3 5 21 101.49 23.7
2 -5 -21 5.2 2.9
-2 5 21 18.5 11.7
-2 5 21 13.2 11.6
1 -5 -21 314.17 23.4
-1 5 21 335.97 38.1
-1 5 21 358.76 40.9
0 -5 -21 307.97 24.6
0 5 21 325.67 37.3
0 5 21 324.97 40.2
-1 -5 -21 45.8 9.2
1 5 21 40.2 16.5
1 5 21 43.8 14
-2 -5 -21 -9.5 6
2 5 21 11.5 10.3
2 5 21 32.3 14.6
-3 -5 -21 27.5 10.2
-6 6 21 19 13.2
-6 6 21 13.6 15.2
-5 6 21 446.76 48.2
-5 6 21 354.96 44.8
-4 6 21 -6.4 8.9
-4 6 21 17.1 10
-3 6 21 62.29 20
-3 6 21 46.9 14.8
2 -6 -21 193.78 15.2
-2 6 21 198.18 34.2
-2 6 21 183.48 33.2
1 -6 -21 2.6 4.7
-1 6 21 -11.5 9.3
-1 6 21 9.7 8.9
0 -6 -21 83.19 12.2
0 6 21 80.29 21.8
0 6 21 82.59 20.2
-1 -6 -21 -6.5 5.3
1 6 21 8.4 13.6
1 6 21 9.6 11
-2 -6 -21 141.69 18.4
2 6 21 167.88 31.1
2 6 21 151.38 25.8
-6 7 21 200.88 42.1
-6 7 21 283.37 39.1
-5 7 21 44.5 14.6
-5 7 21 -21.1 26.7
-4 7 21 132.19 28.8
-4 7 21 109.59 25.3
-3 7 21 22.6 13
-3 7 21 -2.4 11.5
-2 7 21 -18.9 8.4
-2 7 21 10.2 9.9
1 -7 -21 254.17 22.1
-1 7 21 292.67 35
-1 7 21 317.87 39.8
0 -7 -21 1.6 5.7
0 7 21 -11.7 9.3
0 7 21 6.8 13.3
-1 -7 -21 270.87 24.9
-5 8 21 100.19 33.7
-5 8 21 124.59 29.8
-4 8 21 39.5 17.3
3 -8 -21 134.69 18
-3 8 21 275.47 102.89
-3 8 21 153.38 30.4
2 -8 -21 -1.5 4.7
-2 8 21 -45.4 40.9
-2 8 21 -8.7 7.3
1 -8 -21 10.2 6.7
-1 8 21 6.2 10
-1 8 21 15.3 15.3
0 -8 -21 218.78 20.7
0 8 21 161.38 31.7
0 8 21 183.08 31.8
-4 9 21 51.49 18.4
-4 9 21 62.49 10.2
-4 9 21 43.4 21.6
3 -9 -21 67.49 10.2
-3 9 21 66.49 20.3
-3 9 21 64.79 22.1
-3 9 21 40.6 10.1
2 -9 -21 96.69 12.8
-2 9 21 86.29 14.3
-2 9 21 85.09 25.6
-2 9 21 121.19 26
1 -9 -21 21.4 8.4
-1 9 21 37.6 16.8
-1 9 21 21.1 16.8
1 15 -22 7.6 7.7
-1 -15 22 -2.3 8.6
0 15 -22 205.08 19.8
0 -15 22 206.78 34.3
-1 15 -22 67.59 12.7
1 -15 22 68.69 18.6
-2 15 -22 99.39 14.9
2 -15 22 116.89 23.2
2 14 -22 11.2 9.7
-2 -14 22 3.8 8
1 14 -22 43.6 9.1
-1 -14 22 48.9 18.1
0 14 -22 2.8 5.9
0 -14 22 -1.3 8.4
-1 14 -22 84.59 13
1 -14 22 125.29 23.6
-2 14 -22 7.2 12.6
2 -14 22 0 8.6
-3 14 -22 131.59 17.7
3 -14 22 129.49 23.6
-3 -13 22 42.8 13.4
2 13 -22 14.8 5.2
-2 -13 22 1.6 17.4
-1 -13 22 176.58 30.4
0 13 -22 119.59 13.7
0 -13 22 182.98 29.4
-1 13 -22 -10.9 5.3
1 -13 22 0.3 8.4
-2 13 -22 81.79 12.5
2 -13 22 81.99 18.5
-3 13 -22 18.6 9.7
3 -13 22 8.9 9.4
4 -13 22 106.39 21.5
-4 -12 22 87.19 21.9
-3 -12 22 4.7 11.8
2 12 -22 355.06 22.8
-2 -12 22 429.26 43
1 12 -22 164.88 13.7
-1 -12 22 136.39 25.8
0 12 -22 26.3 21.6
0 -12 22 16.8 10.9
-1 12 -22 35.2 7.8
1 -12 22 37.6 14.1
-2 12 -22 4 6.4
2 -12 22 10.4 9.3
-3 12 -22 250.47 23.3
3 -12 22 218.88 29.1
4 -12 22 9.8 10.2
-4 -11 22 36.9 15.9
-3 -11 22 196.78 28
-2 -11 22 3.6 8
1 11 -22 62.99 6.4
-1 -11 22 99.69 21.3
0 11 -22 27.5 6.1
0 -11 22 19.4 11.3
-1 11 -22 188.28 16.6
1 -11 22 182.88 29.5
-2 11 -22 77.69 11.2
2 -11 22 47.1 15.8
-3 11 -22 40 9.9
3 -11 22 57.89 16.4
-4 11 -22 283.17 26.2
4 -11 22 289.37 33.1
-5 -10 22 189.88 31.7
-4 -10 22 14.1 16.3
-3 -10 22 58.19 17.5
-2 -10 22 341.67 38.2
-1 -10 22 3.5 7.4
0 10 -22 195.18 14.6
0 10 -22 177.38 13.9
0 -10 22 167.28 28.4
-1 10 -22 24.9 6.2
-1 10 -22 -0.6 4.2
1 -10 22 0.5 7.8
-2 10 -22 160.58 17.8
-2 10 -22 168.98 16
2 -10 22 161.38 27.2
-3 10 -22 202.68 20.9
-3 10 -22 178.08 18.4
3 -10 22 189.98 30.1
-4 10 -22 6.5 8.4
-4 10 -22 -21.9 7.3
4 -10 22 -1.3 7.8
-5 10 -22 45.9 13.5
5 -10 22 59.19 17.1
-5 -9 22 -3.4 11
-4 -9 22 140.59 27.6
-3 -9 22 76.89 18.6
-2 -9 22 152.58 26.8
-1 -9 22 61.79 19
0 9 -22 126.79 9.7
0 9 -22 124.99 9.6
0 -9 22 111.49 22.8
-1 9 -22 74.29 9.8
-1 9 -22 60.89 9.8
1 -9 22 96.39 19.6
-2 9 -22 55.59 10.3
-2 9 -22 62.09 9.5
2 -9 22 57.99 15.7
-3 9 -22 198.68 20.4
-3 9 -22 202.68 19.2
3 -9 22 164.98 28.1
-4 9 -22 60.59 14.4
-4 9 -22 69.69 13
4 -9 22 77.39 18.9
-5 9 -22 4.3 9.1
5 -9 22 0.5 8.3
-5 -8 22 115.29 24.6
-4 -8 22 8 8.2
-3 -8 22 604.74 56.09
-2 -8 22 116.39 24.2
-1 -8 22 110.19 23.1
0 -8 22 247.48 30.9
-1 8 -22 8.3 3.7
-1 8 -22 3.3 3.8
1 -8 22 15.6 10.4
-2 8 -22 352.56 25.4
-2 8 -22 325.87 26.8
2 -8 22 339.47 36.8
-3 8 -22 183.58 19.6
-3 8 -22 172.28 17.5
3 -8 22 200.68 26
-4 8 -22 77.39 13.4
-4 8 -22 60.89 13.3
4 -8 22 72.99 19.2
-5 8 -22 125.89 20
5 -8 22 182.78 25.5
-6 -7 22 80.69 23.9
-5 -7 22 17.3 12.9
-4 -7 22 218.48 29.4
-3 -7 22 4.6 8.1
-2 -7 22 180.88 25.6
-1 -7 22 21.7 12.7
0 -7 22 286.87 34.1
-1 7 -22 376.36 25.8
-1 7 -22 362.16 24.9
1 -7 22 400.76 39.7
-2 7 -22 -0.3 5
-2 7 -22 3.7 5.1
2 -7 22 4.1 8.2
-3 7 -22 334.87 27.4
-3 7 -22 345.57 29
3 -7 22 373.66 38
-4 7 -22 103.29 17.3
-4 7 -22 107.49 17
4 -7 22 99.29 21.1
-5 7 -22 287.17 29.3
5 -7 22 279.37 33.5
-6 -6 22 194.38 33.7
-5 -6 22 6.9 8.7
-4 -6 22 -2.3 9.5
-3 -6 22 222.18 30.7
-2 -6 22 26 11.5
-1 -6 22 716.83 62.29
0 -6 22 309.27 35.3
-1 6 -22 216.18 15.9
-1 6 -22 186.88 14.7
1 -6 22 204.78 27.3
-2 6 -22 124.69 13.7
-2 6 -22 119.99 12.8
2 -6 22 120.29 23.7
-3 6 -22 16.9 7
-3 6 -22 -1.6 5.1
3 -6 22 10.4 10.6
-4 6 -22 63.39 13.4
-4 6 -22 81.39 14.1
4 -6 22 73.89 18.9
-5 6 -22 190.38 24.2
5 -6 22 236.78 28.6
-6 -5 22 87.69 21.3
-6 -5 22 112.99 24.5
-5 -5 22 167.98 29
-4 -5 22 19.3 10.4
-3 -5 22 175.08 30.3
-2 -5 22 67.79 18
-1 -5 22 -11.1 6.7
0 -5 22 448.46 44.6
-1 5 -22 16.5 4.2
-1 5 -22 12.3 4
1 -5 22 20 11.2
-2 5 -22 18.5 6.7
-2 5 -22 9.9 5.9
2 -5 22 30.1 13.2
-3 5 -22 232.48 21.7
-3 5 -22 249.18 23
3 -5 22 231.78 30.2
-4 5 -22 -1.1 6.7
4 -5 22 2.7 8.6
-5 5 -22 230.18 24.4
5 -5 22 225.28 30.5
-6 -4 22 122.89 26.5
-6 -4 22 101.29 23.5
-5 -4 22 58.19 16.1
-4 -4 22 278.87 35.3
-3 -4 22 39.7 13.9
-2 -4 22 -0.7 5
-1 -4 22 263.07 32.1
0 -4 22 -4.2 7.7
-1 4 -22 314.27 22
-1 4 -22 333.87 22.8
1 -4 22 361.66 38.5
-2 4 -22 108.59 12.2
-2 4 -22 94.89 12.1
2 -4 22 99.69 21.6
-3 4 -22 4.7 5.8
3 -4 22 -14.5 5.5
-4 4 -22 83.49 14.8
4 -4 22 75.19 18.3
-5 4 -22 20.6 11
5 -4 22 16.9 13.8
-7 -3 22 1.6 12.7
-7 -3 22 18.2 24.5
-6 -3 22 74.39 18.3
-6 -3 22 116.39 23.9
-5 -3 22 108.79 24.2
-4 -3 22 47.6 16.7
-3 -3 22 169.98 28.8
-2 -3 22 11.7 8.3
-1 -3 22 25.6 11.5
0 -3 22 92.89 21.9
-1 3 -22 12 4
-1 3 -22 10.8 4.1
1 -3 22 -0.9 8.7
-2 3 -22 67.99 10.3
2 -3 22 44.4 14.5
-3 3 -22 149.88 16.8
3 -3 22 136.89 26.9
-4 3 -22 149.99 20.3
4 -3 22 201.38 27.6
-7 -2 22 69.79 20.8
-6 -2 22 19.4 11.4
-6 -2 22 1.3 10.9
-5 -2 22 80.09 20.7
-5 -2 22 124.39 24.1
-4 -2 22 280.47 34.7
-3 -2 22 3.2 7.9
-2 -2 22 281.87 33.4
-1 -2 22 50.89 15.4
0 -2 22 129.59 25.2
-1 2 -22 11.8 4.5
-1 2 -22 14.6 4.7
1 -2 22 25.2 12.2
-2 2 -22 18.9 6.6
2 -2 22 38.5 14.3
-3 2 -22 173.98 18.3
3 -2 22 154.08 28.4
-4 2 -22 102.09 16.5
4 -2 22 96.49 22.4
-7 -1 22 2.5 14.6
-6 -1 22 74.19 19.1
-6 -1 22 100.79 25
-5 -1 22 16.3 9.1
-5 -1 22 3.4 9.5
-4 -1 22 -4 4.6
-3 -1 22 401.36 43.6
-2 -1 22 6.9 8.1
-1 -1 22 412.86 43.3
0 -1 22 14.6 12.5
-1 1 -22 6.8 4.2
1 -1 22 22.6 11.1
-2 1 -22 283.37 23.3
2 -1 22 264.07 33
-3 1 -22 8.1 6.8
3 -1 22 -5.2 9.1
-4 1 -22 29.5 11.6
4 -1 22 38.9 13.8
-7 0 22 -20.8 10.7
-7 0 22 -3.6 10.7
-6 0 22 -3.5 11.6
-6 0 22 40 15.3
-5 0 22 83.19 20.4
-5 0 22 73.99 20.7
-4 0 22 44.1 13.5
-4 0 22 25.8 13.5
-3 0 22 126.49 25.2
-2 0 22 449.56 46.4
-1 0 22 10.5 11
0 0 -22 162.88 11.5
0 0 22 159.68 29.7
-1 0 -22 21.2 5.2
1 0 22 8.1 11.5
-2 0 -22 0.9 5.2
2 0 22 15.5 12.8
-3 0 -22 181.38 19.1
3 0 22 131.99 26.7
-4 0 -22 15.4 15.6
4 0 22 5 13.2
-7 1 22 -11.4 10.7
-7 1 22 14.5 13.1
-6 1 22 50.89 17.1
-6 1 22 47.6 16.1
-5 1 22 -10.4 6.9
-5 1 22 -5.2 8.4
-4 1 22 339.67 41.6
-4 1 22 330.97 38.7
-3 1 22 131.79 25.5
-3 1 22 97.69 23.3
-2 1 22 59.89 18.5
-1 1 22 145.19 28.9
0 -1 -22 19.3 4
0 1 22 16 10.9
-1 -1 -22 304.87 24.4
1 1 22 284.47 35.8
-2 -1 -22 65.49 11.2
2 1 22 83.49 19.8
-3 -1 -22 14.3 7.2
3 1 22 18.2 11.8
-7 2 22 26.6 13.7
-7 2 22 -18.7 12.9
-6 2 22 161.28 48.6
-6 2 22 144.79 30
-5 2 22 27.2 14.5
-5 2 22 20.9 11.7
-4 2 22 8.5 9.2
-4 2 22 6.1 8
-3 2 22 479.25 48.6
-3 2 22 377.56 44.7
-2 2 22 45.3 15.4
-2 2 22 26.1 13
-1 2 22 30.3 13.7
0 -2 -22 265.27 18.7
0 2 22 222.08 31.7
-1 -2 -22 12.1 5.5
1 2 22 19.3 12
-2 -2 -22 48.7 10.6
2 2 22 71.09 18.7
-3 -2 -22 14 8.4
3 2 22 24.3 13
-6 3 22 63.19 23.2
-6 3 22 43.4 18.3
-5 3 22 186.38 34.5
-5 3 22 198.08 34.2
-4 3 22 176.78 32.4
-4 3 22 236.78 32.8
-3 3 22 5.7 10.8
-3 3 22 18.7 10.7
-2 3 22 299.47 36.3
-2 3 22 191.28 33.8
1 -3 -22 3.4 2.4
-1 3 22 2.2 7.9
-1 3 22 4.7 8.6
0 -3 -22 245.68 19.2
0 3 22 279.07 35
0 3 22 258.77 32.6
-1 -3 -22 194.48 17.4
1 3 22 144.49 28.4
-2 -3 -22 1.3 5.7
2 3 22 3.6 11.3
-3 -3 -22 18.6 8.9
-6 4 22 106.19 29.8
-6 4 22 297.67 51.49
-5 4 22 -3.9 7.1
-5 4 22 1.2 6.1
-4 4 22 199.38 33.7
-4 4 22 102.59 23.5
-3 4 22 141.99 29.6
-3 4 22 203.38 34.7
-2 4 22 18 13.1
-2 4 22 15 8.2
1 -4 -22 412.96 27.7
-1 4 22 556.74 49.99
-1 4 22 388.26 45.6
0 -4 -22 159.68 15.4
0 4 22 177.48 29.9
0 4 22 228.98 30.9
-1 -4 -22 38.8 9
1 4 22 37.6 14.4
1 4 22 28.6 15.2
-2 -4 -22 72.09 13.2
2 4 22 71.79 19.9
2 4 22 62.29 18.3
-6 5 22 15.4 18.1
-6 5 22 13 15.6
-5 5 22 318.77 43.1
-5 5 22 321.97 43.4
-4 5 22 93.39 23.4
-4 5 22 144.39 29.7
-3 5 22 210.08 36.9
-3 5 22 209.28 35.5
-2 5 22 33.8 14.6
-2 5 22 18.9 10.3
1 -5 -22 -5.9 3.5
-1 5 22 11.4 12.1
-1 5 22 -10 11
0 -5 -22 59.89 9.7
0 5 22 34.3 16.3
0 5 22 62.69 19.6
-1 -5 -22 96.49 12.1
1 5 22 39.5 15.6
1 5 22 66.89 21.2
-5 6 22 132.99 29.7
-4 6 22 340.47 73.89
-4 6 22 168.88 44.9
-3 6 22 12 48.8
-3 6 22 16.9 13.6
2 -6 -22 193.88 14.2
-2 6 22 133.39 27.8
-2 6 22 127.49 44.9
1 -6 -22 118.19 12.2
-1 6 22 130.59 26.7
0 -6 -22 -4.1 5.3
0 6 22 23.5 13.5
0 6 22 1.3 11.5
-1 -6 -22 203.38 20.9
-4 7 22 22 13.6
-4 7 22 -0.1 12.4
-3 7 22 453.25 54.29
2 -7 -22 30.1 6.6
-2 7 22 37.5 14.7
-2 7 22 18.8 13.4
1 -7 -22 59.79 9.6
-1 7 22 64.69 19.2
-1 7 22 42.6 18.6
1 13 -23 72.89 8.8
-1 -13 23 96.09 21.1
0 13 -23 15 6.6
-1 13 -23 61.59 10.5
1 -13 23 63.19 17.6
-2 13 -23 21.3 8.6
2 -13 23 8.6 8.7
-2 -12 23 33.7 13.2
1 12 -23 191.18 13
-1 -12 23 212.18 48.7
0 12 -23 8.7 5.2
0 -12 23 21.2 11.5
-1 12 -23 21.8 7.1
1 -12 23 29.4 11.8
-2 12 -23 14.3 7.8
2 -12 23 20.1 10.7
-3 12 -23 9.8 8
3 -12 23 17.1 11
-3 -11 23 38.4 15.5
-2 -11 23 328.47 78.09
-1 -11 23 10.8 9.6
0 11 -23 143.89 12
0 11 -23 130.79 11.6
0 -11 23 164.88 28.9
-1 11 -23 68.79 9.4
-1 11 -23 80.39 17
1 -11 23 50.19 14.7
-2 11 -23 17.6 6.6
-2 11 -23 -2.5 7.1
2 -11 23 43.1 14.1
-3 11 -23 28.5 10
-3 11 -23 16 9.7
3 -11 23 47.3 14.3
-4 -10 23 100.39 22.6
-3 -10 23 58.09 17.8
-2 -10 23 86.09 20.7
-1 -10 23 158.78 28.4
0 10 -23 5 2.7
0 10 -23 3.1 2.5
0 -10 23 5.3 9.2
-1 10 -23 5.5 4.9
-1 10 -23 -1 13.7
1 -10 23 11.6 8.6
-2 10 -23 192.08 18.3
-2 10 -23 158.58 16.6
2 -10 23 213.38 27.2
-3 10 -23 135.09 16.5
-3 10 -23 164.88 18.3
3 -10 23 107.19 23.6
-4 10 -23 200.08 22.1
-4 -9 23 9.4 10.5
-3 -9 23 60.99 17.5
-2 -9 23 74.49 17.7
-1 -9 23 8.4 9.3
0 -9 23 504.45 49.3
-1 9 -23 4 4
-1 9 -23 2.2 3.7
1 -9 23 10.4 8.8
-2 9 -23 208.88 18.6
-2 9 -23 208.28 19.8
2 -9 23 264.67 29.9
-3 9 -23 -9 7.2
-3 9 -23 23.8 8.5
3 -9 23 11.7 10.4
-4 9 -23 34.9 11.1
-4 9 -23 16.3 10.6
4 -9 23 41.4 15.8
-5 -8 23 48.8 17.6
-4 -8 23 76.79 38.8
-3 -8 23 54.19 15.7
-2 -8 23 221.98 29.7
-1 -8 23 165.28 28.9
0 -8 23 -3.1 8.6
-1 8 -23 111.89 10.1
-1 8 -23 98.89 10.3
1 -8 23 106.19 23.1
-2 8 -23 11.3 5.6
-2 8 -23 5.2 5.7
2 -8 23 8.4 9
-3 8 -23 202.48 19.5
-3 8 -23 203.48 21.1
3 -8 23 190.98 30.8
-4 8 -23 129.19 18.2
-4 8 -23 110.29 18.9
4 -8 23 124.29 24.4
-5 -7 23 74.39 18.9
-4 -7 23 49.2 14.6
-3 -7 23 230.08 32.5
-2 -7 23 131.49 24.9
-1 -7 23 373.56 40.9
0 -7 23 75.39 19.1
-1 7 -23 24.1 4.8
-1 7 -23 32.7 5.2
1 -7 23 14.4 11.6
-2 7 -23 225.18 19.2
-2 7 -23 189.78 16.9
2 -7 23 186.18 26.6
-3 7 -23 4.8 7.8
-3 7 -23 4.8 7.6
3 -7 23 5 10.3
-4 7 -23 73.49 14.2
-4 7 -23 63.29 14
4 -7 23 71.49 19.8
-5 -6 23 161.78 37.9
-4 -6 23 182.78 31.4
-3 -6 23 269.47 35.4
-2 -6 23 566.74 54.29
-1 -6 23 16.4 11.3
0 -6 23 312.57 35.2
-1 6 -23 83.49 8
-1 6 -23 79.99 8.1
1 -6 23 68.29 18
-2 6 -23 60.09 9.3
-2 6 -23 69.09 13.3
2 -6 23 57.79 16.8
-3 6 -23 414.46 33.7
-3 6 -23 452.35 32.9
3 -6 23 428.56 43.8
-4 6 -23 14.3 10.7
-4 6 -23 14.6 8.9
4 -6 23 20.1 13.2
-5 -5 23 39.6 25.8
-4 -5 23 124.79 25.9
-3 -5 23 59.59 18.5
-2 -5 23 36.3 15.5
-1 -5 23 261.17 32.2
0 -5 23 10.8 9.7
-1 5 -23 496.45 30.7
-1 5 -23 469.95 30.8
1 -5 23 525.85 49.7
-2 5 -23 191.88 18
-2 5 -23 155.78 15
2 -5 23 142.49 26.2
-3 5 -23 104.69 15.6
-3 5 -23 122.39 15.6
3 -5 23 88.49 21.6
-4 5 -23 84.99 16.1
4 -5 23 116.19 23.6
-6 -4 23 21.5 14.4
-6 -4 23 15.6 14.8
-5 -4 23 111.89 24.5
-4 -4 23 -2 7.7
-3 -4 23 193.48 27
-2 -4 23 56.59 16.6
-1 -4 23 174.88 30
0 -4 23 303.87 36
-1 4 -23 59.79 7
-1 4 -23 65.49 7.1
1 -4 23 73.39 18.4
-2 4 -23 292.57 23.4
-2 4 -23 307.17 23.8
2 -4 23 322.07 36.7
-3 4 -23 23.6 8.2
-3 4 -23 3.4 7.2
3 -4 23 10.6 12.6
-4 4 -23 111.59 17.6
4 -4 23 110.39 23.2
-6 -3 23 68.59 22.6
-6 -3 23 124.59 26.3
-5 -3 23 64.89 18.7
-5 -3 23 46.6 17.6
-4 -3 23 53.49 16.5
-3 -3 23 12.8 8
-2 -3 23 72.99 19.7
-1 -3 23 138.49 27.3
0 -3 23 17.4 10.6
-1 3 -23 274.27 19.1
-1 3 -23 265.97 18.8
1 -3 23 290.47 34.1
-2 3 -23 -1.9 4.6
-2 3 -23 10.2 6.2
2 -3 23 -9.8 10.2
-3 3 -23 367.26 30.2
3 -3 23 350.26 40.5
-6 -2 23 37.2 17.7
-6 -2 23 73.89 21.1
-5 -2 23 79.79 23.2
-5 -2 23 67.19 18.1
-4 -2 23 48.6 16.3
-3 -2 23 92.69 20.7
-2 -2 23 -9.7 7.8
-1 -2 23 38.9 16.2
0 -2 23 91.09 21.7
-1 2 -23 15.4 4.8
1 -2 23 15.1 8.8
-2 2 -23 153.88 15.1
2 -2 23 124.69 26
-3 2 -23 20.9 8.7
3 -2 23 37.3 15.4
-6 -1 23 -20.3 10.4
-6 -1 23 2 9.9
-5 -1 23 97.79 24.2
-5 -1 23 121.79 26.5
-4 -1 23 41.1 15.8
-4 -1 23 36.2 16.3
-3 -1 23 140.09 27
-2 -1 23 85.89 21.5
-1 -1 23 12.2 10.9
0 -1 23 63.19 17.1
-1 1 -23 46.1 7.3
1 -1 23 69.29 17.9
-2 1 -23 144.19 15
2 -1 23 149.79 27.8
3 -1 23 53.09 19.3
-6 0 23 152.78 31.1
-6 0 23 162.58 30.3
-5 0 23 44.9 30.2
-4 0 23 55.39 18.9
-4 0 23 25.5 15.3
-3 0 23 46.2 15.9
-2 0 23 29.9 14
-1 0 23 262.07 34.3
0 0 23 85.49 20.8
-1 0 -23 395.56 28.1
1 0 23 439.56 44.4
-2 0 -23 18.3 6.3
2 0 23 -14.4 9.6
-3 0 -23 28.4 9.3
3 0 23 66.29 17.9
-6 1 23 181.98 33.2
-6 1 23 151.18 31
-5 1 23 98.59 29.1
-5 1 23 32.5 22.9
-4 1 23 -9.6 9.6
-4 1 23 -10.2 9.4
-3 1 23 151.48 29.2
-3 1 23 145.29 29.5
-2 1 23 153.38 28.8
-1 1 23 -5.5 7.6
0 -1 -23 325.57 20.9
0 1 23 319.87 38.1
-1 -1 -23 -1 18.5
1 1 23 26.8 13.8
-2 -1 -23 209.58 20.1
2 1 23 233.48 32.4
-5 2 23 17.9 22.6
-5 2 23 42.9 14.6
-4 2 23 233.68 39.9
-4 2 23 220.18 31.4
-3 2 23 -18.7 8.8
-3 2 23 -13.2 4.8
-2 2 23 92.59 22.9
-2 2 23 106.99 24.7
-1 2 23 116.39 24
-1 2 23 114.99 25.6
0 -2 -23 4.7 3.3
0 2 23 -18 9.4
-1 -2 -23 147.49 15
1 2 23 179.08 30.7
-2 -2 -23 35.1 9
2 2 23 33.5 15.2
-5 3 23 0.7 9.3
-5 3 23 16.9 10.4
-4 3 23 51.29 25.9
-3 3 23 55.39 19.9
-3 3 23 78.89 21.3
-2 3 23 1.4 10.1
-2 3 23 9.4 7.3
-1 3 23 145.99 29.8
-1 3 23 159.48 29.3
0 -3 -23 87.09 9.7
0 3 23 118.59 24.2
0 3 23 96.59 24
-1 -3 -23 10.5 6.3
1 3 23 44.6 19.1
1 3 23 -11.9 9.7
-5 4 23 22.3 10.9
-5 4 23 45.5 17.6
-4 4 23 69.39 20.5
-4 4 23 66.29 22.5
-3 4 23 112.29 32
-3 4 23 243.68 39.7
-2 4 23 93.09 22.1
-2 4 23 70.09 38
1 -4 -23 20.2 4.1
-1 4 23 23.7 18.9
-1 4 23 13.8 13.6
0 -4 -23 100.09 16.6
0 4 23 48.8 25.3
0 4 23 141.69 27.1
-1 -4 -23 116.69 14.6
-4 5 23 34.8 19
-4 5 23 20.2 12.4
-3 5 23 72.69 28.1
-3 5 23 35.8 14.3
-2 5 23 94.29 22.7
-2 5 23 69.79 21.3
1 -5 -23 87.99 9.4
-1 5 23 94.99 23.1
-1 5 23 105.69 25.6
0 -5 -23 -0.6 5.5
0 5 23 -17 10.8
-3 6 23 157.98 32.3
-2 6 23 43.7 19.7
-2 6 23 24.1 31.3
-1 -11 24 55.59 18.6
0 -11 24 1.7 11.9
-1 11 -24 180.08 16.2
1 -11 24 189.98 31.7
-2 -10 24 24.3 11.3
-1 -10 24 81.69 25.7
0 -10 24 547.65 55.09
-1 10 -24 5.3 4.4
-1 10 -24 -2 3.9
1 -10 24 -17.6 8.3
-2 10 -24 119.69 14.2
-2 10 -24 102.19 13
2 -10 24 86.29 20.2
-3 -9 24 7.9 9.2
-2 -9 24 74.69 18.6
-1 -9 24 44 20.5
0 -9 24 9.4 10.6
-1 9 -24 104.89 9.5
-1 9 -24 101.69 9.9
1 -9 24 98.59 21.8
-2 9 -24 30.5 7.9
-2 9 -24 23.3 8
2 -9 24 38.5 11.3
-3 -8 24 23.4 14.8
-1 -8 24 304.27 37.3
0 -8 24 218.58 30.1
-1 8 -24 82.99 7.9
-1 8 -24 90.29 8
1 -8 24 70.89 16.8
-2 8 -24 292.37 49.7
-2 8 -24 250.87 20.4
2 -8 24 254.97 31.8
-3 8 -24 23.6 9
-4 -7 24 -0.9 8.4
-3 -7 24 0.2 10.8
-2 -7 24 152.18 29
-1 -7 24 4.7 10.6
-1 7 -24 10.8 3.2
-1 7 -24 13.1 3.4
1 -7 24 22 10.3
-2 7 -24 0.1 5.2
2 -7 24 3 9.1
-3 7 -24 214.08 22.2
-3 7 -24 216.08 20.9
3 -7 24 267.47 32.3
-4 -6 24 267.67 36.3
-3 -6 24 32.4 19.3
-2 -6 24 46.8 18
-1 -6 24 305.97 36.7
0 -6 24 -7.8 8.4
-1 6 -24 325.47 20.6
-1 6 -24 331.57 20.5
1 -6 24 340.87 37.5
-2 6 -24 190.48 16.9
2 -6 24 240.28 31.3
-3 6 -24 50.69 11.5
-3 6 -24 34.3 10.6
3 -6 24 57.59 18.7
-4 -5 24 35.1 16
-3 -5 24 246.68 56.79
-2 -5 24 10.5 8.4
-1 -5 24 202.78 33.5
0 -5 24 371.16 40.5
-1 5 -24 0.8 2.3
-1 5 -24 3.7 2.6
1 -5 24 -10.1 9.5
-2 5 -24 208.18 17.4
2 -5 24 190.68 26.2
-3 5 -24 27.1 10
-3 5 -24 35.5 9.8
3 -5 24 26.6 14.4
-5 -4 24 -23.3 10
-4 -4 24 108.19 24.9
-3 -4 24 27.8 15.3
-2 -4 24 456.35 46.9
-1 -4 24 63.69 19.2
0 -4 24 318.57 39.1
-1 4 -24 331.37 20.9
-1 4 -24 323.37 20.9
1 -4 24 368.76 40.2
-2 4 -24 6.6 6.2
-2 4 -24 7.9 13.4
2 -4 24 0.5 9.3
-5 -3 24 31.3 14.9
-5 -3 24 40.8 17.4
-4 -3 24 -11.9 11.2
-3 -3 24 101.69 23.3
-2 -3 24 46.2 15.9
-1 -3 24 172.08 31
0 -3 24 121.49 25.4
-1 3 -24 204.48 14.6
-1 3 -24 215.78 14.7
1 -3 24 208.78 34.2
-2 3 -24 38.5 8.9
-2 3 -24 38.5 8.3
2 -3 24 50.69 16.4
-5 -2 24 3.1 10.7
-5 -2 24 -0.9 11.4
-4 -2 24 0.8 11.4
-3 -2 24 84.29 24.9
-2 -2 24 132.59 25.5
-1 -2 24 -2.6 4.9
0 -2 24 352.36 40.6
-1 2 -24 35.2 5.2
-1 2 -24 19.4 4.4
1 -2 24 29.9 14.9
-2 2 -24 147.49 15
2 -2 24 123.99 26.2
-5 -1 24 3.3 9.3
-5 -1 24 -8.3 8
-4 -1 24 57.79 16.3
-4 -1 24 28.3 12.9
-3 -1 24 5.4 50.59
-2 -1 24 156.98 29.8
-1 -1 24 120.19 26.2
0 -1 24 -18 10.3
-1 1 -24 112.69 10.8
-1 1 -24 138.99 11.7
1 -1 24 89.59 23.1
-2 1 -24 -0.6 5.9
2 -1 24 10.5 9.2
-5 0 24 36.4 15.8
-4 0 24 30.7 12.5
-4 0 24 49.6 18.1
-3 0 24 175.88 53.19
-3 0 24 127.69 34.4
-2 0 24 19.2 12.5
-1 0 24 61.79 19.3
0 0 24 137.99 27.7
-1 0 -24 4.4 4.2
1 0 24 -0.5 7.8
-4 1 24 356.26 43.2
-4 1 24 419.36 46.1
-3 1 24 1.3 10.2
-3 1 24 5.8 12.3
-2 1 24 76.29 28.9
-2 1 24 144.29 32.7
-1 1 24 59.09 60.89
0 1 24 60.39 25.7
1 1 24 66.79 35.2
-4 2 24 3.8 11.2
-4 2 24 2.3 11.3
-3 2 24 110.39 26.1
-3 2 24 152.08 29.7
-2 2 24 -22.9 54.49
-2 2 24 42.7 15.1
-1 2 24 141.29 27.5
-1 2 24 182.48 33.8
0 -2 -24 208.98 14.7
0 2 24 202.58 35.1
-3 3 24 189.18 32.9
-3 3 24 168.18 31.3
-2 3 24 123.29 26.4
-2 3 24 98.29 23.7
-1 3 24 5.5 10.4
-1 -8 25 5.7 11.8
0 -8 25 110.89 23.7
-2 -7 25 76.79 19.8
-1 -7 25 7.5 10.4
0 -7 25 -10.7 9.2
1 -7 25 130.19 41
-2 -6 25 186.58 32.2
-1 -6 25 45.5 15.4
0 -6 25 219.18 44.3
-3 -5 25 112.09 25.9
-2 -5 25 79.29 21.4
-1 -5 25 94.09 22.6
0 -5 25 256.17 66.29
-3 -4 25 216.08 30.5
-2 -4 25 20.1 11.7
-1 -4 25 147.19 29.3
0 -4 25 114.49 32.1
1 -4 25 108.39 44.2
-3 -3 25 45.3 18
-2 -3 25 71.39 20.6
-1 -3 25 17.7 12.2
0 -3 25 113.19 24.6
-3 -2 25 63.19 17.7
-2 -2 25 29.8 13.7
-1 -2 25 138.49 27.5
0 -2 25 19.5 12.7
-2 -1 25 47.7 17
-1 -1 25 25.2 13.6
