#------------------------------------------------------------------------------
#$Date: 2024-02-04 13:34:47 +0200 (Sun, 04 Feb 2024) $
#$Revision: 289430 $
#$URL: file:///home/coder/svn-repositories/cod/cif/1/57/05/1570533.cif $
#------------------------------------------------------------------------------
#
# This file is available in the Crystallography Open Database (COD),
# http://www.crystallography.net/
#
# All data on this site have been placed in the public domain by the
# contributors.
#
data_1570533
loop_
_publ_author_name
'Zhao, Yuanyuan'
'Li, Xinyue'
'Hom&#xf6;lle, Simon L'
'Wang, Bin'
'Ackermann, Lutz'
_publ_section_title
;
 Electrochemical assembly of isoxazoles <i>via</i> a four-component domino
 reaction.
;
_journal_issue                   3
_journal_name_full               'Chemical science'
_journal_page_first              1117
_journal_page_last               1122
_journal_paper_doi               10.1039/d3sc05946d
_journal_volume                  15
_journal_year                    2024
_chemical_formula_moiety         'C20 H18 N2 O'
_chemical_formula_sum            'C20 H18 N2 O'
_chemical_formula_weight         302.36
_space_group_crystal_system      monoclinic
_space_group_IT_number           14
_space_group_name_Hall           '-P 2yn'
_space_group_name_H-M_alt        'P 1 21/n 1'
_atom_sites_solution_hydrogens   geom
_audit_creation_date             2023-02-10
_audit_creation_method
;
Olex2 1.3
(compiled 2020.11.12 svn.r5f609507 for OlexSys, GUI svn.r6408)
;
_audit_update_record
;
2023-06-02 deposited with the CCDC.	2023-12-11 downloaded from the CCDC.
;
_cell_angle_alpha                90
_cell_angle_beta                 91.6595(9)
_cell_angle_gamma                90
_cell_formula_units_Z            4
_cell_length_a                   6.00483(6)
_cell_length_b                   7.13118(10)
_cell_length_c                   37.8376(4)
_cell_measurement_reflns_used    6546
_cell_measurement_temperature    293(2)
_cell_measurement_theta_max      73.0700
_cell_measurement_theta_min      4.6800
_cell_volume                     1619.58(3)
_computing_cell_refinement       'CrysAlisPro 1.171.41.110a (Rigaku OD, 2021)'
_computing_data_collection       'CrysAlisPro 1.171.41.110a (Rigaku OD, 2021)'
_computing_data_reduction        'CrysAlisPro 1.171.41.110a (Rigaku OD, 2021)'
_computing_molecular_graphics    'Olex2 1.3 (Dolomanov et al., 2009)'
_computing_publication_material  'Olex2 1.3 (Dolomanov et al., 2009)'
_computing_structure_refinement  'SHELXL 2013/4 (Sheldrick, 2015)'
_diffrn_ambient_temperature      293(2)
_diffrn_detector                 'CCD plate'
_diffrn_detector_area_resol_mean 10.4337
_diffrn_detector_type            AtlasS2
_diffrn_measured_fraction_theta_full 0.978
_diffrn_measured_fraction_theta_max 0.957
_diffrn_measurement_details
;
List of Runs (angles in degrees, time in seconds):

  # Type    Start    End  Width  t~exp~   \w     \q     \k     \f   Frames
#--------------------------------------------------------------------------
  1  \w    -86.00 -61.00   0.50    2.00    --  -41.76 -38.00 -90.00   50
  2  \w    -83.00 -21.00   0.50    2.00    --  -41.76 -38.00 -30.00  124
  3  \w    -76.00  -7.00   0.50    2.00    --  -41.76 125.00-150.00  138
  4  \w   -114.00 -15.00   0.50    2.00    --  -41.76 -57.00 -90.00  198
  5  \w    -49.00 -23.00   0.50    2.00    --  -41.76 -57.00 -30.00   52
  6  \w    -20.00  62.00   0.50    2.00    --   41.76 -77.00 150.00  164
  7  \w    103.00 165.00   0.50    4.00    --  106.05  77.00  90.00  124
  8  \w     23.00  97.00   0.50    4.00    --  106.05 -94.00  60.00  148
  9  \w     78.00 104.00   0.50    4.00    --  106.05  61.00 -46.01   52
 10  \w     77.00 116.00   0.50    4.00    --  106.05  61.00   0.00   78
 11  \w    125.00 176.00   0.50    4.00    --  106.05  61.00   0.00  102
 12  \w     77.00 169.00   0.50    4.00    --  106.05  61.00  60.00  184
 13  \w     78.00 127.00   0.50    4.00    --  106.05  61.00 -90.00   98
 14  \w     77.00 103.00   0.50    4.00    --  106.05  61.00 -30.00   52
 15  \w    111.00 178.00   0.50    4.00    --  106.05  70.00 -72.77  134
 16  \w     83.00 109.00   0.50    4.00    --  106.05  45.00   0.00   52
 17  \w     85.00 112.00   0.50    4.00    --  106.05  45.00 -60.00   54
 18  \w    102.00 157.00   0.50    4.00    --  106.05 125.00 120.00  110
 19  \w     77.00 103.00   0.50    4.00    --  106.05  61.00  30.00   52
 20  \w    127.00 173.00   0.50    4.00    --  106.05  61.00 -30.00   92
 21  \w     82.00 112.00   0.50    4.00    --  106.05  45.00  60.00   60
 22  \w     80.00  89.00   0.50    4.00    --  106.05  45.00  30.00   18
;
_diffrn_measurement_device       'four-circle diffractometer'
_diffrn_measurement_device_type  'SuperNova, Dual, Cu at home/near, AtlasS2'
_diffrn_measurement_method       '\w scans'
_diffrn_orient_matrix_type
'CrysAlisPro convention (1999,Acta A55,543-557)'
_diffrn_orient_matrix_UB_11      0.2320389000
_diffrn_orient_matrix_UB_12      0.0568064000
_diffrn_orient_matrix_UB_13      -0.0126526000
_diffrn_orient_matrix_UB_21      -0.0830209000
_diffrn_orient_matrix_UB_22      -0.0202017000
_diffrn_orient_matrix_UB_23      -0.0387256000
_diffrn_orient_matrix_UB_31      -0.0716630000
_diffrn_orient_matrix_UB_32      0.2074049000
_diffrn_orient_matrix_UB_33      -0.0002906000
_diffrn_radiation_monochromator  mirror
_diffrn_radiation_probe          x-ray
_diffrn_radiation_type           'Cu K\a'
_diffrn_radiation_wavelength     1.54184
_diffrn_reflns_av_R_equivalents  0.0131
_diffrn_reflns_av_unetI/netI     0.0098
_diffrn_reflns_Laue_measured_fraction_full 0.978
_diffrn_reflns_Laue_measured_fraction_max 0.957
_diffrn_reflns_limit_h_max       7
_diffrn_reflns_limit_h_min       -7
_diffrn_reflns_limit_k_max       8
_diffrn_reflns_limit_k_min       -7
_diffrn_reflns_limit_l_max       46
_diffrn_reflns_limit_l_min       -44
_diffrn_reflns_number            10118
_diffrn_reflns_point_group_measured_fraction_full 0.978
_diffrn_reflns_point_group_measured_fraction_max 0.957
_diffrn_reflns_theta_full        67.684
_diffrn_reflns_theta_max         72.976
_diffrn_reflns_theta_min         4.677
_diffrn_source                   'micro-focus sealed X-ray tube'
_diffrn_source_type              'SuperNova (Cu) X-ray Source'
_exptl_absorpt_coefficient_mu    0.608
_exptl_absorpt_correction_T_max  1.00000
_exptl_absorpt_correction_T_min  0.68853
_exptl_absorpt_correction_type   multi-scan
_exptl_absorpt_process_details
;
CrysAlisPro 1.171.41.110a (Rigaku Oxford Diffraction, 2021)
Empirical absorption correction using spherical harmonics,
implemented in SCALE3 ABSPACK scaling algorithm.
;
_exptl_crystal_density_diffrn    1.240
_exptl_crystal_description       block
_exptl_crystal_F_000             640
_exptl_crystal_size_max          0.22
_exptl_crystal_size_mid          0.19
_exptl_crystal_size_min          0.18
_refine_diff_density_max         0.186
_refine_diff_density_min         -0.161
_refine_diff_density_rms         0.033
_refine_ls_extinction_coef       0.0040(6)
_refine_ls_extinction_expression Fc^*^=kFc[1+0.001xFc^2^\l^3^/sin(2\q)]^-1/4^
_refine_ls_extinction_method     SHELXL
_refine_ls_goodness_of_fit_ref   1.040
_refine_ls_hydrogen_treatment    constr
_refine_ls_matrix_type           full
_refine_ls_number_parameters     212
_refine_ls_number_reflns         3111
_refine_ls_number_restraints     0
_refine_ls_restrained_S_all      1.040
_refine_ls_R_factor_all          0.0451
_refine_ls_R_factor_gt           0.0430
_refine_ls_shift/su_max          0.002
_refine_ls_shift/su_mean         0.000
_refine_ls_structure_factor_coef Fsqd
_refine_ls_weighting_details
'w=1/[\s^2^(Fo^2^)+(0.0670P)^2^+0.2295P] where P=(Fo^2^+2Fc^2^)/3'
_refine_ls_weighting_scheme      calc
_refine_ls_wR_factor_gt          0.1216
_refine_ls_wR_factor_ref         0.1241
_reflns_Friedel_coverage         0.000
_reflns_number_gt                2907
_reflns_number_total             3111
_reflns_threshold_expression     'I > 2\s(I)'
_cod_data_source_file            d3sc05946d2.cif
_cod_data_source_block           221127_auto
_cod_depositor_comments          'Adding full bibliography for 1570533.cif.'
_cod_database_code               1570533
_shelxl_version_number           2013-4
_chemical_oxdiff_formula         C20H20N2O2
_shelx_space_group_comment
;
The symmetry employed for this shelxl refinement is uniquely defined
by the following loop, which should always be used as a source of
symmetry information in preference to the above space-group names.
They are only intended as comments.
;
_shelx_estimated_absorpt_t_max   0.899
_shelx_estimated_absorpt_t_min   0.878
_reflns_odcompleteness_completeness 97.91
_reflns_odcompleteness_iscentric 1
_reflns_odcompleteness_theta     66.97
_olex2_refinement_description
;
1.a Aromatic/amide H refined with riding coordinates:
 C15(H15), C14(H14), C8(H8), C3(H3), C12(H12), C11(H11), C2(H2), C5(H5), C6(H6)
1.b Idealised Me refined as rotating group:
 C18(H18A,H18B,H18C), C17(H17A,H17B,H17C), C19(H19A,H19B,H19C)
;
_shelx_res_file
;
TITL 221127_auto_a.res in P2(1)/n
REM Old TITL 221127_auto in P21/n #14
REM SHELXT solution in P2(1)/n
REM R1 0.143, Rweak 0.017, Alpha 0.049, Orientation as input
REM Formula found by SHELXT: C20 N2 O
CELL 1.54184 6.004831 7.131177 37.837568 90 91.6595 90
ZERR 4 0.000062 0.000096 0.000411 0 0.0009 0
LATT 1
SYMM 0.5-X,0.5+Y,0.5-Z
SFAC C H N O
UNIT 80 72 8 4

L.S. 4 0 0
PLAN  2
SIZE 0.22 0.19 0.18
CONF
BOND $H
LIST 6
MORE -1
fmap 2 53
ACTA
REM <olex2.extras>
REM <HklSrc "%.\\221127_auto.hkl">
REM </olex2.extras>

WGHT    0.067000    0.229500
EXTI    0.004014
FVAR       5.76368
O1    4    0.217671    0.214661    0.759241    11.00000    0.05299    0.09677 =
         0.05656    0.00152    0.01166   -0.00511
N1    3    0.161311    0.214256    0.722942    11.00000    0.05383    0.09378 =
         0.05624    0.00169    0.00861   -0.00355
C13   1    0.339733    0.239371    0.592893    11.00000    0.04478    0.04782 =
         0.05644   -0.00243    0.00364    0.00075
C9    1    0.350643    0.230032    0.706788    11.00000    0.05161    0.04506 =
         0.05768    0.00041    0.01075    0.00102
C7    1    0.441737    0.231565    0.763335    11.00000    0.05053    0.04889 =
         0.05973   -0.00005    0.01049   -0.00113
C15   1    0.531057    0.295620    0.649404    11.00000    0.04705    0.05801 =
         0.05731   -0.00211    0.00229   -0.00650
AFIX  43
H15   2    0.658005    0.336629    0.661770    11.00000   -1.20000
AFIX   0
C10   1    0.349135    0.231723    0.667831    11.00000    0.04842    0.04268 =
         0.05605    0.00010    0.00695    0.00184
C14   1    0.525017    0.298784    0.612763    11.00000    0.04442    0.06246 =
         0.05644    0.00024    0.00656   -0.00784
AFIX  43
H14   2    0.649044    0.342098    0.601070    11.00000   -1.20000
AFIX   0
C4    1    0.527441    0.233982    0.799815    11.00000    0.05398    0.04429 =
         0.05702    0.00012    0.01109    0.00047
C1    1    0.681188    0.249433    0.869761    11.00000    0.06693    0.04573 =
         0.06326    0.00095    0.00096    0.00577
C8    1    0.532642    0.242862    0.731242    11.00000    0.04961    0.05490 =
         0.05641   -0.00065    0.01188   -0.00087
AFIX  43
H8    2    0.682567    0.256203    0.726261    11.00000   -1.20000
AFIX   0
C3    1    0.394686    0.171678    0.827012    11.00000    0.05926    0.05384 =
         0.06015    0.00099    0.01016   -0.01012
AFIX  43
H3    2    0.253239    0.124641    0.821666    11.00000   -1.20000
AFIX   0
C12   1    0.158823    0.175112    0.611997    11.00000    0.04530    0.06171 =
         0.06412   -0.00195    0.00137   -0.00854
AFIX  43
H12   2    0.031707    0.133835    0.599709    11.00000   -1.20000
AFIX   0
C11   1    0.162847    0.171003    0.648331    11.00000    0.04626    0.05847 =
         0.06545    0.00168    0.01065   -0.00789
AFIX  43
H11   2    0.039249    0.126995    0.660047    11.00000   -1.20000
AFIX   0
C16   1    0.323948    0.251278    0.552581    11.00000    0.04763    0.06812 =
         0.05545   -0.00350    0.00011   -0.00137
C2    1    0.469874    0.178749    0.861669    11.00000    0.06998    0.05667 =
         0.05966    0.00466    0.01234   -0.00606
AFIX  43
H2    2    0.379880    0.136479    0.879609    11.00000   -1.20000
AFIX   0
C5    1    0.740766    0.301810    0.808165    11.00000    0.05254    0.05860 =
         0.06946    0.00547    0.01278   -0.00283
AFIX  43
H5    2    0.832417    0.341345    0.790223    11.00000   -1.20000
AFIX   0
C6    1    0.815913    0.310365    0.842875    11.00000    0.05355    0.05793 =
         0.07625    0.00072    0.00058   -0.00019
AFIX  43
H6    2    0.957378    0.357123    0.848306    11.00000   -1.20000
AFIX   0
C20   1    0.756891    0.261171    0.906082    11.00000    0.08379    0.05949 =
         0.07225    0.00110   -0.00693    0.00407
C18   1    0.553218    0.268780    0.536240    11.00000    0.05705    0.09832 =
         0.05665   -0.00344    0.00809   -0.00162
AFIX 137
H18A  2    0.621777    0.384249    0.543756    11.00000   -1.50000
H18B  2    0.536548    0.267774    0.510931    11.00000   -1.50000
H18C  2    0.645135    0.165296    0.543785    11.00000   -1.50000
AFIX   0
N2    3    0.813937    0.269245    0.935100    11.00000    0.12550    0.09836 =
         0.07720   -0.00194   -0.02346    0.00017
C17   1    0.187583    0.426843    0.542735    11.00000    0.07191    0.10118 =
         0.07077    0.01506    0.00033    0.01894
AFIX 137
H17A  2    0.043981    0.419250    0.553154    11.00000   -1.50000
H17B  2    0.169242    0.434606    0.517489    11.00000   -1.50000
H17C  2    0.264294    0.536407    0.551409    11.00000   -1.50000
AFIX   0
C19   1    0.209881    0.076697    0.536858    11.00000    0.08008    0.10205 =
         0.06873   -0.02243    0.00106   -0.02116
AFIX 137
H19A  2    0.290974   -0.033237    0.544227    11.00000   -1.50000
H19B  2    0.207076    0.084809    0.511523    11.00000   -1.50000
H19C  2    0.060151    0.069176    0.544975    11.00000   -1.50000
AFIX   0
HKLF 4

REM  221127_auto_a.res in P2(1)/n
REM R1 =  0.0430 for    2907 Fo > 4sig(Fo)  and  0.0451 for all    3111 data
REM    212 parameters refined using      0 restraints

END

WGHT      0.0670      0.2295

REM Highest difference peak  0.186,  deepest hole -0.161,  1-sigma level  0.033
Q1    1   0.4593  0.2175  0.6606  11.00000  0.05    0.19
Q2    1   0.2436  0.2518  0.6005  11.00000  0.05    0.16
;
_shelx_res_checksum              93491
_shelx_hkl_file
;
   0   0  -4 27528.1 104.146   4
   0   0  -5 107.378 7.49167   4
   0   0  -6 8750.92 71.9105   4
   0   0  -7 1.10256 2.41881   4
   0   0  -8 105.254 9.31666   4
   0   0  -9 4.07665 2.92714   4
   0   0 -10 206579. 449.386   4
   0   0 -11 2.48268 4.74436   4
   0   0 -12 45246.7 233.762   4
   0   0 -13 3.69954 4.86697   4
   0   0 -14 36696.2 231.314   4
   0   0 -15 0.64441 4.97856   4
   0   0 -16 50367.3 297.447   4
   0   0 -17 20.8267 9.87637   4
   0   0 -18 8685.17 134.571   4
   0   0 -19 24.8060 11.5864   4
   0   0 -20 37230.7 299.586   4
   0   0 -21 21.8920 11.6811   4
   0   0 -22 5404.94 122.841   4
   0   0 -23 9.61177 7.37272   4
   0   0 -24 52.2571 13.5662   4
   0   0 -25 3.08671 7.42335   4
   0   0 -26 5886.26 148.754   4
   0   0  26 6221.58 112.337  21
   0   0  26 6024.11 111.899  12
   0   0 -27 23.0307 14.9094   4
   0   0  27 20.0605 10.0498  21
   0   0  27 15.0863 9.03345  12
   0   0 -28 816.181 58.9490   4
   0   0  28 797.357 42.9658  21
   0   0 -28 768.225 37.2524  13
   0   0 -29 10.5132 11.6199   4
   0   0  29-9.07854 12.1943  21
   0   0  29-10.1766 12.6188  12
   0   0 -29 16.3560 7.61348  13
   0   0  30 6352.42 125.635  21
   0   0 -30 6594.91 111.799  13
   0   0  30 6696.64 130.473  12
   0   0 -31 19.8439 15.1188   4
   0   0 -31 23.3424 9.82689  13
   0   0  31 36.8546 13.7613  12
   0   0 -32 2725.15 118.193   4
   0   0  32 2657.57 84.6278  12
   0   0 -32 2519.78 70.8977  13
   0   0  33 3.37720 7.01507  12
   0   0 -33 8.30643 5.41270  13
   0   0 -34 2252.00 67.6520  13
   0   0  34 2356.61 81.9269  12
   0   0 -35 2.33350 6.98194  13
   0   0  35 14.6122 11.7748  12
   0   0  36 601.223 41.7869  12
   0   0  37-0.97794 9.69131  12
   0   0  38 2339.60 79.5164  12
   0   0  39 4.56125 9.30297  12
   0   0  40 759.770 43.9654  12
   0   0  41-1.87044 7.45095  12
   0   0  42 2.92922 7.28587  12
   0   0  43-2.55404 6.85719  12
   0   0  44 0.24167 6.43573  12
   0   0  45-7.14571 6.48025  12
   0   0  46 534.420 26.5509  12
   0   1   0 14.2840 2.69706   6
   0   1   0 23.5715 4.16560   3
   0   1  -1 501.159 18.2429   3
   0   1   1 520.586 19.1191   3
   0   1   1 493.775 14.0107   6
   0   1  -1 497.878 12.4541   6
   0  -1  -2 30748.5 100.361   2
   0   1  -2 30568.7 93.1583   6
   0   1  -3 1019.44 16.4223   6
   0   1   3 1037.29 28.4252   3
   0  -1  -3 1065.28 27.6150   4
   0  -1  -3 1036.82 21.4069   5
   0   1  -4 95357.6 159.048   6
   0   1   4 95321.2 280.026   3
   0  -1  -5 746.774 24.2389   4
   0   1  -5 729.517 14.3534   6
   0   1  -6 25011.7 90.2024   6
   0  -1  -6 25036.8 144.893   4
   0   1   6 24871.6 154.699   3
   0  -1  -7 650.525 22.1583   1
   0  -1  -7 585.693 23.1997   4
   0  -1  -8 9113.31 86.9281   1
   0  -1  -8 9014.25 92.2296   4
   0  -1  -9 1758.19 40.3999   1
   0   1  -9 1700.71 44.9836   4
   0  -1 -10 116390. 345.130   1
   0  -1 -10 117400. 363.577   4
   0   1 -10 117338. 391.078   4
   0  -1 -11 824.888 31.8685   4
   0   1 -11 797.191 34.2168   4
   0  -1 -11 833.575 30.6863   1
   0   1 -12 2453.90 61.6962   4
   0  -1 -12 2319.17 53.4835   1
   0  -1 -12 2419.50 56.3569   4
   0  -1 -13 649.957 30.4512   4
   0  -1 -13 668.220 30.0665   1
   0   1 -13 694.739 34.7102   4
   0  -1 -14 20360.5 177.169   4
   0   1 -14 20444.4 191.591   4
   0   1 -15 151.085 20.1956   4
   0  -1 -15 123.627 14.7998   4
   0  -1 -16 63915.6 341.363   4
   0   1 -16 64638.4 371.950   4
   0  -1 -17 7641.33 121.001   4
   0   1 -17 8305.22 138.712   4
   0  -1 -18 146034. 544.511   4
   0   1 -18 141095. 590.877   4
   0   1 -19 2521.19 83.7069   4
   0  -1 -19 2578.34 75.4098   4
   0   1 -20 36547.9 322.417   4
   0  -1 -20 37783.5 295.187   4
   0   1 -21 1326.01 63.4763   4
   0  -1 -21 1288.34 56.8026   4
   0   1 -22 13233.5 209.362   4
   0  -1 -22 14189.1 194.289   4
   0   1 -23 1198.55 64.4265   4
   0  -1 -23 1220.21 59.2098   4
   0   1 -24 2507.85 96.7188   4
   0  -1 -24 2744.36 91.7510   4
   0   1 -25 29.8894 12.3927   4
   0  -1 -25 36.2839 11.4618   4
   0  -1 -26 11040.8 196.571   4
   0  -1  26 11230.3 146.101  21
   0   1  26 10756.4 158.929  12
   0  -1  26 10938.7 146.049  12
   0  -1 -27 1823.84 83.1770   4
   0  -1  27 1772.18 60.3606  21
   0   1  27 1744.10 66.4956  12
   0  -1  27 1685.32 60.0783  12
   0   1  27 1715.70 56.0441  11
   0  -1 -28 40170.0 400.227   4
   0  -1  28 40426.3 292.406  21
   0   1  28 40118.1 272.991  11
   0  -1  28 39672.1 294.410  12
   0   1  28 39400.2 319.579  12
   0   1  29 788.864 66.7143   3
   0  -1 -29 840.843 59.9525   4
   0  -1  29 738.068 42.4484  21
   0  -1  29 772.316 44.1221  12
   0   1  29 817.653 48.3246  12
   0   1  29 812.568 39.8608  11
   0   1  30 100.632 14.4834  11
   0   1  30 45.6312 16.6191   3
   0  -1 -30 80.0200 19.2996   4
   0  -1  30 66.5253 13.8852  21
   0   1  30 69.0834 15.4872  12
   0  -1  30 79.4259 15.3010  12
   0   1  31 1906.92 105.575   3
   0  -1 -31 1871.46 92.6086   4
   0  -1  31 1791.32 65.9569  21
   0   1  31 1800.93 72.1302  12
   0  -1 -31 1843.17 62.0696  13
   0  -1  31 1704.95 65.1695  12
   0   1  31 1849.90 60.9094  11
   0  -1 -32 269.831 36.3207   4
   0   1  32 299.381 44.4388   3
   0  -1  32 274.932 26.4745  21
   0   1  32 298.816 25.0511  11
   0   1  32 288.163 30.4534  12
   0  -1 -32 292.571 26.1493  13
   0  -1  32 260.772 26.1446  12
   0  -1  33 164.742 20.7167  21
   0   1  33 189.653 25.0461  12
   0  -1 -33 224.554 22.9532  13
   0  -1  33 183.246 22.2870  12
   0  -1  34 2692.28 82.8264  21
   0   1  34 2757.32 91.1287  12
   0  -1 -34 2718.49 77.2500  13
   0  -1  34 2734.12 85.0244  12
   0   1  35 0.72452 9.16165  12
   0  -1  35-8.94825 11.8154  12
   0  -1 -35 26.8535 11.9943  13
   0  -1  36 4357.28 107.317  12
   0  -1 -36 4471.23 98.5463  13
   0   1  36 4316.00 113.962  12
   0  -1 -37 7.15163 7.78118  13
   0   1  37 4.24739 8.04538  12
   0  -1  37 16.4174 8.76187  12
   0  -1 -38 250.635 23.2778  13
   0   1  38 252.393 27.9358  12
   0  -1  38 225.240 25.1973  12
   0   1  39 5.31782 7.33810  12
   0  -1  39 3.77082 7.69208  12
   0  -1 -39 3.40873 5.96310  13
   0   1  40 291.256 27.8107  12
   0  -1 -40 322.738 25.2768  13
   0  -1  40 326.641 28.7762  12
   0   1  41 89.0467 16.2928  12
   0  -1  41 76.7814 14.5064  12
   0  -1 -41 89.3074 13.3694  13
   0  -1 -42 105.489 13.6421  13
   0   1  42 94.4989 15.1880  12
   0  -1  42 107.329 16.3013  12
   0  -1  43 14.7453 8.28560  12
   0   1  43 20.6412 7.89192  12
   0   1  44 572.818 31.4700  12
   0  -1  44 578.362 31.3050  12
   0  -1  45 55.5458 9.98602  12
   0   1  45 60.5656 9.95704  12
   0  -1  46 220.962 16.6524  12
   0   1  46 207.679 15.7820  12
   0   2  -1 47708.7 176.423   6
   0  -2   1 47383.1 205.683   2
   0   2  -1 48265.1 257.544   3
   0  -2  -1 47077.4 191.769   2
   0   2   1 48846.1 264.224   3
   0   2   2 294876. 668.374   3
   0   2  -2 295357. 630.368   3
   0  -2  -3 11413.6 86.6932   2
   0  -2  -3 11471.6 105.402   5
   0   2  -4 25616.8 116.343   6
   0  -2  -4 25798.2 124.393   2
   0  -2  -4 25620.4 184.495   4
   0  -2  -4 25301.1 153.742   5
   0   2  -5 1646.25 28.5635   6
   0  -2  -5 1620.62 47.1691   4
   0   2  -6 36585.7 129.582   6
   0  -2  -6 36107.9 221.456   4
   0   2  -7 11613.8 71.0230   6
   0  -2  -7 11632.2 127.627   4
   0   2  -8 9942.35 63.6216   6
   0  -2  -8 9966.91 119.876   4
   0   2   8 10166.7 138.670   3
   0   2  -9 10470.5 63.6261   6
   0  -2  -9 10713.5 126.401   4
   0   2   9 10583.8 145.380   3
   0  -2 -10 3393.80 64.4842   1
   0   2 -10 3445.02 35.3592   6
   0  -2 -10 3480.73 73.5955   4
   0   2  11 3.77730 4.80013   3
   0  -2 -11 10.0736 6.42432   4
   0   2 -11 5.97267 2.16772   6
   0  -2 -11 8.68305 4.34721   1
   0   2  12 3371.16 89.2108   3
   0  -2 -12 3315.89 73.9931   4
   0  -2 -12 3402.32 69.1716   1
   0  -2 -13 1919.91 58.0213   4
   0   2  13 2039.41 71.7457   3
   0  -2 -13 2098.60 56.2281   1
   0  -2 -14 2691.81 66.1398   1
   0   2  14 2642.30 84.4072   3
   0  -2 -14 2566.52 68.6906   4
   0   2  15-3.60339 6.68323   3
   0  -2 -15 4.96520 5.46767   4
   0  -2 -16 3424.20 83.9266   4
   0  -2 -16 3230.61 77.4536   1
   0   2  16 3191.80 98.8880   3
   0   2  17 192.840 26.6670   3
   0  -2 -17 193.971 20.9642   4
   0  -2 -17 189.659 20.2484   1
   0  -2 -18 1514.47 59.2716   4
   0   2  18 1524.54 73.0843   3
   0   2  19 1498.31 76.3461   3
   0  -2 -19 1547.76 61.7443   4
   0  -2 -20 6760.38 133.157   4
   0   2  20 5399.84 147.755   3
   0  -2 -21 4754.27 114.360   4
   0   2  21 4715.34 140.830   3
   0  -2 -22 75.6461 15.3125   4
   0   2  22 88.4982 22.2785   3
   0   2  23 154.527 28.2729   3
   0  -2 -23 130.559 20.8549   4
   0   2  24 4118.43 143.385   3
   0  -2 -24 4077.90 113.399   4
   0  -2  24 4065.18 83.8205  21
   0  -2 -25 889.039 54.9800   4
   0   2  25 899.026 69.9048   3
   0  -2  25 886.256 40.3893  21
   0  -2  25 888.236 38.3752  19
   0   2  25 847.012 47.2931  12
   0   2  25 960.987 44.7404  11
   0   2  26 18.8035 7.19385  11
   0   2  26 3.13455 13.6634   3
   0  -2 -26 12.7237 9.27614   4
   0  -2  26 44.1329 10.1898  21
   0  -2  26 29.0675 8.81106  19
   0  -2  26 60.0542 12.0294  12
   0   2  26 16.5400 8.95221  12
   0   2 -27 4428.35 93.5318   8
   0  -2 -27 4652.49 132.382   4
   0  -2  27 4452.05 94.3917  21
   0  -2  27 4598.91 97.0895  12
   0   2  27 4472.62 99.4938  11
   0   2  27 4299.66 110.019  12
   0   2 -28 6217.45 112.099   8
   0  -2 -28 6033.02 154.059   4
   0   2  28 6415.90 199.170   3
   0  -2  28 5917.88 110.965  21
   0  -2  28 6085.95 114.103  12
   0   2  28 5727.64 130.321  12
   0   2  28 5839.06 114.020  11
   0   2  29-7.14567 11.3933  11
   0   2 -29 13.3773 9.30895   8
   0   2  29-11.3204 11.8810   3
   0  -2 -29 9.08205 9.17952   4
   0  -2  29 27.5760 12.5588  21
   0  -2  29 26.8587 11.6762  12
   0   2  29 3.30498 8.81442  12
   0   2 -30 6980.17 120.023   8
   0  -2 -30 7353.47 177.545   4
   0  -2  30 6805.92 123.317  21
   0  -2  30 6939.81 127.031  12
   0   2  30 6822.68 125.146  11
   0   2  30 6876.91 145.437  12
   0   2 -31 1880.14 62.8882   8
   0   2  31 2011.54 117.251   3
   0  -2 -31 1985.54 94.4393   4
   0  -2  31 1761.34 63.5135  21
   0   2  31 1779.96 64.3468  11
   0   2  31 1736.45 74.4733  12
   0  -2  31 1782.03 65.9336  12
   0   2 -32 336.650 26.8681   8
   0  -2  32 315.001 27.4612  21
   0  -2  32 353.284 30.3892  12
   0   2  32 346.016 34.2215  12
   0   2  32 338.405 28.3586  11
   0  -2  33 2014.30 69.0557  21
   0   2  33 1945.49 78.7009  12
   0  -2  33 2034.54 71.2428  12
   0   2  33 1987.08 67.3724  11
   0  -2 -33 1957.06 66.8106  13
   0  -2  34 3629.60 93.1603  21
   0  -2 -34 3740.64 92.7766  13
   0  -2  34 3808.80 98.0165  12
   0   2  34 3781.15 109.089  12
   0  -2  35 86.8401 15.8404  21
   0  -2 -35 97.4947 18.3725  13
   0  -2  35 74.5616 15.4422  12
   0   2  35 83.1426 18.1754  12
   0  -2  36-9.67871 12.8271  21
   0   2  36-5.63913 9.49103  12
   0  -2 -36 8.37284 8.97394  13
   0  -2  36-13.0598 12.2963  12
   0  -2 -37 602.064 36.7066  13
   0  -2  37 578.324 37.6478  12
   0   2  37 554.553 40.7102  12
   0  -2 -38 246.833 23.5469  13
   0   2  38 229.927 26.3412  12
   0  -2  38 232.855 24.5330  12
   0   2  39 3.84294 7.33974  12
   0  -2 -39-1.87304 6.65293  13
   0  -2  39 7.93419 9.19137  12
   0  -2 -40 94.5562 14.6387  13
   0  -2  40 85.3240 14.3534  12
   0   2  40 84.9409 15.3639  12
   0  -2  41 14.5837 6.32652  12
   0  -2 -41 31.5830 8.26065  13
   0   2  41 28.8248 9.53137  12
   0   2  42 10.9783 6.80268  12
   0  -2  42 7.34478 5.30682  12
   0  -2 -42 2.47163 5.74270  13
   0  -2 -43 33.8484 7.72743  17
   0  -2  43 42.9139 9.51297  12
   0  -2 -43 18.8117 5.14615  13
   0   2  43 32.1424 9.21707  12
   0  -2  44-0.81779 4.39668  12
   0  -2 -44-1.39369 4.50112  13
   0   2  44 3.50644 4.04705  12
   0  -2  45-6.00487 4.86473  12
   0   3   0 4.80185 5.92764   3
   0  -3   0 6.02265 3.64267   2
   0   3   1 1635.32 61.9930   3
   0  -3  -1 1491.96 42.3918   2
   0  -3  -1 1567.46 51.1757   5
   0   3  -2 295.769 25.8636   3
   0   3   2 253.769 26.0253   3
   0  -3   2 281.719 21.0398   2
   0  -3   3 2297.09 59.5980   2
   0   3   3 2310.03 74.7631   3
   0  -3  -3 2276.72 48.2313   2
   0  -3  -3 2178.59 66.6246   4
   0  -3  -4 7503.43 124.398   4
   0  -3  -4 7708.65 83.5291   2
   0   3   4 8106.75 142.922   3
   0  -3  -4 7803.01 108.930   5
   0  -3   4 7853.44 113.295   2
   0  -3  -5 421.395 24.8868   5
   0  -3   5 450.333 28.1189   2
   0  -3  -5 405.773 29.2804   4
   0   3   5 467.033 35.5976   3
   0   3   6 313.901 29.2757   3
   0  -3  -6 305.639 25.5406   4
   0  -3  -7 8298.60 130.560   4
   0   3   7 8604.46 153.753   3
   0  -3  -8 2607.73 74.4757   4
   0   3   8 2652.99 86.8823   3
   0  -3  -9 5.88091 5.69531   4
   0   3   9 20.0704 10.2004   3
   0  -3 -10 23.8692 6.28766   1
   0  -3 -10 15.1386 6.08261   4
   0  -3 -11 2195.12 59.1362   1
   0  -3 -11 2356.97 72.3800   4
   0   3  11 2276.86 86.9690   3
   0  -3 -12 237.546 19.9750   1
   0  -3 -12 279.050 25.8566   4
   0   3  12 269.356 31.3276   3
   0  -3 -13 901.636 45.8639   4
   0   3  13 813.169 54.8620   3
   0  -3 -13 861.556 39.0660   1
   0  -3 -14 10836.3 141.565   1
   0  -3 -14 10789.6 158.665   4
   0  -3 -15 564.959 37.7402   4
   0   3  15 526.921 46.0427   3
   0  -3 -16 5244.60 104.108   1
   0  -3 -16 5326.83 115.952   4
   0  -3 -17 4472.87 98.9173   1
   0   3  17 4317.54 137.461   3
   0  -3 -17 4485.41 108.574   4
   0   3  18 8857.58 202.442   3
   0  -3 -18 8971.61 156.776   4
   0  -3 -18 9047.78 144.136   1
   0   3  19 12133.3 243.533   3
   0  -3 -19 12395.8 188.119   4
   0  -3 -20 20665.3 249.308   4
   0   3  20 20479.4 326.105   3
   0   3  21 1551.43 91.8056   3
   0  -3 -21 1566.74 70.4081   4
   0   3 -21 1590.62 57.5123   8
   0   3  21 1585.11 60.2371  11
   0  -3 -22 3935.59 114.787   4
   0   3  22 3921.01 148.992   3
   0   3 -22 3923.20 91.3398   8
   0   3  22 3876.11 94.6970  11
   0   3  22 3512.82 96.8375  12
   0   3  23 1143.53 82.9970   3
   0  -3 -23 1126.29 62.6897   4
   0   3 -23 1149.76 50.5463   8
   0   3  23 1076.22 54.7264  12
   0   3  23 1136.95 52.1738  11
   0   3 -24 5934.45 115.153   8
   0  -3 -24 5831.97 143.196   4
   0   3  24 6186.87 197.412   3
   0  -3  24 5809.79 102.745  21
   0  -3  24 5902.30 97.0712  19
   0   3  24 5554.52 126.396  12
   0   3  24 6034.29 121.541  11
   0   3  25 123.199 18.5845  11
   0   3 -25 135.171 18.4755   8
   0   3  25 143.901 35.0020   3
   0  -3 -25 120.041 22.3264   4
   0  -3  25 119.246 14.5823  19
   0  -3  25 117.040 16.3406  21
   0   3  25 103.207 19.5074  12
   0   3 -26 3284.82 87.3537   8
   0  -3 -26 3293.27 111.517   4
   0   3  26 3577.30 156.310   3
   0  -3  26 3409.90 76.0938  19
   0  -3  26 3273.26 79.7138  21
   0   3  26 3265.08 91.6997  11
   0   3  26 3181.08 98.8798  12
   0   3 -27 1370.77 56.9853   8
   0  -3 -27 1361.49 73.3347   4
   0   3  27 1448.82 101.982   3
   0  -3  27 1303.82 51.2173  21
   0  -3  27 1357.18 48.8243  19
   0   3  27 1249.96 57.3114  11
   0   3  27 1329.27 64.9751  12
   0   3 -28 4489.42 103.565   8
   0  -3 -28 4704.93 138.085   4
   0  -3  28 4366.15 94.7210  21
   0   3  28 4503.53 108.478  11
   0   3  28 4437.39 119.017  12
   0  -3  28 4528.81 98.8625  12
   0   3 -29 6739.40 126.245   8
   0  -3  29 6618.96 118.159  21
   0   3  29 6628.49 146.930  12
   0  -3  29 6914.16 123.535  12
   0   3 -30 412.804 32.1105   8
   0  -3  30 404.263 30.2911  21
   0   3  30 422.573 38.0750  12
   0  -3  30 445.182 33.0921  12
   0   3 -31 2702.40 79.7278   8
   0  -3  31 2701.10 76.6781  21
   0   3  31 2674.13 93.0627  12
   0  -3  31 2771.47 80.3099  12
   0   3 -32 1290.19 54.4440   8
   0  -3  32 1283.55 53.2759  21
   0   3  32 1244.74 63.8144  12
   0  -3  32 1372.73 56.9938  12
   0   3 -33 19.4289 9.59537   8
   0  -3  33 0.66673 7.54420  21
   0  -3  33 7.64689 9.27541  12
   0   3  33 5.51769 11.5239  12
   0  -3 -33 31.6462 13.3000  13
   0   3 -34 3415.01 84.9434   8
   0  -3  34 3305.55 84.3129  21
   0  -3 -34 3413.78 87.7320  13
   0  -3  34 3365.37 88.3821  12
   0   3  34 3274.65 99.8552  12
   0   3 -35 142.498 16.7998   8
   0  -3  35 146.866 18.6346  21
   0   3  35 154.205 22.5786  12
   0  -3 -35 180.954 21.9143  13
   0  -3  35 149.868 20.2225  12
   0   3 -36 1201.12 47.2365   8
   0  -3  36 1141.80 48.2891  21
   0   3  36 1250.99 58.7334  12
   0  -3 -36 1302.17 53.1937  13
   0  -3  36 1214.51 51.7468  12
   0   3 -37 3.21895 4.19425   8
   0  -3 -37-2.38832 7.47105  13
   0   3  37-0.50486 7.11372  12
   0  -3  37-12.9388 10.6871  12
   0  -3  38 62.8691 10.5888  12
   0  -3 -38 64.6190 13.0175  13
   0   3  38 84.3611 15.4112  12
   0  -3  39 52.3053 11.1887  12
   0   3  39 59.5497 12.5552  12
   0  -3 -39 52.4870 11.3321  13
   0  -3 -40 220.642 19.8842  13
   0   3  40 228.286 21.1892  12
   0  -3  40 217.839 19.8305  12
   0  -3  41-4.35077 5.83166  12
   0   3  41 7.30146 6.34533  12
   0  -3 -41-2.83379 6.32517  13
   0   3  42-7.55766 3.88631  12
   0  -3 -42-4.40461 6.23030  13
   0  -3  42 8.12807 4.80926  12
   0  -3 -43 73.5936 9.70430  17
   0  -3 -43 68.0551 9.92992  13
   0  -3  43 69.0887 9.77812  12
   0  -3  44 907.294 30.7117  12
   0   4   0 204133. 814.874   3
   0  -4   0 206843. 725.744   5
   0  -4  -1 19396.6 218.319   5
   0  -4   1 19718.4 226.753   5
   0   4   1 19063.0 250.274   3
   0  -4   2 18473.3 192.960   2
   0  -4  -2 18668.8 229.874   4
   0  -4  -2 18664.1 210.362   5
   0  -4   2 18720.0 224.638   5
   0   4   2 18027.1 248.782   3
   0  -4   3 13390.0 169.659   2
   0  -4  -3 13618.3 197.693   4
   0   4   3 13235.4 213.841   3
   0  -4  -3 13421.9 175.538   5
   0  -4  -4 6861.80 139.828   4
   0   4   4 6648.01 154.107   3
   0  -4   4 6473.14 121.182   2
   0  -4  -4 6666.47 120.545   5
   0   4   5 1055.85 62.4183   3
   0  -4   5 1044.15 50.3441   2
   0  -4  -5 1062.96 54.8605   4
   0  -4   6 33593.5 292.082   2
   0   4   6 33172.9 352.369   3
   0   4   7 6605.93 158.785   3
   0  -4  -7 6895.37 138.814   4
   0  -4   7 7006.43 135.793   2
   0  -4  -8 482.870 36.8842   4
   0   4   8 435.423 42.3150   3
   0  -4   8 474.536 36.6952   2
   0  -4  -9 2821.29 88.9241   4
   0   4   9 2782.37 107.342   3
   0  -4   9 2854.69 90.9637   2
   0  -4 -10 34.2479 12.1057   4
   0  -4  10 38.6053 13.4837   2
   0  -4 -10 12.9345 6.19029   1
   0   4  10 11.4501 14.0964   3
   0  -4 -11 429.299 35.7012   4
   0  -4  11 461.957 38.5736   2
   0   4  11 483.950 46.8706   3
   0  -4 -11 497.209 30.5482   1
   0  -4 -12 232.957 26.9080   4
   0  -4 -12 238.401 21.4868   1
   0  -4  12 217.931 27.8798   2
   0   4  12 213.818 32.5067   3
   0   4  13 36.1303 16.1679   3
   0  -4 -13 38.5557 12.2404   4
   0  -4  13 55.0390 14.6282   2
   0  -4 -14 420.794 35.5161   4
   0   4  14 370.745 42.8151   3
   0  -4  14 437.201 40.4661   2
   0  -4 -14 429.282 29.9190   1
   0  -4 -15 72.4112 15.8660   4
   0   4  15 87.1731 22.4948   3
   0   4 -15 83.3865 14.4462   8
   0  -4 -16 64.8799 16.4899   4
   0  -4 -16 72.7924 13.7437   1
   0   4  16 46.8328 16.4791   3
   0   4 -16 52.8962 12.5616   8
   0  -4 -17 12.7648 7.36139   1
   0  -4 -17 29.7363 12.9175   4
   0   4  17 6.39977 8.99072   3
   0   4 -17 2.65216 7.29072   8
   0   4  17 7.41379 7.37808  12
   0  -4 -18 56.2590 13.1619   1
   0   4  18 83.8283 22.9702   3
   0  -4 -18 59.7010 16.2011   4
   0   4 -18 43.7834 10.3880   8
   0   4  18 38.1043 10.3887  12
   0  -4 -19 703.539 48.9809   4
   0   4  19 678.152 64.9430   3
   0   4 -19 718.700 42.6866   8
   0   4  19 608.935 40.8942  12
   0  -4 -20 1203.64 65.0484   4
   0   4  20 1163.38 85.9352   3
   0   4 -20 1163.20 54.7875   8
   0   4  20 1057.36 54.5593  12
   0   4  21 1942.93 112.437   3
   0  -4 -21 2061.26 86.1090   4
   0   4 -21 2024.73 72.3363   8
   0   4  21 1781.40 71.5614  12
   0  -4 -22 944.672 59.5461   4
   0   4  22 925.154 80.2351   3
   0   4 -22 952.666 50.6743   8
   0   4  22 917.220 52.2784  12
   0  -4 -23 812.324 56.2624   4
   0   4  23 794.375 75.5774   3
   0   4 -23 799.385 46.3685   8
   0   4  23 688.843 45.8591  12
   0   4 -24 116.498 19.8588   8
   0  -4 -24 143.104 24.2538   4
   0   4  24 133.402 31.6907   3
   0  -4  24 113.044 16.1400  21
   0   4  24 85.9304 18.7576  12
   0   4 -25 4813.22 113.455   8
   0  -4  25 4992.34 169.013   2
   0  -4 -25 4991.52 140.502   4
   0   4  25 4728.47 187.196   3
   0  -4  25 4636.69 94.2659  21
   0   4  25 4664.50 119.923  12
   0   4 -26 680.460 43.8615   8
   0  -4  26 642.075 35.7227  21
   0   4  26 624.984 44.9239  12
   0   4 -27 1592.16 65.2977   8
   0  -4  27 1510.47 54.8129  21
   0   4  27 1494.29 68.6746  12
   0   4 -28 8584.73 149.705   8
   0  -4  28 8596.45 129.784  21
   0   4  28 8226.70 160.247  12
   0   4 -29 20.7058 12.4053   8
   0  -4  29 31.2189 11.8588  21
   0  -4  29 41.7905 15.1940  12
   0   4  29 36.1994 15.9553  12
   0   4 -30 4744.54 108.332   8
   0  -4  30 4613.77 95.0630  21
   0  -4  30 4778.81 100.654  12
   0   4  30 4621.01 118.282  12
   0   4 -31 2645.36 79.8247   8
   0  -4  31 2586.94 70.7813  21
   0   4  31 2615.97 87.6060  12
   0  -4  31 2745.75 76.8607  12
   0   4 -32 39.8711 12.3680   8
   0  -4  32 23.0179 8.41712  21
   0   4  32 29.2672 12.2967  12
   0  -4 -32 67.3320 16.3535  13
   0  -4  32 38.6625 12.5909  12
   0   4 -33 2670.91 75.9847   8
   0  -4  33 2618.08 69.2518  21
   0   4  33 2789.34 86.2573  12
   0  -4 -33 2844.70 77.8860  13
   0  -4  33 2771.91 75.2187  12
   0   4 -34 399.775 28.9483   8
   0  -4  34 456.940 28.5720  21
   0  -4 -34 519.677 33.6213  13
   0  -4  34 463.626 30.7629  12
   0   4  34 483.578 35.4013  12
   0   4 -35 69.8806 12.2859   8
   0  -4  35 61.6889 10.9317  21
   0   4  35 67.3800 14.0577  12
   0  -4  35 75.4617 12.3888  12
   0  -4 -35 80.7706 14.0391  13
   0   4 -36 324.519 23.5784   8
   0  -4 -36 366.601 26.5979  13
   0  -4  36 305.084 23.3944  12
   0   4  36 306.488 25.6743  12
   0   4 -37-6.82691 4.54205   8
   0  -4  37-12.9501 8.90676  12
   0  -4 -37 5.51155 5.49281  13
   0   4 -38 10.2603 4.71304   8
   0  -4  38-11.9646 7.78189  12
   0   4  38-1.72035 5.15645  12
   0  -4 -38-3.79317 6.25408  13
   0  -4  39 162.993 15.6749  12
   0  -4 -39 164.777 16.3839  13
   0   4  39 158.827 14.2049  12
   0  -4 -40-1.12629 5.54715  13
   0  -4  40 5.42940 4.74159  12
   0  -4 -41 35.3199 7.59409  17
   0  -4  41 24.2816 4.96510  12
   0  -4 -41 23.0116 5.71765  13
   0   5   0-7.50598 9.78240  18
   0   5   1 292.705 23.0188  18
   0   5  -1 293.959 23.3863  18
   0  -5  -1 271.488 31.7913   4
   0  -5   1 276.912 33.1233   4
   0  -5   1 337.557 34.8389   5
   0   5  -2 642.957 34.5405  18
   0   5   2 635.446 33.6309  18
   0  -5   2 766.799 52.9288   5
   0  -5  -2 691.214 51.1792   4
   0   5  -3 876.988 40.5080  18
   0   5   3 867.701 39.1578  18
   0  -5  -3 909.799 57.8005   4
   0  -5   3 940.085 59.7864   5
   0   5  -4 433.245 28.6506  18
   0   5   4 413.036 27.4243  18
   0  -5  -4 433.724 39.5934   4
   0   5   4 422.187 45.9322   3
   0  -5   4 470.226 43.3486   5
   0   5  -5 375.669 28.8310   8
   0   5  -5 462.707 30.3371  18
   0   5   5 422.933 27.6422  18
   0  -5   5 404.140 40.4643   5
   0  -5  -5 449.100 40.5869   4
   0   5  -6 10837.6 154.105   8
   0   5   6 11019.4 136.636  18
   0   5  -6 11258.9 145.700  18
   0  -5  -6 11531.8 200.080   4
   0  -5   6 11166.3 211.729   5
   0   5   6 11067.8 235.282   3
   0   5  -7 3909.63 93.8373   8
   0   5   7 3786.48 80.2480  18
   0   5  -7 4234.69 89.1952  18
   0   5   7 4163.31 145.679   3
   0  -5   7 4010.26 130.085   5
   0  -5  -7 4080.44 118.595   4
   0   5  -8 4512.54 101.966   8
   0   5   8 4452.05 86.2914  18
   0   5  -8 4881.26 96.1394  18
   0  -5   8 4602.23 140.663   5
   0   5   8 4599.74 155.424   3
   0  -5  -8 4792.31 128.292   4
   0   5  -9 350.012 29.7912   8
   0   5   9 344.295 24.3457  18
   0   5  -9 349.343 26.6455  18
   0  -5  -9 353.397 35.7977   4
   0   5   9 352.784 44.6049   3
   0   5 -10 599.361 38.6603   8
   0   5 -10 641.144 35.2998  18
   0  -5 -10 640.944 47.7052   4
   0   5  10 633.582 59.7950   3
   0   5 -11 2462.53 77.8997   8
   0   5 -11 2428.43 67.8359  18
   0  -5 -11 2586.92 94.7540   4
   0   5  11 2502.86 119.069   3
   0   5 -12 28.5625 11.4142   8
   0   5 -12 28.7086 9.08429  18
   0  -5 -12 34.1584 12.9278   4
   0   5  12 50.2958 19.6443   3
   0   5 -13 49.5628 13.6569   8
   0   5  13 45.1539 15.8283   3
   0  -5 -13 95.6307 18.7236   4
   0   5 -13 61.3136 12.3471  18
   0   5 -14 1618.94 66.1491   8
   0   5  14 1692.56 102.178   3
   0  -5 -14 1739.35 77.8451   4
   0  -5  14 1677.50 86.2636   2
   0   5 -14 1593.54 54.4802  18
   0   5 -15 78.9032 15.8081   8
   0  -5 -15 95.8617 19.3358   4
   0  -5  15 116.860 24.2914   2
   0   5  15 57.2295 24.4024   3
   0   5 -15 80.8894 13.3540  18
   0   5  15 56.4107 12.7408  12
   0   5 -16 3877.71 103.309   8
   0   5  16 3999.66 161.966   3
   0  -5 -16 4132.56 121.397   4
   0  -5  16 3933.46 134.820   2
   0   5 -16 3890.32 83.5168  18
   0   5 -17 365.322 34.0092   8
   0  -5  17 330.425 40.5537   2
   0  -5 -17 379.527 37.5555   4
   0   5  17 380.633 51.6544   3
   0   5 -17 368.564 26.2374  18
   0   5  17 255.662 25.2336  12
   0   5 -18 2579.89 85.8166   8
   0   5  18 2641.85 135.857   3
   0  -5  18 2411.97 109.166   2
   0  -5 -18 2657.40 98.5525   4
   0   5 -18 2539.97 65.9934  18
   0  -5 -19 3233.49 109.844   4
   0  -5  19 2985.25 123.096   2
   0   5  19 3385.59 155.540   3
   0   5 -19 3265.04 96.9891   8
   0   5 -20 30.6708 12.5210   8
   0   5  20 17.1456 8.64535  12
   0   5 -21 665.808 45.2073   8
   0   5  21 547.180 37.6268  12
   0   5 -22 3653.89 102.884   8
   0   5  22 2865.25 85.1725  12
   0   5 -23 246.581 28.4725   8
   0   5  23 207.047 23.8552  12
   0   5 -24 3748.73 103.393   8
   0   5  24 3072.20 87.8865  12
   0   5 -25 267.250 29.1269   8
   0  -5  25 276.580 22.7887  21
   0   5  25 213.396 24.0103  12
   0   5 -26 29.3983 13.0637   8
   0  -5  26 21.5611 8.98382  21
   0   5  26 38.2718 11.9244  12
   0   5 -27 16.4607 9.48519   8
   0  -5  27 20.2192 7.58899  21
   0   5  27 15.8398 8.86667  12
   0   5 -28 161.407 22.0678   8
   0  -5  28 205.116 19.2539  21
   0   5  28 190.732 21.7760  12
   0  -5 -28 215.276 21.9065  13
   0   5 -29 2154.44 72.6388   8
   0  -5  29 2311.61 60.8136  21
   0  -5 -29 2259.23 66.2595  13
   0  -5  29 2297.56 65.3785  12
   0   5 -30 87.7059 16.4648   8
   0  -5  30 93.9601 12.8417  21
   0  -5 -30 114.550 16.6650  13
   0   5  30 78.5980 13.9135  12
   0  -5  30 94.7439 15.0330  12
   0   5 -31 1448.65 56.2164   8
   0  -5 -31 1450.84 51.6541  13
   0  -5  31 1501.15 51.1913  12
   0   5  31 1331.08 49.4156  12
   0   5 -32 109.398 15.9216   8
   0  -5  32 123.658 15.3183  12
   0  -5 -32 144.186 17.1801  13
   0   5 -33 81.7845 13.4455   8
   0  -5  33 102.356 13.9122  12
   0  -5 -33 87.8533 13.5276  13
   0   5 -34 399.572 25.9064   8
   0  -5 -34 441.095 26.4963  13
   0  -5  34 405.888 24.6956  12
   0   5 -35 109.188 13.0659   8
   0  -5  35 112.321 12.7062  12
   0  -5 -35 117.838 13.8273  13
   0   5 -36 152.955 14.2852   8
   0  -5  36 153.423 13.9340  12
   0  -5 -36 167.158 15.2900  13
   0   5 -37 5.48578 3.45557   8
   0  -5 -37 4.30773 4.81641  13
   0  -5  37 9.86585 5.04067  12
   0  -5 -38 10.4156 4.42576  17
   0  -5 -38-3.03177 5.01258  13
   0   6   0 11995.7 160.155  18
   0   6   1 1913.65 64.2959  18
   0   6  -1 1999.20 66.1813  18
   0   6  -2 72.4938 17.7430  18
   0   6   2 56.7158 15.1401  18
   0   6  -3 6835.51 127.456   8
   0   6   3 6518.74 116.996  18
   0   6  -3 6550.76 120.221  18
   0   6  -4 7904.31 138.902   8
   0   6  -4 7976.33 132.804  18
   0   6   4 7602.78 124.883  18
   0   6  -5 2008.44 71.0513   8
   0   6  -5 2111.76 68.9265  18
   0   6  -6 9206.13 152.806   8
   0   6  -6 9632.83 147.017  18
   0   6  -7 1092.86 54.0383   8
   0   6  -7 1175.43 52.2742  18
   0   6  -8 1181.53 55.8650   8
   0   6  -8 1219.78 52.4761  18
   0   6  -9-7.27139 9.61494   8
   0   6  -9 18.3400 9.34766  18
   0   6 -10 156.114 21.0772   8
   0   6 -10 161.267 19.8412  18
   0   6 -11 2.96242 7.56637   8
   0   6 -11 0.90406 8.34917  18
   0   6 -12 1077.50 55.2215   8
   0   6 -12 1094.07 48.6379  18
   0   6 -13 0.48887 9.46139   8
   0   6 -14 165.737 22.9930   8
   0   6 -15 58.2413 14.9769   8
   0   6 -16 221.460 26.8269   8
   0   6 -17 10.7298 10.2909   8
   0   6 -18 76.7834 16.4729   8
   0   6 -19 227.784 26.6103   8
   0   6 -20 49.2120 14.8430   8
   0   6 -21 550.056 40.0514   8
   0   6 -22 1392.13 62.3305   8
   0  -6 -22 1295.20 45.6960  13
   0   6 -23 46.2721 16.9717   8
   0  -6 -23 35.4595 9.98024  13
   0   6 -24 1699.73 66.0800   8
   0  -6 -24 1548.78 49.5460  13
   0   6 -25 1744.78 65.8800   8
   0  -6 -25 1643.69 50.3384  13
   0   6 -26 368.349 30.1305   8
   0  -6 -26 382.396 24.1369  13
   0  -6  26 409.321 25.4179  12
   0   6 -27 194.225 22.6443   8
   0  -6 -27 169.145 16.3047  13
   0  -6  27 204.843 18.1182  12
   0   6 -28 2892.79 76.1342   8
   0  -6  28 2921.00 63.3376  12
   0  -6 -28 2889.83 63.1805  13
   0   6 -29 586.338 33.5497   8
   0  -6  29 545.149 27.0432  12
   0  -6 -29 541.094 27.1934  13
   0   6 -30 2773.22 68.6304   8
   0  -6 -30 2728.40 58.1109  13
   0  -6  30 2718.66 56.7012  12
   0   6 -31 947.253 38.4266   8
   0  -6 -31 1008.79 36.7213  17
   0  -6  31 938.387 32.0994  12
   0  -6 -31 1014.47 34.4025  13
   0   6 -32 39.0250 9.02184   8
   0  -6 -32 35.8575 7.67362  17
   0  -6  32 30.9408 6.13161  12
   0  -6 -32 30.0179 6.53182  13
   0   6 -33 256.977 17.8018   8
   0   6 -34 26.6841 5.99276   8
   0   7  -6 2776.63 80.0342   8
   0   7  -7 713.942 41.7591   8
   0   7  -8 885.922 46.8078   8
   0   7  -9 220.558 24.4280   8
   0   7 -10 1351.25 57.9720   8
   0   7 -11 1437.10 59.4427   8
   0   7 -12 25.1409 10.2767   8
   0   7 -13 26.2661 10.8235   8
   0   7 -14 842.212 45.5807   8
   0   7 -15 23.3316 10.2575   8
   0   7 -16 408.328 31.7165   8
   0   7 -17 39.4232 12.0072   8
   0   7 -18 64.3313 13.5151   8
   0   7 -19 71.2598 14.1086   8
   0   7 -20 34.4217 10.6624   8
   0   7 -21 503.836 32.3424   8
   0   7 -22 458.848 30.1814   8
   0   7 -23 967.720 42.0964   8
   0   7 -24 773.459 36.4051   8
   0   7 -25 376.503 24.4409   8
   0   7 -26 54.9183 10.2386   8
   0   7 -27 188.619 16.3231   8
   0   7 -28 159.628 13.9118   8
   0   8 -14 27.8330 6.71594   8
   0   8 -15 19.7675 4.85965   8
   0   8 -16-7.98319 5.00814   8
  -1   0  45 519.524 26.1166  12
  -1   0  44 0.01306 4.42415  12
  -1   0  43 12.1739 6.29110  12
  -1   0  42-2.53787 7.03500  12
  -1   0  41 135.637 17.7662  12
  -1   0  40-1.64891 6.01461  12
  -1   0  39 252.995 25.1701  12
  -1   0  38 2.66053 8.38853  12
  -1   0  37 861.483 47.5649  12
  -1   0  36-5.04095 6.30714  11
  -1   0  36 2.07394 8.32540  12
  -1   0  35 305.064 29.4758  12
  -1   0  35 306.064 24.2508  11
  -1   0  34 48.9879 14.7259  11
  -1   0  34 25.5936 15.8868  21
  -1   0  34 73.9684 18.9448  12
  -1   0  33 20543.0 230.768  21
  -1   0  33 21154.1 198.381  11
  -1   0  33 21014.6 234.847  12
  -1   0  32 13.7224 9.85589  11
  -1   0  32 21.3418 14.2240  21
  -1   0  32 3.19687 10.5028  12
  -1   0  31 1255.61 81.7032   3
  -1   0  31 1190.29 54.9381  21
  -1   0  31 1165.32 46.5386  11
  -1   0  31 1187.23 55.2701  12
  -1   0  30 5.72526 8.07001  11
  -1   0  30 26.3928 14.5234  21
  -1   0  30 22.3054 13.2384  12
  -1   0  29 14604.7 181.284  21
  -1   0  29 14639.1 159.510  11
  -1   0  29 14703.3 185.457  12
  -1   0  28 9.74133 6.74215  11
   1   0 -28 8.43485 12.5508   4
  -1   0  28 6.10965 9.50434  21
  -1   0  28 15.4889 9.42044  12
   1   0 -27 2121.51 96.3464   4
  -1   0  27 2186.13 66.9865  21
  -1   0  27 2218.38 68.3745  12
  -1   0  27 2084.40 58.2383  11
   1   0 -26-4.91935 12.0035   4
  -1   0  26 2.04925 5.33576  12
   1   0 -25 2081.31 89.6405   4
   1   0 -24 0.99048 8.26969   4
   1   0 -23 2038.21 83.4024   4
   1   0 -22 9.92347 8.72259   4
   1   0 -21 34.0287 11.3271   4
   1   0 -20 3.85748 9.53903   4
   1   0 -19 19051.8 218.896   4
   1   0 -18 27.1333 12.7109   4
   1   0 -17 50942.8 331.454   4
   1   0 -16 28.5369 10.1008   4
   1   0 -15 2484.33 68.0515   4
   1   0 -14 5.72258 5.32409   4
   1   0 -13 1166.87 42.9556   4
   1   0 -12 7.95351 5.30421   4
   1   0 -11 2808.77 60.5229   4
   1   0 -10 5.69625 6.11066   4
  -1   0  10 16.5653 4.01805   6
   1   0  -9 136638. 382.867   4
  -1   0   9 136160. 282.493   6
   1   0  -8 6.99289 4.69616   4
  -1   0   8 9.49693 3.78628   6
  -1   0   7 14675.1 117.140   2
   1   0  -7 14429.2 112.255   4
  -1   0   7 14547.5 91.6258   6
   1   0  -6 3.39470 3.71566   4
  -1   0   6 2.52394 3.38668   2
  -1   0   6 4.00002 3.20952   6
  -1   0   5 187101. 333.302   6
  -1   0   5 187958. 386.588   2
  -1   0   5 188200. 312.245   3
  -1   0   4-0.38865 1.57461   3
  -1   0   4-1.16089 2.62656   5
  -1   0   4 0.44643 2.18588   6
  -1   0   4 3.77983 2.82794   2
  -1   0   3 83379.0 247.107   2
  -1   0   3 83857.4 177.514   3
  -1   0   3 83669.2 222.824   5
  -1   0   3 84083.9 228.162   6
  -1   0   2 4.88322 2.68083   6
  -1   0   2-0.86543 2.47763   2
  -1   0   2 1.90373 1.46592   3
  -1   0   1 49155.4 190.232   2
  -1   0   1 49849.5 181.905   6
  -1   0   0 1.61262 3.01617   2
  -1   0   0-0.35023 2.36848   6
  -1   0  -1 248066. 432.163   2
  -1   0  -2 1.85867 1.61429   4
  -1   0  -3 136.145 8.50810   4
  -1   0  -4 4.14008 2.05693   4
  -1   0  -5 71397.8 213.832   4
  -1   0  -6-0.12780 1.90085   4
  -1   0  -7 478.344 19.4723   4
  -1   0  -7 411.537 18.6043   1
  -1   0  -8 18.8369 4.60577   1
  -1   0  -8 0.78711 3.36357   4
  -1   0  -9 43006.2 204.308   4
  -1   0  -9 42996.1 207.243   1
  -1   0 -10 52.1533 8.14492   1
  -1   0 -10-4.87585 4.03007   4
  -1   0 -11 269.226 18.1481   4
  -1   0 -11 262.779 18.0649   1
  -1   0 -12 5.07577 3.62753   4
  -1   0 -12 4.14707 4.41969   1
  -1   0 -13 40028.1 236.371   4
  -1   0 -13 39081.3 236.392   1
  -1   0 -14 17.2981 6.96745   4
  -1   0 -14 11.9425 6.88073   1
  -1   0 -15 76779.3 351.846   4
  -1   0 -16 1.29038 4.84162   4
  -1   0 -17 66502.0 354.147   4
  -1   0 -18 9.56668 8.11747   4
  -1   0 -19 14393.8 177.348   4
  -1   0 -20-3.19556 6.86528   4
  -1   0 -21 5781.76 121.710   4
  -1   0 -22 8.22096 7.10847   4
  -1   0 -23 4469.30 114.372   4
  -1   0 -24 16.8274 12.5753   4
  -1   0 -25 15312.2 228.116   4
  -1   0 -26 11.7910 10.2629   4
   1   0  26 29.6264 12.0225  12
  -1   0 -26 14.6937 8.90207  13
  -1   0 -27 518.882 44.7662   4
  -1   0 -27 483.006 31.6639  13
   1   0  27 585.842 37.6436  12
  -1   0 -28 6.68939 8.79279   4
  -1   0 -28 3.78503 8.39234  13
   1   0  28 0.55873 6.12444  12
  -1   0 -29 3661.79 125.858   4
   1   0  29 3733.54 98.6930  12
  -1   0 -29 3459.48 87.9466  13
  -1   0 -30 10.8462 11.2401   4
   1   0  30 2.88704 7.38696  12
  -1   0 -30 11.4199 6.17006  13
  -1   0 -31 1981.16 97.5622   4
   1   0  31 1977.61 74.6208  12
  -1   0 -31 1735.29 64.2488  13
  -1   0 -32 14.9023 6.91010  13
   1   0  32 10.0688 8.78150  12
  -1   0 -33 1287.31 55.7928  13
   1   0  33 1438.70 64.9920  12
  -1   0 -34-15.0012 9.19692  13
   1   0  34-1.46496 9.33014  12
  -1   0 -35 24.9095 10.0586  13
   1   0  35 7.97207 8.52069  12
   1   0  36 1.42613 9.72787  12
  -1   0 -36 6.13003 6.87654  13
  -1   0 -37 30.0507 10.6139  13
   1   0  37 18.8039 9.76240  12
   1   0  38-3.46832 7.57905  12
  -1   0 -38 4.20974 7.40042  13
   1   0  39 32.8165 11.4574  12
  -1   0 -39 37.0699 9.01664  13
   1   0  40-3.05052 6.76730  12
   1   0  41 817.239 43.5221  12
   1   0  42 8.51273 7.68930  12
   1   0  43 1291.86 49.4265  12
   1   0  44 10.2826 6.35211  12
   1   0  45 348.280 22.4627  12
   1   0  46 5.90592 3.39444  12
  -1  -1  45 50.5030 8.57851  12
  -1   1  44 21.1541 6.13701  12
  -1  -1  44 24.9562 7.56479  12
  -1  -1  43 200.478 19.1028  12
  -1   1  43 179.881 17.9298  12
  -1  -1  42 15.5765 6.73781  12
  -1   1  42 24.6736 8.14399  12
  -1   1  41 17.6695 7.64609  12
  -1  -1  41 12.9734 6.98013  12
  -1   1  40 61.4414 10.2779  11
  -1  -1  40 84.7183 14.6686  12
   1  -1 -40 81.1816 11.9186  13
  -1   1  40 70.9324 13.2367  12
  -1   1  39 29.5396 7.90055  11
  -1   1  39 20.5821 9.30618  12
   1  -1 -39 34.6933 9.61608  13
  -1  -1  39 21.2566 10.0961  12
  -1   1  38 27.0040 8.07244  11
  -1  -1  38 31.6863 11.4889  12
   1  -1 -38 33.2279 9.51655  13
  -1   1  38 24.6251 9.66871  12
  -1   1  37 26.8437 9.52797  11
  -1  -1  37 19.7628 9.16580  21
  -1  -1  37 37.2513 12.8256  12
  -1   1  37 13.2534 7.20028  12
  -1  -1  36 554.656 37.5526  21
  -1   1  36 558.150 34.3156  11
  -1  -1  36 548.261 37.6202  12
   1  -1 -36 632.172 35.1342  13
  -1   1  36 599.814 41.0422  12
  -1  -1  35 2097.34 72.9194  21
  -1  -1  35 2126.32 73.8555  12
   1  -1 -35 2209.17 65.8073  13
  -1   1  35 2208.38 78.3282  12
  -1   1  35 2178.15 67.9147  11
  -1   1  34 18.3825 10.4863  11
  -1  -1  34 1.66793 9.66989  21
  -1   1  34 4.89004 10.9834  12
  -1  -1  34 14.0164 12.2295  12
  -1  -1  33 8218.18 142.605  21
  -1   1  33 8509.65 133.818  11
  -1   1  33 8394.12 152.477  12
  -1  -1  33 8296.36 144.253  12
   1  -1 -32 481.452 51.2817   4
  -1  -1  32 475.796 52.3137   2
  -1   1  32 455.164 54.0758   3
  -1  -1  32 487.677 35.8954  21
  -1   1  32 473.682 33.5924  11
  -1   1  32 487.875 39.9656  12
  -1  -1  32 484.924 37.5650  12
  -1   1  31 38577.8 476.733   3
   1  -1 -31 37931.4 430.251   4
  -1  -1  31 35169.3 288.155  21
  -1  -1  31 35823.5 291.938  12
  -1   1  31 35602.0 270.873  11
  -1   1  31 36086.1 311.412  12
   1  -1 -30 524.615 51.1477   4
  -1   1  30 542.945 56.9635   3
  -1  -1  30 549.607 37.2726  21
  -1  -1  30 542.626 36.4261  12
  -1   1  30 521.846 33.7063  11
  -1   1  30 492.639 37.9641  12
   1  -1 -29 21732.8 311.288   4
  -1   1  29 22327.0 347.190   3
  -1  -1  29 21272.1 215.921  21
  -1  -1  29 21520.2 218.131  12
  -1   1  29 21448.9 205.156  11
  -1   1  29 20781.0 230.234  12
  -1   1  28 900.100 68.4660   3
   1  -1 -28 813.909 59.3101   4
  -1  -1  28 802.587 41.5852  21
  -1   1  28 773.353 43.4554  21
  -1  -1  28 820.064 41.9796  12
  -1   1  28 803.843 39.9307  11
  -1   1  28 769.988 44.2034  12
   1  -1 -27 353.598 38.2961   4
  -1   1  27 384.021 44.8453   3
  -1  -1  27 359.598 27.4304  21
  -1   1  27 346.753 28.7961  21
  -1  -1  27 350.257 27.0217  12
  -1   1  27 378.469 26.6591  11
  -1   1  27 361.146 29.3213  12
  -1   1  26 11.6142 7.18990  11
  -1   1  26 26.5338 15.3112   3
   1  -1 -26 16.9598 11.6749   4
  -1   1  26 8.43677 6.02887  21
  -1  -1  26 2.98339 5.72991  19
  -1  -1  26-4.16821 6.35534  21
  -1   1  26 9.06875 6.45982  12
  -1  -1  26-4.85834 7.42804  12
  -1  -1  25 1545.09 52.9762  21
  -1  -1  25 1637.75 54.7257  19
   1  -1 -25 1573.60 74.1987   4
  -1   1  25 1490.87 80.8373   3
   1  -1 -24 1667.74 73.8355   4
  -1   1  24 1701.00 83.5686   3
   1  -1 -23 4169.38 112.663   4
  -1   1  23 4256.34 128.287   3
   1  -1 -22 3389.07 98.0124   4
  -1   1  22 3393.46 111.620   3
   1  -1 -21 5724.94 123.615   4
  -1   1  21 5846.24 141.838   3
   1  -1 -20 2327.87 75.6879   4
  -1   1  20 2309.87 86.9193   3
   1  -1 -19 20824.4 218.643   4
  -1   1  19 20492.0 248.418   3
   1  -1 -18 1479.73 56.4345   4
  -1   1  18 1462.76 64.6840   3
   1  -1 -17 31057.5 245.816   4
  -1   1  17 30411.9 282.583   3
   1  -1 -16 231.593 20.8611   4
  -1   1  16 228.743 25.1067   3
   1  -1 -15 6012.51 99.5971   4
  -1   1  15 5699.33 114.211   3
   1  -1 -14 9.73208 5.18026   4
  -1   1  14 8.25649 6.28655   3
  -1   1  13 5385.35 102.087   3
   1  -1 -13 5717.78 88.8431   4
  -1   1  12 37.3489 8.92391   3
   1  -1 -12 41.5110 7.90621   4
  -1   1  11 17808.4 173.310   3
  -1   1  11 18032.2 134.511   6
   1  -1 -10 17787.9 134.756   4
  -1   1  10 17776.9 128.687   6
  -1   1   9 926.858 25.0772   2
   1  -1  -9 918.972 28.9582   4
  -1   1   9 904.521 29.2813   6
   1  -1  -8 3039.35 49.5914   4
  -1   1   8 2932.24 41.0133   2
  -1   1   8 2997.45 64.0602   3
  -1   1   8 2999.24 51.9561   6
  -1   1   7 14451.7 82.7740   2
  -1   1   7 14126.3 134.815   3
  -1  -1   7 15122.7 143.458   2
   1  -1  -7 14245.3 100.592   4
  -1  -1   7 14781.7 52.0630   6
  -1   1   7 15315.3 116.439   6
  -1   1   6 13060.8 125.967   3
   1  -1  -6 13278.4 90.5612   4
  -1  -1   6 13195.5 57.4933   6
  -1   1   5 18877.5 82.9152   2
   1  -1  -5 18747.6 98.0518   4
  -1  -1   5 18925.8 78.7436   6
  -1   1   4 269.900 17.4695   3
  -1   1   4 285.661 9.78607   2
  -1  -1   4 299.993 11.0668   6
  -1  -1   4 255.199 17.7976   2
  -1  -1   3 106809. 339.487   5
  -1   1   3 106230. 336.063   3
  -1  -1   3 103474. 344.998   2
  -1  -1   2 1824.60 45.5342   2
   1  -1  -2 2002.16 20.3823   4
  -1   1   2 1860.70 44.6626   3
  -1  -1   2 1964.97 46.5521   5
  -1  -1   1 999999. 1029.23   5
  -1  -1   1 998097. 1042.54   2
  -1  -1   0 114.346 13.3098   2
  -1   1   0 103.939 11.9381   3
  -1  -1   0 130.792 13.6180   5
   1   1   0 104.623 6.58389   3
  -1  -1  -1 6885.86 87.0223   2
   1   1   1 6870.96 57.6591   3
  -1   1  -2 1341.07 35.8373   6
  -1  -1  -2 1293.72 37.4438   2
   1   1   2 1377.65 27.6688   3
   1   1   3 84413.9 228.346   3
  -1   1  -3 83411.5 285.804   6
  -1  -1  -4 6034.61 83.3395   4
  -1   1  -4 6096.06 78.9894   6
  -1   1  -4 6225.91 54.3581   4
  -1  -1  -5 1150.48 36.8498   4
  -1   1  -5 1252.85 27.1496   4
  -1   1  -5 1210.88 36.0528   6
  -1   1  -6 627.127 20.8640   4
  -1   1  -6 607.676 26.2142   6
  -1  -1  -6 623.770 27.4509   4
  -1   1  -7 47131.9 194.029   4
  -1   1  -7 47090.1 235.977   6
  -1   1  -8 6730.17 78.0603   4
  -1  -1  -8 6762.34 93.4900   4
  -1   1  -9 33073.9 183.117   4
  -1  -1  -9 33190.1 213.321   4
  -1   1 -10 3760.84 65.1384   4
  -1  -1 -10 3821.93 73.7626   4
  -1  -1 -11 4914.28 84.9898   4
  -1   1 -11 4851.17 77.6389   4
  -1   1 -12 1566.44 46.3881   4
  -1  -1 -12 1639.98 49.6107   1
  -1  -1 -12 1548.16 49.0775   4
  -1  -1 -13 4972.18 88.4579   1
  -1   1 -13 5149.84 87.8935   4
  -1  -1 -13 5026.29 90.8862   4
  -1  -1 -14 3021.97 73.0109   4
  -1   1 -14 2935.98 69.2563   4
  -1  -1 -14 2895.19 70.0205   1
  -1  -1 -15 33919.0 249.687   4
  -1   1 -15 34182.8 246.226   4
  -1  -1 -15 33694.3 245.114   1
  -1  -1 -16 3570.24 83.5978   4
  -1  -1 -16 3580.53 82.6454   1
  -1   1 -16 3650.18 84.2592   4
  -1  -1 -17 28437.8 243.266   4
  -1  -1 -17 29014.9 241.930   1
  -1   1 -17 28707.6 245.685   4
  -1  -1 -18 5234.15 108.459   4
  -1  -1 -18 5382.50 107.763   1
  -1   1 -18 5274.69 110.383   4
  -1  -1 -19 81235.1 436.657   1
  -1   1 -19 82145.7 446.857   4
  -1   1 -20 5.21743 10.4742   4
  -1  -1 -20 6.17321 9.76876   4
  -1  -1 -21 113.400 18.4911   4
  -1   1 -21 106.777 18.5776   4
  -1   1 -22 22.3499 10.7601   4
  -1  -1 -22 27.2824 10.2625   4
  -1  -1 -23 2125.17 78.6398   4
  -1   1 -23 2009.40 81.2257   4
  -1  -1 -24 59.1904 15.4451   4
  -1   1 -24 63.4853 15.7545   4
  -1  -1 -25 8924.85 171.070   4
  -1   1 -25 9134.19 185.449   4
   1  -1  25 9249.05 136.959  21
  -1  -1 -25 9090.16 131.488  13
   1   1  25 9392.37 152.345  12
   1  -1  25 9448.20 137.971  12
  -1   1 -26 6343.75 159.515   4
  -1  -1 -26 6415.76 149.987   4
   1  -1  26 6499.03 117.398  21
   1  -1  26 6669.17 118.949  12
   1   1  26 6440.42 129.427  12
  -1  -1 -26 6338.61 112.693  13
  -1  -1 -27 761.301 53.5958   4
  -1   1 -27 699.763 54.4177   4
   1  -1  27 774.448 41.6382  21
   1   1  27 759.959 45.3287  12
   1  -1  27 766.167 41.5071  12
  -1  -1 -27 722.057 39.0404  13
  -1  -1 -28-2.79167 9.00459   4
   1  -1  28-3.73331 11.2156  21
   1  -1  28-7.15503 7.58222  12
   1   1  28-1.82962 8.03586  12
  -1  -1 -28 0.37392 9.80842  13
  -1  -1 -29 621.389 51.8273   4
  -1   1 -29 633.003 54.7877   4
   1   1  29 590.797 42.3691  12
   1  -1  29 741.985 42.2104  12
  -1  -1 -29 633.207 38.2602  13
  -1  -1 -30 551.674 50.2216   4
   1  -1  30 500.858 35.5213  12
  -1  -1 -30 487.517 33.9131  13
   1   1  30 517.201 39.7436  12
  -1  -1 -31 39.1176 14.8002   4
   1  -1  31 19.2216 8.39801  12
   1   1  31 26.2643 11.3365  12
  -1  -1 -31 29.3965 9.33764  13
   1  -1  32 136.053 20.6113  12
   1   1  32 106.396 19.7816  12
  -1  -1 -32 102.226 16.3153  13
  -1  -1 -33 3330.70 89.9419  13
   1  -1  33 3405.99 95.6828  12
   1   1  33 3394.55 102.502  12
   1  -1  34 49.3762 13.9706  12
  -1  -1 -34 34.3769 11.8063  13
   1   1  34 45.1220 14.5094  12
   1  -1  35 634.116 41.7701  12
   1   1  35 613.158 44.2805  12
  -1  -1 -35 618.816 39.4990  13
   1   1  36 313.625 31.7090  12
   1  -1  36 344.277 30.9451  12
  -1  -1 -36 305.748 27.7676  13
  -1  -1 -37 665.094 39.9817  13
   1  -1  37 658.035 42.0455  12
   1   1  37 622.867 43.3845  12
  -1  -1 -38 102.824 15.8183  17
   1  -1  38 110.404 18.0565  12
  -1  -1 -38 95.9812 15.9102  13
   1   1  38 99.1524 18.3814  12
  -1  -1 -39 118.211 15.4433  17
  -1  -1 -39 129.684 17.5367  13
   1  -1  39 140.370 19.2866  12
   1   1  39 143.977 21.4004  12
  -1  -1 -40 90.3071 13.2683  17
   1   1  40 72.8845 14.3538  12
  -1  -1 -40 99.5149 14.6134  13
   1  -1  40 79.2248 14.5545  12
   1   1  41 8.77048 7.87513  12
  -1  -1 -41 1.23727 5.12583  13
   1  -1  41 1.40192 5.67606  12
  -1  -1 -42 52.2902 10.7226  13
   1   1  42 68.5276 13.0653  12
   1  -1  42 51.8329 11.1617  12
   1   1  43 85.2257 14.2410  12
   1  -1  43 88.8131 13.5619  12
  -1  -1 -43 87.0814 11.0859  13
   1   1  44 10.1389 6.10817  12
   1  -1  44 16.1403 6.92419  12
   1  -1  45 21.1436 6.54457  12
   1   1  45 26.2531 7.68996  12
   1   1  46 16.4310 5.37552  12
  -1  -2  45 877.738 30.6244  12
  -1  -2  44-2.43948 4.64944  12
   1  -2 -43 119.283 11.6416  13
  -1  -2  43 140.642 15.0682  12
  -1  -2  42 28.9355 8.67402  12
   1  -2 -42 23.6689 6.77196  13
   1  -2 -41 268.848 20.3228  13
  -1   2  41 263.669 21.4686  12
  -1  -2  41 298.838 23.7898  12
   1  -2 -40 46.6687 10.0205  13
  -1  -2  40 50.2475 11.6299  12
  -1   2  40 35.4149 9.54985  12
  -1  -2  39 4.25112 9.76637  21
  -1  -2  39 26.7603 8.57632  12
  -1   2  39 20.5376 8.16360  12
   1  -2 -39 35.3454 8.88122  13
  -1  -2  38 404.892 30.0327  21
  -1   2  38 433.790 32.1054  12
   1  -2 -38 486.104 30.6744  13
  -1   2  38 395.676 28.0515  11
  -1  -2  38 390.899 29.6325  12
   1   2 -37 718.735 36.1545   8
  -1  -2  37 634.396 38.2915  21
  -1   2  37 651.163 37.3712  11
   1  -2 -37 763.083 39.2351  13
  -1  -2  37 643.602 38.6673  12
  -1   2  37 692.860 41.9201  12
   1   2 -36 282.141 23.9022   8
  -1  -2  36 247.662 24.9487  21
  -1  -2  36 246.327 25.1776  12
  -1   2  36 268.781 27.5082  12
  -1   2  36 247.825 24.0706  11
  -1   2  35 31.5728 11.1042  11
   1   2 -35 23.0057 8.81920   8
  -1  -2  35 12.0411 9.04001  21
  -1   2  35 14.3536 7.69325  12
  -1  -2  35 32.7420 10.6551  12
   1   2 -34 1524.53 56.5018   8
  -1  -2  34 1469.59 60.1000  21
  -1   2  34 1418.99 63.4952  12
  -1   2  34 1422.47 58.3679  11
  -1  -2  34 1489.13 60.8590  12
  -1  -2  33 15265.2 190.187  21
  -1  -2  33 15100.6 190.818  12
  -1   2  33 14914.5 188.858  11
  -1   2  33 14832.9 205.537  12
  -1  -2  32 562.009 37.8102  21
  -1   2  32 540.090 37.0200  11
  -1  -2  32 536.447 36.7019  12
  -1   2  32 552.182 40.5628  12
  -1   2  31 6.88473 9.75407  11
  -1  -2  31 22.7206 13.0820  21
  -1  -2  31 15.2085 10.6639  12
  -1   2  31 18.0300 10.4863  12
   1  -2 -30 958.682 65.9810   4
  -1   2  30 977.828 81.9038   3
  -1  -2  30 958.225 75.1639   2
  -1  -2  30 912.396 46.3682  21
  -1  -2  30 926.489 46.8761  12
  -1   2  30 939.859 51.8130  12
  -1   2  30 879.784 46.4445  11
   1  -2 -29 1259.27 74.3013   4
  -1   2  29 1416.70 95.0840   3
  -1  -2  29 1342.80 53.5488  19
  -1  -2  29 1249.34 52.7006  21
  -1   2  29 1177.13 53.1726  11
  -1  -2  29 1239.89 52.9083  12
  -1   2  29 1264.70 59.8226  12
  -1   2  28 33.9897 11.4899  11
   1  -2 -28 19.8299 10.8252   4
  -1   2  28 2.18565 10.1958   3
  -1  -2  28 19.5917 9.04108  19
  -1  -2  28 12.8296 8.32229  21
  -1   2  28 23.8477 10.9718  12
  -1  -2  28-0.03663 8.68421  12
  -1   2  27 4459.01 163.032   3
   1  -2 -27 4603.06 132.776   4
  -1  -2  27 4470.20 96.1405  21
  -1  -2  27 4571.61 95.5145  19
  -1   2  27 4307.65 106.349  12
  -1   2  27 4442.19 98.3152  11
   1  -2 -26 6330.53 151.891   4
  -1   2  26 6255.41 189.011   3
  -1  -2  26 6291.45 109.673  19
  -1  -2  26 6432.46 112.763  21
  -1   2  26 6173.09 114.142  11
  -1   2  26 6120.28 123.895  12
  -1   2  25 1093.53 77.8622   3
   1  -2 -25 1124.01 62.6653   4
  -1  -2  25 1148.55 45.9632  19
  -1   2  25 1128.44 48.0541  11
  -1   2  24 63.0710 12.3220  11
  -1  -2  24 59.0942 11.0070  19
   1  -2 -24 67.4685 16.5593   4
  -1   2  24 61.9340 20.1058   3
  -1   2  23 202.721 33.3879   3
   1  -2 -23 238.233 27.7026   4
   1  -2 -22 4654.34 114.421   4
  -1   2  22 4508.84 145.565   3
  -1   2  21 2994.19 115.601   3
   1  -2 -21 2909.46 87.7586   4
  -1   2  20 6.07560 8.70918   3
   1  -2 -20-0.27584 5.82825   4
   1  -2 -19 1231.52 53.6404   4
  -1   2  19 1222.18 69.7165   3
  -1   2  18 2725.50 100.875   3
   1  -2 -18 2740.04 76.5198   4
   1  -2 -17 6869.83 118.020   4
  -1   2  17 6715.48 153.189   3
   1  -2 -16 1039.66 44.4310   4
  -1   2  16 1196.34 63.5731   3
   1  -2 -15 29897.3 228.903   4
  -1   2  15 30449.5 307.088   3
   1  -2 -14 6082.19 100.855   4
  -1   2  14 6192.09 134.917   3
  -1   2  13 5966.50 129.393   3
   1  -2 -13 6441.63 99.8572   4
   1  -2 -12 11347.4 127.704   4
  -1   2  12 11070.3 171.629   3
   1  -2 -11 3961.52 72.1400   4
  -1   2  11 3827.82 97.4524   3
  -1   2  10 10275.9 154.793   3
  -1  -2  10 10401.4 150.053   2
   1  -2 -10 10476.6 112.752   4
  -1   2  10 10635.4 119.303   6
   1  -2  -9 16168.4 134.944   4
  -1  -2   9 16048.7 182.208   2
  -1   2   9 15931.9 189.990   3
  -1   2   9 16546.1 146.288   6
  -1   2   8 4882.69 102.750   3
   1  -2  -8 4987.43 72.0475   4
  -1  -2   8 4987.13 99.2718   2
  -1   2   8 5230.46 81.4773   6
  -1  -2   7 18210.8 183.728   2
   1  -2  -7 18524.3 133.050   4
  -1   2   7 18550.1 151.842   6
  -1   2   6 47340.7 305.380   3
   1  -2  -6 48908.2 206.611   4
  -1  -2   6 48620.8 293.779   2
  -1   2   6 47531.3 240.480   6
  -1   2   5 8204.64 125.412   3
  -1   2   5 8263.28 100.035   6
  -1   2   4 61.1602 14.5831   3
   1  -2  -4 38.5387 6.88226   4
  -1  -2   4 13.3123 7.37189   2
  -1   2   4 35.8532 10.6326   6
  -1   2   3 179796. 579.429   3
   1  -2  -3 179810. 368.138   4
  -1  -2   3 178360. 552.287   5
  -1   2   3 179889. 465.112   6
  -1   2   2 260957. 682.118   3
  -1  -2   2 255107. 656.055   5
  -1  -2   2 259133. 644.576   2
  -1   2   2 256026. 554.234   6
   1  -2  -1 9544.27 85.0426   4
  -1   2   1 9655.93 131.536   3
   1   2  -1 9378.25 99.2433   3
  -1  -2   1 9693.17 127.122   5
  -1   2   1 9789.04 108.013   6
  -1  -2   1 9391.92 121.023   2
   1   2   0 241746. 514.668   3
  -1  -2   0 242241. 630.942   5
  -1  -2  -1 128222. 456.406   5
   1   2   1 126800. 384.778   3
  -1   2  -1 128091. 473.428   3
  -1   2  -1 127230. 391.495   6
  -1  -2  -1 126164. 437.280   2
  -1  -2  -2 24971.3 193.450   2
  -1   2  -2 24389.3 170.404   6
  -1  -2  -2 24658.3 200.304   5
   1   2   2 24509.5 173.874   3
   1   2   3 38558.2 225.747   3
  -1  -2  -3 39011.4 237.849   2
  -1   2  -4 47368.8 243.165   6
  -1  -2  -4 47740.7 260.867   2
  -1  -2  -5 271.834 23.1776   4
   1   2   5 292.658 21.3468   3
  -1  -2  -5 224.552 17.9898   2
  -1  -2  -6 4520.43 92.4408   4
   1   2   6 4458.81 84.8453   3
  -1   2  -6 4452.41 76.3652   6
  -1   2  -7 47883.3 254.246   6
   1   2   7 48400.2 287.358   3
  -1  -2  -8 15734.7 171.908   4
  -1   2  -8 15486.3 146.501   6
   1   2   8 15597.1 167.244   3
  -1  -2  -9 12061.6 153.151   4
  -1   2  -9 11740.2 128.794   6
   1   2   9 11897.4 150.157   3
  -1   2 -10 1205.49 41.8546   6
   1   2  10 1155.01 48.7178   3
  -1  -2 -10 1148.96 48.0620   4
  -1  -2 -11 13545.1 165.885   4
  -1   2 -11 13290.2 141.706   6
   1   2  11 13606.8 171.316   3
  -1  -2 -12 299.456 25.7695   4
  -1   2 -12 290.344 21.6161   6
   1   2  12 291.772 26.7912   3
  -1  -2 -13 12173.6 162.834   4
  -1   2 -13 11887.6 138.146   6
   1   2  13 12282.9 173.247   3
  -1  -2 -14 6.67609 6.04011   1
  -1  -2 -14 1.60542 5.80240   4
  -1   2 -14 18.4936 7.41934   6
   1   2  15 18159.5 226.542   3
  -1  -2 -15 17989.3 202.098   4
  -1   2 -15 18481.7 177.599   6
  -1  -2 -16 3587.64 87.9808   1
  -1   2 -16 3408.91 77.8367   6
  -1  -2 -16 3355.47 88.8686   4
   1   2  16 3377.24 101.326   3
  -1   2 -17 8050.30 121.119   6
  -1  -2 -17 7725.10 137.820   4
   1   2  17 7744.01 157.907   3
  -1  -2 -17 7849.09 134.083   1
  -1  -2 -18 177.329 22.3262   1
   1   2  18 144.580 24.6962   3
  -1  -2 -18 148.512 22.5907   4
  -1  -2 -19 27673.4 265.863   1
   1   2  19 27712.8 318.721   3
   1   2  20 1114.42 66.8573   3
  -1  -2 -20 1078.56 55.4621   4
  -1  -2 -20 1098.45 54.8288   1
  -1  -2 -21 606.252 41.9087   1
  -1  -2 -21 578.402 41.5175   4
  -1  -2 -22 492.129 40.1172   4
   1   2  22 499.539 48.3855   3
   1   2  23 64.5986 19.6045   3
   1   2  23 75.5612 14.4218  12
  -1  -2 -24 2965.67 100.710   4
   1   2  24 3205.56 127.742   3
   1  -2  24 3180.76 76.7701  21
   1  -2  24 3235.24 77.7632  12
   1   2  24 3117.32 93.3648  12
  -1  -2 -25 7975.01 167.275   4
   1   2  25 8397.73 210.760   3
   1  -2  25 8373.78 127.504  21
   1  -2  25 8224.59 127.516  12
  -1  -2 -25 8286.64 129.978  13
   1   2  25 7844.29 150.293  12
  -1  -2 -26 387.003 38.4956   4
   1   2  26 446.993 51.2150   3
   1  -2  26 389.567 28.7164  21
   1  -2  26 402.544 29.1082  12
  -1  -2 -26 415.490 30.3252  13
   1   2  26 414.385 36.0251  12
   1   2  27 16.8911 12.2465   3
  -1  -2 -27 14.9718 13.6111   4
   1  -2  27 10.6096 6.76543  21
   1   2  27 18.2557 11.7793  12
   1  -2  27 11.4431 8.79210  12
  -1  -2 -27 6.22467 7.89478  13
   1   2  28 1511.68 97.6020   3
  -1  -2 -28 1436.87 75.7494   4
   1  -2  28 1379.09 54.8434  21
  -1  -2 -28 1408.52 56.6633  13
   1   2  28 1418.57 67.2804  12
   1  -2  28 1518.16 58.4377  12
   1   2  29 41.2000 14.1312   3
  -1  -2 -29 20.9029 11.4999   4
   1  -2  29 23.8528 9.28566  21
   1   2  29 28.6907 12.0322  12
  -1  -2 -29 38.6640 11.6230  13
   1  -2  29 52.2457 12.3888  12
   1   2  30 980.756 81.4640   3
  -1  -2 -30 935.659 63.6764   4
   1  -2  30 825.936 43.8788  21
   1   2  30 846.755 53.2653  12
  -1  -2 -30 852.458 45.9976  13
   1  -2  30 891.643 46.1853  12
   1  -2  31 55.3660 11.3533  21
  -1  -2 -31 77.5731 16.6767  13
   1   2  31 61.7847 15.8618  12
   1  -2  31 53.9768 12.9692  12
   1   2  32-4.65177 11.5951  12
   1  -2  32-9.52408 8.77129  12
  -1  -2 -32 10.2376 10.5907  13
  -1  -2 -33 3222.51 89.8637  13
   1  -2  33 3184.51 88.9440  12
   1   2  33 3336.66 105.584  12
   1   2  34 14.5534 11.7810  12
  -1  -2 -34 10.1730 7.70916  13
   1  -2  34-0.79844 9.97849  12
  -1  -2 -35 175.579 22.1745  13
   1   2  35 161.964 23.2247  12
  -1  -2 -36 762.728 43.3525  13
   1   2  36 764.552 49.2470  12
   1  -2  36 797.250 43.6948  12
  -1  -2 -37 273.910 26.3802  13
   1  -2  37 260.849 25.0640  12
   1   2  37 274.035 29.6578  12
  -1  -2 -38-6.54607 9.61677  13
   1   2  38-12.3912 8.15129  12
  -1  -2 -39 5.46195 7.40636  17
   1   2  39 7.68912 7.56526  12
  -1  -2 -39-0.40313 7.62301  13
   1  -2  39 1.39186 5.54513  12
  -1  -2 -40 56.1394 11.5559  17
  -1  -2 -40 68.4514 13.0821  13
   1   2  40 45.7397 11.3076  12
   1  -2  40 54.9094 11.2525  12
  -1  -2 -41 215.190 19.8879  17
   1  -2  41 202.430 19.2872  12
   1   2  41 214.893 22.1765  12
  -1  -2 -41 229.964 21.2811  13
  -1  -2 -42 5.34261 5.57810  17
  -1  -2 -42 21.4924 8.84054  13
   1  -2  42 13.9010 7.09257  12
   1   2  42 10.0159 7.76361  12
  -1  -2 -43 1935.15 47.7825  17
  -1  -2 -43 1919.32 52.0215  13
   1  -2  43 1836.51 51.0742  12
   1   2  43 1899.46 55.8240  12
  -1  -2 -44 432.100 22.1473  13
   1   2  44 419.607 24.4530  12
   1  -2  44 384.476 22.0410  12
  -1  -3  43 107.714 11.4901  12
   1  -3 -43 118.647 10.9619  13
   1  -3 -42 57.7742 8.64713  13
  -1  -3  42 68.2216 10.4064  12
   1  -3 -41 94.5852 11.7567  13
  -1  -3  41 112.560 14.0613  12
   1   3 -40 48.7753 7.67237   8
   1  -3 -40 71.1782 11.4162  13
  -1  -3  40 52.3551 10.2855  12
   1   3 -39 245.318 19.1714   8
  -1  -3  39 227.512 20.3025  21
   1  -3 -39 255.320 20.8236  13
  -1  -3  39 202.616 19.6408  12
   1   3 -38 161.951 16.6982   8
  -1  -3  38 151.937 16.9193  21
   1  -3 -38 194.890 19.2872  13
  -1  -3  38 173.363 18.9859  12
   1   3 -37-5.36514 6.40590   8
  -1  -3  37-14.9113 11.9015  21
  -1  -3  37-9.53106 9.83929  12
   1   3 -36 572.484 33.5251   8
  -1  -3  36 575.929 34.9722  21
  -1  -3  36 644.581 37.9348  12
   1   3 -35 2818.98 76.5932   8
  -1  -3  35 2954.24 80.1771  21
  -1  -3  35 2961.22 81.8274  12
   1   3 -34 379.357 29.6334   8
  -1  -3  34 396.276 30.8503  21
  -1  -3  34 373.173 30.1179  12
  -1   3  34 393.266 32.0117  11
   1   3 -33 2159.91 69.4692   8
  -1  -3  33 2252.20 71.7164  21
  -1  -3  33 2120.68 70.3798  12
  -1   3  33 2087.75 73.3238  11
   1   3 -32 268.068 26.4839   8
  -1  -3  32 276.677 26.7055  21
  -1   3  32 256.663 27.2571  11
  -1  -3  32 251.654 26.7954  12
   1   3 -31 15332.7 187.631   8
  -1  -3  31 15554.8 187.241  21
  -1   3  31 15810.1 203.168  11
  -1  -3  31 15306.4 186.942  12
   1   3 -30 3075.78 84.9956   8
  -1  -3  30 3134.04 84.2255  21
  -1  -3  30 3102.80 80.7266  19
  -1   3  30 3034.27 90.0555  11
  -1  -3  30 3090.57 84.3013  12
  -1  -3  29 8581.80 133.472  19
  -1  -3  29 8907.25 139.987  21
  -1   3  29 8515.69 150.571  11
  -1   3  28 4273.34 175.430   3
  -1  -3  28 3886.24 153.674   2
   1  -3 -28 3999.38 126.762   4
  -1  -3  28 4090.57 91.7801  19
  -1  -3  28 4085.11 94.0148  21
  -1   3  28 4036.54 103.303  11
   1  -3 -27 1190.69 67.8748   4
  -1  -3  27 1152.22 83.2463   2
  -1   3  27 1177.15 91.7213   3
  -1  -3  27 1128.91 48.0535  19
  -1   3  27 1158.27 55.0240  11
  -1   3  26 1092.55 86.5075   3
   1  -3 -26 1051.79 62.3945   4
  -1  -3  26 1063.80 79.0876   2
  -1  -3  26 1038.75 45.8460  19
  -1   3  26 1041.64 51.6915  11
   1  -3 -25 6932.91 155.582   4
  -1   3  25 6869.60 213.351   3
  -1  -3  25 6816.76 195.012   2
  -1  -3  25 6769.61 114.059  19
  -1   3  25 6640.72 128.120  11
  -1   3  24 816.542 73.0162   3
   1  -3 -24 776.192 51.2583   4
  -1  -3  24 747.542 64.5789   2
  -1  -3  24 811.987 39.2366  19
  -1   3  24 773.890 43.2201  11
  -1   3  23 1747.91 103.344   3
   1  -3 -23 1707.52 73.3903   4
  -1  -3  23 1596.35 91.3865   2
  -1  -3  23 1599.39 53.6587  19
  -1   3  23 1713.50 63.1227  11
   1  -3 -22 4800.28 119.464   4
  -1  -3  22 4843.51 154.744   2
  -1   3  22 4591.57 164.861   3
  -1  -3  22 4846.22 91.6628  19
  -1   3  22 4759.45 103.540  11
   1  -3 -21 2242.33 79.4253   4
  -1  -3  21 2252.29 103.143   2
  -1   3  21 2218.33 112.798   3
  -1  -3  21 2184.76 60.7735  19
  -1   3  21 2272.59 70.0477  11
   1  -3 -20 11075.2 171.958   4
  -1  -3  20 10518.1 217.843   2
  -1   3  20 11124.8 244.440   3
  -1   3  20 10841.5 149.702  11
  -1  -3  19 453.858 44.9483   2
   1  -3 -19 509.888 36.1348   4
  -1   3  19 586.239 55.7328   3
   1  -3 -18 1417.28 58.6577   4
  -1  -3  18 1443.64 76.8356   2
  -1   3  18 1463.11 85.4462   3
   1  -3 -17 6877.23 126.642   4
  -1  -3  17 6390.66 158.373   2
  -1   3  17 6847.88 179.627   3
  -1   3  16 426.596 44.3787   3
   1  -3 -16 444.492 31.5089   4
  -1  -3  16 436.941 41.3930   2
  -1   3  15 10288.8 206.850   3
   1  -3 -15 10541.9 147.152   4
  -1  -3  15 10081.5 189.619   2
  -1  -3  14 1513.03 71.9576   2
   1  -3 -14 1568.95 55.5449   4
  -1   3  14 1484.03 77.6203   3
   1  -3 -13 60.1165 11.9561   4
  -1   3  13 48.7598 15.1637   3
  -1  -3  13 68.8605 17.6045   2
   1  -3 -12 2116.83 61.1293   4
  -1  -3  12 2108.80 81.5768   2
  -1   3  12 2175.13 89.6747   3
  -1  -3  11 38758.1 336.515   2
  -1   3  11 39303.2 367.720   3
   1  -3 -11 38738.6 253.163   4
  -1   3  10 15779.6 230.043   3
   1  -3 -10 15279.4 156.265   4
  -1  -3  10 15528.0 208.693   2
   1  -3  -9 3903.37 77.0406   4
  -1  -3   9 3853.55 101.803   2
  -1   3   9 4049.35 114.919   3
  -1   3   8 2632.76 91.3410   3
  -1  -3   8 2462.46 80.0730   2
   1  -3  -8 2526.10 60.6957   4
   1  -3  -7 3631.43 72.3254   4
  -1  -3   7 3476.99 94.1657   2
  -1   3   7 3592.13 104.518   3
  -1   3   7 3736.08 79.1117   6
  -1   3   6 21809.6 253.150   3
   1  -3  -6 21376.1 173.015   4
  -1   3   6 22150.0 190.260   6
  -1  -3   5 1040.11 51.6956   5
  -1  -3   5 1037.51 49.7389   2
  -1   3   5 970.340 52.3242   3
   1  -3  -5 1054.00 38.1103   4
  -1   3   5 1132.50 42.8249   6
   1  -3  -4 183.206 15.1557   4
  -1  -3   4 208.464 22.9189   2
  -1   3   4 200.169 24.0472   3
   1  -3  -4 218.322 14.4984   5
  -1  -3   4 196.829 23.9289   5
  -1   3   4 243.318 20.7835   6
   1  -3  -3 45333.9 244.811   4
  -1  -3   3 44519.9 317.766   2
   1  -3  -3 46676.2 222.228   5
  -1   3   3 46010.6 356.560   3
  -1  -3   3 44547.9 331.276   5
  -1   3   3 46193.6 269.721   6
   1  -3  -2 6851.12 96.3115   4
  -1  -3   2 6703.66 121.029   2
  -1   3   2 6968.74 137.601   3
  -1  -3   2 6881.13 129.783   5
  -1   3   2 6938.09 103.918   6
   1  -3  -1 221794. 556.390   4
  -1  -3   1 222085. 691.584   2
  -1  -3   1 224247. 731.160   5
  -1   3   1 222925. 779.941   3
   1   3  -1 225398. 642.625   3
  -1   3   1 224507. 583.636   6
  -1  -3   0 95.7663 19.3473   5
  -1  -3   0 72.7021 18.1616   2
  -1   3   0 112.468 23.8959   3
   1  -3   0 15.0061 8.71569   4
   1   3   0 44.9447 14.4897   3
   1  -3   0 22.8421 6.47027   2
  -1   3   0 81.1436 17.1298   6
   1   3   1 15862.6 175.664   3
  -1  -3  -1 15898.2 192.030   5
  -1  -3  -1 16040.3 181.184   2
  -1   3  -1 15938.3 156.719   6
  -1  -3  -2 4395.74 93.2687   2
  -1  -3  -2 4281.78 99.5037   5
   1   3   2 4177.35 92.8084   3
  -1   3  -2 4391.70 81.9541   6
   1   3   3 60534.0 356.934   3
  -1  -3  -3 60706.4 370.468   5
  -1   3  -3 60744.4 303.108   6
  -1  -3  -4 7705.92 141.730   4
  -1   3  -4 8065.52 111.095   6
  -1  -3  -4 7946.58 121.279   2
   1   3   4 8179.16 136.018   3
  -1  -3  -5 25348.3 258.322   4
  -1  -3  -5 25791.3 214.214   2
  -1   3  -5 26239.7 199.683   6
   1   3   5 26565.1 248.704   3
  -1  -3  -6 794.153 46.6578   4
   1   3   6 767.320 44.5460   3
  -1   3  -6 779.312 34.6337   6
  -1   3  -7 28596.7 206.748   6
   1   3   7 29102.2 273.693   3
  -1  -3  -8 17607.2 216.378   4
   1   3   8 17799.6 218.153   3
  -1  -3  -9 9005.37 153.727   4
  -1   3  -9 9041.48 116.725   6
   1   3   9 9315.78 162.086   3
  -1  -3 -10 5358.00 120.258   4
   1   3  10 5475.75 127.007   3
  -1   3 -10 5271.73 89.5571   6
  -1   3 -11 3743.68 75.5825   6
  -1  -3 -11 3543.86 98.7838   4
   1   3  11 3645.88 106.249   3
  -1  -3 -12 2007.90 74.5787   4
   1   3  12 2102.38 82.4522   3
  -1  -3 -13 1112.71 56.1016   4
   1   3  13 1147.17 62.9265   3
  -1  -3 -14 913.709 51.2512   4
  -1  -3 -14 890.174 46.3907   1
   1   3  14 884.626 57.5177   3
   1   3  15 19931.7 277.937   3
  -1  -3 -15 19655.3 238.472   4
  -1  -3 -15 19327.7 218.839   1
  -1  -3 -16 3275.73 91.6584   1
   1   3  16 3341.99 116.190   3
  -1  -3 -16 3280.91 97.5257   4
  -1  -3 -17 370.913 34.1930   4
  -1  -3 -17 423.611 34.3863   1
   1   3  17 459.217 46.3538   3
  -1  -3 -18 11915.7 182.539   1
  -1  -3 -18 12005.3 193.589   4
   1   3  18 12331.3 236.967   3
  -1  -3 -19 29727.3 308.612   4
  -1  -3 -19 30458.6 298.586   1
  -1  -3 -20 761.345 51.2528   4
  -1  -3 -20 796.173 50.2040   1
   1   3  20 778.409 64.2741   3
   1   3  20 786.828 46.6529  12
  -1  -3 -21 967.651 57.9182   4
  -1  -3 -21 949.304 55.1323   1
   1   3  21 992.295 73.2520   3
  -1   3 -21 971.951 47.2396   8
   1   3  21 947.455 52.3484  12
  -1  -3 -22 521.517 41.9973   1
  -1  -3 -22 541.101 44.3533   4
   1   3  22 506.636 53.9477   3
  -1   3 -22 518.748 35.5143   8
   1   3  22 473.518 38.5232  12
  -1  -3 -23 2395.11 94.9487   4
   1   3  23 2420.31 119.573   3
  -1   3 -23 2293.07 73.8916   8
   1  -3  23 2358.66 65.7027  12
   1   3  23 2199.83 82.5864  12
  -1   3 -24 3210.53 88.4572   8
  -1  -3 -24 3269.80 112.139   4
   1   3  24 3318.33 144.068   3
   1  -3  24 3420.19 79.5006  21
   1  -3  24 3229.14 78.0394  12
   1   3  24 3125.96 100.219  12
  -1   3 -25 8360.84 142.438   8
  -1  -3 -25 8912.17 188.644   4
   1   3  25 8859.38 238.916   3
   1  -3  25 8572.07 127.723  21
   1  -3  25 8305.84 127.455  12
  -1  -3 -25 8677.70 136.874  13
   1   3  25 8067.12 162.077  12
  -1   3 -26 12707.8 176.305   8
   1   3  26 13753.6 303.372   3
  -1  -3 -26 13251.6 231.021   4
   1  -3  26 13060.8 159.996  21
  -1  -3 -26 13046.7 171.233  13
   1  -3  26 12525.3 159.132  12
   1   3  26 12578.5 204.030  12
  -1   3 -27 15441.0 193.502   8
  -1  -3 -27 16182.7 256.304   4
   1   3  27 16701.5 339.711   3
   1  -3  27 15935.5 179.085  21
  -1  -3 -27 15675.4 190.326  13
   1   3  27 15456.2 228.629  12
   1  -3  27 15130.9 177.944  12
  -1   3 -28 140.236 20.2213   8
   1  -3  28 131.710 18.0719  21
  -1  -3 -28 129.478 20.2183  13
   1  -3  28 135.393 20.1670  12
   1   3  28 117.505 25.0392  12
  -1   3 -29 70.1986 13.2471   8
   1  -3  29 117.665 16.6013  21
   1   3  29 113.990 22.0690  12
   1  -3  29 106.154 16.9021  12
  -1  -3 -29 127.531 18.9066  13
  -1   3 -30 4212.34 98.5795   8
   1  -3  30 3941.46 91.6635  21
   1   3  30 3854.57 114.953  12
  -1  -3 -30 4111.77 100.156  13
   1  -3  30 3934.58 93.4555  12
  -1   3 -31 3.56263 8.44155   8
   1  -3  31 10.0838 7.79956  21
  -1  -3 -31 24.0150 12.8075  13
   1   3  31 10.9417 11.5544  12
   1  -3  31 18.2700 8.71738  12
  -1   3 -32 909.615 44.3470   8
   1   3  32 859.589 54.4005  12
  -1  -3 -32 927.068 48.6464  13
   1  -3  32 853.446 43.8502  12
  -1  -3 -33 1272.84 56.1490  13
   1   3  33 1246.21 64.1490  12
   1  -3  33 1270.66 53.0441  12
   1  -3  34 853.383 43.2852  12
   1   3  34 868.775 52.9392  12
  -1  -3 -34 910.106 47.4936  13
   1   3  35 198.766 26.6009  12
   1  -3  35 166.139 19.5546  12
  -1  -3 -35 179.333 21.4183  13
   1  -3  36 206.827 20.8100  12
  -1  -3 -36 211.232 22.6662  13
   1   3  36 237.764 26.3872  12
   1   3  37-3.62855 7.58831  12
   1  -3  37 7.47013 7.76432  12
  -1  -3 -37 2.19898 7.92065  13
   1  -3  38 11.2704 6.57343  12
  -1  -3 -38-5.38947 7.49501  13
   1   3  38 2.69830 7.50910  12
  -1  -3 -39 21.1537 8.57085  17
  -1  -3 -39 25.0074 8.67299  13
   1   3  39 22.3047 8.09307  12
   1  -3  39 29.6737 7.90695  12
  -1  -3 -40 6.46703 6.50467  17
   1  -3  40 3.76859 4.77032  12
   1   3  40 1.90826 5.70560  12
  -1  -3 -40 13.9859 8.23587  13
  -1  -3 -41 165.357 16.6146  17
   1  -3  41 124.972 13.3419  12
   1   3  41 145.127 16.7007  12
  -1  -3 -41 146.324 15.7899  13
  -1  -3 -42 35.1121 7.80074  17
   1   3  42 37.2652 8.57311  12
   1  -3  42 29.9493 6.87248  12
  -1  -3 -42 40.3236 8.45555  13
   1   3  43 180.986 14.5793  12
  -1  -3 -43 176.962 14.8874  13
   1  -4 -41-2.18931 3.76510  13
  -1  -4  41 1.67961 3.47583  12
   1   4 -40 2.11430 3.07580   8
  -1  -4  40 10.7448 5.92849  12
   1  -4 -40-0.26852 4.47972  13
   1   4 -39 121.300 12.5586   8
   1  -4 -39 133.912 13.9107  13
  -1  -4  39 121.803 13.5682  12
   1   4 -38 177.671 16.0502   8
  -1  -4  38 195.979 17.3594  21
  -1  -4  38 215.224 18.7554  12
   1  -4 -38 217.570 18.5126  13
   1   4 -37 33.0753 8.95950   8
  -1  -4  37 15.1764 5.88475  21
  -1  -4  37 10.3437 5.78396  12
   1  -4 -37 33.7135 9.51084  13
   1   4 -36 234.967 20.6326   8
  -1  -4  36 212.869 19.3470  21
  -1  -4  36 254.997 22.0102  12
   1   4 -35 849.508 40.6663   8
  -1  -4  35 895.383 40.1778  21
  -1  -4  35 880.723 41.1297  12
   1   4 -34 520.061 33.5047   8
  -1  -4  34 555.443 32.7447  21
  -1  -4  34 585.610 34.6428  12
   1   4 -33 1787.81 62.6425   8
  -1  -4  33 1860.82 60.2341  21
  -1  -4  33 1892.18 62.8549  12
   1   4 -32 69.9170 14.1379   8
  -1  -4  32 71.2699 13.2405  21
  -1  -4  32 89.4980 16.8909  12
   1   4 -31 65.3654 15.0184   8
  -1  -4  31 43.9024 12.5015  21
  -1  -4  31 37.8969 13.3238  12
   1   4 -30 1759.41 66.1764   8
  -1  -4  30 1788.90 59.1130  19
  -1  -4  30 1848.41 62.1617  21
   1   4 -29 176.090 23.0249   8
  -1  -4  29 171.821 20.8256  21
  -1  -4  29 155.266 19.3749  19
   1   4 -28 969.039 50.4227   8
  -1  -4  28 961.991 43.8542  19
  -1  -4  28 1007.03 46.4659  21
   1   4 -27 89.5253 17.3515   8
  -1   4  27 89.3310 17.9053  11
  -1  -4  27 95.6989 14.8225  19
   1   4 -26 3430.91 94.1408   8
  -1  -4  26 3402.88 81.7178  19
  -1   4  26 3253.34 95.9724  11
   1   4 -25 4642.84 109.646   8
  -1  -4  25 4481.19 93.6124  19
  -1   4  25 4328.30 111.138  11
  -1   4  24 0.40627 11.4060  11
   1   4 -24 23.2849 11.3770   8
  -1   4  24 7.75876 16.8717   3
  -1  -4  24 0.36462 12.4700   2
  -1  -4  24 0.04992 7.57969  19
   1   4 -23 376.309 31.7882   8
  -1  -4  23 395.449 48.4729   2
  -1   4  23 368.912 52.7596   3
  -1  -4  23 419.573 29.0340  19
  -1   4  23 335.468 31.2641  11
   1   4 -22 3048.63 87.1326   8
  -1   4  22 3308.52 152.189   3
  -1  -4  22 3027.50 130.672   2
  -1  -4  22 3107.70 76.8022  19
  -1   4  22 2882.00 88.2360  11
  -1  -4  21 1189.98 80.9860   2
  -1   4  21 1302.50 93.6438   3
   1   4 -21 1326.06 57.0725   8
  -1   4  21 1297.04 58.5199  11
  -1   4  20 971.578 80.5647   3
  -1  -4  20 920.315 69.9630   2
   1   4 -20 973.823 48.6750   8
  -1   4  20 894.523 48.4049  11
  -1  -4  19 734.488 61.8626   2
  -1   4  19 676.613 66.4375   3
  -1   4  19 755.502 44.3473  11
  -1  -4  18 2075.74 100.971   2
  -1   4  18 2284.37 118.202   3
  -1   4  18 2153.25 72.4872  11
  -1   4  17 4412.91 160.523   3
  -1  -4  17 3848.31 134.954   2
   1   4 -17 4238.03 79.3036  18
  -1   4  17 3889.62 95.7279  11
  -1  -4  16 115.117 25.0897   2
  -1   4  16 85.5575 25.3316   3
  -1   4  16 96.8355 16.0352  11
  -1   4  15 6932.95 194.740   3
   1  -4 -15 7308.82 131.504   4
  -1  -4  15 6813.98 172.224   2
  -1   4  15 6755.41 121.620  11
  -1   4  14 439.706 49.5876   3
   1  -4 -14 402.741 30.6239   4
  -1  -4  14 420.430 43.5502   2
  -1   4  13 59.6779 21.6186   3
   1  -4 -13 79.3370 13.5902   4
  -1  -4  13 75.4687 20.0437   2
   1  -4 -12 9166.51 140.263   4
  -1   4  12 8964.87 210.155   3
  -1   4  11 1079.80 71.9025   3
   1  -4 -11 1196.15 49.9678   4
  -1  -4  11 1223.27 68.2166   2
   1  -4 -10 8343.52 128.730   4
  -1  -4  10 8387.27 175.365   2
  -1   4   9 1032.85 68.5402   3
   1  -4  -9 1151.97 47.4676   4
  -1  -4   9 1138.66 63.4230   2
  -1  -4   9 1159.84 67.2454   5
   1  -4  -8 3864.46 86.3666   4
  -1   4   8 3505.23 122.888   3
  -1  -4   8 3663.07 112.512   2
  -1  -4   8 3579.31 115.718   5
  -1  -4   7 53.6152 14.6911   2
  -1   4   7 13.4496 11.4607   3
   1  -4  -7 37.7387 8.32175   4
  -1  -4   7 35.3206 13.4591   5
   1  -4  -6 9487.04 133.499   4
  -1  -4   6 9884.44 178.829   2
  -1  -4   6 9604.73 185.959   5
  -1  -4   5 11501.8 200.952   5
  -1   4   5 11138.2 210.500   3
  -1  -4   5 11835.9 193.087   2
   1  -4  -5 11518.0 146.137   4
  -1  -4   4 35.7971 13.2883   2
  -1   4   4 49.5669 22.0890   3
  -1  -4   4 25.8142 13.0261   5
  -1  -4   3 13061.2 195.712   2
  -1   4   3 12879.3 222.821   3
  -1  -4   3 13062.9 210.238   5
   1  -4  -2 114948. 462.319   4
  -1  -4   2 114285. 612.143   5
  -1  -4   1 9783.13 166.688   2
  -1   4   1 9920.22 193.906   3
  -1  -4   1 9539.98 177.203   5
  -1   4   1 9754.12 140.577   6
  -1  -4   0 111514. 549.468   2
  -1  -4   0 111760. 599.810   5
  -1   4   0 111316. 462.969   6
  -1  -4  -1 23712.0 275.115   5
  -1  -4  -1 23027.4 244.890   2
  -1   4  -1 23679.1 211.097   6
   1   4   2 4073.90 110.101   3
  -1  -4  -2 4133.33 101.457   2
  -1  -4  -2 4328.49 116.771   5
  -1   4  -2 4436.92 90.4025   6
  -1  -4  -3 16131.7 238.212   4
  -1  -4  -3 16241.5 195.782   2
  -1   4  -3 16436.7 171.235   6
  -1  -4  -4 13380.7 218.646   4
  -1  -4  -4 13092.1 171.640   2
  -1   4  -4 13754.9 156.818   6
  -1  -4  -5 3709.13 115.323   4
   1   4   5 3538.72 108.738   3
  -1   4  -5 3883.04 81.5213   6
  -1  -4  -6 3234.17 107.157   4
  -1   4  -6 3378.03 75.7307   6
   1   4   7 109.915 19.6209   3
  -1  -4  -7 111.057 20.3147   4
  -1  -4  -8 3846.76 115.024   4
   1   4   8 3755.25 118.905   3
  -1  -4  -9 6239.33 147.925   4
   1   4   9 6316.12 157.338   3
  -1  -4 -10 623.924 47.0889   4
   1   4  10 587.085 49.5462   3
  -1  -4 -11 3236.22 106.429   4
   1   4  11 2968.23 112.456   3
   1   4  12 13.0791 8.33044   3
  -1  -4 -12-12.0479 13.4563   4
   1   4  13 1852.18 92.2396   3
  -1  -4 -13 1807.97 80.4464   4
  -1  -4 -13 1881.59 72.2251   1
   1   4  14 56.8470 19.0696   3
  -1  -4 -14 34.7684 14.3013   4
  -1   4 -14 49.8485 12.4372   8
   1   4  14 45.5884 12.2972  12
   1   4  15 6119.57 173.528   3
  -1  -4 -15 6042.78 147.579   4
  -1  -4 -15 6227.14 134.223   1
  -1   4 -15 6225.12 121.344   8
  -1  -4 -16 804.916 54.7212   4
   1   4  16 771.743 62.8854   3
  -1  -4 -16 804.645 49.2447   1
  -1   4 -16 828.094 45.3666   8
   1   4  16 811.790 41.2406   7
   1   4  16 758.413 46.2263  12
   1   4  17 3018.30 127.390   3
  -1  -4 -17 3177.39 108.737   4
  -1  -4 -17 3167.22 98.4438   1
   1   4  17 2899.37 77.7740   7
  -1   4 -17 3103.41 88.3563   8
   1   4  17 2934.01 91.0788  12
   1   4  18 70.9602 20.9422   3
  -1  -4 -18 115.612 19.6909   1
  -1  -4 -18 89.9438 20.3135   4
   1   4  18 102.753 16.6771   7
  -1   4 -18 104.540 17.5368   8
   1   4  18 111.390 20.6297  12
   1   4  19 1363.87 89.7950   3
  -1  -4 -19 1518.57 76.4938   4
  -1  -4 -19 1508.97 70.2020   1
  -1   4 -19 1461.27 62.1678   8
   1   4  19 1316.49 63.6568  12
   1   4  20 2191.32 116.078   3
  -1  -4 -20 2281.40 87.3144   1
  -1  -4 -20 2266.23 94.2266   4
  -1   4 -20 1995.67 73.4940   8
   1   4  20 2012.84 79.6914  12
   1   4  21 417.674 53.0227   3
  -1  -4 -21 414.117 41.1136   4
  -1  -4 -21 427.588 39.0699   1
  -1   4 -21 491.850 37.7605   8
   1   4  21 439.137 37.8043  12
  -1  -4 -22 17.3498 8.53566   4
  -1  -4 -22 58.7119 15.2242   1
   1   4  22 20.9373 14.1737   3
  -1   4 -22 20.3935 10.1135   8
   1   4  22 20.3557 9.28157  12
  -1  -4 -23 259.645 33.0403   4
   1   4  23 272.047 43.4796   3
  -1   4 -23 278.749 28.3152   8
  -1  -4 -23 288.350 26.0674  13
   1   4  23 271.705 31.2123  12
   1   4  24 2049.16 120.911   3
  -1  -4 -24 2162.67 95.4429   4
  -1   4 -24 2095.20 76.3723   8
  -1  -4 -24 2076.06 67.7562  13
   1   4  24 1933.82 81.1544  12
   1  -4  24 2033.43 62.8735  12
  -1   4 -25 1466.55 63.9545   8
  -1  -4 -25 1542.73 58.8783  13
   1   4  25 1446.39 70.2011  12
   1  -4  25 1515.43 54.7174  12
  -1   4 -26 477.908 36.6991   8
   1  -4  26 455.669 31.1112  12
   1   4  26 442.365 40.1291  12
  -1  -4 -26 434.808 32.3391  13
  -1   4 -27 946.621 50.6060   8
   1   4  27 977.449 58.6950  12
  -1  -4 -27 912.671 46.7104  13
   1  -4  27 955.210 44.6893  12
  -1   4 -28 539.939 38.1902   8
   1  -4  28 541.046 33.7516  12
  -1  -4 -28 531.332 36.1054  13
   1   4  28 547.267 44.1158  12
  -1   4 -29 53.1391 11.5481   8
   1   4  29 82.3827 18.5533  12
  -1  -4 -29 93.8513 17.7590  13
   1  -4  29 77.6005 13.9301  12
  -1   4 -30 288.059 26.9684   8
   1  -4  30 294.197 24.8248  12
  -1  -4 -30 259.880 25.6776  13
   1   4  30 290.996 31.9179  12
  -1   4 -31 104.639 16.2415   8
   1   4  31 124.642 21.9982  12
  -1  -4 -31 128.510 18.6679  13
   1  -4  31 102.576 15.1515  12
  -1   4 -32 270.293 24.7346   8
   1  -4  32 256.479 22.5977  12
  -1  -4 -32 284.170 26.0209  13
   1   4  32 307.198 30.9481  12
  -1   4 -33 503.549 31.6296   8
  -1  -4 -33 509.667 33.7992  13
   1  -4  33 485.348 29.9511  12
   1   4  33 496.960 38.6737  12
  -1   4 -34 170.328 17.6940   8
  -1  -4 -34 178.841 19.5736  13
   1  -4  34 169.947 17.5412  12
   1   4  34 196.581 23.9609  12
  -1   4 -35 17.3331 6.00478   8
   1   4  35 1.46112 6.98617  12
   1  -4  35-9.17168 7.70268  12
  -1  -4 -35 10.0745 6.81299  13
   1  -4  36 270.292 20.8462  12
  -1  -4 -36 289.838 23.9681  13
   1   4  36 293.174 26.0161  12
  -1  -4 -37 557.003 32.9009  17
   1  -4  37 470.821 26.0891  12
  -1  -4 -37 497.613 29.9639  13
   1   4  37 504.570 31.9599  12
  -1  -4 -38 8.37623 6.54357  17
   1  -4  38 6.69813 3.68505  12
  -1  -4 -38 3.27953 5.56998  13
   1   4  38 18.3406 7.86296  12
  -1  -4 -39 21.1406 7.37112  17
   1  -4  39 13.3067 4.88288  12
   1   4  39 18.2601 5.92191  12
  -1  -4 -39 26.3211 7.61990  13
  -1  -4 -40 22.1484 6.65426  17
  -1  -4 -40 21.8068 6.52222  13
   1   4  40 15.2449 4.96805  12
  -1  -4 -41 221.480 16.0997  17
  -1  -4 -41 238.114 16.2770  13
  -1  -5  38 320.218 17.7131  12
   1  -5 -38 330.691 17.7881  13
   1   5 -37 420.856 22.0715   8
   1  -5 -37 473.912 22.8205  13
  -1  -5  37 471.214 23.2153  12
   1   5 -36 345.576 21.8307   8
  -1  -5  36 350.552 19.4080  21
   1  -5 -36 341.115 20.8265  13
  -1  -5  36 353.349 21.7272  12
   1   5 -35 440.321 25.9178   8
  -1  -5  35 432.015 23.0089  21
  -1  -5  35 493.871 26.6124  12
   1  -5 -35 520.177 26.6588  13
   1   5 -34 265.952 21.6774   8
  -1  -5  34 235.620 18.0240  21
  -1  -5  34 282.788 21.4414  12
   1  -5 -34 276.285 20.9487  13
   1   5 -33 719.767 36.3809   8
  -1  -5  33 725.380 32.3437  21
  -1  -5  33 751.924 35.0810  12
   1  -5 -33 762.323 34.6789  13
   1   5 -32 141.067 17.4196   8
  -1  -5  32 166.935 16.8699  21
  -1  -5  32 166.957 18.2359  12
   1   5 -31 1972.36 64.4722   8
  -1  -5  31 1990.43 56.6525  21
  -1  -5  31 2080.34 61.6042  12
   1   5 -30 1501.03 58.4898   8
  -1  -5  30 1529.04 51.0979  21
  -1  -5  30 1665.26 56.3168  12
   1   5 -29 877.552 46.2297   8
  -1  -5  29 903.885 37.6305  19
  -1  -5  29 894.410 40.0466  21
   1   5 -28 2117.45 73.0164   8
  -1  -5  28 2156.20 62.7487  21
  -1  -5  28 2089.67 58.4554  19
   1   5 -27 643.846 42.1595   8
  -1  -5  27 606.835 32.4848  19
  -1  -5  27 671.993 36.1400  21
   1   5 -26 950.821 51.2468   8
  -1  -5  26 902.478 40.3621  19
  -1  -5  26 1002.69 44.3930  21
   1   5 -25 1205.85 57.2226   8
  -1  -5  25 1258.03 47.8176  19
   1   5 -24 27.5345 14.7614   8
  -1  -5  24 74.4547 13.4988  19
   1   5 -23 5710.66 125.987   8
  -1  -5  23 5786.86 103.676  19
   1   5 -22 2586.79 85.4845   8
  -1  -5  22 2679.83 71.1862  19
   1   5 -21 298.642 30.7515   8
  -1  -5  21 279.435 23.4996  19
   1   5 -20 3342.65 96.2592   8
   1   5 -20 3397.19 74.7775  18
   1   5 -19 18.6953 13.1713   8
   1   5 -19 12.4043 8.21101  18
   1   5 -18 345.559 31.3881   8
   1   5 -18 327.352 24.7665  18
  -1  -5  18 342.756 45.7491   2
  -1   5  18 305.673 46.8363   3
  -1  -5  18 348.109 46.7501   5
   1   5 -17 1357.20 60.6576   8
   1   5 -17 1267.91 47.9258  18
  -1   5  17 1243.00 93.7529   3
  -1  -5  17 1158.43 79.8481   2
  -1  -5  17 1225.73 84.5512   5
   1   5 -16 107.709 17.7932   8
   1   5 -16 85.3517 13.9119  18
  -1   5  16 109.634 30.0476   3
  -1  -5  16 132.223 28.8844   5
  -1  -5  16 70.2264 19.7696   2
   1   5 -15 490.833 36.8478   8
   1   5 -15 474.448 29.9858  18
  -1  -5  15 473.216 51.0852   5
  -1  -5  15 441.310 48.8080   2
   1   5 -14 643.760 41.2393   8
   1   5 -14 675.324 35.7250  18
  -1  -5  14 633.924 59.8024   5
  -1   5  14 608.828 64.3238   3
  -1  -5  14 637.595 57.1035   2
   1   5 -13 1559.53 63.2767   8
   1   5 -13 1517.31 53.6446  18
  -1   5  13 1593.38 101.154   3
  -1  -5  13 1501.96 89.8358   5
  -1  -5  13 1566.89 87.9344   2
   1   5 -12 628.527 39.8781   8
   1   5 -12 588.435 33.8330  18
  -1  -5  12 551.951 55.1890   5
  -1   5  12 574.736 60.3110   3
  -1  -5  12 564.639 52.7798   2
   1   5 -11 2972.40 84.1623   8
   1   5 -11 2837.47 73.2519  18
  -1  -5  11 2610.00 116.589   5
  -1   5  11 2609.65 124.732   3
  -1  -5  11 2714.55 112.693   2
   1   5 -10 1190.98 53.2759   8
   1   5 -10 1210.01 48.1630  18
  -1  -5  10 1162.14 72.4134   2
  -1   5  10 1157.71 82.3421   3
  -1  -5  10 1126.43 76.7409   5
   1   5  -9 931.474 46.6629   8
   1   5  -9 996.396 43.8486  18
  -1  -5   9 1019.24 67.0469   2
  -1   5   9 997.902 76.2804   3
  -1  -5   9 943.916 69.7590   5
   1   5  -8 633.375 38.1857   8
   1   5  -8 685.549 36.6838  18
  -1  -5   8 741.171 56.4615   2
  -1  -5   8 587.871 54.9456   5
  -1   5   8 616.760 59.9708   3
   1   5  -7 6438.25 117.505   8
   1   5  -7 6690.06 111.950  18
  -1  -5   7 6594.33 163.314   2
  -1   5   7 6199.97 184.082   3
  -1  -5   7 6381.73 174.102   5
   1   5  -6 1959.65 60.8686  18
  -1  -5   6 1957.55 88.4982   2
  -1  -5   6 1878.54 93.8212   5
   1   5  -5 303.185 24.3945  18
  -1  -5   5 277.253 37.1511   5
  -1   5   5 279.204 40.8295   3
   1   5  -4 522.491 31.6036  18
  -1  -5   4 525.657 49.2875   5
   1   5  -3 2448.54 67.8348  18
  -1  -5   3 2495.99 105.419   5
  -1   5   2 1995.70 66.6232   8
   1   5  -2 1972.35 62.2634  18
  -1  -5   2 2001.74 93.7341   5
  -1   5   1 46946.9 322.130   8
   1   5  -1 47548.4 292.437  18
  -1   5   0 199.861 24.2659   8
   1   5   0 270.178 26.4412  18
  -1  -5   0 287.318 44.1151   4
  -1   5  -1 17.4149 7.88891   8
   1   5   1 41.4628 12.9549   7
   1   5   1 31.8973 11.3110  18
  -1  -5  -1 24.2191 16.2786   4
  -1   5  -2 1813.67 64.5760   8
   1   5   2 1904.09 62.8716   7
   1   5   2 1925.12 58.3885  18
  -1  -5  -2 1981.29 96.9606   4
  -1   5  -3 182.097 21.1844   8
   1   5   3 240.976 23.0805   7
   1   5   3 285.583 23.3626  18
  -1  -5  -3 236.252 34.0805   4
   1   5   4 1299.77 52.1842   7
  -1   5  -4 1305.03 55.7954   8
   1   5   4 1320.99 48.2681  18
  -1  -5  -4 1300.97 77.4948   4
  -1   5  -5 2650.13 79.4078   8
   1   5   5 2656.49 74.8275   7
   1   5   5 2618.69 67.4971  18
  -1  -5  -5 2772.11 112.217   4
  -1   5  -6 105.796 17.7694   8
   1   5   6 170.560 20.2105   7
   1   5   6 126.150 16.3960  18
  -1  -5  -6 134.233 25.5623   4
   1   5   6 144.681 27.4383   3
  -1   5  -7 1830.48 67.2827   8
   1   5   7 1763.37 61.4347   7
   1   5   7 1791.38 55.4651  18
  -1  -5  -7 1779.35 88.4850   4
   1   5   7 1828.02 92.6197   3
  -1   5  -8 4610.33 107.167   8
   1   5   8 4478.89 97.9261   7
   1   5   8 4600.05 88.2862  18
  -1  -5  -8 4856.40 145.509   4
   1   5   8 4829.42 152.043   3
   1   5   9 1529.12 57.5031   7
  -1   5  -9 1527.93 62.6693   8
   1   5   9 1555.43 51.0268  18
  -1  -5  -9 1585.26 83.0417   4
   1   5   9 1566.05 88.2612   3
  -1   5 -10 1616.01 65.2928   8
   1   5  10 1658.59 60.1009   7
   1   5  10 1649.24 52.1615  18
  -1  -5 -10 1669.50 85.1762   4
   1   5  10 1792.79 96.4153   3
   1   5  11 8.04912 12.6950   3
  -1  -5 -11 18.7505 12.2842   4
  -1   5 -11 13.6272 10.2543   8
   1   5  11 16.0700 9.81400   7
  -1  -5 -12 1006.91 66.0173   4
   1   5  12 1060.95 76.9799   3
  -1  -5 -12 1064.09 57.2059   1
  -1   5 -12 957.117 51.2039   8
   1   5  12 1068.26 49.3955   7
  -1  -5 -13 1146.35 70.3633   4
   1   5  13 1172.50 82.0536   3
  -1  -5 -13 1145.54 59.5302   1
  -1   5 -13 1036.20 53.9452   8
   1   5  13 1081.23 49.4581   7
   1   5  13 910.343 47.9408  12
   1   5  14 52.9642 21.5839   3
  -1  -5 -14 38.9912 12.8020   4
   1   5  14 58.3717 12.6094   7
  -1   5 -14 57.3516 14.7760   8
   1   5  14 51.9789 13.6216  12
   1   5  15 16.3305 13.9961   3
  -1  -5 -15 16.7645 9.10460   4
  -1   5 -15 13.3367 9.07239   8
   1   5  15 4.80943 7.00343   7
   1   5  15 3.34116 6.42552  12
  -1  -5 -16 414.588 42.3878   4
   1   5  16 327.865 45.6593   3
  -1   5 -16 380.968 33.4386   8
   1   5  16 365.979 28.9294   7
   1   5  16 303.941 28.4893  12
  -1  -5 -17 85.8597 20.8169   4
   1   5  17 23.5119 13.4758   3
  -1   5 -17 77.6910 17.3161   8
   1   5  17 36.6625 9.16478   7
   1   5  17 36.7863 12.8566  12
   1   5  18 3827.76 159.536   3
  -1  -5 -18 4022.28 130.887   4
  -1   5 -18 3837.09 106.473   8
  -1   5 -19 2163.85 80.4811   8
  -1  -5 -19 2344.18 67.3588  13
  -1   5 -20 735.567 48.0086   8
  -1  -5 -20 712.312 38.0533  13
  -1   5 -21 335.461 32.3658   8
  -1  -5 -21 351.566 27.4599  13
   1   5  21 263.894 28.5531  12
  -1   5 -22 200.891 28.0326   8
  -1  -5 -22 177.435 21.0223  13
   1   5  22 166.033 24.9310  12
  -1   5 -23 8547.44 158.177   8
  -1  -5 -23 8382.68 131.160  13
   1  -5  23 8742.76 125.701  12
  -1   5 -24 2583.43 86.7031   8
  -1  -5 -24 2449.80 71.2559  13
   1  -5  24 2593.57 68.4499  12
  -1   5 -25 204.891 26.5622   8
  -1  -5 -25 184.740 21.2718  13
   1  -5  25 198.821 20.5341  12
   1   5  25 191.581 25.3892  12
  -1   5 -26 3718.20 100.790   8
  -1  -5 -26 3560.82 85.7942  13
   1  -5  26 3716.62 81.4324  12
  -1   5 -27 9995.40 159.909   8
  -1  -5 -27 9584.25 139.298  13
   1  -5  27 9596.41 129.577  12
  -1   5 -28 99.9807 18.8682   8
  -1  -5 -28 84.3289 15.7562  13
   1  -5  28 78.5657 13.4346  12
   1   5  28 75.1599 17.7617  12
  -1   5 -29 1901.56 66.3368   8
  -1  -5 -29 1828.46 59.8122  13
   1  -5  29 1895.36 56.1695  12
   1   5  29 1831.64 67.2388  12
  -1   5 -30 3251.56 83.5538   8
  -1  -5 -30 3324.67 79.2658  13
   1   5  30 3205.50 85.7108  12
   1  -5  30 3263.72 71.7829  12
  -1   5 -31 167.785 19.3340   8
   1  -5  31 158.362 15.9679  12
  -1  -5 -31 163.849 18.0343  13
   1   5  31 165.985 20.0462  12
  -1   5 -32 217.569 20.1923   8
  -1  -5 -32 250.771 23.0425  17
   1  -5  32 258.769 19.4039  12
  -1  -5 -32 207.015 19.3759  13
   1   5  32 257.144 23.0844  12
  -1   5 -33 47.5460 9.01386   8
  -1  -5 -33 47.4945 10.9572  17
   1  -5  33 38.8990 6.74749  12
   1   5  33 55.3315 11.5757  12
  -1  -5 -33 38.3049 8.86110  13
  -1   5 -34 340.009 22.4006   8
  -1  -5 -34 371.746 25.4929  17
   1  -5  34 344.472 20.0942  12
   1   5  34 346.390 23.7811  12
  -1  -5 -34 357.524 23.8969  13
  -1   5 -35 387.313 21.7419   8
  -1  -5 -35 417.115 25.8740  17
   1  -5  35 378.866 19.9690  12
  -1  -5 -35 413.819 24.2543  13
  -1  -5 -36 57.9816 9.61377  17
  -1  -5 -36 68.7521 10.0403  13
  -1  -5 -37 27.3310 6.82214  17
  -1  -5 -37 34.3677 6.83014  13
   1   6 -34 20.5146 4.78401   8
   1   6 -33 27.2507 6.56576   8
   1  -6 -33 34.2923 6.27989  13
  -1  -6  33 27.0847 6.56304  12
   1   6 -32 84.3795 11.2301   8
   1  -6 -32 109.310 11.0047  13
  -1  -6  32 103.141 11.0473  12
   1   6 -31 33.4152 8.73086   8
  -1  -6  31 36.7183 8.01119  12
   1  -6 -31 24.0303 6.35943  13
   1   6 -30 8.38547 6.14646   8
  -1  -6  30 7.68589 5.67462  12
   1  -6 -30 15.8297 6.29595  13
   1   6 -29 312.969 24.2852   8
  -1  -6  29 293.866 17.9284  21
   1  -6 -29 315.719 20.7173  13
  -1  -6  29 337.014 22.3895  12
   1   6 -28 595.942 34.0982   8
  -1  -6  28 567.139 25.8340  21
   1  -6 -28 555.484 27.9621  13
  -1  -6  28 617.706 30.5496  12
   1   6 -27 334.610 27.0634   8
  -1  -6  27 307.194 20.0385  21
   1   6 -26 380.247 29.9580   8
  -1  -6  26 349.523 22.1337  21
   1   6 -25 2262.77 72.0699   8
  -1  -6  25 2195.44 55.4376  21
   1   6 -24 620.701 39.5967   8
  -1  -6  24 603.002 30.0711  21
   1   6 -23 1329.71 57.8340   8
  -1  -6  23 1234.54 42.2553  19
   1   6 -22 1018.43 51.7829   8
  -1  -6  22 1025.00 39.4294  19
   1   6 -21 83.5201 15.8930   8
  -1  -6  21 85.5091 12.5054  19
   1   6 -20 228.639 25.4409   8
   1   6 -20 213.471 18.8500  18
  -1  -6  20 226.765 19.4380  19
   1   6 -19 544.404 39.0252   8
   1   6 -19 550.816 30.6211  18
   1   6 -18 82.3435 17.7408   8
   1   6 -18 88.6881 14.3941  18
   1   6 -17 1943.29 73.3303   8
   1   6 -17 1851.90 58.3733  18
   1   6 -16 198.855 24.6644   8
   1   6 -16 179.131 19.7033  18
   1   6 -15 623.678 42.0314   8
   1   6 -15 614.955 34.9276  18
   1   6 -14 8.71464 8.29794   8
   1   6 -14-5.05144 7.07266  18
   1   6 -13 64.6028 15.0778   8
   1   6 -13 61.8369 13.2760  18
   1   6 -12 1508.03 63.5774   8
   1   6 -12 1472.30 55.9865  18
   1   6 -11 104.379 18.0870   8
   1   6 -11 106.722 16.7096  18
   1   6 -10 1063.68 52.6897   8
   1   6 -10 1104.25 49.2306  18
   1   6  -9 14.9156 8.75663   8
   1   6  -9 37.3787 12.3402  18
   1   6  -8 330.680 28.8750   8
   1   6  -8 386.969 30.2416  18
   1   6  -7 2079.70 68.8275  18
   1   6  -6 235.220 25.2735  18
  -1  -6   6 226.043 37.2813   5
  -1  -6   6 162.954 34.0328   4
   1   6  -5 3719.47 91.2239  18
  -1  -6   5 3923.83 153.454   4
   1   6  -4 50.8230 14.3758  18
  -1  -6   4-38.0576 28.5468   4
   1   6  -3 90.7015 18.9061  18
  -1  -6   3-19.8315 26.5757   4
  -1   6   2 10896.4 160.993   8
  -1  -6   2 11526.2 259.795   4
  -1   6   1 1271.86 56.6561   8
   1   6  -1 1227.98 52.8254  18
  -1  -6   1 1196.74 84.3644   4
  -1   6   0 13915.2 187.941   8
   1   6   0 14007.9 174.159  18
  -1  -6   0 14402.0 283.225   4
  -1   6  -1 1771.68 68.0280   8
   1   6   1 1797.47 62.6800  18
  -1  -6  -1 1836.04 100.500   4
  -1   6  -2 7.71988 9.54389   8
   1   6   2 24.8849 12.2384  18
  -1   6  -3 2882.16 87.6056   8
   1   6   3 2904.11 78.1504  18
  -1  -6  -3 2984.53 124.538   4
  -1   6  -4 174.279 22.7249   8
   1   6   4 187.279 20.1509  18
  -1  -6  -4 120.338 23.6840   4
  -1   6  -5 2026.59 74.6845   8
   1   6   5 1953.97 62.9820  18
  -1  -6  -5 2081.92 103.023   4
  -1   6  -6 495.411 38.0422   8
   1   6   6 495.304 32.0916  18
  -1   6  -7 3390.05 97.3373   8
   1   6   7 3171.93 78.8567  18
  -1   6  -8 26.5721 14.3369   8
   1   6   8 10.6319 7.40167  18
  -1   6  -9 1170.88 58.1784   8
   1   6   9 1142.72 46.4528  18
  -1   6 -10 898.028 51.5588   8
   1   6  10 961.468 42.0694  18
  -1   6 -11 61.1640 15.1587   8
   1   6  11 77.7344 12.9882  18
  -1   6 -12 13.0159 9.78258   8
  -1   6 -13 1237.51 60.5905   8
  -1   6 -14 96.5499 18.8736   8
  -1   6 -15 733.600 47.1717   8
  -1   6 -16 173.910 24.2123   8
  -1   6 -17 618.296 43.6353   8
  -1   6 -18 37.8314 13.3542   8
  -1   6 -19 307.315 30.6051   8
  -1   6 -20 120.342 19.5931   8
  -1   6 -21 37.6501 13.4401   8
  -1   6 -22 91.8309 17.3423   8
  -1   6 -23 63.8618 14.5046   8
  -1  -6 -23 75.9069 12.2654  17
  -1   6 -24 690.693 41.6475   8
  -1  -6 -24 652.254 34.6718  17
  -1   6 -25 141.217 19.8364   8
  -1  -6 -25 142.708 16.7524  17
  -1   6 -26 123.377 17.6531   8
  -1  -6 -26 107.259 13.9287  17
  -1   6 -27 296.236 25.6104   8
  -1  -6 -27 318.196 23.1231  17
  -1   6 -28 104.205 15.4222   8
  -1  -6 -28 125.624 14.1539  17
  -1   6 -29 40.7775 10.3088   8
  -1  -6 -29 47.9303 9.59011  17
  -1   6 -30 227.345 19.2904   8
  -1  -6 -30 216.170 17.3271  17
  -1   6 -31 48.5451 9.24692   8
  -1  -6 -31 33.2968 6.86041  17
  -1   6 -32 0.59642 4.36712   8
  -1  -6 -32-5.47032 3.28156  17
   1   7 -27 284.112 18.3776   8
   1   7 -26 55.8701 9.56448   8
  -1  -7  26 50.1284 7.40044  12
   1   7 -25 240.517 18.6609   8
  -1  -7  25 250.389 15.8312  12
   1   7 -24 6.14989 6.58005   8
   1   7 -23 1414.29 47.9151   8
   1   7 -22 695.359 34.9849   8
   1   7 -21 30.9492 9.98204   8
   1   7 -20 134.803 17.1661   8
   1   7 -19 92.7661 14.6978   8
   1   7 -18 68.2427 12.7518   8
   1   7 -17 246.248 23.2577   8
   1   7 -16 8.36520 7.23949   8
   1   7 -15 71.9080 13.7782   8
   1   7 -14 6.03054 6.15489   8
   1   7 -13 109.182 15.9346   8
   1   7 -12 33.7070 9.83785   8
   1   7 -12 42.0534 10.1676  18
   1   7 -11 485.754 32.7473   8
   1   7 -11 451.921 29.9111  18
   1   7 -10 77.7771 13.1233  18
   1   7  -9 89.3636 15.5255  18
   1   7  -8 219.189 22.4495  18
   1   7  -7 824.282 42.5762  18
   1   7  -6 248.833 24.1257  18
   1   7  -5 183.001 21.4287  18
   1   7  -4 1025.20 47.7925  18
   1   7  -3 551.899 35.4116  18
   1   7  -2 601.666 37.7695  18
   1   7  -1 5328.13 106.623  18
   1   7   0 282.361 26.7962  18
  -1   7  -1 68.7780 13.7591   8
   1   7   1 51.2409 12.5849  18
  -1   7  -2 495.659 33.8906   8
   1   7   2 455.754 31.1729  18
  -1   7  -3 352.613 29.3022   8
   1   7   3 362.126 28.1887  18
  -1   7  -4 274.987 29.2044   8
  -1   7  -5 2086.57 71.3460   8
  -1   7  -6 9.12004 9.08856   8
  -1   7  -7 104.699 17.5989   8
  -1   7  -8 296.148 27.9782   8
  -1   7  -9 4.72839 8.48382   8
  -1   7 -10 197.989 23.8475   8
  -1   7 -11 21.1119 9.14694   8
  -1   7 -12 244.925 25.7005   8
  -1   7 -13 33.5957 11.1898   8
  -1   7 -14 89.6218 16.2562   8
  -1   7 -15 2.37847 7.21959   8
  -1   7 -16 59.8050 12.9545   8
  -1   7 -17 55.1535 12.3051   8
  -1   7 -18 433.732 32.1686   8
  -1   7 -19 30.4537 10.7359   8
  -1   7 -20 459.129 32.1468   8
  -1   7 -21 191.677 20.8216   8
  -1   7 -22 998.685 43.5839   8
  -1   7 -23 2022.83 59.6310   8
  -1   7 -24 451.956 27.5789   8
  -1   7 -25 259.682 20.4167   8
  -1   7 -26 162.759 15.8698   8
  -1   7 -27 4043.45 67.6896   8
  -1   8  -8 218.382 17.7088   8
  -1   8  -9 790.221 33.2760   8
  -1   8 -10 472.292 25.8861   8
  -1   8 -11 131.495 14.3567   8
  -1   8 -12 14.0597 5.96897   8
  -1   8 -13 228.416 17.9233   8
  -1   8 -14 65.1295 9.86236   8
  -1   8 -15 33.0617 6.61361   8
  -1   8 -16 13.0924 5.57293   8
  -1   8 -17-2.40561 3.99556   8
  -2   0  41 4.72994 3.18613  11
  -2   0  40-1.07530 4.63853  11
  -2   0  40-7.17654 7.38039  12
  -2   0  39 4.60171 5.74848  11
  -2   0  39 1.43682 6.35363  12
  -2   0  38 10.0372 5.52558  11
  -2   0  38 8.20946 6.17506  12
  -2   0  37 16.8475 9.42486  11
  -2   0  37 7.10948 8.49103  12
  -2   0  36 3283.93 86.0908  12
  -2   0  36 3339.29 79.7764  11
  -2   0  35 4.18851 6.60448  11
  -2   0  35 7.98472 10.2753  21
  -2   0  35 12.9807 9.36135  12
  -2   0  34 2879.85 83.7833  21
  -2   0  34 2992.62 77.6048  11
  -2   0  34 2866.29 82.3282  12
  -2   0  33 15.3972 10.5250  11
  -2   0  33 23.2862 12.4661  21
  -2   0  33-11.3779 10.8563  12
  -2   0  32 4880.85 108.761  21
  -2   0  32 5030.58 108.808  12
  -2   0  31-3.40192 8.94107  11
  -2   0  31 0.79274 8.16336  21
  -2   0  31 10.0698 8.51008  12
  -2   0  30 4249.81 99.6047  21
  -2   0  30 4350.95 93.5867  11
  -2   0  30 4309.16 98.8233  12
  -2   0  29 20.4795 11.1337  11
  -2   0  29 14.9741 10.3635  21
  -2   0  29 14.2291 11.2139  12
  -2   0  28 28591.8 235.348  11
  -2   0  28 28230.7 246.903  21
  -2   0  28 28254.1 245.371  12
  -2   0  27 17.2007 9.27875  11
  -2   0  27 13.7105 11.3607  21
  -2   0  27 5.73977 7.69140  12
  -2   0  26 8138.16 121.568  11
  -2   0  26 8007.16 126.078  21
  -2   0  26 8018.92 125.929  12
  -2   0  25 17.3779 8.86213  11
  -2   0  25 20.9494 10.6594  21
  -2   0  25 36.3467 17.6090   3
  -2   0  24 18966.4 265.705   3
  -2   0  24 18814.6 178.198  11
  -2   0  23 13.3240 10.7800   2
  -2   0  23 12.8410 11.7935   3
  -2   0  22 819.289 53.1719   2
  -2   0  22 914.871 55.3469   3
  -2   0  21 14.1674 9.35046   3
  -2   0  21 11.0545 8.68165   2
  -2   0  20 2133.57 78.3105   3
  -2   0  20 1859.72 76.4164   2
  -2   0  19 7.18780 6.07366   3
  -2   0  19-2.63794 6.11769   2
  -2   0  18 348.045 31.4812   2
  -2   0  18 537.462 36.3607   3
  -2   0  17-1.79082 5.63996   3
  -2   0  17-5.26460 5.85840   2
  -2   0  16 33350.7 266.057   3
  -2   0  16 33442.5 291.729   2
  -2   0  15 16.1657 8.09433   3
  -2   0  15 5.39555 5.59677   5
  -2   0  15 13.3639 8.07991   2
  -2   0  14 63606.1 322.619   5
  -2   0  14 61012.7 331.918   3
  -2   0  14 62811.4 379.146   2
  -2   0  14 61888.8 257.353   6
  -2   0  13 2.55816 4.99091   3
  -2   0  13 16.7930 5.87985   6
  -2   0  13-0.44185 4.46694   5
  -2   0  13 16.5189 7.62021   2
  -2   0  12 46194.0 307.720   2
  -2   0  12 46941.0 262.787   3
  -2   0  12 46872.3 263.786   5
  -2   0  11 2.51901 4.48075   5
  -2   0  11 3.91212 3.19352   3
  -2   0  11-1.24638 4.07263   6
  -2   0  10 49775.6 242.304   6
  -2   0  10 48906.6 301.729   2
  -2   0  10 49482.1 260.685   5
  -2   0   9 38.6581 13.6837   2
  -2   0   9 25.0347 7.81164   3
  -2   0   9 47.1409 11.2332   6
  -2   0   9 45.3967 11.2338   5
  -2   0   8 135822. 474.302   2
  -2   0   8 135381. 404.782   6
  -2   0   7 36.7566 11.1078   2
  -2   0   7 8.70658 5.07341   3
  -2   0   7 25.3523 9.52708   6
  -2   0   6 26680.4 137.854   3
  -2   0   6 26946.2 205.971   2
  -2   0   5 8.65149 5.52959   2
  -2   0   5 2.21657 2.12103   3
  -2   0   5 9.64427 5.53842   6
  -2   0   4 636.249 31.5662   2
  -2   0   4 643.005 29.4666   6
  -2   0   3 3.84584 4.60618   2
  -2   0   3 8.04971 3.85580   6
  -2   0   2 29023.3 210.005   2
  -2   0   2 29560.8 201.195   6
  -2   0   1 10.9796 6.32976   2
  -2   0   1 2.20131 5.85404   6
  -2   0   0 90778.9 366.402   6
  -2   0   0 91300.0 372.346   2
  -2   0  -1 69.3953 13.6521   6
  -2   0  -1-6.42938 5.36966   4
  -2   0  -2 155643. 361.005   4
  -2   0  -2 157697. 499.972   6
  -2   0  -3 0.12443 3.44632   4
  -2   0  -4 7543.28 80.9121   4
  -2   0  -5 1.93699 2.91140   4
  -2   0  -6 10175.7 99.1086   4
  -2   0  -7 0.47779 2.78299   4
  -2   0  -8 58.1781 8.35619   4
  -2   0  -9 1.13711 3.33493   1
  -2   0  -9 2.57821 3.30058   4
  -2   0 -10 21383.4 163.423   4
  -2   0 -10 20799.3 173.997   1
  -2   0 -11 15.1664 6.78774   1
  -2   0 -11-4.55551 4.23252   4
  -2   0 -12 9624.28 118.470   4
  -2   0 -12 9482.26 124.575   1
  -2   0 -13-5.56537 5.36832   4
  -2   0 -13 0.44495 3.98546   1
  -2   0 -14 3342.93 75.8590   4
  -2   0 -14 3378.91 78.6713   1
  -2   0 -15 4.54258 5.99330   1
  -2   0 -15 3.15033 5.34870   4
  -2   0 -16 18966.0 198.719   1
  -2   0 -16 18655.4 189.202   4
  -2   0 -17 1.69492 7.13469   1
  -2   0 -17 0.70195 4.63337   4
  -2   0 -18 223.897 22.9682   4
  -2   0 -19 7.18072 5.35695   4
  -2   0 -20 3598.26 94.9445   4
  -2   0 -21-0.76138 5.86439   4
  -2   0 -22 1474.98 64.8811   4
  -2   0 -23-6.56725 9.30212   4
   2   0  23 8.41163 8.36630  12
  -2   0 -23-14.5767 9.14024  13
  -2   0 -24 1008.96 57.5226   4
  -2   0 -24 949.312 47.1803  17
   2   0  24 1045.71 50.9107  12
  -2   0 -24 985.379 49.1392  13
  -2   0 -25 18.0066 11.9593   4
  -2   0 -25 17.1354 10.8596  17
   2   0  25 2.16320 9.58047  12
  -2   0 -25 3.83540 9.50627  13
  -2   0 -26 38438.6 304.984  17
  -2   0 -26 38225.0 315.910  13
  -2   0 -27 47.0008 18.6955   4
  -2   0 -27 8.10828 11.0356  17
   2   0  27 17.1314 13.7078  12
  -2   0 -27 28.3513 17.2080  13
  -2   0 -28 6371.59 161.280   4
  -2   0 -28 6587.58 128.651  17
  -2   0 -28 6366.64 131.174  13
   2   0  28 6625.68 136.425  12
  -2   0 -29-1.13728 11.1334   4
  -2   0 -29-10.9570 11.9631  17
   2   0  29-5.75756 9.44678  12
  -2   0 -29-12.6740 11.4153  13
  -2   0 -30 605.930 52.5333   4
  -2   0 -30 657.694 40.8736  17
   2   0  30 654.752 44.2820  12
  -2   0 -30 605.700 41.2271  13
  -2   0 -31-0.71014 9.02699  17
   2   0  31 2.66792 9.46001  12
  -2   0 -31-12.5780 10.1477  13
  -2   0 -32 8529.54 153.313  13
   2   0  32 8921.07 161.724  12
   2   0  33-0.95331 11.0483  12
  -2   0 -33 16.2049 11.9420  13
  -2   0 -34 1143.09 55.2516  13
   2   0  34 1164.81 58.2526  12
   2   0  35-9.34875 9.53404  12
  -2   0 -35 2.41654 6.82254  13
  -2   0 -36 560.970 37.1348  13
   2   0  36 557.622 39.2507  12
  -2   0 -37 4.81589 7.63532  13
   2   0  37-1.59723 8.35745  12
  -2   0 -38-1.08349 5.76302  13
   2   0  38-0.39692 5.96178  12
   2   0  39 4.22970 5.30733   7
  -2   0 -39 1.78352 5.65454  13
   2   0  39-5.16276 7.56747  12
   2   0  40 64.7263 10.2766   7
  -2   0 -40 69.5343 11.4271  13
   2   0  40 59.8741 12.0632  12
  -2   0 -41-8.11736 6.66931  13
   2   0  41 16.1472 7.06091  12
   2   0  42 55.1880 10.4410  12
   2   0  43-3.06477 4.68426  12
   2   0  44 938.114 33.5243  12
  -2  -1  43-1.18821 3.56454  12
  -2   1  42 924.282 33.5820  11
  -2  -1  42 919.352 35.9037  12
  -2  -1  41 169.287 16.8710  12
  -2   1  41 176.806 16.1480  11
  -2   1  40 58.3680 10.3500  11
  -2  -1  40 53.5962 10.5976  12
  -2  -1  39 312.976 24.7927  12
  -2   1  39 290.254 22.9602  11
  -2  -1  38 934.966 44.8164  21
  -2  -1  38 952.031 44.1120  12
  -2   1  38 913.505 41.6342  11
  -2   1  37 32.6784 9.67930  11
  -2  -1  37 33.9437 8.44537  11
  -2  -1  37 23.1161 9.38457  21
  -2  -1  37 45.8213 11.9078  12
  -2  -1  36 579.035 37.0249  21
  -2  -1  36 584.395 31.3089  11
  -2  -1  36 608.567 36.9876  12
  -2   1  36 649.554 37.2605  11
  -2  -1  35 329.278 28.9964  21
  -2  -1  35 352.929 25.4186  11
  -2   1  35 316.580 26.9144  11
  -2  -1  35 340.165 28.9548  12
  -2  -1  34 11443.7 164.290  21
  -2   1  34 11495.0 158.586  11
  -2  -1  34 11487.4 144.301  11
  -2  -1  34 11331.0 161.326  12
  -2  -1  33 73.0985 14.3162  11
  -2   1  33 88.6414 17.2866  11
  -2  -1  33 86.2755 18.5319  21
  -2  -1  33 78.1477 16.6080  12
  -2  -1  32 1032.71 49.5076  21
  -2  -1  32 1015.25 48.6848  12
  -2   1  32 1059.23 48.9157  11
  -2  -1  32 973.953 42.9726  11
  -2  -1  31 869.006 40.7859  11
  -2  -1  31 835.927 44.2826  21
  -2  -1  31 865.575 44.8141  12
  -2   1  31 917.178 45.7021  11
  -2  -1  30 132.615 16.2036  11
  -2  -1  30 149.078 18.5291  21
  -2  -1  30 165.734 19.8691  12
  -2   1  30 165.990 19.5756  11
  -2   1  29-10.5069 13.7218  11
  -2  -1  29-1.75978 7.94454  11
  -2  -1  29-16.7097 19.4319   2
  -2   1  29-19.9705 16.5889  21
  -2  -1  29 8.46248 7.98708  21
  -2  -1  29-5.41378 7.50936  12
  -2  -1  28 910.957 40.9421  11
  -2  -1  28 828.544 66.7972   2
  -2   1  28 828.740 67.1020   3
  -2   1  28 843.056 44.0725  21
  -2  -1  28 927.993 44.9625  21
  -2   1  28 815.967 35.8731  20
  -2  -1  28 861.727 42.8265  12
  -2   1  28 855.342 42.8912  11
  -2   1  27 926.795 70.6568   3
  -2  -1  27 796.533 64.3090   2
  -2   1  27 857.221 36.6119  20
  -2  -1  27 884.095 44.8969  19
  -2  -1  27 907.412 44.3467  21
  -2   1  27 852.840 43.8925  21
  -2   1  27 915.145 44.3157  11
  -2  -1  27 917.259 44.1417  12
  -2   1  26 27596.6 369.268   3
  -2   1  26 27545.6 239.591  21
  -2   1  26 27238.4 201.444  20
  -2  -1  26 27068.3 238.037  19
  -2  -1  26 27466.5 235.252  21
  -2  -1  26 27005.5 227.251  12
  -2   1  26 27715.5 233.533  11
  -2   1  25 1683.88 57.3113  11
  -2  -1  25 1683.66 58.5254  19
  -2  -1  25 1663.40 56.9267  21
  -2   1  25 1555.30 48.1049  20
  -2  -1  25 1541.49 85.2977   2
  -2   1  25 1698.60 90.1973   3
  -2   1  24 719.377 36.7440  11
  -2  -1  24 711.426 37.1853  19
  -2   1  24 725.450 32.5047  20
  -2  -1  24 654.440 54.8496   2
  -2   1  24 692.383 56.7328   3
  -2   1  23 381.983 26.1994  11
  -2  -1  23 456.328 27.8149  10
  -2  -1  23 356.908 25.8338  19
  -2  -1  23 346.761 39.1833   2
   2  -1 -23 354.587 36.2498   4
  -2   1  23 325.284 38.8295   3
   2  -1 -22 1057.62 59.7753   4
  -2  -1  22 1036.61 65.9895   2
  -2   1  22 1060.34 66.8444   3
  -2  -1  22 1090.87 60.6111   5
  -2  -1  21 1375.59 66.9483   5
   2  -1 -21 1380.84 65.8755   4
  -2  -1  21 1261.28 71.4195   2
  -2   1  21 1387.48 73.7997   3
   2  -1 -20 663.260 44.3692   4
  -2  -1  20 603.295 48.0314   2
  -2   1  20 644.841 48.8930   3
  -2  -1  20 595.434 43.2726   5
  -2  -1  19 60.4534 15.6222   5
  -2   1  19 66.4947 16.9842   3
   2  -1 -19 85.0222 15.9854   4
  -2  -1  19 89.1929 20.2512   2
   2  -1 -18 21833.9 235.680   4
  -2  -1  18 20353.4 240.919   5
  -2  -1  18 20478.6 264.259   2
  -2   1  18 22202.1 266.969   3
   2  -1 -17 1660.89 62.6274   4
  -2   1  17 1704.31 72.6884   3
  -2  -1  17 1566.51 71.5264   2
  -2  -1  17 1595.16 66.0571   5
   2  -1 -16 2719.97 77.3435   4
  -2  -1  16 2666.84 91.1998   2
  -2  -1  16 2787.43 86.1229   5
  -2   1  16 2784.31 89.2748   3
  -2   1  15 878.266 39.0815   2
   2  -1 -15 828.632 41.2402   4
  -2   1  15 836.898 48.1308   3
  -2  -1  15 826.194 49.4739   2
  -2  -1  15 903.472 47.8281   5
  -2   1  15 832.592 35.8424   6
  -2   1  14 11123.2 133.991   2
   2  -1 -14 10636.7 140.576   4
  -2  -1  14 10638.9 173.540   2
  -2  -1  14 10903.5 161.154   5
  -2   1  14 10873.9 165.678   3
  -2   1  14 10808.2 127.012   6
  -2   1  13 54.9545 11.1943   2
  -2   1  13 48.6290 13.0361   3
   2  -1 -13 59.4957 12.4962   4
  -2   1  13 56.4078 11.8089   6
  -2  -1  13 82.8659 19.2183   2
  -2  -1  13 65.8679 15.3293   5
  -2   1  12 54526.9 275.528   2
   2  -1 -12 52276.3 284.973   4
  -2  -1  12 55495.2 378.869   2
  -2  -1  12 54470.7 348.528   5
  -2   1  12 53231.3 339.063   3
  -2   1  12 54666.8 287.104   6
  -2  -1  11 631.424 37.6884   5
  -2   1  11 607.412 28.9705   2
  -2   1  11 596.778 35.2585   3
  -2  -1  11 632.677 40.8179   2
  -2  -1  11 640.834 20.9460   6
  -2   1  11 603.776 30.5996   6
  -2   1  10 1474.99 53.4069   3
  -2   1  10 1565.89 44.9619   2
  -2  -1  10 1511.13 33.8628   6
  -2  -1  10 1483.07 59.1062   2
  -2  -1  10 1565.06 57.3299   5
  -2   1  10 1512.70 48.2826   6
  -2   1   9 340.303 25.3178   3
  -2   1   9 367.490 21.5947   2
  -2   1   9 376.613 25.1764   6
  -2  -1   9 359.930 17.4576   6
  -2  -1   9 341.160 13.8588   3
  -2  -1   9 382.312 30.7442   2
  -2  -1   9 399.682 29.5263   5
  -2   1   8 106640. 422.211   3
  -2   1   8 114724. 417.129   6
  -2   1   8 110795. 359.426   2
  -2  -1   8 112226. 314.734   6
  -2  -1   8 108087. 461.775   5
  -2  -1   8 109703. 492.532   2
  -2   1   7 14911.8 130.196   2
  -2   1   7 15323.5 154.470   6
  -2  -1   7 14839.2 120.331   6
  -2  -1   7 15170.4 180.023   2
  -2  -1   7 14903.5 168.010   5
  -2   1   6 944.700 38.7143   3
  -2   1   6 1087.15 41.1895   6
  -2   1   6 1035.35 33.8952   2
  -2  -1   6 1020.14 43.9696   5
  -2  -1   5 468.919 30.8745   2
  -2   1   5 431.688 25.2600   3
  -2   1   5 480.304 28.0874   6
  -2  -1   5 499.695 23.2451   6
  -2  -1   5 481.860 30.1080   5
  -2  -1   4 511.119 32.3028   2
  -2   1   4 463.695 26.0791   3
  -2   1   4 529.948 29.2509   6
  -2  -1   4 494.858 23.9621   6
  -2  -1   4 511.622 30.7831   5
  -2  -1   3 7597.57 122.980   2
  -2  -1   3 7660.26 96.3954   6
  -2   1   3 7522.29 110.495   6
  -2  -1   2 17088.8 183.603   2
  -2  -1   2 17202.4 147.354   6
  -2   1   2 17195.2 168.387   6
  -2  -1   1 9661.19 137.668   2
  -2   1   1 9971.50 129.957   6
  -2  -1   0 380.146 27.6887   2
  -2   1   0 421.262 27.3481   6
  -2  -1  -1 16403.1 177.781   2
  -2   1  -1 15802.2 166.037   6
  -2   1  -2 18101.1 94.8802   1
  -2   1  -2 17933.6 178.198   6
  -2  -1  -3 11779.5 137.337   4
  -2   1  -3 11639.1 80.4333   1
  -2   1  -3 11284.3 143.048   6
   2   1   3 11113.3 78.9420   3
  -2  -1  -3 11864.9 150.735   2
  -2  -1  -4 18257.1 173.814   4
  -2   1  -4 18056.0 107.070   1
  -2  -1  -5 7.53381 4.43788   4
  -2   1  -5 9.03026 2.13631   4
  -2   1  -5 8.46408 2.63568   1
  -2  -1  -6 16620.0 164.093   4
  -2   1  -6 16688.2 98.0695   4
  -2   1  -6 16427.8 115.766   1
  -2   1  -7 53.3261 6.74057   4
  -2  -1  -7 47.8825 10.4011   4
  -2   1  -7 49.8665 7.44333   1
  -2   1  -7 53.9248 12.7314   6
  -2  -1  -8 83146.3 377.101   4
  -2   1  -8 82365.4 263.339   4
  -2   1  -8 83085.1 290.782   1
  -2  -1  -9 1257.46 46.8217   4
  -2   1  -9 1218.81 37.3710   1
  -2   1  -9 1226.33 34.8930   4
  -2   1  -9 1193.80 51.7046   6
  -2  -1 -10 416.021 27.3688   4
  -2   1 -10 386.452 20.9691   4
  -2   1 -10 352.792 28.9117   6
  -2  -1 -11 811.006 38.9453   4
  -2   1 -11 810.492 32.0593   4
  -2   1 -11 776.248 43.1814   6
  -2  -1 -12 55556.1 321.535   4
  -2   1 -12 55166.1 275.068   4
  -2   1 -12 54966.8 368.785   6
  -2  -1 -13 1781.06 59.1712   4
  -2   1 -13 1761.44 51.8147   4
  -2  -1 -13 1608.08 57.4375   1
  -2  -1 -14 3450.17 84.6862   4
  -2   1 -14 3513.34 76.3417   4
  -2  -1 -15 3392.03 85.5327   4
  -2   1 -15 3651.37 81.1849   4
  -2  -1 -15 3478.43 87.0739   1
  -2  -1 -16 8118.92 136.419   4
  -2   1 -16 8506.00 129.147   4
  -2  -1 -17 1949.62 69.5874   1
  -2  -1 -17 2028.88 70.4580   4
  -2   1 -17 2023.45 65.9334   4
  -2  -1 -18 460.645 34.7580   4
  -2  -1 -18 435.983 34.3426   1
  -2   1 -18 437.736 31.9983   4
  -2  -1 -19 11.7946 8.15649   4
  -2  -1 -19 16.8971 8.69450   1
  -2   1 -19 37.1847 9.93753   4
  -2  -1 -20 3532.91 100.151   4
  -2   1 -20 3640.79 99.0965   4
  -2  -1 -20 3593.23 100.469   1
  -2  -1 -21 506.311 39.5891   1
  -2  -1 -21 489.282 38.2386   4
  -2   1 -21 524.535 38.9064   4
  -2  -1 -22 9104.16 166.821   4
  -2   1 -22 9376.25 168.425   4
  -2  -1 -22 9002.31 141.853  13
  -2  -1 -23 568.476 43.0920   4
  -2   1 -23 563.583 43.8035   4
  -2   1 -23 600.763 47.3724   6
   2  -1  23 615.413 37.2713  12
  -2   1 -23 623.784 39.2507  13
  -2  -1 -23 619.645 38.7029  13
   2   1  23 579.774 40.1742  12
  -2  -1 -24 20770.2 262.741   4
  -2   1 -24 21200.9 272.626   4
  -2   1 -24 21866.9 282.758   6
   2   1  24 21478.3 241.878  12
   2  -1  24 21451.2 218.207  12
  -2  -1 -24 20649.6 224.263  13
  -2   1 -24 20284.6 223.578  13
  -2  -1 -25 1982.64 83.7048   4
  -2   1 -25 1968.38 85.9396   4
   2  -1  25 2108.54 70.1184  12
  -2   1 -25 2005.35 71.9210  13
  -2  -1 -25 1999.12 71.7671  13
   2   1  25 2110.46 77.8122  12
  -2  -1 -26 14091.7 228.473   4
  -2   1 -26 14459.4 237.053   4
  -2   1 -26 13835.3 190.306  13
  -2  -1 -26 14370.0 193.352  13
   2  -1  26 14890.7 188.716  12
   2   1  26 14808.5 207.712  12
  -2  -1 -27 1612.40 79.8085   4
  -2   1 -27 1520.91 79.5931   4
   2  -1  27 1565.74 63.2117  12
  -2   1 -27 1547.40 65.0623  13
  -2  -1 -27 1516.55 64.7185  13
   2   1  27 1703.10 71.8735  12
  -2  -1 -28 3538.20 119.904   4
  -2   1 -28 3547.36 124.009   4
   2   1  28 3769.92 108.325  12
  -2   1 -28 3616.93 98.1971  13
  -2  -1 -28 3595.83 99.1240  13
   2  -1  28 3745.96 97.8549  12
  -2  -1 -29 82.5550 19.4238   4
   2   1  29 129.947 22.3028  12
   2  -1  29 91.4481 17.1301  12
  -2   1 -29 105.934 18.1184  13
  -2  -1 -29 103.014 18.0455  13
  -2  -1 -30 3726.46 101.181  17
   2  -1  30 3848.85 101.610  12
  -2  -1 -30 3734.19 102.696  13
  -2   1 -30 3861.19 100.828  13
   2   1  30 3743.11 109.432  12
  -2  -1 -31 50.9422 13.0158  17
  -2   1 -31 53.1614 12.3210  13
   2  -1  31 81.3033 16.8018  12
  -2  -1 -31 59.4033 14.8677  13
   2   1  31 52.5352 15.1367  12
  -2  -1 -32 38.3247 11.1794  17
   2  -1  32 57.8730 14.0167  12
  -2   1 -32 67.0898 14.7618  13
  -2  -1 -32 53.4548 13.8272  13
   2   1  32 39.0465 13.2473  12
  -2  -1 -33 108.738 18.6883  17
   2  -1  33 139.341 19.9999  12
  -2   1 -33 133.648 19.4922  13
  -2  -1 -33 119.492 20.6086  13
   2   1  33 132.251 22.2826  12
   2   1  34 986.966 48.8228   7
  -2  -1 -34 1009.01 51.4463  17
   2  -1  34 1043.67 52.3799  12
  -2  -1 -34 991.549 52.7057  13
  -2   1 -34 984.426 48.1816  13
   2   1  34 1014.49 56.4247  12
   2   1  35 307.410 26.4735   7
  -2  -1 -35 315.016 28.2562  17
  -2   1 -35 292.284 25.7411  13
   2   1  35 318.984 31.5831  12
   2  -1  35 297.958 28.3450  12
  -2  -1 -35 295.335 29.1123  13
   2   1  36 92.6368 14.6657   7
  -2  -1 -36 105.417 16.4356  17
   2  -1  36 88.3928 15.7581  12
  -2  -1 -36 121.240 18.8477  13
   2   1  36 90.3620 17.2704  12
   2   1  37 6.00491 7.43622   7
  -2  -1 -37 8.85407 6.94267  17
   2  -1  37-1.13702 5.75483  12
  -2  -1 -37-1.38316 7.55887  13
   2   1  37 0.95525 6.94457  12
   2   1  38 40.8290 9.63054   7
  -2  -1 -38 36.1282 9.49259  17
   2  -1  38 31.6715 9.08746  12
  -2  -1 -38 45.9395 11.8331  13
   2   1  38 35.3295 10.8890  12
  -2  -1 -39-8.49266 6.25632  17
  -2  -1 -39 6.11853 8.01782  13
   2  -1  39 5.82426 5.62915  12
   2   1  39 6.36141 5.52162  12
   2  -1  40 27.3564 8.77376  12
  -2  -1 -40 47.9853 11.5106  13
   2   1  40 37.5093 10.3129  12
   2  -1  41 4.71718 4.69861   7
  -2  -1 -41 11.1803 6.85633  13
   2   1  41 9.70780 6.98093  12
   2  -1  41 6.96923 6.12308  12
   2  -1  42 1419.13 37.9918   7
   2   1  42 1466.95 49.9719  12
   2  -1  42 1448.76 46.2199  12
  -2  -1 -43 64.6798 9.06146  13
   2  -1  43 63.6483 9.75735  12
   2   1  43 61.1682 10.3599  12
   2   1  44 233.620 17.1361  12
  -2  -2  43 99.5796 10.8923  12
  -2  -2  42 637.491 28.3355  12
  -2  -2  41 305.680 21.4030  12
   2  -2 -41 327.423 18.8068  13
  -2   2  40-7.77593 6.01912  11
  -2  -2  40-6.40122 5.81049  12
   2  -2 -40 4.42971 5.40991  13
   2   2 -39 27.5077 6.95865   8
  -2   2  39 17.8482 7.56876  11
  -2  -2  39 5.49124 8.08744  21
  -2  -2  39 25.6922 8.80487  12
   2  -2 -39 24.7982 7.54646  13
   2   2 -38 74.3334 11.7978   8
  -2   2  38 69.0151 12.5119  11
  -2  -2  38 52.7766 11.4274  21
  -2  -2  38 51.5260 10.6469  12
  -2   2  37 15.8980 6.87884  11
  -2  -2  37 27.1350 10.1038  21
  -2  -2  37 13.6926 6.23679  12
  -2  -2  36 382.445 29.5722  21
  -2   2  36 365.643 29.0644  11
  -2  -2  36 378.642 28.1943  12
  -2  -2  35 3225.53 85.1960  21
  -2  -2  35 3269.25 83.8222  12
  -2   2  35 3329.14 86.9073  11
  -2  -2  34 906.388 45.9769  21
  -2  -2  34 915.442 45.3665  12
  -2   2  34 901.970 46.7114  11
  -2  -2  33 570.438 30.6900  11
  -2  -2  33 553.920 36.6542  21
  -2  -2  33 511.544 34.6189  12
  -2   2  33 537.421 36.9097  11
  -2  -2  32 4932.77 90.7111  11
  -2  -2  32 4770.83 104.921  21
  -2  -2  32 4854.79 104.027  12
  -2   2  32 4980.92 109.815  11
  -2  -2  31 1426.18 49.4400  11
  -2  -2  31 1400.59 57.5105  21
  -2  -2  31 1358.11 55.4340  12
  -2   2  31 1389.76 58.4099  11
  -2  -2  30 751.177 36.2472  11
  -2  -2  30 803.601 43.6937  19
  -2  -2  30 766.500 42.3662  21
  -2   2  30 762.722 43.7676  11
  -2  -2  30 732.073 40.4063  12
  -2   2  29 2518.79 127.456   3
  -2  -2  29 2481.97 75.1184  21
  -2  -2  29 2449.63 75.2590  19
  -2  -2  29 2431.48 72.6520  12
  -2   2  29 2466.87 77.7008  11
  -2   2  28 18441.5 339.877   3
  -2  -2  28 17893.2 199.117  19
  -2  -2  28 17571.8 196.356  21
  -2   2  28 18084.6 206.077  11
  -2   2  27 1046.32 80.7531   3
  -2  -2  27 1089.31 80.6704   2
  -2  -2  27 1108.10 50.0556  19
  -2   2  27 1076.88 50.2500  11
  -2  -2  26 870.950 71.3919   2
  -2   2  26 870.198 72.8628   3
  -2  -2  26 837.574 42.6995  19
  -2   2  26 907.461 45.5075  11
  -2  -2  25 5983.42 102.264  10
  -2  -2  25 5925.57 166.029   5
  -2   2  25 5915.78 184.118   3
  -2   2  25 6019.54 100.273  20
  -2  -2  25 6255.61 112.726  19
  -2   2  25 6248.13 116.608  11
  -2  -2  24 5529.38 97.0766  10
  -2  -2  24 5532.82 169.861   2
  -2  -2  24 5348.90 156.086   5
  -2   2  24 5488.29 173.957   3
  -2  -2  24 5619.17 105.446  19
  -2   2  24 5429.74 94.5250  20
  -2   2  24 5407.54 106.924  11
  -2  -2  23 706.058 34.5158  10
  -2  -2  23 626.803 56.7187   2
  -2  -2  23 717.556 56.7717   5
  -2   2  23 696.426 61.4370   3
  -2  -2  23 733.540 37.4491  19
  -2   2  23 709.543 34.1143  20
  -2   2  23 695.891 37.9342  11
  -2  -2  22 666.363 33.2645  10
   2  -2 -22 646.305 44.4387   4
  -2  -2  22 681.080 58.1049   2
  -2  -2  22 613.704 52.0016   5
  -2   2  22 656.034 57.8621   3
  -2  -2  22 837.288 39.3244  19
  -2   2  22 731.421 34.1534  20
  -2   2  22 682.642 37.2698  11
  -2   2  21 209.096 32.9089   3
   2  -2 -21 215.132 25.2236   4
  -2  -2  21 164.523 28.4619   2
  -2  -2  21 167.524 26.2376   5
  -2   2  21 228.867 18.9412  20
  -2  -2  21 214.303 19.6239  19
  -2   2  21 201.450 20.0377  11
  -2   2  20 5.20975 10.2271   3
   2  -2 -20 2.73528 5.87962   4
  -2  -2  20 25.6690 12.7715   2
  -2  -2  20 7.13054 9.19765   5
  -2  -2  19 195.735 29.2882   2
  -2  -2  19 196.709 28.2255   5
  -2   2  19 193.376 30.3914   3
   2  -2 -18 2167.83 70.7621   4
  -2  -2  18 1788.47 85.6190   2
  -2  -2  18 1905.41 84.5606   5
  -2   2  18 2095.23 94.4470   3
  -2   2  17 18.0072 12.6004   3
   2  -2 -17 4.40401 5.15485   4
  -2  -2  17 3.07685 12.0261   2
  -2  -2  17-1.54855 11.1817   5
  -2   2  16 13761.8 228.404   3
   2  -2 -16 13884.2 165.564   4
  -2  -2  16 13369.0 224.758   2
  -2   2  15 605.034 47.0807   3
   2  -2 -15 612.657 33.6671   4
  -2  -2  15 593.622 47.2888   2
  -2  -2  15 594.662 45.5814   5
  -2   2  14 12049.8 200.750   3
   2  -2 -14 11667.5 139.288   4
  -2  -2  14 11434.5 199.448   2
  -2  -2  14 11356.6 191.304   5
  -2   2  14 11537.6 150.412   6
  -2   2  13 833.167 52.3712   3
   2  -2 -13 809.762 34.9594   4
  -2  -2  13 816.102 52.7718   2
  -2  -2  13 815.456 50.6049   5
  -2   2  13 826.176 40.2644   6
   2  -2 -12 69760.8 304.818   4
  -2  -2  12 69458.2 475.335   2
  -2  -2  12 68738.9 455.463   5
  -2   2  12 69072.7 363.921   6
  -2   2  11 100.800 19.4518   3
  -2  -2  11 86.6562 21.3084   2
  -2   2  11 101.375 15.6914   6
  -2   2  10 1234.82 58.5861   3
  -2  -2  10 1156.85 58.2500   5
  -2  -2  10 1192.31 60.5493   2
  -2   2  10 1145.56 46.8213   6
  -2   2   9 17813.0 217.078   3
  -2  -2   9 17902.8 227.586   2
  -2  -2   9 17765.0 224.802   5
  -2   2   9 18254.1 184.934   6
  -2   2   8 7916.49 142.995   3
  -2  -2   8 8269.05 148.918   5
  -2  -2   8 7633.71 146.704   2
  -2   2   8 7995.64 123.615   6
  -2   2   7 701.640 41.4157   3
  -2  -2   7 768.144 45.4252   5
  -2  -2   7 705.384 44.3490   2
  -2   2   7 773.076 39.0562   6
  -2  -2   6 3244.66 92.8616   2
  -2   2   6 3071.62 85.1769   3
  -2  -2   6 3248.52 91.5472   5
  -2  -2   6 3277.74 51.9192   6
  -2   2   6 3283.12 79.3339   6
  -2  -2   5 1072.12 53.2040   2
  -2   2   5 1108.81 51.0818   3
  -2  -2   5 1147.69 33.3343   6
  -2   2   5 1048.75 45.1793   6
  -2  -2   5 1063.71 51.8357   5
  -2  -2   4 2241.71 75.7315   2
  -2   2   4 2272.74 72.0689   3
  -2  -2   4 2425.74 77.5278   5
  -2   2   4 2292.44 66.7375   6
  -2  -2   4 2467.37 51.8721   6
  -2  -2   3 3536.42 94.3779   2
  -2   2   3 3398.66 87.1649   3
  -2   2   3 3381.68 81.2127   6
  -2  -2   3 3552.57 93.4302   5
  -2  -2   2 3090.61 88.4931   2
  -2   2   2 3019.20 81.3112   3
  -2   2   2 2991.51 77.0640   6
  -2  -2   2 3077.46 86.4182   5
  -2  -2   1 418.117 32.8051   2
  -2   2   1 558.020 33.8933   6
  -2  -2   0 2183.99 73.5157   2
  -2   2   0 2036.62 64.2634   6
  -2   2  -1 245.763 23.4278   6
  -2  -2  -1 272.279 26.5110   2
  -2  -2  -2 247.337 24.4320   2
  -2   2  -2 277.477 24.5869   6
   2   2   3 8702.35 92.7119   3
  -2   2  -3 8640.87 136.282   6
  -2  -2  -3 8727.92 144.619   2
  -2  -2  -4 18645.1 211.277   4
   2   2   4 18149.5 143.322   3
  -2   2  -4 18251.0 199.164   6
  -2  -2  -4 18333.1 207.367   2
  -2  -2  -5 2965.90 85.7683   4
  -2   2  -5 2920.70 81.2859   6
   2   2   5 2986.22 62.9859   3
  -2  -2  -6 29166.1 266.869   4
   2   2   6 29322.7 207.371   3
  -2  -2  -7 16465.1 200.426   4
  -2   2  -7 16065.1 193.033   6
   2   2   7 16522.7 163.560   3
  -2  -2  -8 4728.20 106.861   4
  -2   2  -8 4721.14 105.793   6
   2   2   8 4791.61 91.6389   3
  -2  -2  -9 1407.71 59.4636   4
  -2   2  -9 1537.52 61.2416   6
   2   2   9 1548.58 54.6551   3
   2   2  10 17323.1 189.222   3
  -2   2 -10 17075.8 206.280   6
  -2  -2 -11 1144.43 54.1244   4
  -2   2 -11 1153.07 54.4680   6
   2   2  11 1187.25 51.6090   3
  -2  -2 -12 321.558 29.3929   4
  -2   2 -12 362.402 31.2050   6
  -2  -2 -13 1523.84 63.5618   4
  -2   2 -13 1529.31 65.0476   6
   2   2  13 1571.63 64.2042   3
  -2  -2 -14 21330.5 238.433   4
  -2   2 -14 21831.1 245.144   6
   2   2  14 21613.7 242.407   3
   2   2  15 69.2838 16.2338   3
  -2  -2 -15 62.0396 14.1481   1
  -2  -2 -15 95.4919 17.4418   4
  -2   2 -15 70.8277 15.9453   6
   2   2  16 12.4145 9.14405   3
  -2  -2 -16 15.9305 8.32459   4
  -2   2 -16 29.5164 12.5448   6
  -2  -2 -16 1.15087 6.18637   1
  -2  -2 -17 5880.71 130.269   4
  -2  -2 -17 5713.71 125.191   1
   2   2  17 6075.46 143.628   3
  -2   2 -17 6133.54 135.530   6
  -2  -2 -18 7434.39 148.409   4
  -2   2 -18 7777.85 154.222   6
   2   2  18 7457.08 163.422   3
  -2  -2 -18 7188.26 143.796   1
  -2  -2 -19 2181.16 81.2584   1
  -2  -2 -19 2260.07 83.3768   4
   2   2  19 2310.41 94.0902   3
  -2   2 -19 2417.93 86.8197   6
  -2  -2 -20 1748.29 75.0607   4
  -2  -2 -20 1706.70 73.5424   1
  -2   2 -20 1829.52 76.2153   6
   2   2  20 1815.11 87.1986   3
  -2  -2 -20 1830.09 62.3596  13
   2   2  20 1823.77 70.3623  12
  -2  -2 -21 700.353 49.0116   4
  -2  -2 -21 701.756 48.2682   1
   2   2  21 755.313 57.9758   3
   2   2  21 732.837 41.7149   7
  -2  -2 -21 741.547 40.5123  13
   2   2  21 718.107 45.4646  12
  -2  -2 -22 444.799 39.7666   4
  -2  -2 -22 423.685 38.3785   1
   2   2  22 461.176 46.8835   3
   2   2  22 438.061 33.0282   7
  -2  -2 -22 437.368 31.9136  13
   2   2  22 464.365 37.4203  12
  -2  -2 -23 1374.76 70.5820   1
  -2  -2 -23 1435.11 72.7504   4
   2   2  23 1522.59 87.1227   3
   2   2  23 1372.51 59.0302   7
  -2  -2 -23 1420.91 57.7841  13
   2  -2  23 1520.83 55.6974  12
   2   2  23 1426.49 65.4911  12
  -2  -2 -24 4146.42 125.015   4
  -2  -2 -24 4185.91 124.874   1
   2   2  24 4356.27 151.673   3
   2   2  24 4292.68 104.476   7
   2  -2  24 4465.00 96.6434  12
  -2  -2 -24 4270.08 102.184  13
   2   2  24 4227.63 114.323  12
   2   2  25 21.9621 21.5398   3
  -2  -2 -25 63.0162 20.7412   4
   2   2  25 59.0346 18.3502   7
   2  -2  25 112.439 17.8409  12
  -2  -2 -25 40.2035 15.2294  13
   2   2  25 91.1127 23.7655  12
  -2  -2 -26 47897.2 432.488   4
   2   2  26 48191.6 355.653   7
  -2  -2 -26 49460.2 359.476  13
   2  -2  26 48525.4 328.132  12
   2   2  26 48608.2 398.204  12
  -2  -2 -27 1679.13 82.8975   4
   2   2  27 1645.60 99.8965   3
   2   2  27 1619.03 66.4743   7
   2  -2  27 1616.80 62.0081  12
  -2  -2 -27 1648.26 68.0484  13
   2   2  27 1697.91 77.2260  12
  -2  -2 -28 559.464 49.1736   4
   2   2  28 552.427 59.8243   3
   2   2  28 563.614 39.1491   7
   2  -2  28 598.787 38.3807  12
  -2  -2 -28 592.939 41.1812  13
   2   2  28 538.053 44.0391  12
   2   2  29 1126.82 54.4351   7
   2  -2  29 1190.21 53.5100  12
  -2  -2 -29 1161.31 57.7136  13
   2   2  29 1127.02 62.3552  12
   2   2  30 54.6783 12.0650   7
   2  -2  30 60.4312 13.3649  12
  -2  -2 -30 46.4548 13.6959  13
   2   2  30 71.5657 16.3324  12
   2   2  31 3.27341 8.48332   7
   2  -2  31 7.30339 8.96282  12
  -2  -2 -31-3.06141 10.2435  13
   2   2  31-5.15544 12.1335  12
   2   2  32 5184.10 112.094   7
  -2  -2 -32 5179.02 121.599  17
   2  -2  32 5183.78 111.614  12
  -2  -2 -32 5109.09 119.234  13
   2   2  32 5394.91 134.147  12
   2   2  33 108.205 17.3575   7
  -2  -2 -33 109.454 18.7844  17
   2  -2  33 106.026 17.2689  12
  -2  -2 -33 78.3233 16.3048  13
   2   2  33 105.948 21.8338  12
   2   2  34 416.893 30.8794   7
  -2  -2 -34 386.305 33.1641  17
   2  -2  34 349.085 29.1237  12
  -2  -2 -34 386.807 32.6511  13
   2   2  34 398.646 36.4490  12
   2   2  35 39.0524 10.5678   7
  -2  -2 -35 49.8499 12.9314  17
   2  -2  35 52.0620 12.2228  12
  -2  -2 -35 46.1223 13.5038  13
   2   2  35 39.2563 12.0710  12
  -2  -2 -36 1070.28 50.9825  17
   2  -2  36 918.106 44.1607  12
   2   2  36 1013.86 53.8909  12
  -2  -2 -36 1007.71 50.2446  13
  -2  -2 -37 153.922 19.4624  17
  -2  -2 -37 137.082 19.3884  13
   2  -2  37 124.028 16.3272  12
   2   2  37 136.932 19.8717  12
  -2  -2 -38 306.823 25.4424  17
   2  -2  38 276.291 22.9311  12
  -2  -2 -38 288.417 26.1073  13
   2   2  38 278.078 26.6548  12
  -2  -2 -39 33.1136 9.44740  17
  -2  -2 -39 46.6450 11.3104  13
   2  -2  39 31.4715 8.27720  12
   2   2  39 23.9720 8.88636  12
  -2  -2 -40 86.0404 13.0759  17
   2  -2  40 75.4647 11.0847  12
  -2  -2 -40 96.8855 14.4910  13
   2   2  40 79.1596 12.9378  12
  -2  -2 -41 23.7117 7.38986  17
   2  -2  41 28.0415 7.76547  12
  -2  -2 -41 14.7488 7.13843  13
   2   2  41 9.34876 5.57847  12
  -2  -2 -42 218.846 15.8688  17
  -2  -2 -42 250.970 19.1020  13
   2   2  42 220.993 18.6907  12
   2  -2  42 205.725 15.2909  12
  -2  -2 -43 119.402 11.9144  13
   2   2  43 103.900 11.8910  12
  -2  -3  42 258.302 16.1544  12
   2   3 -41 117.333 10.6568   8
  -2  -3  41 112.155 11.6173  12
   2  -3 -41 132.129 11.5364  13
   2   3 -40 277.983 18.6244   8
  -2  -3  40 290.283 20.6427  21
  -2  -3  40 285.348 19.8982  12
   2  -3 -40 287.507 18.5091  13
   2   3 -39 184.144 16.3240   8
  -2  -3  39 162.612 16.5821  21
  -2  -3  39 181.235 16.7828  12
   2  -3 -39 201.078 16.7123  13
   2   3 -38 187.068 17.5318   8
  -2  -3  38 187.746 18.4053  21
  -2  -3  38 180.953 17.6565  12
  -2   3  37-6.39723 8.10510  11
   2   3 -37-0.73264 5.39259   8
  -2  -3  37-0.13942 8.91953  21
  -2  -3  37-2.67423 6.48660  12
   2   3 -36 78.0662 13.1288   8
  -2   3  36 58.6698 12.2997  11
  -2  -3  36 52.4353 11.9548  21
  -2  -3  36 56.1373 11.8219  12
   2   3 -35 1393.48 52.7262   8
  -2  -3  35 1467.82 55.1567  21
  -2   3  35 1360.77 55.5991  11
  -2  -3  35 1410.02 52.7664  12
   2   3 -34 5016.02 102.262   8
  -2  -3  34 5287.79 105.717  21
  -2   3  34 5073.42 109.585  11
  -2  -3  34 5114.75 101.633  12
  -2  -3  33 845.357 43.9862  21
  -2   3  33 851.020 47.1921  11
  -2  -3  33 846.219 42.6617  12
  -2   3  32 16.5093 11.9130  11
  -2  -3  32 18.9549 11.1976  19
  -2  -3  32 18.6519 11.2355  21
  -2  -3  32 13.6367 9.07561  12
  -2  -3  31 1193.56 52.1174  21
  -2  -3  31 1173.00 50.8482  19
  -2   3  31 1216.61 56.5678  11
  -2  -3  31 1161.71 50.4312  12
  -2  -3  30 524.227 35.0324  19
  -2  -3  30 471.775 33.7147  21
  -2   3  30 460.748 35.8077  11
  -2  -3  29 1409.73 56.6841  21
  -2  -3  29 1434.98 56.7689  19
  -2   3  29 1376.60 60.4526  11
  -2   3  28 69.0318 15.1293  11
  -2  -3  28 81.5542 15.2139  19
  -2  -3  27 344.525 28.7134  19
  -2   3  27 302.641 29.5631  11
  -2  -3  26 7827.42 115.964  10
  -2   3  26 7643.36 227.785   3
  -2  -3  26 7255.37 213.980   2
  -2  -3  26 7147.59 201.139   5
  -2  -3  26 7557.02 127.268  19
  -2   3  26 7425.72 138.497  11
  -2  -3  25 2459.17 65.2107  10
  -2   3  25 2279.70 123.996   3
  -2  -3  25 2327.27 120.367   2
  -2  -3  25 2231.51 111.573   5
  -2  -3  25 2370.67 70.7824  19
  -2   3  25 2312.05 76.7087  11
  -2  -3  24 7.13137 7.09906  10
  -2   3  24 8.06095 8.43574  11
  -2   3  24 11.8263 11.6935   3
  -2  -3  24 56.0728 20.0027   5
  -2  -3  24 12.5050 11.6509   2
  -2  -3  24 60.8126 12.8937  19
  -2  -3  23 2319.64 63.2093  10
  -2   3  23 2283.66 120.276   3
  -2  -3  23 2089.47 111.288   2
  -2  -3  23 1994.11 104.217   5
  -2  -3  23 2258.87 68.3617  19
  -2   3  23 2307.72 74.0369  11
  -2  -3  22 25.8906 7.30843  10
  -2   3  22 33.6673 11.4920  11
  -2   3  22 57.3417 21.1258   3
  -2  -3  22 8.32284 15.9732   2
  -2  -3  22 49.7835 18.8350   5
  -2  -3  22 29.7188 9.12126  19
  -2   3  21 1186.57 83.9672   3
  -2  -3  21 1200.11 82.0561   2
  -2  -3  21 1072.34 74.6656   5
  -2  -3  21 1317.59 47.3652  10
  -2   3  21 1209.99 52.6769  11
  -2  -3  20 94.9344 13.1495  10
  -2   3  20 87.8790 15.8888  11
  -2   3  20 96.2916 25.4156   3
  -2  -3  20 64.0653 19.5166   2
  -2  -3  20 83.4732 23.8471   5
  -2  -3  20 78.5809 13.1828  22
  -2   3  20 136.704 15.7218  20
  -2  -3  19 2131.06 59.1028  10
  -2   3  19 2094.13 107.278   3
  -2  -3  19 1829.31 97.4147   2
  -2  -3  19 1849.73 94.6325   5
  -2  -3  19 2127.95 62.0004  22
  -2   3  19 1976.57 58.2272  20
  -2   3  19 1997.41 65.2507  11
  -2   3  18 3091.77 127.443   3
  -2  -3  18 2798.13 117.446   2
  -2  -3  18 2763.29 114.030   5
  -2  -3  18 3304.58 76.1471  22
  -2   3  18 3093.23 71.4099  20
  -2   3  18 3075.14 79.0792  11
  -2   3  17 831.999 36.3899  20
  -2   3  17 807.243 64.0503   3
  -2  -3  17 755.418 60.3474   2
  -2  -3  17 782.144 59.9197   5
  -2   3  16 8496.17 201.466   3
  -2  -3  16 8268.28 194.840   2
  -2  -3  16 7883.67 185.581   5
  -2   3  15 15.4546 13.2669   3
  -2  -3  15 10.3816 12.1733   2
  -2  -3  15 18.7492 11.9645   5
  -2   3  14 50.9109 17.6416   3
  -2  -3  14 43.3001 16.8660   5
  -2  -3  14 62.9086 17.1225   2
  -2   3  13 863.573 60.9994   3
  -2  -3  13 864.421 60.3316   2
  -2  -3  13 843.150 58.5079   5
  -2   3  12 2521.77 101.731   3
  -2  -3  12 2495.97 100.101   2
  -2  -3  12 2404.75 97.4078   5
  -2   3  12 2389.31 75.3359   6
  -2   3  11 599.794 49.1185   3
  -2  -3  11 547.583 47.0335   5
  -2  -3  11 575.843 47.5017   2
  -2   3  11 540.976 35.9615   6
  -2   3  10 2961.65 104.735   3
  -2  -3  10 2932.38 104.482   5
  -2   3  10 2862.63 81.0304   6
  -2   3   9 4245.30 122.861   3
  -2  -3   9 4106.45 122.359   5
  -2  -3   9 4223.57 123.737   2
  -2   3   9 4176.66 98.2574   6
  -2   3   8 11098.3 197.756   3
  -2  -3   8 10928.0 197.098   2
  -2   3   8 11097.5 159.627   6
  -2   3   7 18763.4 254.140   3
  -2   3   7 18215.8 204.858   6
  -2  -3   6 1117.66 61.6298   2
  -2   3   6 1047.93 59.5824   3
  -2  -3   6 1002.49 58.8066   5
  -2   3   6 1099.96 50.7458   6
  -2  -3   5 600.166 45.4921   2
  -2   3   5 614.697 45.0758   3
  -2  -3   5 586.322 45.1092   5
  -2   3   5 615.380 37.8638   6
  -2  -3   4 8141.99 161.578   2
  -2   3   4 8326.07 163.280   3
  -2  -3   4 8278.70 166.387   5
  -2   3   4 8471.09 140.031   6
  -2  -3   3 40862.9 361.975   2
  -2   3   3 40241.5 357.349   3
  -2  -3   3 39533.3 360.077   5
  -2   3   3 40092.6 304.105   6
  -2  -3   2 47088.9 388.499   2
  -2   3   2 47176.3 386.486   3
  -2   3   2 46769.2 329.616   6
  -2  -3   2 46412.0 387.716   5
  -2  -3   1 23102.5 269.525   2
  -2   3   1 22698.3 231.487   6
  -2  -3   0 17860.5 235.048   2
  -2   3   0 17713.8 204.983   6
  -2   3  -1 38588.0 300.077   6
  -2  -3  -1 39675.4 346.764   2
  -2  -3  -2 128.141 21.2639   2
  -2   3  -2 127.750 19.7789   6
  -2   3  -3 28340.2 261.988   6
  -2  -3  -3 29640.0 294.515   2
  -2   3  -4 10039.8 156.482   6
  -2  -3  -4 10392.1 172.214   2
  -2  -3  -5 612.882 45.8400   4
  -2   3  -5 657.532 40.6292   6
  -2  -3  -6 582.718 44.6243   4
   2   3   6 592.547 35.9522   3
  -2   3  -6 566.483 38.1038   6
   2   3   7 4.86229 8.28953   3
  -2  -3  -7 45.6756 17.8935   4
  -2   3  -7 27.7098 14.7185   6
  -2  -3  -8 58432.6 437.640   4
  -2   3  -8 60475.0 397.959   6
   2   3   9 1914.83 71.6444   3
  -2  -3  -9 1867.65 79.1331   4
  -2   3  -9 1870.12 70.5412   6
  -2  -3 -10 12581.2 204.976   4
  -2   3 -10 13240.9 186.668   6
   2   3  11 1142.61 59.4656   3
  -2  -3 -11 1134.17 61.9276   4
  -2   3 -11 1143.87 55.8824   6
  -2   3 -12 4733.05 114.649   6
   2   3  12 4599.93 122.033   3
  -2   3 -13 4709.44 115.133   6
   2   3  13 4657.18 126.175   3
  -2  -3 -14 6195.16 145.881   4
   2   3  14 6527.34 153.289   3
  -2  -3 -15 5029.76 131.991   4
   2   3  15 5463.28 144.943   3
  -2  -3 -16 156.277 24.3319   4
   2   3  16 190.359 28.6395   3
  -2  -3 -16 131.803 21.6758   1
   2   3  16 147.687 20.8332  12
  -2  -3 -17 4206.33 121.780   4
  -2  -3 -17 4333.00 118.789   1
   2   3  17 4613.66 141.453   3
  -2   3 -17 4164.11 97.8853   8
   2   3  17 4129.16 97.7294   7
  -2  -3 -17 4364.42 93.4009  13
   2   3  17 4388.44 109.875  12
  -2  -3 -18 669.986 49.8274   4
  -2  -3 -18 674.940 47.8360   1
   2   3  18 729.730 59.0323   3
  -2   3 -18 643.439 39.1737   8
   2   3  18 624.443 39.4532   7
  -2  -3 -18 701.381 38.5581  13
   2   3  18 674.239 44.1818  12
  -2  -3 -19 1282.63 69.5195   4
   2   3  19 1378.04 81.8547   3
  -2  -3 -19 1319.55 67.6031   1
   2   3  19 1278.77 56.7106   7
  -2   3 -19 1294.45 56.2392   8
  -2  -3 -19 1295.60 53.3342  13
   2   3  19 1353.74 63.7813  12
  -2  -3 -20 16796.8 242.912   1
  -2  -3 -20 15930.0 245.061   4
   2   3  20 16936.6 292.576   3
   2   3  20 15407.4 197.417   7
  -2   3 -20 15659.6 193.762   8
  -2  -3 -20 16423.8 189.567  13
   2   3  20 16509.0 223.288  12
  -2  -3 -21 3282.63 112.952   4
  -2  -3 -21 3521.90 113.529   1
   2   3  21 3462.88 135.914   3
  -2   3 -21 3141.94 87.9856   8
   2   3  21 3100.79 89.4674   7
  -2  -3 -21 3268.37 86.5098  13
   2   3  21 3236.35 101.167  12
  -2  -3 -22 150.161 24.8527   1
   2   3  22 170.558 33.7640   3
  -2  -3 -22 129.068 24.1808   4
   2   3  22 143.511 20.9043   7
  -2   3 -22 134.903 19.3357   8
  -2  -3 -22 140.831 19.8650  13
   2   3  22 130.189 22.0002  12
  -2  -3 -23 862.343 59.6942   4
  -2  -3 -23 970.364 61.6690   1
   2   3  23 992.396 77.7427   3
  -2   3 -23 913.253 47.9930   8
   2   3  23 879.749 48.6444   7
  -2  -3 -23 909.432 47.7151  13
   2   3  23 883.198 54.6133  12
  -2  -3 -24 8573.89 183.705   1
  -2  -3 -24 8091.80 184.228   4
   2   3  24 8154.05 222.528   3
  -2   3 -24 8001.32 139.764   8
   2   3  24 7853.47 144.731   7
  -2  -3 -24 8020.16 142.803  13
   2   3  24 7853.12 162.295  12
  -2  -3 -25 4628.56 141.062   4
   2   3  25 4833.49 174.139   3
  -2   3 -25 4604.90 105.690   8
   2   3  25 4605.66 110.979   7
  -2  -3 -25 4527.80 107.861  13
   2   3  25 4581.97 125.687  12
  -2   3 -26 673.309 40.3597   8
   2   3  26 679.483 43.7891   7
  -2  -3 -26 697.203 43.6863  13
   2   3  26 710.838 51.3309  12
   2   3  27 4937.44 113.756   7
  -2  -3 -27 4993.74 115.569  13
   2   3  27 4979.28 131.490  12
   2  -3  27 5089.20 103.907  12
   2   3  28 1464.92 61.8551   7
   2  -3  28 1455.48 55.9894  12
  -2  -3 -28 1493.33 63.8330  13
   2   3  28 1451.99 72.0731  12
   2   3  29 33.3793 11.9935   7
   2  -3  29 31.3702 10.8975  12
  -2  -3 -29 36.2445 12.3525  13
   2   3  29 15.9508 10.4626  12
   2   3  30 31.5510 10.0382   7
   2  -3  30 38.5488 10.4792  12
  -2  -3 -30 45.3757 12.2840  13
   2   3  30 59.1832 16.5620  12
   2   3  31 1007.80 48.0809   7
  -2  -3 -31 1027.97 54.7856  17
  -2  -3 -31 1036.12 52.8907  13
   2   3  31 984.047 58.0083  12
   2  -3  31 983.492 45.8976  12
   2   3  32 992.106 45.8172   7
  -2  -3 -32 967.284 52.2099  17
   2  -3  32 924.749 43.6080  12
  -2  -3 -32 1015.56 51.7193  13
   2   3  32 1046.95 58.6000  12
  -2  -3 -33 54.2203 15.7316  17
   2   3  33 29.6797 14.5029  12
   2  -3  33 36.6159 9.49687  12
  -2  -3 -33 22.6622 8.46372  13
  -2  -3 -34 998.741 51.0813  17
  -2  -3 -34 973.108 49.5461  13
   2  -3  34 875.000 40.6942  12
   2   3  34 963.938 53.2404  12
  -2  -3 -35 214.630 23.7474  17
   2  -3  35 202.987 19.3685  12
  -2  -3 -35 190.393 22.2484  13
   2   3  35 206.083 25.5472  12
  -2  -3 -36 686.632 39.8280  17
   2  -3  36 594.490 31.3401  12
  -2  -3 -36 660.617 38.2871  13
   2   3  36 681.685 42.0398  12
  -2  -3 -37 46.7598 11.5413  17
  -2  -3 -37 33.0190 10.6228  13
   2   3  37 42.2566 11.8219  12
   2  -3  37 33.2422 7.53479  12
  -2  -3 -38 53.1507 11.8864  17
   2  -3  38 40.3932 7.41508  12
  -2  -3 -38 48.7042 11.6483  13
   2   3  38 65.7575 13.5228  12
  -2  -3 -39 56.9332 10.8760  17
   2  -3  39 45.2566 9.00953  12
   2   3  39 45.1625 10.4023  12
  -2  -3 -39 57.7830 12.0054  13
  -2  -3 -40 92.7030 12.1152  17
  -2  -3 -40 99.3301 13.0801  13
   2   3  40 77.7628 11.9998  12
  -2  -3 -41 10.5927 6.14535  17
  -2  -3 -41 4.92765 5.01820  13
   2   3  41 2.46772 4.01014  12
   2  -4 -40 16.3113 5.06379  13
   2   4 -39 106.876 11.1476   8
  -2  -4  39 111.595 11.7133  21
   2  -4 -39 119.154 11.4875  13
  -2  -4  39 92.7282 10.1194  12
   2   4 -38-2.69421 4.89281   8
  -2  -4  38-4.29129 7.22558  21
  -2  -4  38-6.72441 6.64143  12
   2   4 -37 6.61434 5.54556   8
  -2  -4  37-6.89410 7.51884  21
  -2  -4  37 1.78963 5.69720  12
   2   4 -36 46.0554 9.42483   8
  -2  -4  36 61.8159 10.8107  21
  -2  -4  36 71.2073 12.2942  12
   2   4 -35 1069.23 43.5929   8
  -2  -4  35 1118.05 43.6625  21
  -2  -4  35 1134.77 43.3681  12
   2   4 -34 908.891 42.1190   8
  -2  -4  34 951.406 41.6705  21
  -2  -4  34 949.645 41.3963  12
   2   4 -33 1800.56 60.4973   8
  -2  -4  33 1856.81 59.3876  21
  -2  -4  33 1933.62 59.7606  12
   2   4 -32 312.525 27.0802   8
  -2  -4  32 318.217 24.9197  19
  -2  -4  32 338.966 27.1857  21
   2   4 -31 1687.21 61.5300   8
  -2  -4  31 1667.04 56.9518  19
  -2  -4  31 1789.67 60.6376  21
  -2  -4  31 1822.61 60.3383  12
  -2   4  31 1838.81 68.2200  11
  -2   4  30 14.4125 11.3746  11
   2   4 -30 14.0634 10.8891   8
  -2  -4  30 17.9817 11.2350  21
  -2  -4  30 6.56794 7.40778  19
   2   4 -29 2072.80 70.8504   8
  -2  -4  29 2197.52 69.0987  21
  -2  -4  29 2112.33 66.3648  19
  -2   4  29 2067.89 75.1072  11
   2   4 -28 3992.98 97.9354   8
  -2  -4  28 4000.80 91.6258  19
  -2   4  28 3910.30 103.832  11
  -2  -4  27 1261.55 52.1626  19
  -2   4  27 1285.01 60.5947  11
  -2  -4  26 805.527 41.7108  19
  -2   4  26 797.158 47.9302  11
  -2  -4  25 2729.52 76.1984  19
  -2   4  25 2697.82 86.9677  11
  -2  -4  24 3569.72 87.1757  19
  -2   4  24 3424.38 97.2620  11
  -2   4  23 42.7073 13.3078  11
  -2  -4  23 23.5423 8.95580  19
  -2  -4  22 15.9549 15.8296   2
  -2   4  22 26.9075 22.2148   3
  -2  -4  22 18.8688 11.9244   5
  -2   4  22 44.5269 13.1388  11
  -2   4  21 2121.79 122.883   3
  -2  -4  21 1904.05 108.825   5
  -2  -4  21 1970.29 110.586   2
  -2  -4  21 2124.49 61.0733  10
  -2   4  21 1918.85 71.1044  11
  -2  -4  20 821.196 38.1040  10
  -2   4  20 774.098 73.4955   3
  -2  -4  20 706.886 65.6662   5
  -2  -4  20 704.679 65.6953   2
  -2  -4  20 780.836 40.5616  22
   2   4 -20 754.181 34.6696  18
  -2   4  20 759.985 44.8705  11
  -2  -4  19-3.49816 5.75767  10
  -2   4  19 14.5335 9.63163  11
  -2  -4  19 12.1334 10.3860   2
  -2  -4  19-8.10606 11.9695   5
  -2  -4  19-1.01605 6.14821  22
  -2  -4  18 2477.06 66.5453  10
  -2   4  18 2290.28 120.921   3
  -2  -4  18 2305.01 115.450   5
  -2  -4  18 2427.19 118.733   2
  -2  -4  18 2525.00 70.6067  22
   2   4 -18 2432.65 62.2886  18
  -2   4  18 2306.33 75.3542  11
  -2  -4  17 148.846 16.9126  10
  -2   4  17 117.004 18.2313  11
  -2   4  17 135.208 30.2232   3
  -2  -4  17 117.497 27.3022   5
   2   4 -17 149.923 16.1568  18
  -2  -4  16 1588.83 53.7881  10
  -2   4  16 1608.69 97.9484   3
  -2  -4  16 1610.90 94.7218   5
  -2  -4  16 1488.23 90.2200   2
   2   4 -16 1541.91 49.9795  18
  -2   4  16 1545.26 59.8748  11
  -2  -4  15 463.940 29.1292  10
  -2   4  15 437.342 51.6890   3
  -2  -4  15 426.065 48.2838   5
  -2  -4  15 435.829 48.9400   2
   2   4 -15 433.699 27.0373  18
  -2   4  15 452.476 32.6770  11
  -2  -4  14 969.060 42.1546  10
  -2   4  14 928.927 72.5525   3
  -2  -4  14 885.919 68.9264   5
  -2  -4  14 889.535 67.9648   2
   2   4 -14 922.741 38.6091  18
  -2   4  14 886.428 43.6570  11
  -2   4  13 209.329 34.9031   3
  -2  -4  13 270.230 38.7127   2
  -2  -4  13 201.025 32.9573   5
   2   4 -13 244.341 20.2993  18
  -2   4  13 215.835 22.1675  11
   2   4 -12 10095.0 126.775  18
  -2   4  12 10090.7 229.580   3
  -2  -4  12 9732.16 216.497   2
   2   4 -11 1037.39 41.1250  18
  -2  -4  11 957.549 67.1259   2
  -2   4  11 987.284 71.2433   3
  -2  -4  11 962.221 69.4620   5
   2   4 -10 1372.65 46.6971  18
  -2  -4  10 1265.46 76.0024   2
  -2   4  10 1374.19 82.4681   3
  -2  -4  10 1270.59 78.5906   5
   2   4  -9 8125.80 112.998  18
  -2  -4   9 7545.55 183.257   2
  -2   4   9 7735.50 191.805   3
  -2  -4   9 7549.99 186.112   5
  -2  -4   8 41.2273 15.8935   2
  -2   4   8 33.4712 13.2286   3
  -2   4   8 45.1887 14.3120   6
  -2  -4   8 70.7842 20.4720   5
  -2  -4   7 3662.52 124.978   2
  -2   4   7 3923.55 133.735   3
  -2  -4   7 3777.84 129.509   5
  -2   4   7 3805.22 102.617   6
  -2  -4   6 3042.48 112.564   2
  -2   4   6 3127.00 118.753   3
  -2  -4   6 2872.21 112.546   5
  -2   4   6 3032.60 91.0753   6
  -2  -4   5 280.561 36.0904   2
  -2   4   5 252.265 35.9862   3
  -2  -4   5 226.268 33.6203   5
  -2   4   5 231.030 27.4908   6
  -2  -4   4 11050.1 212.479   2
  -2   4   4 11183.1 222.020   3
  -2  -4   4 10733.7 215.052   5
  -2   4   4 10969.5 172.057   6
  -2  -4   3 37.0354 20.1797   5
  -2  -4   3 50.8457 17.4762   2
  -2   4   3 45.7715 16.8880   6
  -2  -4   2 29314.2 338.284   2
  -2   4   2 28350.9 276.304   6
  -2  -4   1 71.4802 20.5915   2
  -2   4   1 101.837 19.6377   6
  -2  -4   0 1269.21 69.2170   2
  -2   4   0 1258.87 58.3473   6
  -2  -4  -1 74.8554 17.9933   2
  -2   4  -1 100.041 17.5578   6
  -2  -4  -2 6412.27 150.267   2
  -2   4  -2 6404.74 133.032   6
  -2  -4  -3 1454.47 80.0843   4
  -2  -4  -3 1581.71 74.4150   2
  -2   4  -3 1513.76 64.5591   6
  -2  -4  -4 2844.48 111.980   4
  -2   4  -4 2804.17 87.4836   6
  -2  -4  -5 450.080 44.9811   4
  -2   4  -5 541.345 39.3840   6
  -2  -4  -6 764.463 57.9885   4
  -2   4  -6 826.951 48.1372   6
  -2  -4  -7 7845.71 183.308   4
  -2   4  -7 8634.07 154.042   6
  -2  -4  -8 4123.64 131.418   4
  -2   4  -8 4569.89 111.857   6
  -2   4  -8 4301.25 100.274   8
   2   4   8 3921.83 91.2751   7
   2   4   8 3585.53 88.9697  12
  -2  -4  -9 1020.48 65.8803   4
   2   4   9 979.336 46.1687   7
  -2   4  -9 995.596 48.7837   8
  -2  -4 -10 1311.30 74.4892   4
  -2   4 -10 1259.49 55.2099   8
   2   4  10 1216.06 52.0556   7
   2   4  10 1076.63 50.9217  12
  -2  -4 -11 1047.34 66.6713   4
   2   4  11 1003.47 48.1036   7
  -2   4 -11 1078.00 51.7936   8
   2   4  11 955.434 49.2529  12
   2   4  12 237.630 24.2391   7
  -2   4 -12 240.566 25.0509   8
  -2  -4 -12 232.002 31.9830   4
  -2  -4 -12 232.286 23.4526  17
   2   4  12 205.593 24.1785  12
  -2  -4 -13 694.764 54.1498   4
   2   4  13 753.633 42.5710   7
  -2   4 -13 778.160 45.0151   8
   2   4  13 761.774 46.0641  12
  -2  -4 -14 2662.16 106.390   4
  -2   4 -14 2601.59 82.1703   8
   2   4  14 2491.29 77.8672   7
   2   4  14 2360.16 81.8509  12
  -2  -4 -15 2.07101 7.48523   1
  -2  -4 -15-0.36827 9.78754   4
  -2   4 -15 1.80069 6.29818   8
   2   4  15 5.05958 9.28582   7
   2   4  15-0.67499 8.34963  12
  -2  -4 -16 90.3708 21.7854   4
  -2  -4 -16 61.3133 17.1852   1
  -2   4 -16 61.0370 15.6460   8
   2   4  16 82.3090 17.5108   7
  -2  -4 -16 66.4199 13.0693  13
   2   4  16 55.1065 14.9887  12
  -2  -4 -17 8357.33 187.746   4
  -2  -4 -17 8386.69 176.104   1
  -2   4 -17 7981.90 148.291   8
   2   4  17 8141.02 143.737   7
  -2  -4 -17 8226.32 131.554  13
   2   4  17 7735.93 155.427  12
  -2  -4 -18 3957.06 130.107   4
  -2  -4 -18 4131.34 124.919   1
  -2   4 -18 3908.98 104.536   8
   2   4  18 3835.54 99.9430   7
  -2  -4 -18 3937.03 92.8719  13
   2   4  18 3641.36 107.921  12
  -2  -4 -19 1642.07 79.9720   1
  -2  -4 -19 1619.70 83.8121   4
   2   4  19 1621.68 65.7153   7
  -2   4 -19 1574.53 67.0207   8
   2   4  19 1506.35 70.6236  12
  -2  -4 -19 1605.64 60.5893  13
  -2  -4 -20 27.1648 15.6917   4
  -2  -4 -20 24.8994 12.9647   1
  -2   4 -20 2.17736 7.91852   8
   2   4  20 20.9630 12.7025   7
  -2  -4 -20 8.81474 7.49523  13
   2   4  20 4.82465 11.1425  12
  -2  -4 -21 171.859 28.2515   4
  -2  -4 -21 176.730 27.5130   1
  -2   4 -21 149.897 22.2861   8
   2   4  21 174.453 22.7284   7
  -2  -4 -21 179.214 21.4793  13
   2   4  21 173.554 25.5811  12
   2   4  22 2440.31 80.8453   7
  -2   4 -22 2494.49 84.1035   8
  -2  -4 -22 2481.99 77.2437  13
   2   4  22 2386.21 89.9581  12
  -2   4 -23 1329.03 61.4424   8
   2   4  23 1391.92 60.6044   7
  -2  -4 -23 1349.40 57.8847  13
   2   4  23 1300.73 67.0405  12
   2   4  24 287.671 28.1587   7
  -2   4 -24 300.384 29.4440   8
  -2  -4 -24 280.979 27.2414  13
   2   4  24 285.315 33.1239  12
   2   4  25 392.659 33.2118   7
  -2   4 -25 391.566 34.5030   8
  -2  -4 -25 406.582 34.0559  13
   2   4  25 434.608 41.9876  12
  -2   4 -26 18057.0 215.390   8
   2   4  26 18328.9 210.895   7
   2   4  26 17788.4 245.406  12
  -2  -4 -26 18099.7 211.292  13
   2   4  27 869.841 46.3811   7
  -2   4 -27 853.968 46.7476   8
  -2  -4 -27 881.023 52.1802  17
  -2  -4 -27 832.605 46.7458  13
   2   4  27 852.610 56.1022  12
  -2   4 -28 513.119 35.5162   8
   2   4  28 472.524 33.3694   7
  -2  -4 -28 512.688 38.9289  17
  -2  -4 -28 503.645 36.1419  13
   2   4  28 493.519 41.8496  12
  -2   4 -29 2873.18 79.6043   8
  -2  -4 -29 3063.71 91.6343  17
  -2  -4 -29 3043.42 86.1249  13
   2   4  29 2900.40 96.0880  12
  -2   4 -30 159.544 18.8555   8
  -2  -4 -30 207.725 24.8940  17
  -2  -4 -30 161.755 20.2890  13
   2   4  30 156.270 24.5146  12
  -2   4 -31 63.1761 11.4695   8
  -2  -4 -31 67.1483 15.4837  17
  -2  -4 -31 37.2560 9.21531  13
   2   4  31 57.6535 16.6933  12
  -2  -4 -32 1533.53 61.1445  17
  -2  -4 -32 1478.12 57.3527  13
   2   4  32 1501.87 64.2989  12
  -2  -4 -33 6.23361 7.25247  17
  -2  -4 -33 19.1469 9.72445  13
   2   4  33 13.3590 9.28799  12
  -2  -4 -34 101.790 15.8198  17
  -2  -4 -34 101.395 15.0603  13
   2   4  34 96.3426 16.1560  12
  -2  -4 -35 42.2359 10.3702  17
  -2  -4 -35 41.9091 10.1757  13
   2   4  35 32.0229 9.77011  12
  -2  -4 -36 25.7602 6.88461   9
  -2  -4 -36 44.3864 10.4582  17
  -2  -4 -36 22.7520 7.30056  13
   2   4  36 30.1857 9.24634  12
  -2  -4 -37 2.20625 3.72423   9
  -2  -4 -37 0.15206 5.37974  17
  -2  -4 -37 0.23646 5.27850  13
   2   4  37-3.91167 5.93020  12
  -2  -4 -38 3.85908 4.65776  17
  -2  -4 -38 13.9212 5.53391  13
   2   4  38 0.08655 3.99946  12
  -2  -4 -39 39.0019 7.59556  17
  -2  -4 -39 36.6195 7.02218  13
   2   4  39 23.3239 5.41276  12
   2   5 -36 32.7362 7.21659   8
  -2  -5  36 32.9230 6.17804  21
   2  -5 -36 50.9755 8.10500  13
  -2  -5  36 34.9027 7.23207  12
   2   5 -35 613.103 28.3893   8
  -2  -5  35 612.225 26.6984  21
  -2  -5  35 679.697 28.7399  12
   2  -5 -35 652.854 26.8889  13
   2   5 -34 879.097 36.0026   8
  -2  -5  34 919.873 34.4806  21
  -2  -5  34 923.416 35.3144  12
   2   5 -33 569.917 30.4987   8
  -2  -5  33 598.428 29.1909  21
  -2  -5  33 660.497 31.2953  12
   2   5 -32 2.33429 7.08299   8
  -2  -5  32 15.8436 7.47135  21
  -2  -5  32 19.3070 8.66005  12
   2   5 -31 613.052 34.6791   8
  -2  -5  31 567.505 29.2323  19
  -2  -5  31 616.208 31.6983  21
  -2  -5  31 630.672 32.6653  12
   2   5 -30 106.567 16.0648   8
  -2  -5  30 111.739 14.2291  19
  -2  -5  30 146.419 17.1179  21
   2   5 -29 773.181 41.3044   8
  -2  -5  29 692.318 34.5990  19
  -2  -5  29 739.797 36.8992  21
   2   5 -28 220.395 23.7035   8
  -2  -5  28 230.590 21.5728  21
  -2  -5  28 218.580 20.9398  19
   2   5 -27 21.1446 12.3775   8
  -2  -5  27 15.2206 9.20689  19
   2   5 -26 2892.04 83.2715   8
  -2  -5  26 2851.20 73.4662  19
   2   5 -25 1093.61 52.4838   8
  -2  -5  25 1106.03 46.6428  19
   2   5 -24 38.6832 12.9507   8
  -2  -5  24 29.3150 9.91089  19
   2   5 -23 1769.06 67.8394   8
  -2  -5  23 1863.04 61.8230  19
   2   5 -22 884.875 48.0616   8
  -2  -5  22 861.270 42.9237  19
   2   5 -21 20.0938 10.8606   8
   2   5 -21 22.2055 6.53302  18
   2   5 -20 544.397 38.8102   8
   2   5 -20 566.389 31.2908  18
   2   5 -19 623.115 40.8510   8
  -2  -5  19 668.613 36.6594  22
   2   5 -19 637.952 33.8168  18
   2   5 -18 3005.05 88.6288   8
  -2  -5  18 3145.99 79.1915  22
   2   5 -18 2925.73 72.3151  18
  -2  -5  17 558.532 32.3028  10
   2   5 -17 569.257 38.9717   8
   2   5 -17 538.445 31.9232  18
  -2  -5  17 574.442 34.4851  22
   2   5 -16 340.360 30.3485   8
  -2  -5  16 342.208 25.8941  10
   2   5 -16 325.866 25.4906  18
   2   5 -15 130.456 18.9278   8
   2   5 -15 98.1949 15.3826  18
  -2  -5  15 99.6731 26.6264   2
  -2   5  15 106.343 28.1611   3
  -2  -5  15 89.9478 24.8144   5
  -2  -5  14 1012.27 45.3955  10
   2   5 -14 945.852 48.5245   8
   2   5 -14 962.880 43.2043  18
  -2  -5  14 880.810 71.2978   2
  -2   5  14 1051.04 83.9642   3
  -2  -5  14 992.286 78.1029   5
   2   5 -13 132.095 18.6093   8
  -2  -5  13 130.853 17.1097  10
   2   5 -13 140.798 17.5346  18
  -2  -5  13 150.830 30.3944   2
  -2   5  13 141.011 31.7468   3
  -2  -5  13 118.829 27.8220   5
   2   5 -12-1.56012 6.96831   8
   2   5 -12 8.77114 7.91771  18
  -2  -5  12-4.66066 8.97027   5
  -2  -5  12-2.01159 9.29679   2
  -2   5  12 10.6484 7.76963   3
   2   5 -11 45.4406 12.3958   8
   2   5 -11 55.3067 12.8525  18
  -2  -5  11 37.7344 16.3977   5
  -2  -5  11 48.5669 18.4967   2
  -2   5  11 89.5292 25.8640   3
   2   5 -10 3092.54 83.8373   8
   2   5 -10 2936.92 76.2731  18
  -2  -5  10 2714.51 121.151   2
  -2   5  10 3083.47 136.461   3
  -2  -5  10 2784.23 127.037   5
   2   5  -9 726.127 38.7200  18
  -2  -5   9 636.234 58.3098   2
  -2   5   9 717.991 66.3667   3
  -2  -5   9 685.038 63.0787   5
   2   5  -8 746.765 38.9652  18
  -2  -5   8 651.132 58.5497   2
  -2  -5   8 570.243 56.1775   5
  -2   5   7 2762.15 79.8583   8
   2   5  -7 2958.71 77.2032  18
  -2  -5   7 2834.96 120.683   2
  -2  -5   7 2769.14 123.762   5
  -2   5   6 11321.0 162.600   8
   2   5  -6 11508.0 151.689  18
  -2  -5   6 11748.8 240.735   2
  -2  -5   6 11261.5 246.238   5
  -2   5   5 306.934 28.6608   8
   2   5  -5 410.019 30.6170  18
  -2  -5   5 336.316 42.3470   2
  -2   5   4 71.6299 16.9953   8
  -2  -5   4 56.4749 21.6830   2
  -2   5   3 12432.3 175.442   8
   2   5  -3 12226.6 156.522  18
   2   5  -2 2171.46 71.4263   7
  -2   5   2 2077.87 72.6101   8
   2   5  -2 2370.10 69.0769  18
  -2  -5   2 2236.24 100.664   2
   2   5  -1 8969.59 143.523   7
  -2   5   1 8952.08 150.746   8
   2   5  -1 8929.36 132.914  18
  -2  -5   1 9234.58 227.968   4
   2   5   0 1443.10 58.8275   7
  -2   5   0 1449.56 62.5029   8
   2   5   0 1471.96 54.5458  18
  -2  -5   0 1557.50 94.1495   4
   2   5   1 7755.32 134.162   7
  -2   5  -1 7938.53 144.659   8
  -2   5  -1 8549.53 161.344   6
   2   5   1 8082.14 125.387  18
  -2  -5  -1 8434.61 217.157   4
   2   5   2 420.409 32.5823   7
  -2   5  -2 393.927 33.5909   8
  -2   5  -2 440.641 36.8910   6
   2   5   2 441.908 31.0291  18
  -2  -5  -2 344.702 44.3814   4
   2   5   3 10508.7 156.850   7
  -2   5  -3 10589.8 168.520   8
   2   5   3 10919.2 143.522  18
  -2   5  -4 1735.09 69.2400   8
   2   5   4 1746.84 65.4021   7
   2   5   4 1871.82 59.4573  18
  -2  -5  -4 1875.68 101.131   4
   2   5   5 592.010 38.0318   7
  -2   5  -5 583.127 40.8272   8
   2   5   5 626.779 34.6595  18
  -2  -5  -5 552.880 54.5436   4
  -2   5  -6 1463.23 64.2592   8
   2   5   6 1540.41 61.0715   7
   2   5   6 1477.74 52.0911  18
  -2  -5  -6 1488.20 87.7206   4
   2   5   7 63.5427 14.2283   7
  -2   5  -7 81.4363 17.1163   8
   2   5   7 65.5855 12.6274  18
  -2  -5  -7 64.3659 17.1397   4
   2   5   8 1111.91 52.3043   7
  -2   5  -8 1131.03 56.4983   8
   2   5   8 1174.74 45.9463  18
  -2  -5  -8 1240.80 79.4614   4
   2   5   9 235.686 24.8566   7
  -2   5  -9 247.828 27.6845   8
   2   5   9 234.316 21.3436  18
  -2  -5  -9 194.800 32.1757   4
  -2  -5 -10 20.3660 8.17155   4
   2   5  10 32.5042 10.5262   7
  -2   5 -10 29.5484 12.2445   8
  -2  -5 -11 107.799 24.2940   4
   2   5  11 127.672 18.3978   7
  -2   5 -11 142.052 22.6480   8
  -2  -5 -12 4127.30 142.625   4
  -2   5 -12 3951.94 107.403   8
   2   5  12 3843.73 99.8055   7
  -2  -5 -13 1513.19 86.8419   4
  -2  -5 -13 1509.61 77.5675   1
  -2   5 -13 1435.69 65.8296   8
   2   5  13 1367.60 60.2706   7
  -2  -5 -14 464.652 48.0694   4
  -2  -5 -14 372.523 39.3295   1
  -2   5 -14 346.145 32.9399   8
   2   5  14 345.480 31.1985   7
  -2   5 -15 473.635 38.3898   8
   2   5  15 520.330 37.4696   7
  -2  -5 -15 518.286 36.2451  17
  -2   5 -16 368.340 34.0275   8
   2   5  16 393.492 33.0910   7
  -2  -5 -16 402.278 32.8105  17
   2   5  16 347.415 32.5041  12
  -2   5 -17 1456.62 67.0733   8
   2   5  17 1503.12 62.8999   7
  -2  -5 -17 1556.99 62.7553  17
   2   5  18 163.350 22.2376   7
  -2   5 -18 167.626 24.3735   8
  -2  -5 -18 152.300 21.2252  17
   2   5  18 174.561 23.5428  12
  -2   5 -19 1283.29 62.8699   8
   2   5  19 1271.22 57.8434   7
  -2  -5 -19 1298.50 58.4159  17
   2   5  19 1128.27 57.5652  12
  -2   5 -20 3720.97 105.169   8
   2   5  20 3728.05 97.3779   7
  -2  -5 -20 3653.28 97.6179  17
  -2   5 -21 925.720 53.1870   8
   2   5  21 934.540 48.5379   7
  -2  -5 -21 1001.71 52.2363  17
  -2   5 -22 912.015 51.8818   8
   2   5  22 908.859 47.0756   7
  -2  -5 -22 869.753 48.4060  17
  -2  -5 -22 906.192 44.6116  13
  -2   5 -23 332.044 31.0519   8
   2   5  23 352.912 29.1129   7
  -2  -5 -23 294.124 28.5213  17
  -2  -5 -23 317.760 26.8973  13
   2   5  23 265.680 28.5736  12
  -2   5 -24 442.958 35.3885   8
   2   5  24 499.114 33.4906   7
  -2  -5 -24 464.290 35.1186  17
  -2  -5 -24 421.899 29.8604  13
   2   5  24 382.513 33.2361  12
  -2   5 -25 619.528 40.3037   8
   2   5  25 704.943 38.7104   7
  -2  -5 -25 595.865 38.8719  17
  -2  -5 -25 594.035 35.3099  13
   2   5  25 568.066 39.6984  12
   2   5  26 176.645 19.9176   7
  -2   5 -26 143.216 20.1523   8
  -2  -5 -26 139.631 19.8367  17
  -2  -5 -26 149.287 18.6760  13
   2   5  26 156.773 22.5681  12
  -2   5 -27 1672.65 62.0763   8
  -2  -5 -27 1659.37 62.7393  17
  -2  -5 -27 1673.77 57.4880  13
   2   5  27 1588.54 63.2489  12
  -2   5 -28 8.79471 7.64050   8
  -2  -5 -28 3.36219 7.80911  17
  -2  -5 -28 16.0245 8.74452  13
   2   5  28 20.9645 12.4115  12
  -2   5 -29 10.2260 6.43323   8
  -2  -5 -29 5.89905 7.61892  17
  -2  -5 -29-5.59949 4.87180  13
   2   5  29 9.16993 8.50297  12
  -2   5 -30 13.1274 6.84309   8
  -2  -5 -30 11.8629 7.72342  17
  -2  -5 -30 5.70184 4.31313  13
   2   5  30 12.3932 8.96585  12
  -2   5 -31 172.118 16.5616   8
  -2  -5 -31 183.213 18.9582  17
  -2  -5 -31 168.771 17.1651  13
   2   5  31 206.563 20.9307  12
  -2   5 -32 27.1905 6.73154   8
  -2  -5 -32 16.2642 6.89960  17
  -2  -5 -32 24.3214 7.15990  13
  -2  -5 -33 51.9882 10.0877  17
  -2  -5 -33 59.0728 9.48687  13
  -2  -5 -34 184.304 15.0822   9
  -2  -5 -34 186.087 16.8028  17
  -2  -5 -34 169.078 15.1522  13
  -2  -5 -35-4.53324 4.28167   9
  -2  -5 -35-5.44999 5.20068  17
  -2  -5 -35 3.33261 2.63699  13
  -2  -5 -36 7.07754 3.39990  17
   2   6 -32 32.9270 7.30180   8
  -2  -6  32 25.3466 5.90168  12
   2   6 -31 29.6836 7.13108   8
  -2  -6  31 39.4150 6.49917  21
  -2  -6  31 47.5338 8.25656  12
   2  -6 -31 47.9298 7.47416  13
   2   6 -30 9.51922 6.25402   8
  -2  -6  30 9.28679 4.40127  21
  -2  -6  30 7.77418 4.94421  12
   2   6 -29 273.320 20.5970   8
  -2  -6  29 275.211 17.7113  21
  -2  -6  29 283.204 19.8426  12
   2   6 -28 70.7158 12.1200   8
  -2  -6  28 72.9394 9.51960  19
  -2  -6  28 62.9142 9.18127  21
   2   6 -27 25.1304 8.34889   8
  -2  -6  27 24.4029 7.50376  19
  -2  -6  27 27.4905 7.84989  21
   2   6 -26 939.122 42.1459   8
  -2  -6  26 969.188 36.9727  21
  -2  -6  26 957.576 36.1571  19
   2   6 -25 372.354 28.1494   8
  -2  -6  25 374.789 23.7473  19
   2   6 -24 2069.59 65.3411   8
  -2  -6  24 2051.40 56.1474  19
   2   6 -23 123.628 18.1668   8
  -2  -6  23 117.746 14.7834  19
   2   6 -22 434.245 31.7668   8
   2   6 -22 429.182 23.8741  18
  -2  -6  22 442.284 27.6214  19
   2   6 -21 261.299 25.4614   8
  -2  -6  21 251.993 21.4889  19
   2   6 -21 249.629 19.0611  18
   2   6 -20 822.597 44.3124   8
  -2  -6  20 812.190 38.8103  19
   2   6 -20 728.162 33.4614  18
   2   6 -19 119.394 18.2392   8
   2   6 -19 108.584 13.8009  18
   2   6 -18 862.789 45.9763   8
   2   6 -18 776.779 36.3309  18
   2   6 -17 20.6756 8.93892   8
   2   6 -17 43.0124 10.4219  18
   2   6 -16 86.7821 15.1140   8
   2   6 -16 97.0807 14.8115  18
  -2  -6  16 117.920 15.6438  22
   2   6 -15-2.67818 6.72097   8
   2   6 -15 3.04275 5.89050  18
  -2  -6  15-0.03030 5.97546  22
   2   6 -14 37.9457 11.1966   8
   2   6 -14 29.2908 10.2017  18
  -2  -6  14 31.9047 8.95637  22
   2   6 -13 361.964 29.7357   8
   2   6 -13 369.944 28.2264  18
   2   6 -12 49.9893 12.0527   8
  -2  -6  12 64.2344 12.4074  10
   2   6 -12 43.2682 11.9254  18
  -2  -6  11 571.612 34.4051  10
   2   6 -11 549.742 34.6454  18
   2   6 -10 1479.93 56.7043  18
   2   6  -9 3120.90 82.5087  18
   2   6  -8 415.827 31.8374  18
   2   6  -7 762.319 42.3960  18
   2   6  -6 2614.72 76.7040  18
  -2   6   5 115.237 20.2348   8
   2   6  -5 153.376 24.5380  18
  -2   6   4 9302.11 151.122   8
   2   6  -4 9023.26 142.633  18
  -2   6   3 1284.67 58.5928   8
   2   6  -3 1323.38 56.8935  18
  -2   6   2 22617.8 241.968   8
   2   6  -2 23239.8 228.373  18
  -2   6   1 1056.14 55.1572   8
   2   6  -1 1138.05 52.5985  18
  -2   6   0 549.955 39.8677   8
   2   6   0 539.662 35.5608  18
  -2   6  -1 558.789 39.7251   8
   2   6   1 552.740 35.6150  18
  -2   6  -2 1717.35 69.3769   8
   2   6   2 1806.65 63.1052  18
  -2   6  -3 34.2758 12.5505   8
   2   6   3 44.9303 12.7707  18
  -2   6  -4 43.1236 12.3047   8
   2   6   4 26.9122 10.8684  18
  -2   6  -5 16.3959 10.9459   8
   2   6   5 8.99511 9.11032  18
   2   6   6 1291.82 57.7827   7
  -2   6  -6 1243.96 60.6781   8
   2   6   6 1276.66 51.0965  18
   2   6   7 338.952 30.8663   7
  -2   6  -7 335.951 32.4215   8
   2   6   7 335.251 26.3590  18
   2   6   8 264.379 26.6408   7
  -2   6  -8 221.923 26.3113   8
   2   6   8 259.077 23.0439  18
   2   6   9 62.2452 14.7986   7
  -2   6  -9 64.5247 15.4097   8
   2   6   9 83.9251 13.8449  18
  -2   6 -10 265.639 29.0571   8
   2   6  10 272.341 27.3122   7
   2   6  10 287.837 22.8960  18
  -2   6 -11 233.548 27.3842   8
   2   6  11 258.059 26.5725   7
  -2   6 -12 326.410 32.2380   8
   2   6  12 333.700 29.5146   7
   2   6  13 86.5310 15.8405   7
  -2   6 -13 69.8908 15.4718   8
   2   6  14 10.3287 7.59462   7
  -2   6 -14 8.69629 8.32101   8
   2   6  15-6.94877 9.54020   7
  -2   6 -15-6.36105 11.3222   8
   2   6  16 126.984 18.0589   7
  -2   6 -16 121.591 21.1119   8
   2   6  17 2291.25 72.4232   7
  -2   6 -17 2234.61 80.9134   8
   2   6  18 356.786 28.8051   7
  -2   6 -18 310.768 30.9229   8
   2   6  19 1211.30 50.6172   7
  -2   6 -19 1102.86 56.1542   8
   2   6  20 965.005 44.1625   7
  -2   6 -20 906.297 49.9597   8
   2   6  21 65.3241 12.0372   7
  -2   6 -21 76.0183 16.7479   8
  -2   6 -22 966.468 48.7849   8
   2   6  22 1105.98 43.5027   7
  -2   6 -23 468.919 33.5541   8
  -2  -6 -23 452.640 28.0948  17
  -2   6 -24 9.08707 8.00628   8
  -2  -6 -24 8.83281 5.02562  17
  -2   6 -25 153.581 19.4354   8
  -2  -6 -25 133.175 15.7906  17
  -2   6 -26 3445.14 79.3752   8
  -2  -6 -26 3277.27 68.9840  17
  -2   6 -27 610.516 32.3347   8
  -2  -6 -27 576.411 28.4341  17
  -2   6 -28 751.417 33.5529   8
  -2  -6 -28 707.843 29.6417  17
  -2  -6 -29 1085.69 37.5265   9
  -2   6 -29 1025.23 36.0490   8
  -2  -6 -30 2.37546 4.65318   9
  -2   6 -30 6.14984 4.42732   8
  -2  -6 -31 17.3994 5.67636   9
   2   7 -24 284.763 17.5935   8
   2   7 -23 428.941 22.7144   8
   2   7 -22 600.844 27.4716   8
  -2  -7  22 577.347 21.5726  21
  -2  -7  22 619.115 23.1293  19
   2   7 -21 120.369 12.9626   8
  -2  -7  21 99.2748 10.3072  19
  -2  -7  21 91.0387 9.45974  21
   2   7 -20 108.963 12.4892   8
  -2  -7  20 119.885 11.6329  19
   2   7 -19 13.8856 7.38661   8
  -2  -7  19 0.00985 3.99238  19
   2   7 -18 794.812 34.7863   8
  -2  -7  18 758.545 30.4974  19
  -2  -7  17 603.580 28.1622  19
   2   7 -17 613.844 28.5480  18
   2   7 -16 114.396 13.3437  18
   2   7 -15 37.0668 8.69191  18
   2   7 -14 35.2643 8.56171  18
   2   7 -13 45.2702 9.55197  18
   2   7 -12 179.464 17.8486  18
   2   7 -11 119.082 15.5436  18
   2   7 -10 1236.63 47.8582  18
   2   7  -9 38.7048 11.8465  18
   2   7  -8 18.3208 8.83743  18
  -2  -7   7 71.3913 11.8689  10
   2   7  -7 72.2125 15.9596  18
   2   7  -6 3090.22 78.6040  18
   2   7  -5 24.7491 12.8509  18
   2   7  -4 187.899 21.4677  18
   2   7  -3 365.664 28.2890  18
   2   7  -2 67.5307 14.8468  18
   2   7  -1 2370.85 69.3524  18
  -2   7   0 556.191 35.4159   8
   2   7   0 567.923 34.7435  18
  -2   7  -1 220.977 23.5680   8
   2   7   1 220.783 22.2680  18
  -2   7  -2 44.6813 13.6616   8
   2   7   2 32.9792 11.4856  18
  -2   7  -3 1447.61 58.1753   8
   2   7   3 1421.22 52.0543  18
  -2   7  -4 731.959 42.2067   8
   2   7   4 773.685 38.1864  18
  -2   7  -5 417.310 32.2004   8
   2   7   5 416.990 27.8161  18
  -2   7  -6 2.81471 7.82998   8
   2   7   6 8.89430 6.56866  18
  -2   7  -7 177.606 22.3117   8
   2   7   7 190.125 18.4167  18
  -2   7  -8 123.348 19.1042   8
  -2   7  -9 10.9756 9.69828   8
  -2   7 -10 59.2766 13.6803   8
  -2   7 -11 13.4402 9.23094   8
  -2  -7 -11 8.71764 5.34610   9
  -2   7 -12 600.046 38.1943   8
  -2  -7 -12 558.341 29.3388   9
  -2  -7 -13 187.338 17.1686   9
  -2   7 -13 220.952 23.6302   8
  -2  -7 -14 48.3398 9.30885   9
  -2   7 -14 49.0759 11.9613   8
  -2   7 -15-7.31845 7.59780   8
  -2  -7 -15 6.94915 4.69403   9
  -2  -7 -16 49.5858 9.06862   9
  -2   7 -16 67.1271 13.5124   8
  -2  -7 -17 60.4919 9.88834   9
  -2   7 -17 63.5448 13.2745   8
  -2  -7 -18 8.69025 5.38849   9
  -2   7 -18-2.95877 6.69089   8
  -2   7 -19 373.598 27.2689   8
  -2  -7 -19 306.193 20.8472   9
  -2   7 -20 1833.53 56.9388   8
  -2  -7 -20 1571.13 45.1484   9
  -2  -7 -21 28.5240 8.12496   9
  -2   7 -21 35.0634 10.0024   8
  -2  -7 -22 4.27133 5.10642   9
  -2   7 -22 0.32186 5.79352   8
  -2   7 -23 23.9417 7.21933   8
  -2  -7 -23 44.5700 8.27923   9
  -2   7 -24 879.313 32.7002   8
  -2  -7 -24 799.309 27.8459   9
  -2   7 -25 9.83637 4.96744   8
  -3   0  42 2.12385 3.39152  11
  -3   0  41 42.2737 7.59386  11
  -3   0  40 1.58385 4.01386  11
  -3   0  39 16.8693 6.26844  11
  -3   0  38 13.7519 6.42866  11
  -3   0  37 962.203 40.4892  11
  -3   0  36 6.61101 6.23292  11
  -3   0  35 1376.66 50.8580  11
  -3   0  34-0.79498 6.65206  11
  -3   0  33 240.108 22.3172  21
  -3   0  33 229.249 22.3659  11
  -3   0  32 3.74441 7.95550  11
  -3   0  32-5.44064 9.50639  21
  -3   0  31 31.5917 9.44408  11
  -3   0  31 45.5904 7.67118  20
  -3   0  31 18.0834 7.79628  21
  -3   0  30-12.4178 8.80802  11
  -3   0  30-1.60319 6.90304  20
  -3   0  30-7.93421 9.90271  21
  -3   0  29 134.010 18.9112  11
  -3   0  29 130.125 17.3078  21
  -3   0  28 45.1080 14.5023  21
  -3   0  28 54.5102 16.0176  20
  -3   0  27 67128.0 375.669  11
  -3   0  27 67218.4 368.003  21
  -3   0  26 104.788 20.7032  11
  -3   0  26 68.3941 15.0081  20
  -3   0  25 5242.18 103.517  11
  -3   0  25 5112.97 90.5476  20
  -3   0  24 16.2786 7.62683  20
  -3   0  23 1731.51 52.2293  20
  -3   0  22-0.45938 5.96803  20
  -3   0  22 12.9438 8.12952  19
  -3   0  21 942.606 42.4966  19
  -3   0  21 941.254 38.5736  20
  -3   0  20 9.34254 8.24747  20
  -3   0  20 16.8455 9.07576  19
  -3   0  19 15248.7 164.631  10
  -3   0  19 14919.6 150.832  20
  -3   0  18 8.87269 8.20188   2
  -3   0  17-31.2059 11.9981   2
  -3   0  16 16.2753 10.2899   2
  -3   0  15 12389.1 204.300   2
  -3   0  15 13237.9 150.313   6
  -3   0  14 2.57609 8.37247   2
  -3   0  14 23.1969 8.82668   6
  -3   0  13 11534.5 188.781   2
  -3   0  13 11816.8 145.630   6
  -3   0  12 18.5506 13.0382   2
  -3   0  12 13.1908 9.22456   6
  -3   0  11 17976.7 229.442   2
  -3   0  11 18121.0 184.367   6
  -3   0  10 32.4863 14.9357   2
  -3   0  10 52.8968 14.1934   6
  -3   0   9 116047. 556.687   2
  -3   0   9 113642. 473.351   6
  -3   0   8 140.811 26.5368   2
  -3   0   8 134.299 23.7192   6
  -3   0   7 45975.9 345.200   2
  -3   0   7 44694.2 302.243   6
  -3   0   6 37.5753 15.6202   2
  -3   0   6 45.8284 15.0102   6
  -3   0   5 20839.7 226.166   2
  -3   0   5 20218.7 209.926   6
  -3   0   4-3.06333 7.66116   2
  -3   0   4 4.04135 7.29754   6
  -3   0   3 198.837 21.9171   6
  -3   0   3 155.808 19.7355   2
  -3   0   2-3.59063 9.67813   6
  -3   0   1 2372.31 75.0816   6
  -3   0   0 2.45312 5.92854   6
  -3   0  -1 7827.60 140.158   6
  -3   0  -2 0.41896 6.07370   6
  -3   0  -3 1506.09 63.0231   6
  -3   0  -4 8.91307 9.83550   6
  -3   0  -5 54094.8 390.398   6
  -3   0  -6-0.41840 9.97436   6
  -3   0  -7 33157.0 313.424   6
  -3   0  -8-0.79804 6.65805   6
  -3   0  -9 597.309 33.0778   1
  -3   0  -9 503.776 40.1948   6
  -3   0 -10 28.9693 10.0801   1
  -3   0 -11 33723.0 257.764   1
  -3   0 -12 16.5960 7.98006   1
  -3   0 -13 4328.67 96.6397   1
  -3   0 -14 9.19620 8.08300   1
  -3   0 -15 1070.08 50.6892   1
  -3   0 -16 3.36100 6.56025   1
  -3   0 -17 3217.16 92.5986   1
  -3   0 -18 4.96904 5.45285   1
  -3   0 -18-8.43016 7.89595  13
  -3   0 -19 34.1649 10.4053  17
  -3   0 -19 3.48320 6.70064  13
  -3   0 -20 23.7375 11.3610  17
  -3   0 -20 3.90981 8.28416  13
  -3   0 -21 1240.81 58.0750  17
  -3   0 -21 1039.31 55.4406  13
  -3   0 -22-6.42883 9.23012  13
   3   0  22-5.48399 7.55517  12
  -3   0 -23 4364.11 110.700  17
  -3   0 -23 4239.70 113.148  13
   3   0  23 4506.99 110.046  12
  -3   0 -24 15.3375 12.2484  17
  -3   0 -24 1.40727 11.5357  13
   3   0  24-11.6868 11.9449  12
  -3   0 -25 1860.62 98.2491   6
  -3   0 -25 1733.63 71.5455  17
   3   0  25 1766.25 71.5185  12
  -3   0 -25 1819.16 76.2289  13
  -3   0 -26 19.8465 15.7752  17
  -3   0 -26 42.5333 19.5342  13
   3   0  26 25.9531 16.3491  12
  -3   0 -27 23267.1 256.094  17
  -3   0 -27 23229.4 270.663  13
  -3   0 -28 16.9534 13.9658  17
  -3   0 -28 52.1306 21.2520  13
   3   0  28 40.1831 18.4951  12
  -3   0 -29 8012.17 147.765  17
  -3   0 -29 7938.00 156.508  13
   3   0  29 7842.15 151.565  12
  -3   0 -30-9.33424 12.3307  17
  -3   0 -30-1.35160 9.51310  13
   3   0  30-4.96006 9.39190  12
  -3   0 -31 838.162 46.0235  17
  -3   0 -31 771.462 47.9579  13
   3   0  31 778.049 46.9932  12
  -3   0 -32-10.9448 7.37482  17
  -3   0 -32 0.89588 9.14062  13
   3   0  32 3.26065 7.69132  12
  -3   0 -33 223.211 25.3953  13
   3   0  33 240.558 25.4414  12
  -3   0 -34 8.50900 7.09863  13
   3   0  34-3.84556 5.63078  12
  -3   0 -35 15.4810 9.27505  13
   3   0  35 11.7887 7.67341  12
   3   0  36-6.85353 7.16634   7
  -3   0 -36-8.72925 8.22049  13
   3   0  36-0.64374 4.97112  12
   3   0  37 344.981 25.6738   7
   3   0  37 323.075 25.0866  12
   3   0  38-3.61723 4.85237   7
   3   0  38 3.98250 5.67268  12
   3   0  39 23.5896 7.13389   7
   3   0  39 31.7165 7.78485  12
   3   0  40 5.62443 4.97329   7
   3   0  40-3.82857 5.95937  12
   3   0  41 562.863 23.6625   7
  -3   1  42 11.9307 5.36391  11
  -3   1  41 360.660 21.0765  11
   3   1 -40 3.15499 4.04697   8
  -3   1  40 1.16315 4.54349  11
  -3  -1  40 3.84307 3.49919  11
  -3   1  39 75.2419 11.3020  11
  -3  -1  39 80.7607 10.1384  11
  -3  -1  38 11.9133 5.37699  11
  -3   1  38 26.6788 8.56538  11
  -3  -1  37 2435.73 64.8638  21
  -3  -1  37 2401.39 59.6421  11
  -3   1  37 2414.92 65.6206  11
  -3  -1  36 681.331 35.9422  21
  -3  -1  36 614.541 31.7654  11
  -3   1  36 654.052 35.7773  11
  -3  -1  35 11.4263 6.43503  11
  -3   1  35 16.0262 8.21477  11
  -3  -1  35-2.84139 8.60099  21
  -3  -1  34 1.90396 5.71484  11
  -3   1  34-8.00236 9.48342  11
  -3  -1  34-0.57073 8.30374  21
  -3   1  33 17.5986 8.02151  11
  -3  -1  33 17.2438 8.44551  11
  -3  -1  33 9.37897 7.65321  21
  -3   1  32 19.6760 9.03562  11
  -3  -1  32 8.87645 6.82715  11
  -3  -1  32 12.2997 6.76660  21
  -3  -1  31 207.209 21.0346  11
  -3  -1  31 205.978 21.3718  21
  -3   1  31 186.745 21.3687  11
  -3   1  30 147.788 19.6316  11
  -3  -1  30 131.018 17.9716  11
  -3  -1  30 127.343 17.6997  21
  -3   1  30 106.886 13.9678  20
  -3  -1  29 7183.85 120.364  11
  -3   1  29 7083.17 111.017  20
  -3  -1  29 6946.76 121.871  21
  -3   1  29 7132.91 127.840  11
  -3   1  28 15.2142 11.9599  11
  -3  -1  28 37.8768 14.6144  21
  -3   1  28 21.5764 10.0003  20
  -3   1  27 46.7146 13.6624  11
  -3   1  27 46.0464 12.6725  20
  -3  -1  27 57.3124 14.2730  21
  -3  -1  27 53.2795 15.1124  19
  -3   1  26 76.2203 18.3691  11
  -3  -1  26 66.7329 18.3858  21
  -3  -1  26 120.267 21.6575  19
  -3   1  26 75.8723 16.6382  20
  -3   1  25 39070.7 291.906  11
  -3   1  25 39365.8 260.745  20
  -3  -1  25 39554.7 292.319  19
  -3  -1  25 39085.1 281.006  21
  -3  -1  25 40078.6 241.840  20
  -3   1  24 231.497 25.3521  11
  -3  -1  24 215.162 19.1641  20
  -3   1  24 237.109 22.3611  20
  -3  -1  24 230.697 24.8415  19
  -3  -1  24 193.831 35.6632   2
  -3   1  23 3.18020 6.85028  11
  -3  -1  23 15.3544 8.69981  10
  -3  -1  23-0.23065 8.89958  19
  -3  -1  23 9.34631 5.80333  20
  -3   1  23-3.30773 7.33918  20
  -3  -1  23-12.8047 11.2952   2
  -3   1  22 479.649 31.3383  11
  -3  -1  22 470.460 30.5434  10
  -3  -1  22 523.582 28.2507  20
  -3  -1  22 476.983 31.4334  19
  -3   1  22 490.054 28.5509  20
  -3  -1  22 457.863 48.9757   2
  -3   1  21 14.0459 7.14981  11
  -3  -1  21 16.4835 6.99411  10
  -3   1  21 29.0171 8.88577  20
  -3  -1  21 20.6470 6.53759  20
  -3  -1  21 16.0202 7.52926  19
  -3  -1  21 26.0090 16.7663   2
  -3  -1  20 21.0605 8.43525  10
  -3   1  20 38.2191 10.5585  11
  -3   1  20 17.6748 6.78893  20
  -3  -1  20 18.3879 6.77668  20
  -3  -1  20 26.7833 8.63703  19
  -3  -1  20 28.0180 13.5914   2
  -3   1  19 687.456 35.6360  11
  -3  -1  19 695.682 35.0123  19
  -3   1  19 699.245 33.8599  20
  -3  -1  19 635.016 54.3678   2
  -3  -1  18 236.065 21.1255  10
  -3   1  18 220.717 18.9849  20
  -3  -1  18 244.162 33.7363   2
  -3  -1  17 598.133 50.5012   2
  -3   1  17 668.940 38.0999   6
  -3  -1  16 86.2786 21.2649   2
  -3   1  16 100.716 15.8103   6
  -3  -1  15 12865.7 227.144   2
  -3   1  15 13245.9 170.045   6
  -3  -1  14 1190.24 68.5586   2
  -3   1  14 1156.39 50.4302   6
  -3  -1  13 304.266 34.5072   2
  -3   1  13 328.286 27.3597   6
  -3  -1  12 165.028 25.4425   2
  -3   1  12 194.633 21.4833   6
  -3  -1  11 319.582 34.4219   2
  -3   1  11 300.212 26.7732   6
  -3  -1  10 86.7744 23.7331   2
  -3   1  10 70.4045 16.1276   6
  -3  -1   9 71786.2 493.273   2
  -3   1   9 70994.7 403.552   6
  -3  -1   8 6870.64 151.580   2
  -3  -1   8 7059.25 110.345   6
  -3  -1   7 21844.6 264.372   2
  -3   1   7 21829.4 229.055   6
  -3  -1   6 806.964 51.0118   2
  -3   1   6 866.926 45.4926   6
  -3  -1   6 827.253 39.5903   6
  -3  -1   5 5140.97 125.780   2
  -3   1   5 5075.55 111.163   6
  -3  -1   5 5188.20 100.458   6
  -3  -1   4 42.7914 13.2108   2
  -3   1   4 53.9181 12.8495   6
  -3  -1   4 55.0242 11.1347   6
  -3  -1   3 494.458 38.9159   2
  -3   1   3 572.334 38.5493   6
  -3  -1   3 514.757 33.0209   6
  -3  -1   2 2783.34 90.7534   2
  -3   1   2 2704.83 84.0238   6
  -3  -1   2 2912.67 79.6731   6
  -3   1   1 1624.47 65.9411   6
  -3  -1   1 1654.02 69.6216   2
  -3  -1   1 1580.61 59.9602   6
  -3   1   0 190.489 31.5186   6
  -3  -1   0 143.264 22.1680   6
  -3   1  -1 164768. 671.169   6
  -3  -1  -1 164325. 631.277   6
  -3  -1  -2 368.211 30.1498   4
  -3   1  -2 448.519 38.6827   6
  -3  -1  -2 411.862 34.0151   6
  -3   1  -3 14563.8 202.911   6
  -3  -1  -3 14535.3 194.582   6
  -3  -1  -4 28.4308 7.17888   4
  -3   1  -4 58.2581 14.6390   6
  -3  -1  -5 1954.19 63.5782   4
  -3   1  -5 1998.28 76.8034   6
  -3  -1  -6 87.8890 13.6812   4
  -3   1  -6 94.4273 18.8547   6
  -3  -1  -7 5794.39 109.032   4
  -3   1  -7 5515.45 130.401   6
  -3  -1  -8 791.964 40.8663   4
  -3   1  -8 735.831 49.2709   6
  -3  -1  -9 26597.5 237.453   4
  -3   1  -9 26283.4 293.212   6
  -3  -1 -10 10.0493 7.80411   4
  -3   1 -10 11.0213 9.32404   6
  -3  -1 -11 2613.97 74.7056   4
  -3   1 -11 2610.12 95.6883   6
  -3  -1 -12 99.0657 15.3419   4
  -3   1 -12 108.616 21.4486   6
  -3  -1 -13 4265.62 99.2033   4
  -3  -1 -13 4131.17 104.306   1
  -3   1 -13 4181.43 125.157   6
  -3  -1 -14 89.8187 15.4434   4
  -3   1 -14 90.6964 20.3980   6
  -3  -1 -14 93.8254 17.3348   1
  -3  -1 -15 12.7216 7.38616   1
  -3   1 -15 20.5517 13.4272   6
  -3  -1 -16 76.6907 15.6842   1
  -3  -1 -16 57.8841 13.4236   4
  -3   1 -16 52.6331 16.8786   6
  -3  -1 -17 392.057 34.8276   1
  -3  -1 -17 444.762 35.2836   4
  -3   1 -17 364.516 39.2343   6
  -3  -1 -17 442.576 33.7936  17
  -3   1 -17 399.768 32.2633  13
  -3  -1 -17 430.692 32.9468  13
  -3  -1 -18 983.095 55.5526   1
  -3  -1 -18 924.894 51.4761   4
  -3   1 -18 966.055 64.7711   6
  -3  -1 -18 927.942 49.9212  17
  -3   1 -18 936.908 49.7176  13
  -3  -1 -18 986.817 50.7297  13
  -3  -1 -19 1130.47 49.1590   9
  -3  -1 -19 1216.63 62.9429   1
  -3   1 -19 1150.08 71.6815   6
  -3  -1 -19 1125.54 55.6479  17
  -3   1 -19 1112.02 54.6382  13
  -3  -1 -19 1162.94 56.1411  13
   3   1  19 1149.27 55.4593  12
  -3   1 -19 1171.21 50.0968  15
  -3  -1 -20 15.9012 8.42441   9
  -3  -1 -20 15.5892 10.6153   4
  -3  -1 -20 11.2945 9.35432   1
  -3   1 -20 30.7494 15.3943   6
  -3  -1 -20 28.1036 11.7624  17
  -3   1 -20 21.3053 12.9124  13
  -3  -1 -20 18.7290 10.7449  13
   3   1  20 18.6909 10.0319  12
  -3   1 -20 23.8190 9.96970  15
  -3  -1 -21 8804.75 137.205   9
  -3  -1 -21 8946.74 176.649   1
  -3  -1 -21 9002.67 167.427   4
  -3   1 -21 8795.29 201.421   6
  -3  -1 -21 8617.92 157.151  17
  -3   1 -21 8396.05 154.476  13
  -3  -1 -21 8955.21 159.942  13
   3   1  21 9001.75 158.936  12
  -3  -1 -22 1160.52 65.2051   1
  -3  -1 -22 1047.36 58.6130   4
  -3   1 -22 1121.06 73.5288   6
  -3  -1 -22 1126.50 57.9517  17
  -3   1 -22 1068.48 56.1549  13
  -3  -1 -22 1086.83 57.0747  13
   3   1  22 1113.61 57.1849  12
  -3  -1 -23 75.3228 18.9391   4
  -3   1 -23 39.7072 16.3132   6
  -3  -1 -23 85.5361 17.2310  17
  -3   1 -23 40.9120 11.1212  13
  -3  -1 -23 44.4615 13.2949  13
   3   1  23 72.0398 16.0002  12
  -3  -1 -24 1496.07 72.6905   4
  -3   1 -24 1523.57 86.1059   6
  -3  -1 -24 1560.83 70.1116  17
  -3   1 -24 1466.12 67.5631  13
  -3  -1 -24 1484.31 68.6747  13
   3   1  24 1566.44 70.3577  12
  -3  -1 -25 40060.1 382.496   4
  -3   1 -25 41243.3 445.989   6
  -3  -1 -25 40153.8 351.127  17
  -3   1 -25 40459.1 347.895  13
  -3  -1 -25 41233.4 359.324  13
   3   1  25 41260.5 357.025  12
  -3  -1 -26 199.462 29.3097  17
  -3  -1 -26 212.562 30.0635  13
   3   1  26 218.595 30.8482  12
  -3   1 -26 230.351 29.7753  13
  -3  -1 -27 4192.05 113.347  17
  -3   1 -27 3887.56 107.995  13
  -3  -1 -27 4049.13 114.813  13
   3   1  27 4125.19 114.660  12
  -3  -1 -28 531.837 41.4504  17
  -3   1 -28 485.654 39.1856  13
   3  -1  28 529.478 38.0971  12
  -3  -1 -28 532.344 43.1027  13
   3   1  28 548.964 43.0157  12
  -3  -1 -29 3309.79 99.1103  17
  -3   1 -29 3264.09 96.9883  13
  -3  -1 -29 3394.84 103.319  13
   3   1  29 3546.61 105.919  12
   3  -1  29 3627.46 96.7310  12
   3   1  30 15.7475 9.41193   7
  -3  -1 -30 34.5726 13.1852  17
   3  -1  30 32.2110 11.8755  12
  -3   1 -30 20.0585 12.4976  13
  -3  -1 -30 27.6609 13.4262  13
   3   1  30 15.9552 9.62622  12
   3   1  31 1699.25 66.8281   7
  -3  -1 -31 1771.58 70.2834  17
  -3  -1 -31 1811.05 73.5643  13
   3   1  31 1827.37 74.6304  12
   3  -1  31 1893.95 68.5333  12
   3   1  32 15.7994 8.00102   7
  -3  -1 -32 25.7523 11.0430  17
  -3  -1 -32 21.7595 10.7790  13
   3   1  32 20.6978 10.9638  12
   3  -1  32 13.3023 6.56523  12
   3   1  33-6.51968 9.62927   7
  -3  -1 -33-1.51630 8.70302  17
  -3  -1 -33-5.82748 9.69348  13
   3   1  33 4.41291 7.60897  12
   3  -1  33 11.5501 8.25998  12
   3   1  34 55.5735 12.1310   7
  -3  -1 -34 66.2177 13.8509  17
  -3  -1 -34 46.1158 13.1847  13
   3  -1  34 59.5333 12.3297  12
   3   1  34 57.2769 13.3831  12
   3   1  35 950.441 44.9191   7
  -3  -1 -35 1003.50 46.4740  17
  -3  -1 -35 1002.48 49.5637  13
   3   1  35 879.255 46.3374  12
   3  -1  35 935.042 43.6322  12
   3   1  36 11.7324 7.02342   7
  -3  -1 -36 16.3810 7.43106  17
  -3  -1 -36 20.1606 8.40987  13
   3   1  36 12.8449 7.93358  12
   3  -1  36 26.0421 8.34280  12
   3   1  37 48.0289 10.5221   7
  -3  -1 -37 54.7718 12.4690  13
   3   1  37 42.4154 9.96986  12
   3  -1  37 51.4237 9.45338  12
   3   1  38-0.90816 5.43799   7
  -3  -1 -38 8.30540 6.90006  13
   3  -1  38-13.1633 5.47525  12
   3   1  38-1.56764 4.54069  12
   3  -1  39 26.9422 7.43072   7
   3   1  39 20.4789 6.67747   7
   3   1  39 25.1190 6.75961  12
   3  -1  40 45.2526 8.64896   7
   3   1  40 44.2061 7.37776   7
   3   1  40 34.8184 7.31091  12
   3  -1  41 184.243 13.8916   7
   3   1  41 183.828 14.5491  12
  -3   2  41 91.8404 10.5841  11
   3   2 -40 151.337 12.7123   8
  -3   2  40 180.715 15.7175  11
   3   2 -39 92.1478 11.1653   8
  -3   2  39 92.5434 12.3673  11
  -3  -2  38 215.917 18.4699  21
  -3   2  38 223.138 19.7167  11
  -3  -2  38 224.050 15.5555  11
  -3   2  37 51.2012 11.0519  11
  -3  -2  37 44.4055 7.77814  11
  -3  -2  37 28.4503 8.19891  21
  -3   2  36 80.2949 13.5512  11
  -3  -2  36 87.1754 13.2388  21
  -3  -2  36 84.4374 12.0529  12
  -3  -2  36 85.1171 11.3012  11
  -3  -2  35 474.128 29.9393  21
  -3  -2  35 489.728 28.6919  12
  -3   2  35 475.471 31.5539  11
  -3  -2  35 423.035 24.9390  11
  -3  -2  34 397.780 25.0991  11
  -3  -2  34 435.119 29.6045  21
  -3  -2  34 429.135 27.3989  12
  -3   2  34 403.807 29.9466  11
  -3  -2  33 553.889 30.5093  11
  -3  -2  33 596.575 35.1861  21
  -3  -2  33 563.683 32.2343  12
  -3   2  33 573.782 36.3967  11
  -3  -2  32 1085.75 43.6967  11
  -3  -2  32 1036.32 46.7309  21
  -3   2  32 1096.94 50.6597  11
  -3  -2  32 1079.49 45.3184  12
  -3   2  31 109.389 17.8053  11
  -3  -2  31 101.999 15.5012  11
  -3  -2  31 100.731 15.5828  21
  -3  -2  31 91.1856 13.9767  12
  -3  -2  30 732.103 37.0004  11
  -3  -2  30 718.476 40.8615  19
  -3  -2  30 707.051 39.1221  21
  -3   2  30 725.292 42.3769  11
  -3  -2  30 713.282 37.8324  12
  -3  -2  29 787.176 43.3202  19
  -3  -2  29 825.355 42.6224  21
  -3  -2  29 804.956 40.0841  12
  -3   2  29 834.012 45.3111  11
  -3   2  28 2938.60 73.9651  20
  -3  -2  28 2840.72 81.4768  19
  -3  -2  28 2921.00 79.6177  21
  -3  -2  28 2931.32 76.0083  12
  -3   2  28 2864.74 83.1805  11
  -3  -2  27 27354.2 248.265  19
  -3   2  27 28078.3 228.189  20
  -3   2  27 27983.3 258.456  11
  -3  -2  26 2685.44 78.3886  19
  -3   2  26 2686.03 71.4778  20
  -3   2  26 2765.36 82.2110  11
  -3  -2  25 7022.26 118.550  10
  -3  -2  25 6829.13 122.651  19
  -3   2  25 7008.46 114.636  20
  -3   2  25 6960.19 127.090  11
  -3  -2  24 12.8411 9.54870  10
  -3   2  24 18.3287 11.2643  11
  -3   2  24 23.6008 10.5317  20
  -3  -2  24 0.66732 6.84305  19
  -3  -2  23 1215.14 49.3804  10
  -3  -2  23 1129.58 82.9135   2
  -3  -2  23 1195.87 50.8586  19
  -3   2  23 1261.74 48.6002  20
  -3   2  23 1300.73 54.1402  11
  -3   2  22 22.6594 8.79823  11
  -3  -2  22 27.6448 10.0011  10
  -3  -2  22 38.6881 20.0761   2
  -3  -2  22 13.2693 7.40814  19
  -3   2  22 35.9729 9.60155  20
  -3  -2  21 259.365 23.0376  10
  -3  -2  21 252.891 39.4238   2
  -3  -2  21 262.803 23.0843  19
  -3   2  21 285.226 23.5419  20
  -3   2  21 236.477 22.9582  11
  -3  -2  20 778.909 39.1405  10
  -3  -2  20 723.849 64.1503   2
  -3  -2  20 744.494 59.6364   5
  -3  -2  20 767.053 38.8385  19
  -3   2  20 819.312 38.5320  20
  -3   2  20 808.533 41.7214  11
  -3  -2  19 4299.72 90.3967  10
  -3  -2  19 3705.67 141.216   2
  -3  -2  19 3893.37 134.738   5
  -3  -2  19 4041.87 87.8441  19
  -3   2  19 4197.12 85.1931  20
  -3  -2  19 4206.56 90.3000  22
  -3   2  19 4253.37 92.7743  11
  -3  -2  18 1419.46 51.5780  10
  -3  -2  18 1369.40 84.6404   2
  -3  -2  18 1315.84 77.4932   5
  -3   2  18 1456.48 49.8382  20
  -3  -2  18 1398.95 51.8143  22
  -3   2  18 1493.73 54.2935  11
  -3   2  17 2248.36 65.1984  11
  -3   2  17 2037.06 74.0168   6
  -3  -2  17 2258.55 64.0894  10
  -3  -2  17 2167.34 63.2978  22
  -3  -2  17 2260.37 64.4160  16
  -3   2  17 2227.27 60.7457  20
  -3  -2  17 1940.51 99.2205   2
  -3  -2  17 1965.07 94.1162   5
  -3   2  16 2316.58 64.9079  11
  -3   2  16 2146.02 75.5039   6
  -3  -2  16 2402.94 65.7368  10
  -3   2  16 2306.98 61.1020  20
  -3  -2  16 2398.87 65.8593  16
  -3  -2  16 2078.86 101.570   2
  -3  -2  16 2277.49 100.503   5
  -3   2  15 772.179 45.2462   6
  -3  -2  15 898.441 39.7652  10
  -3   2  15 852.880 36.7011  20
  -3  -2  15 788.685 61.4803   2
  -3   2  15 877.974 57.5366   3
  -3  -2  15 806.981 58.6155   5
  -3   2  14 2142.53 75.4572   6
  -3  -2  14 2107.42 98.5781   2
  -3   2  14 2420.14 92.3649   3
  -3  -2  14 2136.36 93.8714   5
  -3   2  13 348.971 30.7531   6
  -3  -2  13 326.529 38.3170   2
  -3  -2  13 372.332 39.1426   5
  -3   2  12 227.622 24.7832   6
  -3  -2  12 222.148 31.9412   2
  -3   2  12 231.312 28.1198   3
  -3  -2  12 226.983 31.6280   5
  -3   2  11 6953.33 136.064   6
  -3  -2  11 6943.44 170.588   2
  -3  -2  11 7037.00 165.025   5
  -3   2  10 1097.62 54.9861   6
  -3  -2  10 1064.66 68.1021   2
  -3   2  10 1173.92 60.0684   3
  -3   2   9 48598.8 366.040   6
  -3  -2   9 47279.2 439.322   2
  -3  -2   8 589.601 52.0558   2
  -3   2   8 568.754 41.9694   3
  -3   2   8 530.204 40.0671   6
  -3  -2   7 11498.4 212.069   2
  -3   2   7 11748.4 180.438   6
  -3  -2   6 567.706 47.4813   2
  -3   2   6 545.411 39.5109   6
  -3  -2   5 63.0788 17.3846   2
  -3   2   5 21.8164 11.1799   6
  -3  -2   4 7024.69 160.199   2
  -3   2   4 7153.51 142.787   6
  -3  -2   3 6264.58 151.162   2
  -3   2   3 6245.76 134.013   6
  -3  -2   3 6545.66 114.889   6
  -3  -2   2 845.230 56.8052   2
  -3   2   2 835.320 50.3796   6
  -3  -2   2 879.086 43.8433   6
  -3  -2   1 17385.3 250.054   2
  -3   2   1 17389.5 226.842   6
  -3  -2   1 16963.4 196.071   6
  -3   2   0 505.049 40.6173   6
  -3  -2   0 491.468 42.7223   2
  -3  -2   0 481.602 34.4656   6
  -3   2  -1 351.725 33.8198   6
  -3  -2  -1 299.937 33.3559   2
  -3  -2  -2 68.8058 17.6196   2
  -3  -2  -2 62.6731 14.6979   4
  -3   2  -2 106.692 19.3965   6
  -3  -2  -3 1049.28 57.8485   4
  -3   2  -3 1026.06 57.9281   6
  -3  -2  -4 3316.61 101.509   4
  -3   2  -4 3297.90 104.791   6
  -3  -2  -5 13639.6 203.292   4
  -3   2  -5 13374.8 213.051   6
  -3  -2  -6 2472.25 85.8484   4
  -3   2  -6 2545.66 94.0422   6
  -3  -2  -7 36505.7 331.219   4
  -3   2  -7 37424.2 359.176   6
  -3  -2  -8 289.232 31.2260   4
  -3   2  -8 290.983 34.0044   6
  -3  -2  -9 3817.57 106.797   4
  -3   2  -9 3765.80 117.018   6
  -3  -2 -10 86.5069 16.4131   4
  -3   2 -10 91.5395 19.6169   6
  -3  -2 -11 5161.98 126.258   4
  -3   2 -11 5243.58 139.676   6
  -3  -2 -12 211.033 25.9236   4
  -3   2 -12 224.295 30.3096   6
  -3  -2 -13 84.5154 17.8748   4
  -3   2 -13 57.2310 16.4747   6
   3   2  14 948.384 46.2047   7
  -3  -2 -14 904.043 52.6363   4
  -3   2 -14 865.807 59.2378   6
  -3  -2 -14 951.024 48.8514  17
   3   2  15 42.1689 11.4145   7
  -3  -2 -15 30.5860 10.2741   1
  -3  -2 -15 36.1791 12.2505   4
  -3   2 -15 41.4938 15.6757   6
  -3  -2 -15 36.3556 9.84231  17
  -3  -2 -15 31.0774 9.61200  13
   3   2  16-1.29906 8.20896   7
  -3  -2 -16 17.4120 11.7790   4
  -3   2 -16-11.8873 8.65567   6
  -3  -2 -16 20.5305 11.2073   1
  -3  -2 -16 3.83478 5.27461  17
  -3  -2 -16 8.59514 6.51229  13
   3   2  16 0.88203 5.62115  12
   3   2  17 659.356 40.8317   7
  -3  -2 -17 658.528 47.0058   4
  -3   2 -17 694.888 54.8871   6
  -3  -2 -17 632.114 47.2823   1
  -3  -2 -17 666.466 42.7751  17
  -3  -2 -17 672.060 41.7345  13
   3   2  17 626.353 41.5069  12
   3   2  18 1102.40 53.3049   7
  -3  -2 -18 1151.99 62.8384   4
  -3   2 -18 1124.18 70.1154   6
  -3  -2 -18 1195.62 66.1050   1
  -3  -2 -18 1101.44 55.7113  17
  -3  -2 -18 1203.26 56.1334  13
   3   2  18 1152.82 57.0210  12
   3   2  19 2901.04 87.4048   7
  -3  -2 -19 2820.17 101.585   1
  -3  -2 -19 2958.14 101.607   4
  -3   2 -19 2941.91 113.454   6
  -3  -2 -19 2894.74 91.5458  17
  -3  -2 -19 2838.07 88.4812  13
   3   2  19 2844.70 91.1719  12
   3   2  20 3482.77 97.0756   7
  -3  -2 -20 3669.07 117.140   1
  -3  -2 -20 3619.43 113.960   4
  -3   2 -20 3694.77 127.466   6
  -3  -2 -20 3380.47 100.506  17
  -3  -2 -20 3613.02 100.384  13
   3   2  20 3623.44 104.222  12
   3   2  21 4037.01 106.375   7
  -3  -2 -21 4094.81 123.816   4
  -3  -2 -21 4268.35 128.032   1
  -3   2 -21 4157.28 135.684   6
  -3  -2 -21 3943.74 109.493  17
  -3  -2 -21 4166.80 108.910  13
   3   2  21 4117.62 112.705  12
   3   2  22 310.622 31.2520   7
  -3  -2 -22 329.770 36.9027   4
  -3  -2 -22 323.702 37.0299   1
  -3  -2 -22 297.894 31.4944  17
  -3  -2 -22 328.631 32.6471  13
   3   2  22 278.031 30.9296  12
   3   2  23 502.847 38.4089   7
  -3  -2 -23 641.002 50.4994   4
  -3  -2 -23 533.439 47.9851   1
  -3  -2 -23 471.732 39.3515  17
  -3  -2 -23 543.502 40.9470  13
   3   2  23 633.785 45.5724  12
   3   2  24 240.889 27.5575   7
  -3  -2 -24 327.091 37.8648   1
  -3  -2 -24 260.577 32.9978   4
  -3  -2 -24 273.530 30.5663  17
  -3  -2 -24 263.747 29.8829  13
   3   2  24 328.996 34.1132  12
  -3  -2 -25 68.1889 15.6152   9
   3   2  25 28.5970 13.4387   7
  -3  -2 -25 27.5293 13.3078  17
  -3  -2 -25 32.3570 15.4355  13
   3   2  25 24.9099 14.5015  12
   3   2  26 227.455 27.3992   7
  -3  -2 -26 227.285 24.3983   9
  -3  -2 -26 262.465 30.7990  17
  -3  -2 -26 208.904 28.5652  13
   3   2  26 219.936 29.7175  12
   3   2  27 11088.6 176.655   7
  -3  -2 -27 11169.4 159.142   9
  -3  -2 -27 10976.1 186.687  17
   3   2  27 11490.5 193.685  12
  -3  -2 -27 11677.1 189.944  13
   3   2  28 7.94229 12.3614   7
  -3  -2 -28 25.8096 12.0227   9
  -3  -2 -28 18.6090 15.9991  17
  -3  -2 -28 40.8936 18.0523  13
   3   2  28 19.8086 15.7992  12
   3   2  29 3672.68 100.114   7
  -3  -2 -29 3831.93 89.1326   9
  -3  -2 -29 3751.61 107.255  17
  -3  -2 -29 3891.81 109.413  13
   3   2  29 3737.13 109.325  12
   3   2  30 205.844 24.0846   7
  -3  -2 -30 183.139 24.2004  17
  -3  -2 -30 195.459 25.8557  13
   3   2  30 195.752 26.3950  12
   3   2  31 9.16607 8.00485   7
  -3  -2 -31 13.1526 9.22726  17
  -3  -2 -31 27.6452 12.0119  13
   3   2  31 17.8863 11.0616  12
   3   2  32 446.621 33.1109   7
  -3  -2 -32 518.357 38.2981  17
  -3  -2 -32 438.333 35.4323  13
   3   2  32 427.804 35.5848  12
   3   2  33 46.2044 12.0112   7
  -3  -2 -33 86.6213 16.4184  17
  -3  -2 -33 50.1596 13.6569  13
   3   2  33 72.3513 14.2263  12
   3   2  34 22.9198 8.23908   7
  -3  -2 -34 29.1319 10.7140  17
  -3  -2 -34 19.2061 8.69451  13
   3   2  34 23.7512 9.23720  12
   3   2  35 130.467 17.0149   7
  -3  -2 -35 100.289 15.8309  17
  -3  -2 -35 75.8784 14.7054  13
   3   2  35 95.0084 15.5318  12
   3   2  36 15.6924 6.75197   7
  -3  -2 -36 10.0313 6.16666  17
  -3  -2 -36 8.70928 6.93082  13
   3   2  36-4.46261 5.44326  12
   3   2  37 2.30250 4.34611   7
  -3  -2 -37 7.83303 5.45354  17
  -3  -2 -37-2.90029 6.60906  13
   3   2  37-6.65140 6.12431  12
   3   2  38 4.31720 4.38995   7
  -3  -2 -38 11.7818 5.93403  17
  -3  -2 -38 10.7180 6.11941  13
   3   2  38 11.0156 6.03739  12
  -3  -2 -39 20.3482 6.93721  13
   3   2  39 20.2458 7.00845  12
   3  -2  40 12.3756 4.41576   7
   3   2  40 13.1405 5.79061  12
   3   3 -39 8.32922 4.08879   8
  -3  -3  39-3.71671 5.49210  21
   3  -3 -39 9.62818 4.61091  13
   3   3 -38 175.432 15.1044   8
  -3  -3  38 157.104 14.5446  21
  -3  -3  38 173.361 13.4052  12
   3   3 -37 312.778 21.2014   8
  -3  -3  37 284.596 20.2357  21
  -3   3  37 300.329 22.4477  11
  -3  -3  37 252.539 17.4935  12
   3   3 -36 686.581 32.7898   8
  -3  -3  36 705.820 32.7464  21
  -3  -3  36 611.685 28.7380  12
  -3   3  36 713.204 35.5629  11
  -3   3  35 14.8710 9.58526  11
  -3  -3  35 3.90933 6.60219  21
  -3  -3  35 2.19884 5.05130  12
  -3  -3  34 774.983 36.9277  21
  -3   3  34 794.974 40.6970  11
  -3  -3  34 754.798 34.3887  12
  -3  -3  34 706.678 29.3169  11
  -3  -3  33 151.672 14.7036  11
  -3  -3  33 167.542 18.6492  21
  -3   3  33 164.790 20.1578  11
  -3  -3  33 178.947 17.9720  12
  -3   3  32 141.840 19.3016  11
  -3  -3  32 122.887 13.5737  11
  -3  -3  32 153.410 18.2880  21
  -3  -3  32 140.987 16.4941  12
  -3  -3  31 195.235 17.4979  11
  -3  -3  31 181.338 19.6293  19
  -3  -3  31 207.434 21.4420  21
  -3   3  31 188.313 22.2151  11
  -3  -3  31 181.400 19.0235  12
  -3   3  30 86.1967 16.0923  11
  -3  -3  30 138.891 18.0896  19
  -3  -3  30 100.680 16.2567  21
  -3  -3  30 96.4067 14.6930  12
  -3  -3  29 1264.37 51.9858  21
  -3  -3  29 1249.48 51.9982  19
  -3   3  29 1253.16 56.2975  11
  -3  -3  28 181.424 21.8166  19
  -3   3  28 187.722 23.5293  11
  -3   3  27 92.5275 17.3064  11
  -3  -3  27 114.662 18.4805  19
  -3   3  26 82.2797 18.4957  11
  -3  -3  26 75.6321 15.0285  10
  -3  -3  26 63.1722 16.9141  19
  -3  -3  25 11892.5 151.190  10
  -3  -3  25 11588.0 159.387  19
  -3   3  25 12148.7 175.207  11
  -3  -3  24 130.914 17.8310  10
  -3  -3  24 96.4952 17.0978  19
  -3   3  24 120.788 20.5070  11
  -3  -3  23 1094.64 46.6175  10
  -3   3  23 1178.94 48.6780  20
  -3  -3  23 1061.27 48.0783  19
  -3   3  23 1171.63 54.0498  11
  -3   3  22 8.37543 8.32773  11
  -3  -3  22 5.56126 6.47392  10
  -3   3  22-2.83808 8.19842  20
  -3  -3  22-8.43794 10.4511  19
  -3  -3  22-16.9579 15.8449   5
  -3  -3  22 12.5932 16.3376   2
  -3   3  21 65.2740 14.4171  11
  -3  -3  21 50.1859 11.2128  10
  -3  -3  21 57.6926 23.4511   5
  -3  -3  21 72.3017 24.3185   2
  -3   3  21 49.3770 11.3843  20
  -3  -3  21 42.0181 9.48257  19
  -3  -3  20 141.351 17.9528  10
  -3  -3  20 150.066 32.7331   5
  -3  -3  20 139.354 32.5888   2
   3   3 -20 149.706 15.6780  18
  -3   3  20 162.221 18.7030  20
  -3  -3  20 115.129 17.5001  22
  -3   3  20 154.034 20.1689  11
  -3  -3  19 3151.24 78.7893  10
  -3  -3  19 2949.48 135.153   2
  -3  -3  19 3049.89 131.737   5
  -3  -3  19 3200.90 83.1685  22
  -3   3  19 3240.86 78.5731  20
   3   3 -19 3227.33 70.1636  18
  -3   3  19 3148.58 84.6993  11
  -3  -3  18 108.011 15.7497  10
  -3   3  18 111.670 17.3628  11
  -3  -3  18 104.478 16.4461  22
  -3  -3  18 97.6305 14.5243  16
   3   3 -18 93.0760 13.1040  18
  -3   3  18 117.972 16.1835  20
  -3  -3  18 74.6314 24.0621   5
  -3  -3  18 92.6740 26.8365   2
  -3   3  18 144.036 30.7172   3
  -3  -3  17 3.57955 5.67445  10
  -3   3  17 1.61399 8.61056  11
  -3  -3  17 4.80162 18.1453   5
  -3  -3  17 35.1870 16.1596   2
  -3   3  17-14.1409 12.1668   3
  -3   3  17 11.7726 8.09003  20
   3   3 -17 3.37343 4.83525  18
  -3  -3  17-2.20516 7.05250  16
  -3  -3  16 138.553 17.4730  10
  -3  -3  16 142.109 29.6644   5
  -3  -3  16 126.276 28.8882   2
  -3   3  16 137.011 29.0042   3
   3   3 -16 141.240 16.0063  18
  -3  -3  16 129.512 16.2277  16
  -3   3  16 134.455 16.8760  20
  -3   3  16 137.963 18.8945  11
  -3   3  15 2733.60 93.5157   6
  -3  -3  15 2789.46 74.2064  10
  -3  -3  15 2687.19 121.582   2
  -3   3  15 3115.26 123.757   3
  -3  -3  15 2721.75 119.327   5
  -3   3  15 2945.07 72.6932  20
  -3  -3  15 2913.53 74.5970  16
  -3   3  15 2925.73 75.8702  11
  -3   3  14 1469.24 67.8128   6
  -3  -3  14 1563.61 55.3560  10
  -3  -3  14 1464.37 89.1362   2
  -3   3  14 1614.83 87.9483   3
  -3  -3  14 1489.94 87.2191   5
  -3  -3  14 1600.65 55.4032  16
  -3   3  14 1540.30 52.7441  20
  -3   3  14 1537.09 53.7546  11
  -3   3  13 581.214 42.8557   6
  -3  -3  13 616.725 35.2031  10
  -3  -3  13 606.005 34.1920  16
  -3   3  13 621.018 33.3409  20
  -3  -3  13 533.926 53.3431   2
  -3   3  13 623.370 53.8561   3
  -3  -3  13 609.990 56.8862   5
  -3   3  12 3683.51 107.362   6
  -3  -3  12 4159.48 89.7971  10
  -3   3  12 4344.33 83.7950  15
  -3  -3  12 3974.37 87.0387  16
  -3   3  12 4096.24 82.2986  20
  -3  -3  12 3719.83 138.266   2
  -3   3  12 4170.78 135.722   3
  -3  -3  12 3796.74 136.670   5
  -3   3  11 414.401 36.6243   6
  -3   3  11 429.190 26.7185  15
  -3  -3  11 415.209 28.6943  16
  -3   3  11 533.648 29.7423  20
  -3  -3  11 429.455 47.2167   2
  -3   3  11 413.931 42.7874   3
  -3  -3  11 422.167 45.3639   5
  -3   3  10 854.829 51.9021   6
  -3   3  10 826.377 36.5492  15
  -3  -3  10 899.151 41.8502  16
  -3  -3  10 835.658 64.9839   2
  -3   3  10 902.097 61.9704   3
  -3  -3  10 840.370 63.3845   5
  -3   3   9 1570.26 49.8876  15
  -3  -3   9 1438.77 83.7779   2
  -3   3   9 1635.42 81.0538   3
  -3  -3   8 9857.81 216.424   2
  -3   3   8 10031.4 197.862   3
  -3   3   8 9551.04 174.141   6
  -3  -3   7 10305.2 219.939   2
  -3   3   7 10141.5 180.265   6
  -3  -3   6 4394.59 142.927   2
  -3   3   6 4533.31 120.635   6
  -3  -3   5 5023.23 150.168   2
  -3   3   5 4932.10 126.645   6
  -3  -3   4 1392.76 78.7477   2
  -3   3   4 1358.50 67.9260   6
  -3  -3   3 8342.93 191.135   2
  -3   3   3 8113.51 163.558   6
  -3  -3   2 6295.57 164.581   2
  -3   3   2 6225.92 144.798   6
  -3  -3   1 9.46792 10.4214   2
  -3   3   1 10.1952 8.46493   6
  -3   3   0 580.156 45.1411   6
  -3  -3   0 618.246 51.6294   2
  -3   3  -1 13426.0 215.258   6
  -3  -3  -1 13246.6 234.917   2
  -3  -3  -2 38.3492 16.6998   2
  -3  -3  -2 13.8225 14.7566   4
  -3   3  -2 41.2709 16.0056   6
  -3  -3  -3 21621.8 300.938   4
  -3   3  -3 21987.2 279.099   6
  -3  -3  -4 523.560 47.6783   4
  -3   3  -4 637.104 49.0814   6
  -3  -3  -5 134.181 24.5098   4
  -3   3  -5 202.062 27.3546   6
  -3  -3  -6 591.776 49.6860   4
  -3   3  -6 580.813 46.9021   6
  -3  -3  -7 8343.78 181.903   4
  -3   3  -7 8597.03 179.575   6
  -3  -3  -8 2044.75 90.6160   4
  -3   3  -8 2065.05 88.3749   6
   3   3   8 1977.42 66.0953   7
  -3  -3  -9 2164.91 93.4803   4
  -3   3  -9 2305.89 93.8173   6
  -3   3  -9 2280.56 72.8680   8
   3   3   9 2201.20 70.1021   7
   3   3  10 60.1912 12.7606   7
  -3   3 -10 16.5740 7.46708   8
  -3  -3 -10 65.5395 15.9842   4
  -3   3 -10 36.8001 15.5140   6
  -3  -3 -10 33.3399 9.47847  17
   3   3  10 37.4261 9.54844  12
  -3   3 -11 1970.50 68.7278   8
   3   3  11 2028.06 68.9186   7
  -3  -3 -11 1995.35 89.3708   4
  -3   3 -11 2126.05 91.9692   6
  -3  -3 -11 2080.10 72.0618  17
   3   3  11 1906.96 68.4228  12
  -3   3 -12 523.539 35.9301   8
   3   3  12 533.024 36.4322   7
  -3  -3 -12 567.554 47.6163   4
  -3   3 -12 613.762 50.4488   6
  -3  -3 -12 529.645 37.2923  17
   3   3  12 498.694 36.1378  12
   3   3  13 748.855 43.3775   7
  -3   3 -13 765.943 43.6322   8
  -3  -3 -13 765.774 55.2703   4
  -3   3 -13 825.935 58.7193   6
  -3  -3 -13 864.867 47.4828  17
  -3  -3 -13 825.208 43.8333  13
   3   3  13 715.501 43.9837  12
  -3   3 -14 65.1044 13.3159   8
   3   3  14 48.6832 12.5237   7
  -3  -3 -14 49.6506 16.8469   4
  -3   3 -14 48.6115 16.6007   6
  -3  -3 -14 61.7080 14.1226  17
  -3  -3 -14 63.1532 13.2294  13
   3   3  14 45.5096 11.5192  12
   3   3  15 175.327 22.5188   7
  -3   3 -15 149.222 19.8357   8
  -3  -3 -15 130.680 22.7657   1
  -3  -3 -15 187.089 27.8374   4
  -3   3 -15 182.667 28.4053   6
  -3  -3 -15 199.870 24.2827  17
  -3  -3 -15 155.522 19.5819  13
   3   3  15 151.171 21.5710  12
  -3   3 -16 923.369 48.1803   8
   3   3  16 936.120 50.9595   7
  -3  -3 -16 918.316 60.8972   4
  -3  -3 -16 913.304 59.8202   1
  -3   3 -16 1103.90 68.0012   6
  -3  -3 -16 940.597 52.2978  17
  -3  -3 -16 959.729 49.2173  13
   3   3  16 951.950 53.3925  12
  -3   3 -17 1390.53 59.4935   8
   3   3  17 1346.47 61.0032   7
  -3  -3 -17 1376.38 75.1987   4
  -3  -3 -17 1352.80 73.4176   1
  -3  -3 -17 1410.36 64.1495  17
  -3  -3 -17 1406.04 60.2716  13
   3   3  17 1336.49 64.3887  12
  -3   3 -18 2506.41 79.5942   8
   3   3  18 2391.95 82.3802   7
  -3  -3 -18 2533.72 102.330   4
  -3  -3 -18 2598.54 102.230   1
  -3  -3 -18 2630.56 88.0104  17
  -3  -3 -18 2494.20 81.1554  13
   3   3  18 2518.67 89.1965  12
  -3   3 -19 317.682 28.4738   8
   3   3  19 287.889 29.8653   7
  -3  -3 -19 338.821 39.0324   4
  -3  -3 -19 317.472 36.8387   1
  -3  -3 -19 325.770 32.7409  17
  -3  -3 -19 303.287 29.7961  13
   3   3  19 293.174 31.5688  12
  -3   3 -20 4.65317 10.7873   8
   3   3  20 14.2546 12.2776   7
  -3  -3 -20 34.9001 13.8411   1
  -3  -3 -20 6.83468 11.8949   4
  -3  -3 -20 18.8574 14.2214  17
  -3  -3 -20-1.11619 8.33387  13
   3   3  20 21.4688 12.3986  12
  -3   3 -21 5384.06 115.028   8
   3   3  21 5272.10 123.658   7
  -3  -3 -21 5312.83 149.898   4
  -3  -3 -21 5569.39 152.805   1
  -3  -3 -21 5224.99 127.600  17
  -3  -3 -21 5293.71 121.610  13
   3   3  21 5348.45 133.168  12
   3   3  22 4425.55 113.321   7
  -3  -3 -22 4439.26 117.870  17
  -3  -3 -22 4378.37 112.056  13
   3   3  22 4485.08 122.399  12
   3   3  23 41.0390 16.0948   7
  -3  -3 -23 60.2395 19.7504  17
  -3  -3 -23 75.7679 18.3225  13
   3   3  23 99.2114 22.1135  12
   3   3  24 5903.78 131.089   7
  -3  -3 -24 6208.96 140.737  17
  -3  -3 -24 6013.48 132.237  13
   3   3  24 5919.87 141.745  12
   3   3  25 17844.0 225.534   7
  -3  -3 -25 18382.6 230.673  13
   3   3  25 17909.7 244.908  12
   3   3  26 158.449 23.9662   7
  -3  -3 -26 159.728 26.5160  17
  -3  -3 -26 137.405 23.6544  13
   3   3  26 179.300 29.2757  12
  -3  -3 -27 314.846 28.1537   9
   3   3  27 339.834 31.5752   7
  -3  -3 -27 333.065 34.6167  17
  -3  -3 -27 346.233 33.2766  13
   3   3  27 367.246 36.1976  12
  -3  -3 -28 711.922 41.2941   9
   3   3  28 751.284 44.5436   7
  -3  -3 -28 732.422 48.1417  17
   3   3  28 715.352 48.9704  12
  -3  -3 -28 731.030 45.7741  13
  -3  -3 -29 51.7661 12.3783   9
   3   3  29 49.8989 13.8949   7
  -3  -3 -29 42.9102 14.5942  17
  -3  -3 -29 42.1695 14.2011  13
   3   3  29 43.8169 15.0055  12
  -3  -3 -30 368.619 27.9360   9
   3   3  30 339.109 28.7311   7
  -3  -3 -30 325.904 30.9743  17
  -3  -3 -30 321.985 30.2879  13
   3   3  30 321.757 31.5417  12
  -3  -3 -31 330.862 25.1213   9
   3   3  31 308.499 26.7360   7
  -3  -3 -31 330.653 30.5137  17
   3   3  31 324.705 30.4549  12
  -3  -3 -31 301.908 28.4324  13
  -3  -3 -32 325.466 23.7053   9
   3   3  32 302.563 24.7414   7
  -3  -3 -32 312.599 28.7636  17
  -3  -3 -32 304.576 27.3581  13
   3   3  32 297.777 28.3407  12
  -3  -3 -33 4.20240 5.62502   9
   3   3  33-3.17586 8.33857   7
  -3  -3 -33 0.97909 6.51905  17
  -3  -3 -33 5.98420 7.56858  13
   3   3  33 8.28673 7.41505  12
   3   3  34 78.8260 12.4653   7
  -3  -3 -34 76.0539 15.0348  17
  -3  -3 -34 80.8597 13.9184  13
   3   3  34 61.9310 12.4760  12
   3   3  35 172.817 15.8336   7
  -3  -3 -35 169.504 19.1611  17
  -3  -3 -35 164.857 18.2443  13
   3   3  35 148.356 17.5598  12
   3   3  36 176.745 14.6727   7
  -3  -3 -36 173.346 18.1217  17
  -3  -3 -36 168.824 17.7325  13
   3   3  36 153.202 16.7836  12
  -3  -3 -37 28.1448 7.98870  17
  -3  -3 -37 36.8380 8.57982  13
   3   3  37 24.1024 6.94860  12
  -3  -3 -38 39.8880 7.68062  17
  -3  -3 -38 55.0225 9.49430  13
   3   3  38 32.1133 6.54237  12
  -3  -3 -39 6.13481 4.55313  13
   3   3  39 9.31872 4.02537  12
   3   4 -37 120.934 12.1022   8
  -3  -4  37 110.929 10.9944  21
   3   4 -36 8.20536 5.09726   8
  -3  -4  36 8.59722 4.70686  21
  -3  -4  36 6.20854 3.93271  12
   3   4 -35 207.573 17.5407   8
  -3  -4  35 228.105 18.0471  21
  -3  -4  35 201.582 15.5658  12
   3   4 -34 545.375 29.4314   8
  -3  -4  34 555.589 28.8396  21
  -3  -4  34 533.147 26.4000  12
   3   4 -33 795.264 36.8191   8
  -3  -4  33 840.529 36.3191  21
  -3  -4  33 762.938 32.8099  12
   3   4 -32 373.138 26.5758   8
  -3  -4  32 360.399 25.0893  21
  -3  -4  32 367.185 24.0081  12
   3   4 -31 1339.65 51.1397   8
  -3  -4  31 1385.48 49.5356  21
  -3  -4  31 1302.08 47.6618  19
  -3  -4  31 1307.54 45.6109  12
  -3   4  31 1330.21 52.8695  11
   3   4 -30 511.390 32.9360   8
  -3  -4  30 549.954 32.5520  21
  -3  -4  30 495.235 30.5792  19
  -3  -4  30 515.074 29.6957  12
  -3   4  30 518.189 34.2693  11
  -3   4  29 73.9852 16.0590  11
  -3  -4  29 131.947 17.8284  19
  -3  -4  29 102.471 18.2441  21
  -3  -4  28 5949.92 108.085  19
  -3   4  28 6331.96 122.931  11
  -3  -4  27 5190.40 102.847  19
  -3   4  27 5392.99 114.645  11
  -3  -4  26 1101.92 43.0052  10
  -3  -4  26 1173.37 49.7161  19
  -3   4  26 1119.73 53.2880  11
  -3  -4  25 2040.62 59.7064  10
  -3  -4  25 1940.20 64.4850  19
  -3   4  25 1943.27 70.1435  11
  -3  -4  24 447.417 29.3705  10
  -3  -4  24 401.411 29.9248  19
  -3   4  24 417.063 33.4824  11
  -3   4  23 89.4776 17.2614  11
  -3  -4  23 94.8734 14.6597  10
  -3  -4  23 94.1556 15.0364  19
  -3   4  22 32.8311 11.3302  11
  -3  -4  22 16.9717 7.23564  10
   3   4 -22 35.7296 8.45158  18
  -3  -4  22 8.02685 7.93330  19
  -3  -4  21 156.885 18.3367  10
  -3   4  21 114.602 18.3189  11
   3   4 -21 150.114 16.8591  18
  -3  -4  20 82.5836 14.2099  10
  -3   4  20 86.2370 16.4183  11
   3   4 -20 99.5790 14.2457  18
  -3  -4  20 87.6559 15.4481  22
  -3  -4  19 3080.75 78.7310  10
   3   4 -19 2961.71 70.8264  18
  -3  -4  19 2932.45 81.3095  22
  -3   4  19 2885.84 84.1096  11
  -3  -4  18 560.625 34.1440  10
  -3  -4  18 568.016 36.5558  22
   3   4 -18 514.095 30.3876  18
  -3   4  18 520.225 35.7959  11
  -3  -4  17 281.117 24.2020  10
  -3   4  17 306.607 46.0870   3
  -3  -4  17 317.849 45.9680   5
  -3  -4  17 331.541 26.2802  16
   3   4 -17 312.348 24.1844  18
  -3   4  17 288.623 26.6879  11
  -3  -4  16 4164.19 92.9221  10
  -3  -4  16 4174.24 163.276   2
  -3   4  16 4224.30 161.157   3
  -3  -4  16 3990.48 156.994   5
  -3  -4  16 4328.09 93.2995  16
   3   4 -16 3990.18 83.5800  18
  -3   4  16 4022.89 95.4971  11
  -3  -4  15 226.879 23.3679  10
  -3  -4  15 192.987 35.6380   5
  -3  -4  15 236.020 40.4075   2
  -3   4  15 311.124 43.9763   3
  -3  -4  15 244.519 22.9482  16
   3   4 -15 220.974 21.0896  18
  -3   4  15 253.907 24.4753  11
  -3  -4  14 798.031 41.3816  10
  -3  -4  14 743.207 39.1561  16
   3   4 -14 765.832 37.6377  18
  -3  -4  14 873.548 73.5899   2
  -3   4  14 808.930 69.1793   3
  -3  -4  14 733.931 67.4227   5
  -3  -4  13 66.6674 13.9522  10
   3   4 -13 63.6470 12.8938  18
  -3  -4  13 70.7893 12.9106  16
  -3  -4  13 78.8450 23.0501   5
  -3  -4  13 37.8657 14.1288   2
  -3   4  13 88.4838 24.5432   3
  -3  -4  12 1451.23 56.3196  10
  -3   4  12 1382.83 50.4887  20
   3   4 -12 1472.68 52.1838  18
  -3  -4  12 1468.80 93.6906   2
  -3   4  12 1549.42 92.3777   3
  -3   4  11 3349.61 110.251   6
  -3  -4  11 3280.61 138.576   2
  -3   4  11 3255.20 133.873   3
  -3   4  11 3154.49 74.7416  20
  -3  -4  11 3193.30 82.2473  16
   3   4 -11 3214.75 76.3792  18
  -3   4  10 2076.34 86.2260   6
  -3  -4  10 2030.97 109.040   2
   3   4 -10 1983.45 60.4716  18
  -3  -4  10 2027.13 66.2309  16
  -3   4  10 2003.01 58.7405  20
  -3  -4  10 2060.52 61.1747  14
  -3   4   9 7337.15 161.735   6
  -3  -4   9 7011.52 198.984   2
  -3   4   9 6998.88 107.921  20
  -3  -4   9 7078.70 124.251  16
   3   4  -9 6966.08 112.754  18
  -3  -4   9 7095.53 114.860  14
  -3   4   8 1429.87 71.9728   6
  -3  -4   8 1434.31 90.3958   2
  -3  -4   8 1450.25 56.9702  16
  -3   4   8 1472.12 49.4275  20
   3   4  -8 1487.94 53.2263  18
  -3  -4   8 1403.91 52.3538  14
  -3   4   7 10102.3 191.814   6
  -3  -4   7 9691.01 229.485   2
   3   4  -7 9775.96 133.320  18
  -3  -4   7 9747.93 138.103  14
   3   4  -6 1022.18 46.9102   7
  -3   4   6 1065.30 63.0319   6
  -3  -4   6 987.780 72.9966   2
  -3   4   6 1058.36 43.4946  15
   3   4  -6 1076.77 44.7397  18
  -3  -4   6 987.863 44.3482  14
  -3   4   5 241.760 25.2848   8
   3   4  -5 209.643 21.9105   7
  -3   4   5 212.407 28.7353   6
  -3  -4   5 227.641 35.6361   2
   3   4  -5 223.271 21.0508  18
  -3   4   5 227.150 21.0188  15
  -3  -4   5 227.849 22.1814  14
  -3   4   4 1136.57 52.7338   8
   3   4  -4 1167.07 50.1243   7
  -3   4   4 1180.47 66.0395   6
  -3  -4   4 1163.94 78.0779   2
  -3   4   4 1176.70 45.4424  15
   3   4  -4 1099.93 45.4073  18
  -3  -4   4 1147.16 48.8178  14
   3   4  -3 3.36808 6.11134   7
  -3   4   3 12.9556 9.49067   8
  -3  -4   3 3.36770 10.9517   2
  -3   4   3 36.0486 14.4544   6
   3   4  -3 2.18329 6.65438  18
  -3  -4   3 3.58088 5.97312  14
  -3   4   3 8.93606 7.54549  15
  -3  -4   2 583.771 34.0741   9
  -3   4   2 594.628 47.8646   6
  -3   4   2 639.252 40.4733   8
   3   4  -2 634.717 37.5193   7
  -3  -4   2 581.652 54.2674   2
  -3   4   2 617.294 32.9974  15
   3   4  -2 563.601 33.0473  18
  -3  -4   2 564.348 34.6969  14
  -3  -4   1 4433.33 94.5040   9
  -3   4   1 4391.67 104.736   8
   3   4  -1 4362.14 97.8782   7
  -3   4   1 4398.09 128.611   6
  -3  -4   1 4607.57 150.343   2
   3   4  -1 4494.87 90.1426  18
  -3   4   1 4464.45 87.1296  15
  -3  -4   1 4502.12 98.2560  14
  -3  -4   0 779.739 40.6792   9
  -3   4   0 799.703 45.7580   8
   3   4   0 755.721 41.9873   7
  -3   4   0 764.692 54.1566   6
   3   4   0 775.375 38.6142  18
  -3   4   0 760.649 36.4579  15
  -3  -4   0 733.695 64.7188   4
  -3  -4   0 856.271 64.9736   2
  -3  -4  -1 3594.04 86.8774   9
  -3   4  -1 3709.41 97.2411   8
  -3   4  -1 3709.99 118.709   6
   3   4   1 3594.38 89.8494   7
  -3   4  -1 3600.46 77.7042  15
   3   4   1 3615.96 80.0836  18
  -3  -4  -1 3482.98 136.095   4
  -3  -4  -1 3645.77 131.642   2
  -3  -4  -2 500.300 33.0387   9
   3   4   2 511.552 35.1153   7
  -3   4  -2 467.292 43.3668   6
  -3   4  -2 457.183 34.9673   8
  -3   4  -2 459.714 28.4026  15
   3   4   2 435.332 28.5885  18
  -3  -4  -2 433.251 48.7391   4
  -3  -4  -3 996.336 46.9964   9
  -3   4  -3 1015.11 51.7755   8
  -3   4  -3 1059.26 64.4231   6
   3   4   3 1059.62 50.0648   7
   3   4   3 1040.48 43.1627  18
  -3   4  -3 1024.27 41.3653  15
  -3  -4  -3 984.036 72.8242   4
  -3  -4  -4 2382.82 73.1738   9
  -3   4  -4 2440.91 80.2465   8
   3   4   4 2253.14 73.3315   7
  -3   4  -4 2331.75 62.0451  15
   3   4   4 2322.97 63.8436  18
  -3  -4  -4 2319.67 109.679   4
  -3   4  -4 2376.64 96.4585   6
  -3  -4  -5 871.717 44.8271   9
   3   4   5 899.131 46.9180   7
  -3   4  -5 992.330 52.0351   8
   3   4   5 905.057 39.9251  18
  -3  -4  -5 863.988 67.8455   4
  -3   4  -5 1006.78 63.6392   6
   3   4   6 1188.85 54.2113   7
  -3   4  -6 1202.27 57.2320   8
  -3  -4  -6 1145.40 51.9991   9
   3   4   6 1163.68 44.8671  18
  -3  -4  -6 1183.46 76.9554   4
  -3   4  -6 1251.24 70.3657   6
  -3   4  -7 2275.89 78.8807   8
   3   4   7 2347.14 76.2524   7
   3   4   7 2163.93 60.2161  18
  -3  -4  -7 2042.51 101.166   4
  -3   4  -7 2329.18 96.1886   6
   3   4   8 80.3756 15.7681   7
  -3   4  -8 70.6605 15.4643   8
   3   4   8 84.4511 13.2057  18
  -3  -4  -8 76.3574 14.0938  17
  -3  -4  -8 76.4295 21.3440   4
  -3   4  -8 73.1748 18.5123   6
  -3   4  -9 297.220 29.3022   8
   3   4   9 269.002 27.3930   7
  -3  -4  -9 241.823 24.3537  17
   3   4   9 254.715 20.8963  18
  -3  -4  -9 228.353 35.0520   4
  -3   4  -9 240.939 30.4981   6
   3   4  10 84.1474 16.5514   7
  -3   4 -10 85.8531 17.1023   8
  -3  -4 -10 93.0446 16.4298  17
  -3  -4 -10 108.394 25.6517   4
  -3   4 -10 87.4939 18.4493   6
  -3   4 -11 2636.70 86.7642   8
   3   4  11 2480.37 81.8075   7
  -3  -4 -11 2727.98 114.948   4
  -3  -4 -11 2783.86 85.7086  17
  -3   4 -12 234.970 26.7597   8
   3   4  12 244.238 27.1679   7
  -3  -4 -12 247.956 35.6241   4
  -3  -4 -12 299.235 28.9326  17
   3   4  12 221.000 25.0818  12
  -3   4 -13 534.834 39.3826   8
   3   4  13 495.401 37.5050   7
  -3  -4 -13 578.805 53.3447   4
  -3  -4 -13 572.205 40.0210  17
   3   4  13 472.911 36.1827  12
  -3   4 -14 670.552 44.5855   8
   3   4  14 630.863 42.4747   7
  -3  -4 -14 719.644 59.2196   4
  -3  -4 -14 653.251 43.2469  17
   3   4  14 581.236 39.9489  12
  -3   4 -15 445.927 36.4004   8
   3   4  15 458.856 36.5939   7
  -3  -4 -15 502.178 48.7680   4
  -3  -4 -15 486.229 46.5772   1
  -3  -4 -15 469.305 37.4089  17
   3   4  15 377.567 32.6560  12
   3   4  16 15.4570 11.0457   7
  -3   4 -16-1.79231 9.60076   8
  -3  -4 -16 13.5638 8.72712  17
   3   4  16 6.48271 8.42680  12
  -3   4 -17 374.781 33.8897   8
   3   4  17 387.599 34.5163   7
  -3  -4 -17 389.751 34.7070  17
   3   4  17 325.594 31.4075  12
  -3   4 -18 588.401 42.2453   8
   3   4  18 638.446 43.8149   7
  -3  -4 -18 613.227 43.2261  17
  -3  -4 -18 649.633 40.6764  13
   3   4  18 570.256 41.8620  12
  -3   4 -19 2739.28 88.5472   8
   3   4  19 2706.15 88.1181   7
  -3  -4 -19 2675.63 90.0566  17
  -3  -4 -19 2752.40 83.0674  13
   3   4  19 2620.62 90.3711  12
  -3   4 -20 3526.02 99.2157   8
   3   4  20 3413.49 98.8387   7
  -3  -4 -20 3517.74 102.855  17
  -3  -4 -20 3511.33 94.3256  13
   3   4  20 3146.77 99.1303  12
  -3   4 -21 174.175 23.1808   8
   3   4  21 155.315 23.7939   7
  -3  -4 -21 164.698 24.6138  17
  -3  -4 -21 141.029 20.1815  13
   3   4  21 146.268 23.1457  12
   3   4  22 92.8032 18.3569   7
  -3   4 -22 106.208 17.8339   8
  -3  -4 -22 75.6833 18.1895  17
  -3  -4 -22 104.487 18.0300  13
   3   4  22 99.5400 20.9041  12
  -3   4 -23 874.650 47.3288   8
   3   4  23 933.989 51.0606   7
  -3  -4 -23 917.004 52.2897  17
  -3  -4 -23 898.354 48.5333  13
   3   4  23 858.043 51.9858  12
   3   4  24 10.9579 10.5598   7
  -3   4 -24 2.72144 7.36963   8
  -3  -4 -24 5.76547 9.34391  17
  -3  -4 -24 23.2052 12.6119  13
   3   4  24 22.4098 13.5869  12
   3   4  25 15.8625 10.7754   7
  -3   4 -25 3.79163 6.55041   8
  -3  -4 -25-1.44020 10.4068  17
  -3  -4 -25 5.81924 8.45403  13
   3   4  25 11.5563 11.2233  12
   3   4  26 140.111 20.0633   7
  -3   4 -26 104.102 15.4749   8
  -3  -4 -26 108.668 19.1109  17
  -3  -4 -26 110.340 17.4878  13
   3   4  26 124.431 21.0491  12
  -3  -4 -27 1487.99 57.6514   9
   3   4  27 1441.29 57.7831   7
  -3  -4 -27 1356.91 60.3455  17
  -3  -4 -27 1438.10 58.5697  13
   3   4  27 1315.80 60.2093  12
  -3  -4 -28 12.6461 8.90775   9
   3   4  28 7.17854 8.62772   7
  -3  -4 -28 8.91200 8.67738  17
  -3  -4 -28 10.3990 7.80168  13
   3   4  28 13.8696 9.23855  12
  -3  -4 -29 1574.20 55.8768   9
   3   4  29 1577.09 56.0290   7
  -3  -4 -29 1505.53 60.6532  17
  -3  -4 -29 1429.87 55.7410  13
  -3  -4 -30 347.427 25.5767   9
   3   4  30 384.825 26.8732   7
  -3  -4 -30 337.782 28.6769  17
  -3  -4 -30 349.952 27.5414  13
   3   4  30 296.995 26.4990  12
  -3  -4 -31 55.8221 10.9811   9
   3   4  31 41.5074 9.76933   7
  -3  -4 -31 66.7505 13.5550  17
  -3  -4 -31 68.7219 13.0297  13
   3   4  31 44.9484 10.8059  12
  -3  -4 -32 463.322 26.4271   9
   3   4  32 474.854 26.3545   7
  -3  -4 -32 468.896 30.8687  17
  -3  -4 -32 428.717 27.9208  13
   3   4  32 376.478 26.3972  12
  -3  -4 -33 25.4705 7.00927   9
   3   4  33 24.4711 6.69051   7
  -3  -4 -33 25.4530 8.55057  17
  -3  -4 -33 20.8389 6.03087  13
   3   4  33 23.7142 7.53805  12
  -3  -4 -34 242.649 16.2965   9
  -3  -4 -34 252.839 20.6798  17
  -3  -4 -34 240.676 18.9434  13
   3   4  34 222.751 18.6440  12
  -3  -4 -35 73.4145 10.8861  17
  -3  -4 -35 56.7809 9.48348  13
  -3  -4 -36 93.9954 11.3802  17
  -3  -4 -36 72.1065 9.43952  13
   3   5 -34 523.741 23.0844   8
  -3  -5  34 529.464 22.3331  21
  -3  -5  33-4.17960 4.70156  21
  -3  -5  33 0.54250 4.32839  12
   3   5 -32 37.8824 8.01172   8
  -3  -5  32 39.6923 7.79693  21
  -3  -5  32 43.9776 8.14709  12
   3   5 -31 86.5878 12.0989   8
  -3  -5  31 103.224 12.9186  21
  -3  -5  31 73.3333 10.4906  12
   3   5 -30 61.9195 10.6780   8
  -3  -5  30 43.5454 9.35145  19
  -3  -5  30 63.7683 10.7166  21
  -3  -5  30 56.8051 10.0010  12
   3   5 -29 33.3712 9.33808   8
  -3  -5  29 43.5752 10.6708  19
  -3  -5  29 49.3670 10.2955  21
   3   5 -28 337.896 25.5509   8
  -3  -5  28 336.360 23.4072  19
  -3  -5  28 359.604 24.6984  21
   3   5 -27 115.259 15.6844   8
  -3  -5  27 112.959 14.5955  19
   3   5 -26 58.3865 13.2750   8
  -3  -5  26 57.9506 12.3865  19
   3   5 -25 3142.63 80.5318   8
  -3  -5  25 3010.56 73.7231  19
   3   5 -24 206.483 22.8518   8
  -3  -5  24 180.318 16.1738  10
  -3  -5  24 189.445 20.6035  19
   3   5 -23 58.5271 13.6349   8
  -3  -5  23 35.2114 8.46651  10
  -3  -5  23 47.3828 10.9383  19
   3   5 -22 135.170 19.1377   8
  -3  -5  22 131.930 14.9002  10
  -3  -5  22 120.746 16.3664  19
   3   5 -22 136.032 14.5388  18
  -3  -5  21 2551.89 65.9388  10
   3   5 -21 2655.67 77.7708   8
  -3  -5  21 2585.81 72.6868  19
   3   5 -21 2400.64 60.8022  18
   3   5 -20 11.2954 8.50180   8
  -3  -5  20 10.6616 8.00305  10
   3   5 -20 10.8141 7.92007  18
  -3  -5  19 678.117 35.6457  10
   3   5 -19 730.622 41.6424   8
   3   5 -19 650.475 34.0690  18
  -3  -5  19 741.204 40.3043  22
  -3  -5  18 20.0680 9.58335  10
   3   5 -18 9.49823 8.00133   8
  -3  -5  18 11.6364 8.89969  22
   3   5 -18 21.5213 9.31383  18
   3   5 -17 28.6113 11.9080   8
  -3  -5  17 14.6823 9.07613  10
  -3  -5  17 3.53606 7.30579  22
   3   5 -17 1.42624 7.31109  18
  -3  -5  16 350.115 27.3801  10
   3   5 -16 343.747 28.9374   8
  -3  -5  16 360.595 26.1321  16
   3   5 -16 315.611 24.6625  18
   3   5 -15 239.208 24.0992   8
  -3  -5  15 223.850 22.4882  10
  -3  -5  15 237.804 21.6936  16
   3   5 -15 206.590 20.7129  18
   3   5 -14 754.766 41.8477   8
  -3  -5  14 754.613 40.8201  10
  -3  -5  14 768.926 38.9563  16
   3   5 -14 712.333 37.7299  18
  -3  -5  13 113.187 17.8719  10
   3   5 -13 100.643 16.5381   8
  -3  -5  13 92.7798 14.8378  16
   3   5 -13 136.437 17.6431  18
  -3  -5  12 2389.56 73.7343  10
  -3  -5  12 2542.83 72.5308  16
   3   5 -12 2356.16 69.2216  18
  -3  -5  11 1747.82 63.1822  10
  -3  -5  11 1784.56 62.2274  16
   3   5 -11 1649.50 58.1790  18
   3   5 -10 67.2786 13.9523  18
  -3  -5  10 85.8807 15.1901  16
  -3  -5   9 714.521 40.6350  16
   3   5  -9 683.688 38.0764  18
  -3  -5   8 1664.89 62.3325  16
   3   5  -8 1578.65 57.8037  18
  -3  -5   7 508.360 35.5883  16
   3   5  -7 499.638 33.6018  18
   3   5  -6 3215.27 83.2502  18
  -3  -5   6 3384.49 83.6900  14
  -3  -5   5 13139.9 272.780   2
   3   5  -5 12880.4 165.047  18
  -3  -5   4 2968.03 137.727   4
  -3  -5   4 3002.20 129.719   2
   3   5  -4 3092.31 81.8313  18
  -3  -5   4 3011.72 81.5532  14
  -3   5   3 13375.0 189.989   8
  -3  -5   3 12684.3 282.926   4
  -3  -5   3 13628.9 272.457   2
   3   5  -3 13118.1 166.976  18
  -3  -5   3 12867.9 171.107  14
   3   5  -2 5458.81 117.057   7
  -3   5   2 5420.30 122.342   8
  -3  -5   2 5119.60 180.128   4
  -3  -5   2 5283.63 168.444   2
   3   5  -2 5344.79 106.448  18
  -3  -5   2 5244.99 109.699  14
   3   5  -1 2850.09 85.1765   7
  -3   5   1 2730.75 87.8982   8
  -3  -5   1 2786.26 132.468   4
   3   5  -1 2871.87 78.0999  18
  -3  -5   1 2810.64 81.5180  14
   3   5   0 328.965 30.1010   7
  -3   5   0 310.490 36.4421   6
  -3   5   0 287.211 29.6232   8
  -3  -5   0 246.341 39.0041   4
   3   5   0 300.933 25.8455  18
  -3  -5   0 255.052 25.4168  14
  -3  -5  -1 6.43460 7.07420   9
   3   5   1 22.0585 11.8922   7
  -3   5  -1 3.43493 8.24641   8
   3   5   1-6.78072 8.06313  18
  -3   5  -1 13.3661 12.2216   6
  -3  -5  -2 337.504 27.7934   9
  -3   5  -2 315.065 35.8604   6
  -3   5  -2 287.752 29.9057   8
   3   5   2 333.090 30.3875   7
   3   5   2 287.051 24.6477  18
  -3  -5  -2 223.927 36.7794   4
  -3   5  -3 1477.42 65.4635   8
   3   5   3 1408.14 60.9582   7
  -3  -5  -3 1481.09 58.7090   9
   3   5   3 1438.03 54.5735  18
  -3  -5  -3 1373.98 90.6641   4
  -3  -5  -4 1268.25 55.0308   9
  -3   5  -4 1174.42 59.3447   8
   3   5   4 1239.35 57.2487   7
   3   5   4 1259.85 50.4152  18
  -3  -5  -5 3532.73 91.8087   9
  -3   5  -5 3409.22 100.861   8
   3   5   5 3455.51 95.6710   7
   3   5   5 3451.18 82.5564  18
  -3  -5  -6 767.907 43.8770   9
  -3   5  -6 763.504 48.2987   8
   3   5   6 821.664 47.6458   7
   3   5   6 785.377 39.0877  18
   3   5   7 31.7158 12.2505   7
  -3   5  -7 28.6638 11.9385   8
  -3  -5  -8 789.842 45.0069   9
  -3   5  -8 798.898 49.3139   8
   3   5   8 801.140 47.1620   7
   3   5   8 839.329 39.4593  18
  -3  -5  -9 341.945 30.0018   9
  -3   5  -9 350.477 33.5111   8
   3   5   9 336.946 31.0110   7
   3   5   9 379.228 26.4756  18
  -3  -5 -10 63.3662 14.6870   9
   3   5  10 65.5778 15.4893   7
  -3   5 -10 76.2837 18.3749   8
  -3  -5 -11 1432.62 61.6262   9
  -3   5 -11 1496.05 67.8482   8
   3   5  11 1482.20 63.9779   7
   3   5  12 82.2593 16.6092   7
  -3   5 -12 60.0306 17.2371   8
  -3   5 -13 279.794 30.2576   8
   3   5  13 301.121 29.7275   7
   3   5  14 24.3169 12.7294   7
  -3   5 -14 20.0872 12.8107   8
  -3  -5 -14 10.5992 8.64000  17
  -3   5 -15 2131.12 80.5008   8
   3   5  15 2185.45 78.1421   7
  -3  -5 -15 2304.14 76.4476  17
  -3   5 -16 1161.43 59.7011   8
   3   5  16 1128.52 55.9641   7
  -3  -5 -16 1192.30 55.2972  17
   3   5  17 56.8367 14.4913   7
  -3   5 -17 61.4390 16.7071   8
  -3  -5 -17 45.0904 12.7314  17
  -3   5 -18 1458.25 64.8963   8
   3   5  18 1509.20 63.6253   7
  -3  -5 -18 1496.31 62.0602  17
   3   5  19 54.1709 14.3839   7
  -3   5 -19 49.4934 14.4064   8
  -3  -5 -19 63.0937 14.3838  17
   3   5  20 12.8032 10.1292   7
  -3   5 -20 11.1409 9.15342   8
  -3  -5 -20 7.60352 7.54688  17
  -3   5 -21 194.530 23.7168   8
   3   5  21 227.710 25.2856   7
  -3  -5 -21 185.790 22.3622  17
  -3  -5 -22 2403.39 75.3679   9
  -3   5 -22 2378.33 76.4239   8
  -3  -5 -22 2288.94 74.2578  17
  -3  -5 -23 27.1980 12.8560   9
   3   5  23 36.7257 12.8690   7
  -3   5 -23 29.4531 10.9270   8
  -3  -5 -23 38.2380 12.7787  17
  -3  -5 -24 2060.88 66.6672   9
  -3   5 -24 2003.16 65.4001   8
  -3  -5 -24 1916.11 65.9541  17
  -3  -5 -25 931.290 44.3521   9
  -3   5 -25 934.404 42.9160   8
   3   5  25 1029.60 45.0390   7
  -3  -5 -25 848.576 43.0484  17
  -3  -5 -26 27.8419 9.99577   9
   3   5  26 30.2591 9.93000   7
  -3   5 -26 10.9850 6.84302   8
  -3  -5 -26 14.9008 7.75792  17
  -3  -5 -27 557.869 32.1822   9
  -3   5 -27 531.456 29.0059   8
   3   5  27 609.801 31.5051   7
  -3  -5 -27 525.429 32.0260  17
  -3  -5 -28 70.4519 12.3527   9
   3   5  28 92.9557 12.8162   7
  -3   5 -28 72.9091 10.3395   8
  -3  -5 -28 64.4113 11.7605  17
  -3  -5 -29 10.8683 6.90513   9
   3   5  29 20.2730 6.74830   7
  -3  -5 -29 10.4739 6.16297  17
  -3  -5 -30 71.5668 10.7930   9
   3   5  30 73.4043 9.41853   7
  -3  -5 -30 84.9147 12.3172  17
  -3  -5 -31 827.044 31.0995   9
  -3  -5 -31 802.257 32.8962  17
  -3  -5 -31 772.825 27.2740  14
  -3  -5 -32 207.776 14.6743   9
  -3  -6  29 33.7422 6.83724  21
  -3  -6  29 34.0125 7.10063  12
   3   6 -28 1104.48 33.9892   8
  -3  -6  28 1190.78 33.4242  19
  -3  -6  28 1167.72 33.8656  21
  -3  -6  28 1192.13 34.1760  12
   3   6 -27 435.645 22.7527   8
  -3  -6  27 439.715 22.1156  19
  -3  -6  27 465.523 22.9088  21
   3   6 -26 290.699 19.4943   8
  -3  -6  26 307.834 19.6765  19
  -3  -6  26 329.120 20.3499  21
   3   6 -25 240.353 18.8199   8
  -3  -6  25 258.235 18.7023  19
   3   6 -24 303.689 21.7160   8
  -3  -6  24 327.222 21.4058  19
   3   6 -23 557.223 29.9591   8
  -3  -6  23 586.796 29.2922  19
   3   6 -22 125.286 15.2967   8
   3   6 -22 117.628 11.5693  18
  -3  -6  22 130.605 15.0409  19
   3   6 -21 50.6876 10.9417   8
   3   6 -21 59.9281 8.86176  18
  -3  -6  21 76.2148 12.3501  19
   3   6 -20 7.73829 7.93084   8
   3   6 -20 8.48643 6.14442  18
  -3  -6  20 3.72671 7.30751  19
  -3  -6  19 2488.94 56.8413  10
   3   6 -19 2508.73 67.0447   8
  -3  -6  19 2438.08 65.4214  19
   3   6 -18 942.007 41.6754   8
  -3  -6  18 908.598 35.8927  10
   3   6 -18 826.939 35.6211  18
  -3  -6  17 3.82089 5.76613  10
   3   6 -17 1.90846 5.97148  18
  -3  -6  16 693.197 33.4564  10
  -3  -6  16 715.369 35.9459  22
   3   6 -16 649.562 33.1357  18
  -3  -6  15 100.358 13.6240  10
   3   6 -15 98.7888 14.4571  18
  -3  -6  15 93.2613 13.4466  22
  -3  -6  14 243.720 21.3941  10
  -3  -6  14 257.644 22.5587  22
   3   6 -14 253.841 22.1961  18
  -3  -6  13 27.2612 9.16327  10
   3   6 -13 30.8929 10.2711  18
  -3  -6  12 568.437 33.6704  10
   3   6 -12 578.605 34.0429  18
  -3  -6  11 2032.16 64.5930  10
   3   6 -11 2023.35 63.2447  18
  -3  -6  10 838.068 42.5318  10
   3   6 -10 827.220 41.6529  18
  -3  -6   9 258.076 25.4003  10
   3   6  -9 261.438 25.4876  18
  -3  -6   8 794.453 39.0283  16
   3   6  -8 796.639 42.0107  18
  -3  -6   7 5920.61 106.716  16
   3   6  -7 5724.29 110.215  18
   3   6  -6 63.4087 16.6176  18
  -3  -6   6 23.0308 12.9866  16
   3   6  -5 73.8447 15.0806  18
  -3  -6   5 86.0592 14.9505  16
  -3  -6   4 10.7151 9.16492  16
   3   6  -4 19.6889 10.9018  18
  -3  -6   3 946.865 45.8827  16
   3   6  -3 982.978 46.4317  18
  -3  -6   3 971.876 43.8590  14
   3   6  -2 408.474 31.0668  18
  -3  -6   2 399.996 28.7157  14
   3   6  -1 251.300 24.4462  18
  -3  -6   1 242.497 22.9667  14
  -3   6   0 90.1740 19.0520   8
   3   6   0 76.1277 15.0165  18
  -3  -6   0 79.8504 14.8581  14
  -3   6  -1 1953.92 72.4272   8
   3   6   1 2026.84 65.2968  18
  -3  -6  -1 1904.13 64.8202  14
  -3   6  -2 1432.26 62.8492   8
   3   6   2 1440.93 54.8470  18
  -3  -6  -2 1370.46 55.4281  14
  -3   6  -3 1708.11 68.8811   8
   3   6   3 1736.22 59.7622  18
  -3  -6  -3 1653.28 61.5424  14
  -3   6  -4 898.223 50.5865   8
   3   6   4 924.269 43.3117  18
  -3  -6  -4 913.694 46.6706  14
  -3   6  -5 90.2386 17.4367   8
  -3  -6  -5 89.9422 15.0254   9
   3   6   5 106.120 18.5489   7
   3   6   5 109.350 16.0554  18
  -3  -6  -5 74.1128 14.3652  14
  -3  -6  -6 92.5887 15.6569   9
   3   6   6 72.8469 15.1796   7
  -3   6  -6 89.4645 17.9264   8
   3   6   6 68.5700 12.7643  18
  -3  -6  -7 16.5819 7.77324   9
   3   6   7 14.6273 10.1678   7
  -3   6  -7 9.25968 9.32131   8
   3   6   7 16.1598 7.07511  18
  -3  -6  -8 245.339 23.2161   9
   3   6   8 217.811 24.1519   7
  -3   6  -8 219.809 26.0665   8
   3   6   8 233.942 21.0136  18
  -3  -6  -9 47.3941 11.8654   9
   3   6   9 41.2885 13.1965   7
  -3   6  -9 43.3526 13.5395   8
   3   6   9 52.6737 10.5935  18
  -3  -6 -10 80.7098 15.3916   9
   3   6  10 73.9478 16.6728   7
  -3   6 -10 88.7198 19.9377   8
  -3  -6 -11 2369.96 71.8921   9
   3   6  11 2626.90 80.7190   7
  -3   6 -11 2469.65 83.3147   8
  -3  -6 -12 126.384 17.9054   9
   3   6  12 110.448 19.3398   7
  -3   6 -12 116.062 19.7234   8
  -3  -6 -13 65.1569 13.3622   9
   3   6  13 75.2730 16.0071   7
  -3   6 -13 92.1662 17.9171   8
  -3  -6 -14 33.7823 9.81976   9
   3   6  14 42.5532 12.1415   7
  -3   6 -14 21.9281 10.6373   8
  -3  -6 -15 155.780 18.8116   9
   3   6  15 173.464 20.8889   7
  -3   6 -15 130.480 19.8756   8
  -3  -6 -16 41.6667 11.0265   9
   3   6  16 41.6504 11.9499   7
  -3   6 -16 27.0925 10.6242   8
  -3  -6 -17 0.81790 5.84034   9
   3   6  17 0.16301 6.96239   7
  -3   6 -17-8.02519 9.19341   8
  -3  -6 -18 25.9426 10.7501   9
   3   6  18 3.15642 7.07131   7
  -3   6 -18 16.8999 10.7552   8
  -3  -6 -19 1602.88 55.5537   9
  -3   6 -19 1603.81 59.5386   8
  -3  -6 -20 185.398 19.3484   9
   3   6  20 169.757 18.2306   7
  -3   6 -20 158.103 19.4975   8
  -3  -6 -21 97.0357 13.9407   9
   3   6  21 124.582 15.4004   7
  -3   6 -21 89.6748 14.0420   8
  -3  -6 -22 48.9494 10.8990   9
   3   6  22 49.0402 10.9371   7
  -3   6 -22 35.9780 10.0417   8
  -3  -6 -23 780.219 34.8749   9
  -3   6 -23 811.300 36.4250   8
  -3  -6 -24 136.377 14.9353   9
  -3   6 -24 134.102 14.8015   8
  -3  -6 -25 176.999 16.0459   9
  -3   6 -25 178.024 15.6150   8
  -3  -6 -26 214.942 16.3906   9
  -3   6 -26 225.789 15.9947   8
  -3  -6 -26 241.118 16.8718  14
  -3  -6 -27 198.830 14.8264   9
  -3  -6 -27 216.479 15.1999  14
  -3  -6 -28 0.96722 3.25586   9
  -3  -7  21 656.188 23.2039  19
  -3  -7  20 287.486 16.4372  19
  -3  -7  19 278.891 16.7104  19
  -3  -7  18 11.7065 5.28142  19
   3   7 -18 8.94345 4.96746  18
   3   7 -17 25.6532 5.94395  18
  -3  -7  17 22.3524 5.99194  19
  -3  -7  16 124.235 12.8479  19
   3   7 -16 116.333 11.9275  18
   3   7 -15 14.4275 4.93402  18
   3   7 -14 56.0166 9.19213  18
   3   7 -13 5.95109 5.08589  18
  -3  -7  12 343.418 19.1495  10
  -3  -7  12 313.818 18.5337  22
   3   7 -12 325.051 21.7443  18
  -3  -7  11 575.096 25.7404  10
   3   7 -11 538.577 28.1833  18
  -3  -7  11 521.900 24.5763  22
  -3  -7  10 141.956 13.7238  10
  -3  -7  10 126.280 12.6059  22
   3   7 -10 159.830 16.5945  18
  -3  -7   9 1683.42 47.1621  10
   3   7  -9 1745.56 52.2918  18
  -3  -7   9 1586.90 44.8590  22
  -3  -7   8 38.6354 8.87417  10
   3   7  -8 46.6470 11.2838  18
  -3  -7   7 438.980 25.7770  10
   3   7  -7 484.599 28.9452  18
  -3  -7   6 594.772 31.1231  10
   3   7  -6 673.838 34.6819  18
  -3  -7   5 4495.35 84.4668  10
   3   7  -5 4806.52 89.7300  18
   3   7  -4 3020.58 71.6741  18
   3   7  -3 6189.64 102.385  18
   3   7  -2 2084.23 60.3499  18
   3   7  -1 1192.88 45.3229  18
   3   7   0 985.057 40.9492  18
  -3  -7  -1 1303.39 41.4323  16
   3   7   1 1517.50 49.9245  18
   3   7   2 387.932 25.7786  18
  -3  -7  -2 297.312 20.6000  16
   3   7   3 861.215 36.9355  18
  -3  -7  -3 746.201 32.2603  16
  -3  -7  -3 786.504 32.7464  14
   3   7   4 617.053 30.8268  18
  -3  -7  -4 573.091 28.5041  14
   3   7   5 838.932 34.6959  18
  -3  -7  -5 707.609 31.8745  14
   3   7   6 336.325 21.7137  18
  -3  -7  -6 332.860 22.4986  14
  -3   7  -7 11.8875 8.19144   8
   3   7   7 9.69198 5.61208  18
  -3  -7  -7 1.74050 4.23045  14
  -3   7  -8 71.7361 13.8496   8
   3   7   8 53.8568 8.38938  18
  -3  -7  -8 46.8116 9.30124  14
  -3   7  -9 10.1935 7.74793   8
  -3  -7  -9 7.81198 4.57420  14
  -3   7 -10 17.8570 8.38625   8
  -3  -7 -10 0.26620 4.81813  14
  -3   7 -11 98.4958 14.9223   8
  -3  -7 -11 98.0981 12.5077  14
  -3  -7 -12 39.6686 7.38657   9
  -3   7 -12 38.3857 11.0578   8
  -3  -7 -12 38.7207 8.57119  14
  -3   7 -13 586.756 32.6569   8
  -3  -7 -13 523.351 24.4063   9
  -3  -7 -13 515.552 26.8391  14
  -3  -7 -14 49.6479 8.35791   9
  -3   7 -14 35.2133 9.26319   8
  -3  -7 -14 55.7853 10.1157  14
  -3   7 -15 490.362 28.7123   8
  -3  -7 -15 450.301 22.1672   9
  -3  -7 -15 438.387 24.0432  14
  -3  -7 -16 296.067 17.7958   9
  -3   7 -16 330.051 23.0937   8
  -3  -7 -16 287.734 19.2772  14
  -3  -7 -17 320.887 18.0873   9
  -3   7 -17 329.068 21.9808   8
  -3  -7 -17 308.080 19.4456  14
  -3  -7 -18 313.585 17.5786   9
  -3   7 -18 342.237 21.9853   8
  -3  -7 -18 339.578 19.9986  14
  -3  -7 -19 0.88647 2.86226   9
  -3   7 -19-7.10033 6.27867   8
  -3  -7 -19 1.46765 4.33213  14
  -3   7 -20 17.3819 5.17266   8
  -3  -7 -20 27.6581 5.78722  14
  -4   0  39 2.72358 3.32115  11
  -4   0  38 277.857 18.1203  11
  -4   0  37 3.48845 4.66629  11
  -4   0  36 26.1732 7.73070  11
  -4   0  35-7.04744 6.44585  11
  -4   0  34-0.05720 5.84678  11
  -4   0  33-3.54310 6.93710  11
  -4   0  32 702.338 29.7998  20
  -4   0  32 707.864 37.0793  11
  -4   0  31 4.01966 7.15848  11
  -4   0  31 1.85099 4.64026  20
  -4   0  30 2412.74 70.4170  11
  -4   0  30 2256.93 57.3641  20
  -4   0  29 20.2206 13.5343  11
  -4   0  29 14.5217 8.81692  20
  -4   0  28 10106.3 146.932  11
  -4   0  28 10126.5 127.353  20
  -4   0  27 40.6197 15.1835  11
  -4   0  27 33.1936 12.5304  20
  -4   0  26 19796.4 207.341  11
  -4   0  26 19935.7 184.136  20
  -4   0  25 28.5969 13.0950  11
  -4   0  25 46.0520 13.2957  20
  -4   0  24 1616.10 59.3082  11
  -4   0  24 1694.80 55.0640  20
  -4   0  23 7.82984 7.49713  20
  -4   0  22 1571.46 54.0816  20
  -4   0  21-2.76119 5.72933  20
  -4   0  20 1282.39 49.1225  20
  -4   0  19 8.14447 6.94132  20
  -4   0  18 737.222 37.5562  20
  -4   0  17-8.75936 7.62523  10
  -4   0  17-0.32144 5.25908  20
  -4   0  16 18.7839 7.66264  10
  -4   0  16 16.1340 6.80594  20
  -4   0  15-5.05918 7.84352  10
  -4   0  15-0.56917 5.63939  20
  -4   0  14 10.9290 6.38850  10
  -4   0  14 29.9485 8.74141  20
  -4   0  13-2.60200 7.06191  10
  -4   0  12 2816.64 71.1889  10
  -4   0  11 4.36444 10.5384   2
  -4   0  11-0.02315 5.09885   6
  -4   0  11-6.06267 7.19498  10
  -4   0  10 526.589 38.3327   6
  -4   0  10 270.780 21.9346  10
  -4   0   9 53.9931 12.6259   6
  -4   0   8 1591.17 68.3667   6
  -4   0   7 6.14529 7.95820   6
  -4   0   6 3505.07 104.200   6
  -4   0   5 0.44617 6.53274   6
  -4   0   4 1215.80 63.4782   6
  -4   0   3 19.0360 10.4966   6
  -4   0   2 1701.90 77.0624   6
  -4   0   1 3.72119 9.24517   6
  -4   0   0 3616.78 114.970   6
  -4   0  -1 5.30010 7.45013   6
  -4   0  -2 7250.69 165.128   6
  -4   0  -3 6.04167 8.46741   6
  -4   0  -4 4163.35 127.862   6
  -4   0  -5 2.17106 7.56404   6
  -4   0  -6 1025.57 64.9277   6
  -4   0  -6 1307.31 53.2405  15
  -4   0  -7 0.39895 8.28195   6
  -4   0  -7 11.3562 8.52144  15
  -4   0  -8 5323.76 151.695   6
  -4   0  -8 5641.11 112.535  15
  -4   0  -9 13.1874 11.9982   6
  -4   0  -9 3.09115 7.94151  15
  -4   0 -10 2527.22 108.275   6
  -4   0 -10 2759.77 80.9074  15
  -4   0 -11-1.01564 8.31846   6
  -4   0 -11-3.30126 8.22785  15
  -4   0 -12 25.1282 14.0886   6
  -4   0 -12 0.50506 9.05142  15
  -4   0 -13 2.75842 8.61210   6
  -4   0 -13-11.2869 8.81164  15
  -4   0 -14 1993.52 101.194   6
  -4   0 -14 1944.23 70.6142  15
  -4   0 -15-3.60207 6.70762   6
  -4   0 -15 17.9065 11.3280  15
  -4   0 -16 6609.58 188.690   6
  -4   0 -16 6286.91 128.638  15
  -4   0 -17 15.9229 16.5594   6
  -4   0 -17 78.4642 21.7233  15
  -4   0 -18 22346.3 354.707   6
  -4   0 -18 20814.2 236.485  15
  -4   0 -19 46.5869 24.4694   6
  -4   0 -19 78.5235 21.6361  15
  -4   0 -20 16207.0 208.995  15
  -4   0 -21 43.1903 15.5389  15
  -4   0 -22 203.132 24.0835  15
  -4   0 -23-6.55904 9.28269  15
  -4   0 -24 4444.26 106.279  15
  -4   0 -25 2.44125 7.66127  15
  -4   0 -26 18.9458 8.09780  15
  -4   0 -27 4.26838 7.68274  15
  -4   0 -28 2839.77 76.7215  15
  -4   0 -29-6.27762 6.53791  15
   4   0  30 3.26191 9.10561   7
  -4   0 -30 29.6979 8.80830  15
   4   0  31 4.25819 7.36075   7
   4   0  32 1126.51 49.1547   7
   4   0  33-1.54168 6.78627   7
   4   0  34 84.6581 13.3656   7
   4   0  35-4.32779 6.35134   7
   4   0  36 2.26082 5.27408   7
   4   0  37 5.19980 4.47694   7
   4   0  38 23.1976 6.10809   7
  -4   1  39 8.36467 3.87806  11
  -4  -1  39 6.49626 3.27519  11
  -4   1  38 44.0820 8.05240  11
  -4  -1  38 36.8778 7.00730  11
  -4  -1  37 148.939 13.4855  11
  -4   1  37 165.850 15.3226  11
  -4  -1  36 171.856 15.0770  11
  -4   1  36 161.849 15.9534  11
  -4  -1  35 167.704 15.7273  11
  -4   1  35 177.368 17.4567  11
  -4  -1  34 439.283 26.1171  11
  -4   1  34 442.776 28.0736  11
  -4   1  33 13.9202 7.66299  11
  -4  -1  33 17.6264 7.97037  11
  -4  -1  32 188.314 18.8705  11
  -4   1  32 192.835 20.5370  11
  -4  -1  31 491.319 30.4521  11
  -4   1  31 450.629 26.1817  20
  -4   1  31 464.608 30.9877  11
  -4   1  30 4.58657 8.27619  11
  -4  -1  30 7.82870 8.46653  11
  -4   1  30 2.68619 5.24443  20
  -4  -1  29 168.186 20.1768  11
  -4  -1  29 178.248 16.0300  20
  -4   1  29 176.590 18.4112  20
  -4   1  29 174.787 21.5810  11
  -4  -1  28 6247.02 112.677  11
  -4   1  28 6014.70 101.969  20
  -4  -1  28 6081.49 92.9663  20
  -4   1  28 5891.98 113.644  11
  -4   1  27 37.7514 14.9555  11
  -4   1  27 49.8670 13.7693  20
  -4  -1  27 21.9276 9.15939  20
  -4   1  26 1999.32 60.9920  20
  -4  -1  26 2070.86 56.8448  20
  -4   1  26 1911.47 65.3155  11
  -4   1  25 866.337 44.5268  11
  -4   1  25 808.339 39.3333  20
  -4  -1  25 850.940 37.5492  20
  -4   1  24 987.768 47.1081  11
  -4  -1  24 1021.12 46.5890  19
  -4   1  24 1026.40 44.3220  20
  -4  -1  24 1004.57 41.0626  20
  -4   1  23 571.939 35.9231  11
  -4   1  23 608.021 34.5269  20
  -4  -1  23 596.680 35.2614  19
  -4  -1  23 573.134 32.1336  20
  -4   1  22-4.36566 7.51897  11
  -4  -1  22-1.00903 7.92784  10
  -4   1  22 10.2422 6.65577  20
  -4  -1  22 1.81148 6.01437  20
  -4  -1  22 6.05637 7.20777  19
  -4   1  21 143.831 18.2437  11
  -4  -1  21 120.823 17.0528  10
  -4  -1  21 134.522 16.0534  20
  -4  -1  21 148.482 18.0876  19
  -4   1  21 155.842 18.3238  20
  -4   1  20 777.619 40.5952  11
  -4  -1  20 761.564 40.6741  10
  -4  -1  20 771.183 37.5749  20
  -4  -1  20 828.115 40.4118  19
  -4   1  20 865.995 40.7358  20
  -4   1  19 361.015 28.1000  11
  -4  -1  19 342.219 27.4135  10
  -4  -1  19 341.216 25.5168  20
  -4  -1  19 366.712 27.0593  19
  -4   1  19 405.583 28.4282  20
  -4   1  18 35.7551 11.1438  11
  -4  -1  18 33.3577 9.73004  10
  -4  -1  18 37.1608 17.4367   2
  -4   1  18 39.8834 10.3545  20
  -4  -1  18 29.6239 8.48410  20
  -4  -1  18 35.9442 9.77116  19
  -4  -1  17 78.1119 13.5652  10
  -4  -1  17 84.7018 25.1640   2
  -4   1  17 71.6767 13.5575  20
  -4  -1  17 91.8325 13.5760  20
  -4  -1  17 62.1989 11.5612  19
  -4   1  17 73.0444 11.2631  15
  -4  -1  16 294.758 24.8708  10
  -4  -1  16 325.663 24.6185  19
  -4   1  16 304.896 21.9934  15
  -4   1  16 314.836 25.0199  20
  -4  -1  16 283.600 40.1616   2
  -4   1  15 626.673 42.4989   6
  -4  -1  15 656.335 36.4456  10
  -4  -1  15 636.811 58.0904   2
  -4   1  15 661.818 35.5641  20
  -4  -1  15 700.112 36.9449  22
  -4   1  15 675.102 32.9071  15
  -4  -1  14 0.26350 9.29838   2
  -4   1  14 0.59804 6.38135   6
  -4   1  14 4.74270 8.70337  20
  -4  -1  14 5.31218 6.51713  22
  -4   1  14 4.81103 4.29948  15
  -4   1  13 569.896 41.4787   6
  -4  -1  13 520.689 31.5289  10
  -4   1  13 573.550 33.3280  20
  -4   1  13 548.934 30.5916  15
  -4  -1  13 554.287 32.1006  22
  -4  -1  13 596.106 35.4023  16
  -4  -1  13 589.320 54.9184   2
  -4   1  12 197.835 25.0633   6
  -4  -1  12 182.321 19.1462  10
  -4  -1  12 158.147 18.4459  16
  -4   1  12 191.217 18.6619  15
  -4   1  12 205.654 20.3473  20
  -4  -1  12 199.553 19.2188  22
  -4  -1  12 201.990 31.2908   2
  -4   1  11 2057.66 80.3788   6
  -4  -1  11 2050.57 62.0884  10
  -4   1  11 2040.17 61.4512  20
  -4  -1  11 2051.82 63.8029  16
  -4   1  11 2004.70 58.2668  15
  -4  -1  11 1979.56 96.7493   2
  -4  -1  10 1493.90 52.6375  10
  -4   1  10 1477.43 51.8496  20
  -4  -1  10 1447.49 53.3357  16
  -4   1  10 1500.61 50.9350  15
  -4   1  10 1409.85 67.5189   6
  -4  -1  10 1421.98 81.9711   2
  -4  -1   9 4773.43 92.7024  10
  -4   1   9 4671.94 90.6552  20
  -4  -1   9 4776.93 96.6721  16
  -4   1   9 4679.09 90.7392  15
  -4   1   9 4417.96 120.060   6
  -4  -1   9 4843.62 148.354   2
  -4  -1   8 61576.3 327.633  10
  -4   1   8 62362.3 325.466  20
  -4  -1   8 61512.7 341.821  16
  -4   1   8 61990.3 328.807  15
  -4   1   7 115.106 24.8840   6
  -4  -1   7 107.090 30.5380   2
  -4   1   7 109.633 19.8452  20
  -4  -1   7 75.2063 19.3124  16
  -4   1   7 89.9200 18.5448  15
  -4  -1   6 10939.5 176.012   6
  -4  -1   6 10857.1 215.468   2
  -4   1   6 11145.2 141.932  15
  -4   1   5 2381.17 91.3717   6
  -4  -1   5 2643.14 87.9432   6
  -4   1   4 9517.11 184.494   6
  -4  -1   4 10033.5 175.305   6
  -4   1   3 465.725 41.9714   6
  -4  -1   3 482.988 39.9749   6
  -4   1   2 37150.9 374.186   6
  -4  -1   2 38249.8 353.367   6
  -4   1   1 3509.48 115.863   6
  -4  -1   1 3458.96 108.605   6
  -4   1   0 698.228 52.3791   6
  -4  -1   0 762.526 51.7983   6
  -4   1  -1 1614.43 80.2932   6
  -4  -1  -1 1744.16 78.8751   6
  -4   1  -2 35.0880 14.0027   6
  -4  -1  -2 79.9011 18.6444   6
  -4   1  -3 1131.09 68.2438   6
  -4  -1  -3 1115.05 64.8599   6
  -4   1  -3 1202.85 49.3361  15
  -4   1  -4 323.871 36.8728   6
  -4  -1  -4 370.264 38.2561   6
  -4  -1  -4 425.773 30.0645   9
  -4   1  -4 352.899 27.1269  15
  -4   1  -5 23.9952 10.4725   6
  -4  -1  -5 49.1743 15.4675   6
  -4  -1  -5 58.3835 11.8443   9
  -4   1  -5 44.9916 11.2821  15
  -4  -1  -5 38.2236 10.3800  15
  -4   1  -6 1131.71 69.8046   6
  -4  -1  -6 1195.59 70.2535   6
  -4  -1  -6 1246.61 51.3139   9
  -4   1  -6 1220.13 51.5498  15
  -4  -1  -6 1299.27 54.0997  15
  -4  -1  -6 1161.47 47.5588  14
  -4   1  -7 812.062 59.7414   6
  -4  -1  -7 779.674 57.5985   6
  -4  -1  -7 812.996 41.8084   9
  -4   1  -7 816.651 42.6107  15
  -4  -1  -7 825.137 40.2816  14
  -4   1  -8 3463.26 124.815   6
  -4  -1  -8 3465.05 123.219   6
  -4  -1  -8 3577.80 88.7527   9
   4   1   8 3652.61 87.6145   7
  -4   1  -8 3553.59 89.1806  15
  -4  -1  -8 3475.54 82.9371  14
  -4   1  -9 109.547 24.2299   6
  -4  -1  -9 113.840 23.3184   6
  -4  -1  -9 127.826 18.1118   9
   4   1   9 111.999 16.6489   7
  -4  -1  -9 111.469 16.3667  14
  -4   1  -9 125.742 18.3587  15
  -4   1 -10 1395.68 81.4097   6
  -4  -1 -10 1444.20 82.1260   6
  -4  -1 -10 1426.24 56.8465   9
   4   1  10 1382.91 56.1638   7
  -4   1 -10 1374.11 56.8414  15
  -4  -1 -10 1380.91 52.6666  14
  -4  -1 -11 172.680 23.1420   1
  -4  -1 -11 192.058 30.8724   6
  -4   1 -11 166.871 28.5017   6
  -4  -1 -11 179.298 20.9354   9
   4   1  11 189.871 21.4887   7
  -4   1 -11 213.992 23.4599  15
  -4  -1 -11 191.877 20.1476  14
  -4  -1 -12 92.0369 16.7878   1
  -4   1 -12 63.9167 19.2191   6
  -4  -1 -12 85.0453 20.8292   6
  -4  -1 -12 107.238 17.1756   9
   4   1  12 99.7506 16.3901   7
  -4  -1 -12 83.5808 14.4118  14
  -4   1 -12 84.1766 15.4638  15
  -4  -1 -13 240.782 28.6966   1
  -4   1 -13 250.266 36.7399   6
  -4  -1 -13 217.428 33.0786   6
  -4  -1 -13 251.711 24.7669   9
   4   1  13 245.894 25.0719   7
  -4  -1 -13 265.786 27.6782  13
  -4   1 -13 229.443 24.3894  15
  -4  -1 -13 247.696 23.2924  14
  -4   1 -14 353.447 44.3967   6
  -4  -1 -14 267.449 37.8425   6
  -4  -1 -14 349.389 34.5848   1
   4   1  14 313.850 28.5170   7
  -4  -1 -14 322.152 28.5539   9
  -4   1 -14 290.711 27.6086  15
  -4  -1 -15 15.1376 7.33907   1
  -4   1 -15 16.7927 11.1571   6
  -4  -1 -15 15.2832 11.1670   6
  -4  -1 -15 17.6418 11.1767   9
   4   1  15 24.0044 11.4245   7
  -4  -1 -15 11.4372 9.50781  13
  -4   1 -15 3.66783 7.90289  15
  -4  -1 -16 5857.64 118.825   9
   4   1  16 6312.44 129.693   7
  -4  -1 -16 6206.02 145.378   1
  -4   1 -16 6017.03 178.369   6
  -4  -1 -16 5955.20 180.501   6
  -4  -1 -16 6031.69 137.565  17
  -4  -1 -16 6162.76 135.547  13
  -4   1 -16 5806.05 120.732  15
  -4  -1 -17 33.6667 12.9071   9
   4   1  17 43.9521 17.1742   7
  -4   1 -17 21.0901 15.2808   6
  -4  -1 -17 51.9797 21.2632   6
  -4  -1 -17 16.6276 12.0544   1
  -4  -1 -17 28.1857 15.8975  17
  -4  -1 -17 30.5588 16.6877  13
  -4   1 -17 23.7813 12.5268  15
  -4  -1 -18 5327.78 113.218   9
   4   1  18 5400.08 123.534   7
  -4  -1 -18 5558.27 139.990   1
  -4   1 -18 5392.59 171.725   6
  -4  -1 -18 5486.42 176.927   6
  -4  -1 -18 5303.20 130.982  17
  -4  -1 -18 5425.25 130.918  13
  -4   1 -18 5067.97 112.434  15
  -4  -1 -19 78.7528 17.6549   9
   4   1  19 76.6844 20.7167   7
  -4  -1 -19 87.3121 21.2985   1
  -4  -1 -19 71.5137 20.4180  17
  -4  -1 -19 71.3611 22.7056  13
  -4   1 -19 59.1714 17.7724  15
  -4  -1 -20 6970.41 127.892   9
   4   1  20 7319.37 145.223   7
  -4  -1 -20 6913.67 150.621  17
  -4  -1 -20 6879.03 149.608  13
  -4   1 -20 6854.46 129.913  15
  -4  -1 -21 44.0187 13.2389   9
   4   1  21 53.6550 18.4032   7
  -4  -1 -21 53.9300 18.4191  17
  -4  -1 -21 61.7948 20.6381  13
  -4   1 -21 51.6165 15.4343  15
  -4  -1 -22 6690.98 121.388   9
   4   1  22 6903.70 141.800   7
  -4  -1 -22 6392.67 145.269  17
  -4  -1 -22 6646.95 148.293  13
  -4   1 -22 6635.52 124.697  15
   4   1  23 227.613 27.6107   7
  -4  -1 -23 235.039 29.6883  17
  -4  -1 -23 226.280 29.2558  13
  -4   1 -23 223.896 23.9332  15
   4   1  24 68.7069 15.9926   7
  -4  -1 -24 41.9918 13.6002  17
  -4  -1 -24 51.6210 15.3794  13
  -4   1 -24 86.6695 15.0691  15
   4   1  25 582.361 41.3087   7
  -4  -1 -25 526.842 41.4065  17
  -4  -1 -25 567.798 43.6234  13
  -4   1 -25 566.742 34.3199  15
   4   1  26 1623.22 67.7582   7
  -4  -1 -26 1679.20 73.7508  13
   4   1  27 176.973 23.3793   7
  -4  -1 -27 201.894 26.6134  13
   4   1  28 14.0998 9.85231   7
  -4  -1 -28 14.5263 8.55398  15
   4   1  29 82.1415 15.7688   7
  -4  -1 -29 78.2867 16.9347  13
  -4  -1 -29 90.2912 15.4436  15
   4   1  30 224.389 23.8186   7
  -4  -1 -30 223.210 21.5866  15
   4   1  31 98.4623 16.2597   7
  -4  -1 -31 82.5064 13.2935  15
   4   1  32 109.164 16.0581   7
  -4  -1 -32 107.555 13.8629  15
   4   1  33 46.0006 11.6406   7
  -4  -1 -33 37.5485 8.40383  15
   4   1  34 579.060 31.8604   7
   4  -1  34 585.367 31.8140   7
  -4  -1 -34 590.157 26.8190  15
   4   1  35 7.16476 5.31504   7
   4  -1  35 4.75863 6.11271   7
   4  -1  36 0.62846 4.80986   7
   4   1  36 1.30030 5.21898   7
   4  -1  37 28.1778 7.09458   7
   4   1  37 31.7050 6.88585   7
   4  -1  38 387.477 19.8506   7
   4   1  38 391.048 19.0216   7
   4   2 -38 105.446 10.1892   8
  -4   2  38 124.104 11.9760  11
  -4   2  37 394.074 22.5619  11
  -4  -2  37 346.524 17.5748  11
  -4   2  36-2.20905 5.10891  11
  -4  -2  36-2.37896 4.47048  11
  -4  -2  36-2.54053 4.47650  21
  -4  -2  35 207.311 15.8582  21
  -4   2  35 200.674 18.0290  11
  -4  -2  35 194.395 15.3618  11
  -4  -2  34 197.672 16.6114  21
  -4  -2  34 192.035 16.2402  11
  -4   2  34 200.663 19.0592  11
  -4  -2  33 392.909 23.8490  11
  -4  -2  33 475.169 26.0724  21
  -4   2  33 484.060 29.7225  11
  -4  -2  32 254.261 20.1804  11
  -4  -2  32 273.564 20.8837  21
  -4   2  32 261.325 22.7972  11
  -4   2  31 78.7768 14.7903  11
  -4  -2  31 86.6141 12.7898  11
  -4  -2  31 92.0495 13.4634  21
  -4  -2  30 2444.64 64.1290  21
  -4   2  30 2435.12 70.6452  11
  -4  -2  29 1884.86 57.7895  21
  -4   2  29 1945.03 64.4165  11
  -4  -2  28 4439.32 89.6066  21
  -4   2  28 4336.35 87.2680  20
  -4   2  28 4326.47 96.7403  11
  -4  -2  27 2748.43 76.0046  19
  -4  -2  27 2747.29 71.8053  21
  -4   2  27 2741.19 70.7476  20
  -4   2  27 2704.67 77.7574  11
  -4  -2  26 13665.1 169.520  19
  -4  -2  26 14002.6 163.187  21
  -4   2  26 14218.6 162.375  20
  -4   2  26 13592.0 173.649  11
  -4  -2  25 248.924 25.7942  19
  -4   2  25 267.642 25.0467  20
  -4   2  25 269.518 27.2468  11
  -4  -2  24 2803.28 76.8632  10
  -4  -2  24 2957.60 66.7942  20
  -4  -2  24 2825.33 77.5966  19
  -4   2  24 2855.32 74.6015  20
  -4   2  24 2778.80 79.2958  11
  -4  -2  23 567.182 35.3281  10
  -4  -2  23 575.882 35.4584  19
  -4  -2  23 595.836 30.8964  20
  -4   2  23 565.755 33.9576  20
  -4   2  23 633.376 38.3742  11
  -4   2  22 129.441 18.1348  11
  -4  -2  22 121.833 18.1709  10
  -4  -2  22 113.248 14.5706  20
  -4  -2  22 110.783 16.4607  19
  -4   2  22 132.857 17.8255  20
  -4  -2  21 645.622 37.9851  10
  -4  -2  21 566.581 31.5226  20
  -4  -2  21 600.276 35.6819  19
  -4   2  21 611.208 35.4963  20
  -4   2  21 602.015 37.0522  11
  -4  -2  20 3515.73 87.5244  10
  -4  -2  20 3434.69 76.8763  20
  -4   2  20 3484.21 82.7793  20
  -4  -2  20 3444.88 84.3251  19
  -4   2  20 3373.63 85.9172  11
  -4  -2  19 212.792 23.3027  10
  -4  -2  19 156.279 33.0580   2
  -4  -2  19 190.481 19.2045  20
  -4  -2  19 195.699 20.8752  19
  -4   2  19 203.164 21.8265  20
  -4   2  19 200.615 22.5035  11
  -4  -2  18 1998.90 65.8078  10
  -4  -2  18 1787.82 106.551   2
  -4  -2  18 1986.11 63.0702  19
  -4   2  18 2018.58 62.8613  20
  -4   2  18 2027.61 65.8400  11
  -4   2  17 14.2000 9.50894  11
  -4  -2  17-5.48859 10.1803  10
  -4  -2  17 28.0768 16.6951   2
  -4   2  17 7.96352 9.07759   6
  -4   2  17 11.5233 8.41633  20
  -4  -2  17 2.29592 6.73405  22
  -4  -2  17 23.2478 10.0314  19
  -4   2  16 671.057 47.2939   6
  -4  -2  16 733.069 39.7755  10
  -4  -2  16 687.859 66.1666   2
  -4   2  16 817.022 37.8539  15
  -4  -2  16 758.419 38.6974  19
  -4  -2  16 781.297 41.6688  22
  -4   2  16 802.510 39.5042  20
  -4   2  16 786.558 40.2778  11
  -4   2  15 542.057 43.3212   6
  -4  -2  15 548.038 34.3186  10
  -4  -2  15 536.156 57.9555   2
  -4  -2  15 543.264 34.4982  16
  -4   2  15 584.986 32.2979  15
  -4  -2  15 574.957 35.3474  22
  -4   2  15 538.228 32.4116  20
  -4   2  15 611.295 35.0141  11
  -4  -2  14 24.5506 8.49481  10
  -4   2  14 58.0574 13.1541  11
  -4  -2  14 58.0879 21.7239   2
  -4   2  14 30.8572 12.2073   6
  -4   2  14 34.4453 9.61007  20
  -4  -2  14 15.8650 9.92465  16
  -4   2  14 32.3391 8.96148  15
  -4   2  13 1916.04 59.5909  11
  -4   2  13 1752.20 77.9453   6
  -4  -2  13 1875.05 62.3731  10
  -4  -2  13 1868.19 63.6591  16
  -4   2  13 1834.56 57.0501  15
  -4   2  13 1887.82 59.8302  20
  -4  -2  13 1895.73 104.294   2
  -4   2  12 559.693 45.1013   6
  -4  -2  12 639.705 36.7094  10
  -4  -2  12 562.785 35.2682  16
  -4   2  12 597.382 34.4503  20
  -4   2  12 671.113 34.8923  15
  -4  -2  12 631.639 60.3288   2
  -4   2  11 1157.70 64.1408   6
  -4  -2  11 1226.92 50.1307  10
  -4  -2  11 1237.71 51.4893  16
  -4   2  11 1195.59 46.6317  15
  -4   2  11 1254.27 48.6341  20
  -4  -2  11 1230.50 82.6557   2
  -4   2  10 5758.78 143.881   6
  -4  -2  10 5972.68 110.031  10
  -4   2  10 6125.18 105.568  15
  -4  -2  10 5911.82 111.817  16
  -4   2  10 5765.28 102.915  20
  -4  -2  10 5879.98 178.548   2
  -4   2   9 4444.81 128.381   6
  -4  -2   9 4710.89 98.0331  10
  -4   2   9 4845.01 94.1903  15
  -4  -2   9 4785.09 100.950  16
  -4   2   9 4658.65 92.1020  20
  -4  -2   9 4720.33 159.446   2
  -4  -2   8 6503.90 114.611  10
  -4   2   8 6356.38 109.482  15
  -4  -2   8 6352.81 116.414  16
  -4   2   8 6398.81 106.292  20
  -4   2   8 6193.13 153.142   6
  -4  -2   8 6200.77 180.659   2
  -4  -2   7 3.77898 7.34872  10
  -4  -2   7 20.7657 16.6881   2
  -4   2   7 19.5509 13.0378   6
  -4   2   7 13.4701 8.51300  20
  -4  -2   7 21.5033 11.8946  16
  -4  -2   6 18.8475 9.22264  10
  -4  -2   6 42.1212 17.8703   2
  -4   2   6 16.8165 10.6065   6
  -4   2   6 34.6854 9.49808  20
  -4  -2   6 22.0156 9.57833  16
  -4  -2   6 24.8296 9.82266  14
  -4   2   6 29.1482 10.3334  15
  -4  -2   5 1480.10 54.6377  10
  -4   2   5 1459.85 75.5881   6
  -4  -2   5 1491.76 86.0078   2
  -4   2   5 1597.16 52.0006  20
  -4   2   5 1546.38 54.6998  15
  -4  -2   5 1437.25 56.3202  16
  -4  -2   5 1659.41 58.6287  14
  -4   2   4 3021.76 109.252   6
  -4  -2   4 3141.45 124.306   2
  -4   2   4 3161.48 71.9138  20
  -4  -2   4 2911.37 79.9120  16
  -4   2   4 3267.68 79.6538  15
  -4  -2   4 3304.67 82.6998  14
  -4   2   3 242.382 32.2286   6
  -4   2   3 283.227 22.5611  20
  -4   2   3 240.820 23.0648  15
  -4  -2   3 314.300 26.3840  14
  -4   2   2 2559.69 101.348   6
  -4   2   2 2649.59 72.7051  15
  -4  -2   2 2766.59 76.0548  14
  -4   2   1 1834.85 60.8631  15
  -4  -2   1 1904.08 63.4583  14
  -4   2   0 398.711 41.4062   6
  -4  -2   0 433.723 31.5629   9
  -4   2   0 420.331 29.9889  15
  -4  -2   0 379.644 28.2108  15
  -4  -2   0 389.291 29.4902  14
  -4   2  -1 3294.62 118.113   6
  -4  -2  -1 3491.47 111.413   6
  -4  -2  -1 3688.92 89.7553   9
  -4  -2  -1 3558.35 85.8613  15
  -4   2  -1 3403.08 84.0100  15
  -4  -2  -1 3499.96 86.6353  14
  -4   2  -2 16384.9 264.938   6
  -4  -2  -2 16185.7 243.682   6
   4   2   2 15979.6 177.526   7
  -4  -2  -2 16640.3 187.497  15
  -4   2  -2 16008.0 181.871  15
  -4  -2  -2 16441.9 188.509  14
  -4   2  -3 971.862 66.5853   6
  -4  -2  -3 932.780 60.1085   6
  -4  -2  -3 998.687 47.7349   9
   4   2   3 945.248 44.1957   7
  -4  -2  -3 957.456 46.1964  15
  -4   2  -3 977.056 45.8982  15
  -4  -2  -3 968.462 46.3765  14
  -4   2  -4 60.4533 19.1168   6
  -4  -2  -4 70.6584 17.9339   6
  -4  -2  -4 89.7659 16.2163   9
   4   2   4 74.5907 14.5851   7
  -4  -2  -4 67.7547 15.3116  14
  -4   2  -4 87.5128 15.5654  15
  -4   2  -5 5737.11 162.601   6
  -4  -2  -5 5661.25 152.340   6
  -4  -2  -5 5900.34 116.990   9
   4   2   5 5676.84 110.016   7
  -4   2  -5 5626.27 110.202  15
  -4  -2  -5 5718.24 113.146  14
  -4   2  -6 5294.81 156.241   6
  -4  -2  -6 5067.42 145.605   6
  -4  -2  -6 5221.39 111.249   9
   4   2   6 5167.76 106.817   7
  -4   2  -6 5165.08 104.970  15
  -4  -2  -6 5302.06 109.543  14
  -4   2  -7 546.507 51.1336   6
  -4  -2  -7 525.402 36.2344   9
   4   2   7 541.280 35.5572   7
  -4  -2  -7 527.496 35.4724  14
  -4   2  -7 533.982 34.2327  15
  -4   2  -8 662.176 57.0735   6
  -4  -2  -8 663.805 54.0515   6
  -4  -2  -8 654.640 40.6836   9
   4   2   8 730.799 41.7662   7
  -4  -2  -8 698.732 40.8269  14
  -4   2  -8 705.187 39.6093  15
  -4   2  -9 118.066 25.3304   6
  -4  -2  -9 115.509 23.4986   6
   4   2   9 122.763 18.3750   7
  -4  -2  -9 150.562 20.9373  14
  -4   2  -9 123.801 17.9498  15
  -4   2 -10 4538.15 149.449   6
  -4  -2 -10 3914.37 136.757   6
  -4  -2 -10 4192.20 103.622   9
  -4   2 -10 4458.66 97.6089   8
   4   2  10 4286.41 103.392   7
  -4  -2 -10 4076.84 98.2853  14
  -4   2 -10 4077.67 95.5877  15
  -4   2 -11 47.4607 16.7492   6
   4   2  11 47.7496 13.6654   7
  -4  -2 -11 44.8973 13.1137   9
  -4  -2 -11 36.0025 13.2561  14
  -4   2 -11 37.8107 12.6000  15
  -4   2 -12 509.790 51.2349   6
   4   2  12 442.320 34.3206   7
  -4  -2 -12 425.730 33.4583   9
  -4  -2 -12 411.090 32.0964  14
  -4  -2 -12 473.693 35.7183  13
  -4   2 -12 378.024 30.1731  15
   4   2  13 525.864 37.9270   7
  -4  -2 -13 533.075 37.7348   9
  -4  -2 -13 517.170 45.5772   1
  -4   2 -13 501.248 51.5391   6
  -4  -2 -13 552.143 41.6556  17
  -4  -2 -13 470.110 34.1873  14
  -4  -2 -13 544.162 39.0193  13
  -4   2 -13 505.193 34.0383  15
   4   2  14 267.397 27.6933   7
  -4  -2 -14 292.207 28.1586   9
  -4  -2 -14 277.810 34.0182   1
  -4   2 -14 268.079 37.6519   6
  -4  -2 -14 280.335 30.1653  17
  -4  -2 -14 388.023 30.9095  14
  -4  -2 -14 298.350 29.7353  13
  -4   2 -14 258.376 24.5684  15
   4   2  15 16.8802 11.4981   7
  -4  -2 -15 44.6705 14.8793   9
  -4   2 -15 32.0192 17.7609   6
  -4  -2 -15 32.4888 15.2758   1
  -4  -2 -15 37.9490 16.9234  17
  -4  -2 -15 46.7634 14.8411  14
  -4  -2 -15 36.8725 14.7574  13
  -4   2 -15 14.6564 9.19531  15
   4   2  16 10105.3 167.675   7
  -4  -2 -16 9613.43 160.457   9
  -4   2 -16 10511.5 236.857   6
  -4  -2 -16 10239.0 200.765   1
  -4  -2 -16 10349.3 182.181  17
  -4  -2 -16 9340.02 149.130  14
  -4  -2 -16 10348.7 173.287  13
  -4   2 -16 9757.79 147.184  15
   4   2  16 9620.28 154.633  12
   4   2  17 1365.81 63.8352   7
  -4  -2 -17 1224.32 58.2696   9
  -4  -2 -17 1297.36 72.6988   1
  -4  -2 -17 1328.65 67.2585  17
  -4  -2 -17 1311.88 56.3839  14
  -4  -2 -17 1336.29 63.7915  13
  -4   2 -17 1249.87 52.9680  15
   4   2  17 1266.27 58.0761  12
   4   2  18 5153.79 122.262   7
  -4  -2 -18 4816.97 113.947   9
  -4  -2 -18 5124.12 130.146  17
  -4  -2 -18 5053.09 108.460  14
  -4  -2 -18 5060.85 124.358  13
  -4   2 -18 4966.78 103.388  15
   4   2  18 4800.81 112.665  12
   4   2  19 1052.40 57.0107   7
  -4  -2 -19 1052.22 54.1933   9
  -4  -2 -19 1001.21 60.0590  17
  -4  -2 -19 1066.71 50.1277  14
  -4  -2 -19 1010.84 57.1654  13
  -4   2 -19 1039.32 47.4964  15
   4   2  19 1020.41 53.7235  12
   4   2  20 15116.3 210.918   7
  -4  -2 -20 14745.8 196.164   9
  -4  -2 -20 14172.2 217.749  17
  -4  -2 -20 14838.1 180.639  14
   4   2  20 14098.9 197.295  12
  -4  -2 -20 14221.1 210.295  13
   4   2  21 67.1089 20.4693   7
  -4  -2 -21 77.3014 16.5975   9
  -4  -2 -21 98.5431 24.6179  17
  -4  -2 -21 80.4702 21.0923  13
   4   2  21 71.0324 18.5868  12
   4   2  22 86.9417 19.0120   7
  -4  -2 -22 46.6486 12.6766   9
  -4  -2 -22 56.4646 16.7893  17
  -4  -2 -22 63.9080 15.0581  13
   4   2  22 66.5334 15.9098  12
   4   2  23 447.595 36.8490   7
  -4  -2 -23 445.575 33.7375   9
  -4  -2 -23 448.032 39.4749  17
  -4  -2 -23 423.895 37.5772  13
   4   2  23 406.098 34.6406  12
   4   2  24 2900.16 91.3218   7
  -4  -2 -24 2799.82 80.8232   9
  -4  -2 -24 2813.33 95.7985  17
  -4  -2 -24 2907.11 95.6959  13
   4   2  24 2733.24 87.1522  12
   4   2  25 538.067 39.3649   7
  -4  -2 -25 504.395 33.8807   9
  -4  -2 -25 493.545 40.1848  17
  -4  -2 -25 492.246 39.8034  13
   4   2  25 523.776 38.2165  12
   4   2  26 303.396 30.1775   7
  -4  -2 -26 303.555 25.6148   9
  -4  -2 -26 360.647 34.0186  17
  -4  -2 -26 322.682 31.9117  13
   4   2  26 281.994 28.0291  12
  -4  -2 -27 2379.13 66.7939   9
   4   2  27 2368.74 79.7698   7
  -4  -2 -27 2278.57 82.1805  17
  -4  -2 -27 2296.84 81.1772  13
  -4  -2 -28 220.926 19.9139   9
   4   2  28 259.402 26.7915   7
  -4  -2 -28 235.225 26.5133  17
  -4  -2 -28 231.499 26.7396  13
   4   2  28 230.359 24.1935  12
   4   2  29 14.0906 10.3848   7
  -4  -2 -29 4.04544 7.22262  13
   4   2  29 5.02848 4.68266  12
   4   2  30 543.260 35.0776   7
  -4  -2 -30 525.234 36.2506  13
   4   2  30 502.178 32.5363  12
   4   2  31 232.651 22.4857   7
  -4  -2 -31 234.148 21.4064  15
   4   2  31 204.188 19.7099  12
   4   2  32 170.327 18.8095   7
  -4  -2 -32 164.774 17.1416  15
   4   2  32 138.097 15.2243  12
   4   2  33 40.3010 9.55786   7
   4   2  33 36.2376 7.56201  12
  -4  -2 -33 35.3617 8.48989  15
   4   2  34 6.23576 5.14854   7
   4   2  34-1.16109 3.28468  12
  -4  -2 -34-1.54813 4.60895  15
   4   2  35 282.689 19.4867   7
   4   2  35 244.157 15.8316  12
  -4  -2 -35 280.770 17.4761  15
   4  -2  36-1.83792 4.20260   7
   4   2  36-3.73234 4.63439   7
   4  -2  37 49.6719 7.79182   7
   4   3 -36 11.8503 4.78677   8
   4   3 -35 238.297 17.1130   8
  -4  -3  35 220.171 14.9245  21
  -4  -3  35 214.115 13.1089  11
  -4   3  35 242.760 17.8790  11
  -4  -3  34 447.516 22.4816  21
  -4   3  34 443.289 25.1542  11
  -4  -3  34 412.220 19.8209  11
  -4   3  33 37.9852 9.59599  11
  -4  -3  33 28.1248 6.25891  11
  -4  -3  33 48.6444 8.80532  21
  -4   3  32 23.8554 8.88463  11
  -4  -3  32 19.8777 6.51260  11
  -4  -3  32 14.3885 6.43933  21
  -4  -3  31 1096.43 38.1501  11
  -4  -3  31 1153.22 41.1264  21
  -4   3  31 1156.45 45.4219  11
  -4   3  30 19.0829 9.28869  11
  -4  -3  30 17.7784 7.75624  11
  -4  -3  30 1.84337 6.72450  21
  -4  -3  29 1983.90 59.2204  19
  -4  -3  29 1998.59 57.5905  21
  -4   3  29 1925.06 61.1826  11
  -4  -3  28 1698.65 56.2045  19
  -4  -3  28 1742.19 55.4212  21
  -4   3  28 1686.97 58.9072  11
  -4  -3  27 454.565 30.6447  19
  -4   3  27 446.588 31.3424  11
  -4  -3  26 3199.29 80.0678  19
  -4   3  26 3118.81 81.8247  11
  -4  -3  25 937.211 42.7010  10
  -4  -3  25 939.233 44.1356  19
  -4   3  25 935.440 45.7269  11
  -4  -3  24 988.314 44.2655  10
  -4  -3  24 985.557 45.7687  19
  -4   3  24 1083.96 46.2737  20
  -4   3  24 1002.03 47.4940  11
  -4  -3  23 860.670 41.6968  10
  -4  -3  23 835.436 42.3710  19
  -4   3  23 860.601 41.7915  20
  -4   3  23 895.384 44.9550  11
  -4   3  22 37.4226 10.7184  11
  -4  -3  22 30.7223 9.92778  10
  -4   3  22 31.1985 10.5692  20
   4   3 -22 17.1355 7.42220  18
  -4  -3  22 39.0609 9.75271  19
  -4  -3  21 398.639 29.6642  10
  -4  -3  21 369.000 28.5814  19
  -4   3  21 370.974 28.4101  20
   4   3 -21 412.882 25.7413  18
  -4   3  21 398.701 30.7692  11
  -4  -3  20 1882.72 63.7114  10
  -4  -3  20 1772.69 61.4615  19
  -4   3  20 1836.45 61.0830  20
   4   3 -20 1892.05 55.5898  18
  -4   3  20 1819.73 64.1394  11
  -4  -3  19 662.861 38.1661  10
  -4  -3  19 683.460 33.5132  20
  -4  -3  19 605.616 36.4310  19
  -4  -3  19 677.935 39.5716  22
  -4   3  19 654.229 37.3595  20
   4   3 -19 636.304 33.3479  18
  -4   3  19 623.835 37.8122  11
  -4  -3  18 277.705 25.1234  10
   4   3 -18 286.697 23.0308  18
  -4  -3  18 266.203 24.7971  19
  -4  -3  18 270.908 25.7182  22
  -4   3  18 293.678 25.1932  20
  -4   3  18 278.729 25.4722  11
  -4  -3  17 2313.34 71.4579  10
   4   3 -17 2259.98 63.1556  18
  -4   3  17 2327.25 69.0543  20
  -4  -3  17 2124.58 69.4049  22
  -4   3  17 2206.74 68.5089  11
  -4  -3  16 2113.57 68.3762  10
  -4  -3  16 1994.01 66.9297  22
  -4   3  16 2150.34 65.9986  20
  -4  -3  16 1977.60 66.3875  16
  -4  -3  15 111.247 17.8515  10
  -4  -3  15 89.9389 15.6716  16
  -4   3  15 119.185 17.6577  20
  -4  -3  14 724.783 40.6175  10
  -4  -3  14 724.489 40.8317  16
  -4   3  14 745.750 38.6826  20
  -4  -3  14 727.259 68.7613   2
  -4   3  13 479.633 42.8042   6
  -4  -3  13 444.477 32.2977  10
  -4  -3  13 456.643 55.4551   2
  -4  -3  13 479.422 33.7522  16
  -4   3  13 500.156 31.9969  20
  -4  -3  12 76.6691 16.2941  10
  -4  -3  12 65.0439 26.4814   2
  -4   3  12 78.3479 19.7749   6
  -4   3  12 69.9552 15.3047  20
  -4  -3  12 71.9463 15.8101  16
  -4   3  12 67.8564 15.7255  15
  -4   3  11 10516.3 202.053   6
  -4  -3  11 10489.6 153.591  10
  -4   3  11 11181.9 146.052  15
  -4  -3  11 10921.8 157.582  16
  -4   3  11 10868.9 142.808  20
  -4  -3  11 10706.4 257.648   2
  -4   3  10 450.228 43.2314   6
  -4  -3  10 464.353 34.9072  10
  -4   3  10 500.631 33.3773  15
  -4  -3  10 465.059 35.4711  16
  -4   3  10 497.989 32.4158  20
  -4  -3  10 504.511 57.9293   2
  -4   3   9 17472.3 262.596   6
  -4  -3   9 17313.4 197.551  10
  -4  -3   9 17773.9 327.268   2
  -4  -3   9 17912.2 204.253  16
  -4   3   9 17487.8 184.998  15
  -4   3   9 17864.2 178.813  20
  -4   3   8 26953.9 332.827   6
  -4  -3   8 26355.0 243.691  10
  -4  -3   8 26318.8 395.149   2
  -4  -3   8 26539.2 249.069  16
  -4   3   8 26284.9 214.584  20
  -4   3   8 25856.6 224.496  15
  -4  -3   8 26503.3 238.317  14
  -4  -3   7 187.271 25.3649  10
  -4  -3   7 208.746 39.4567   2
  -4   3   7 156.721 28.7674   6
  -4  -3   7 194.359 25.9050  16
  -4   3   7 185.756 23.2369  15
  -4   3   7 200.758 21.9163  20
  -4  -3   7 224.408 26.6259  14
  -4   3   6 8723.05 191.469   6
  -4  -3   6 8494.71 220.321   2
  -4  -3   6 8839.25 144.835  16
  -4   3   6 8807.19 132.477  15
  -4   3   6 8861.25 121.006  20
  -4  -3   6 8926.51 140.059  14
  -4   3   5 4480.41 138.020   6
  -4  -3   5 4401.48 158.348   2
  -4  -3   5 4121.94 99.2662  16
  -4   3   5 4388.27 84.2099  20
  -4   3   5 4300.90 92.9119  15
  -4  -3   5 4409.51 99.5456  14
   4   3  -4 2341.65 67.6419   7
  -4  -3   4 2043.34 101.305   4
  -4   3   4 2377.89 101.685   6
  -4  -3   4 2299.30 113.830   2
  -4   3   4 2192.35 66.4702  15
  -4  -3   4 2212.76 70.9289  14
   4   3  -3 123.865 17.8678   7
  -4  -3   3 140.606 34.7276   2
  -4  -3   3 53.8227 16.7082   4
  -4   3   3 107.652 26.7243   6
  -4   3   3 154.378 21.2375  15
  -4  -3   3 140.864 22.8843  14
   4   3  -2 23428.4 219.098   7
  -4  -3   2 23076.2 339.329   4
  -4   3   2 23208.3 217.158  15
  -4  -3   2 23829.5 234.266  14
  -4  -3   1 19500.7 210.022   9
   4   3  -1 18749.6 199.501   7
  -4  -3   1 19345.0 308.551   4
  -4   3   1 20143.5 298.260   6
  -4   3   1 19392.2 199.096  15
  -4  -3   1 19824.2 215.262  14
  -4  -3   0 11818.8 165.035   9
   4   3   0 11342.7 157.469   7
  -4  -3   0 11775.9 237.323   4
  -4   3   0 11713.2 154.629  15
  -4  -3   0 11813.7 168.006  14
  -4  -3  -1 2940.80 83.6569   9
   4   3   1 2706.50 77.9137   7
  -4  -3  -1 2781.86 115.376   4
  -4   3  -1 2994.47 118.082   6
  -4   3  -1 2837.18 77.0833  15
  -4  -3  -1 2972.18 84.9988  14
  -4  -3  -2 640.187 40.1307   9
   4   3   2 625.714 38.3306   7
  -4  -3  -2 542.642 50.3653   4
  -4   3  -2 636.851 54.7772   6
  -4   3  -2 630.762 37.4033  15
  -4  -3  -2 644.426 37.4622  15
  -4  -3  -2 626.653 40.0953  14
  -4  -3  -3 4143.16 100.868   9
   4   3   3 4098.90 97.3003   7
  -4  -3  -3 4049.68 134.870   4
  -4   3  -3 4459.98 144.979   6
  -4   3  -3 4205.86 93.3234  15
  -4  -3  -3 4247.23 102.394  14
  -4  -3  -4 202.801 23.7276   9
  -4   3  -4 197.244 23.9689   8
   4   3   4 156.942 19.8599   7
  -4  -3  -4 96.2797 17.3530   4
  -4   3  -4 178.373 29.8780   6
  -4   3  -4 166.678 19.6284  15
  -4  -3  -4 175.968 22.4029  14
  -4  -3  -5-19.2994 19.4018   4
  -4   3  -5 0.28999 9.05235   6
  -4  -3  -5 8.84991 8.31823   9
   4   3   5 3.23266 6.25487   7
  -4   3  -5 25.1145 12.2155   8
  -4  -3  -5 12.0056 10.3915  14
  -4   3  -5 2.05902 6.72220  15
  -4  -3  -6 771.524 45.5401   9
  -4   3  -6 791.173 45.0813   8
   4   3   6 730.885 42.7698   7
  -4  -3  -6 764.017 57.9916   4
  -4   3  -6 790.370 62.1355   6
  -4   3  -6 728.086 39.7524  15
  -4  -3  -6 730.863 43.7219  14
  -4  -3  -7 2118.46 74.9217   9
  -4   3  -7 2149.26 73.8180   8
   4   3   7 1980.44 70.6720   7
  -4  -3  -7 2057.89 94.9365   4
  -4   3  -7 2040.56 99.0752   6
  -4  -3  -7 1960.06 93.2755   6
  -4   3  -7 1983.11 64.2883  15
  -4  -3  -7 1936.31 70.4092  14
  -4  -3  -8 2701.43 84.8952   9
  -4   3  -8 2642.52 82.3372   8
   4   3   8 2584.26 81.4050   7
  -4  -3  -8 2520.62 103.869   4
  -4   3  -8 2779.06 116.559   6
  -4  -3  -8 2505.34 107.183   6
  -4   3  -8 2585.57 73.6031  15
  -4  -3  -8 2614.28 81.6777  14
  -4  -3  -9 1093.99 55.1148   9
  -4   3  -9 1082.81 53.0318   8
   4   3   9 1089.72 53.7246   7
  -4  -3  -9 1065.38 67.5262   4
  -4   3  -9 1017.87 70.8956   6
  -4   3  -9 1070.15 47.1369  15
  -4  -3  -9 1040.19 52.0522  14
  -4  -3 -10 67.7995 21.6648   4
  -4   3 -10 67.8859 21.3426   6
  -4  -3 -10 57.7285 15.9073   9
   4   3  10 47.3269 14.3446   7
  -4   3 -10 64.6102 14.4720   8
  -4  -3 -10 44.7129 13.8628  14
  -4   3 -10 58.9375 11.8087  15
  -4  -3 -11 779.034 46.9253   9
  -4   3 -11 795.455 45.3378   8
   4   3  11 773.576 46.1160   7
  -4  -3 -11 696.819 55.1473   4
  -4   3 -11 772.976 63.1761   6
  -4   3 -11 754.332 39.8188  15
  -4  -3 -11 743.965 44.3563  14
  -4  -3 -12 3840.23 103.259   9
  -4   3 -12 3865.41 99.1467   8
   4   3  12 3938.12 103.974   7
  -4  -3 -12 3857.41 125.649   4
  -4   3 -12 3849.78 139.900   6
  -4   3 -12 3971.61 89.2498  15
  -4  -3 -12 3830.22 99.6259  14
  -4  -3 -13 488.092 38.1718   9
  -4   3 -13 521.136 37.3103   8
   4   3  13 453.210 36.0768   7
  -4   3 -13 477.243 31.1676  15
  -4  -3 -13 525.113 41.6878  17
  -4  -3 -13 488.697 37.0977  14
  -4  -3 -13 520.844 36.8700  13
  -4  -3 -14 750.928 45.9848   9
  -4   3 -14 797.440 44.8773   8
   4   3  14 703.620 44.7342   7
  -4  -3 -14 788.665 50.3755  17
  -4  -3 -14 781.684 45.2293  13
   4   3  14 699.147 42.0668  12
  -4  -3 -15 162.523 24.0920   9
  -4   3 -15 144.933 20.1977   8
   4   3  15 115.057 20.0551   7
  -4  -3 -15 147.803 24.6521  17
  -4  -3 -15 156.779 22.6857  13
   4   3  15 104.859 17.9857  12
  -4  -3 -16 4171.31 108.206   9
  -4   3 -16 4512.62 103.321   8
   4   3  16 4323.01 111.839   7
  -4  -3 -16 4527.44 119.800  17
  -4  -3 -16 4314.95 107.720  13
  -4  -3 -17 104.379 20.0355   9
   4   3  17 93.6111 20.1293   7
  -4  -3 -17 93.3962 21.4309  17
  -4  -3 -17 94.3917 17.6936  14
  -4  -3 -17 124.627 20.7278  13
   4   3  17 58.5682 14.2051  12
  -4  -3 -18 3020.24 91.3797   9
   4   3  18 3049.41 94.8776   7
  -4  -3 -18 3179.63 101.466  17
  -4  -3 -18 3001.79 87.1229  14
  -4  -3 -18 3140.81 93.2040  13
  -4  -3 -19 431.371 36.5493   9
   4   3  19 458.084 39.1595   7
  -4  -3 -19 417.950 39.0493  17
  -4  -3 -19 447.069 34.5613  14
  -4  -3 -19 464.766 37.5523  13
   4   3  19 367.238 32.5855  12
  -4  -3 -20 3759.53 100.045   9
   4   3  20 3780.92 104.796   7
  -4  -3 -20 3748.82 109.916  17
  -4  -3 -20 3639.69 93.0677  14
  -4  -3 -20 3718.35 101.848  13
  -4  -3 -21 231.677 25.6198   9
   4   3  21 287.856 30.2855   7
  -4  -3 -21 290.747 32.9938  17
  -4  -3 -21 242.616 24.3079  14
  -4  -3 -21 264.017 28.6176  13
   4   3  21 207.021 24.4165  12
  -4  -3 -22 239.706 25.7261   9
   4   3  22 250.557 28.2857   7
  -4  -3 -22 210.706 27.5044  17
  -4  -3 -22 212.904 22.5944  14
  -4  -3 -22 225.240 26.1609  13
   4   3  22 205.044 24.2369  12
  -4  -3 -23 1070.68 51.3552   9
   4   3  23 1134.95 55.9094   7
  -4  -3 -23 1127.71 59.1186  17
  -4  -3 -23 1083.85 47.7126  14
  -4  -3 -23 1097.66 54.5922  13
   4   3  24 26.0843 12.4823   7
  -4  -3 -24 18.2130 11.2771  17
  -4  -3 -24 7.32742 6.44578  14
  -4  -3 -24 7.46267 6.72412  13
   4   3  24 16.2663 9.23990  12
  -4  -3 -25 1974.59 65.5663   9
   4   3  25 2066.93 72.3304   7
  -4  -3 -25 1963.73 75.4015  17
  -4  -3 -25 2026.32 60.0934  14
  -4  -3 -25 1891.24 69.8719  13
  -4  -3 -26 329.189 26.8629   9
   4   3  26 303.195 28.9698   7
  -4  -3 -26 289.602 29.5917  17
  -4  -3 -26 279.552 26.7692  13
   4   3  26 236.622 23.4462  12
  -4  -3 -27 342.336 26.1515   9
   4   3  27 327.610 28.5273   7
  -4  -3 -27 339.639 31.0990  17
  -4  -3 -27 295.511 27.1712  13
   4   3  27 274.195 24.4611  12
  -4  -3 -28 1044.99 42.4923   9
   4   3  28 1016.21 47.2342   7
  -4  -3 -28 946.085 46.2784  13
  -4  -3 -29 316.742 22.5933   9
   4   3  29 345.284 26.9175   7
  -4  -3 -29 330.972 27.0137  13
   4   3  29 299.495 24.1581  12
  -4  -3 -30 97.5585 12.4098   9
   4   3  30 85.7037 13.7450   7
   4   3  30 96.4193 13.7343  12
  -4  -3 -31 255.740 17.2035   9
   4   3  31 236.870 20.3632   7
   4   3  31 208.900 18.2595  12
   4   3  32 22.9554 7.14217   7
  -4  -3 -32 28.0791 7.62013  15
   4   3  33 199.003 16.0792   7
  -4  -3 -33 197.663 16.3833  15
   4   3  34 174.705 13.8917   7
  -4  -3 -34 183.729 14.3976  15
   4   4 -34 382.424 19.1341   8
   4   4 -33 15.3436 5.29619   8
  -4  -4  33 24.0113 5.95274  21
   4   4 -32 485.575 24.3826   8
  -4  -4  32 466.892 22.5139  21
   4   4 -31 10.8938 6.41181   8
  -4  -4  31 14.3694 5.00899  11
  -4  -4  31 12.4689 6.14941  21
  -4  -4  30 252.173 16.6358  11
   4   4 -30 256.671 20.1431   8
  -4  -4  30 261.209 19.1066  21
  -4  -4  29 2580.84 53.9092  11
   4   4 -29 2785.21 65.7758   8
  -4  -4  29 2790.02 62.9662  19
  -4  -4  29 2800.87 62.0934  21
  -4  -4  28 545.242 29.7719  19
  -4  -4  28 529.706 28.9838  21
  -4  -4  28 532.905 25.1797  12
  -4   4  28 538.504 30.1106  11
  -4  -4  27 2700.30 66.1685  19
  -4  -4  27 2724.54 58.6214  12
  -4   4  27 2599.05 66.9687  11
  -4  -4  26 4812.57 90.1438  19
  -4   4  26 4534.94 90.7841  11
  -4  -4  25 292.220 22.4645  10
  -4  -4  25 333.684 25.2932  19
  -4   4  25 346.242 26.3100  11
  -4  -4  24 1390.77 48.1619  10
  -4  -4  24 1504.17 52.3563  19
  -4   4  24 1414.26 52.3829  11
  -4   4  23 24.2634 9.76286  11
  -4  -4  23 32.4641 9.26275  10
   4   4 -23 35.1747 8.31304  18
  -4  -4  23 31.5317 10.1933  19
  -4  -4  22 219.955 20.2541  10
  -4  -4  22 215.817 21.2193  19
   4   4 -22 239.673 18.8534  18
  -4   4  22 224.152 21.5217  11
  -4  -4  21 139.277 16.7919  10
  -4  -4  21 162.855 18.8049  19
   4   4 -21 141.532 15.2328  18
  -4   4  21 165.460 19.2527  11
  -4  -4  20 799.458 39.6878  10
  -4  -4  20 769.115 39.9927  19
   4   4 -20 809.416 36.1496  18
  -4  -4  19 177.994 19.7335  10
  -4  -4  19 199.833 21.2494  19
  -4  -4  19 213.066 22.8535  22
   4   4 -19 216.559 19.8398  18
  -4  -4  18 375.051 28.5662  10
  -4  -4  18 350.558 28.7449  22
   4   4 -18 335.934 24.7530  18
  -4  -4  17 446.384 31.3036  10
  -4  -4  17 399.228 30.8010  22
   4   4 -17 438.762 28.3745  18
  -4  -4  16 1247.01 51.9380  10
   4   4 -16 1207.69 47.1506  18
  -4  -4  16 1232.05 51.0434  16
  -4  -4  16 1210.55 52.8648  22
  -4  -4  15 671.209 38.6984  10
  -4  -4  15 631.199 37.2521  16
   4   4 -15 630.913 34.5982  18
  -4  -4  14 39.1184 12.7708  10
   4   4 -14 43.6080 12.2396  18
  -4  -4  14 35.6613 11.6420  16
  -4  -4  13 3572.24 89.7392  10
  -4  -4  13 3638.81 90.1923  16
  -4   4  13 3592.47 82.0838  20
   4   4 -13 3609.09 83.4188  18
  -4  -4  12 1092.26 50.8051  10
  -4  -4  12 1158.10 51.8107  16
  -4   4  12 1170.51 47.0884  20
   4   4 -12 1118.51 47.5896  18
  -4  -4  11 1890.86 66.5987  10
  -4   4  11 1841.66 58.2047  20
  -4  -4  11 1868.55 65.6889  16
   4   4 -11 1844.17 60.2975  18
  -4  -4  10 3244.60 87.4565  10
  -4  -4  10 3140.44 85.6026  16
  -4   4  10 3192.50 75.6617  20
   4   4 -10 3263.76 80.7403  18
  -4  -4   9 1955.48 68.2920  10
  -4  -4   9 1884.02 67.1468  16
   4   4  -9 1903.03 62.2673  18
  -4   4   9 1939.07 58.2454  20
  -4  -4   8 688.207 41.5787  10
  -4  -4   8 721.327 42.2802  16
   4   4  -8 707.605 38.5219  18
  -4  -4   8 700.709 39.4544  14
  -4   4   7 575.943 34.6130  15
  -4  -4   7 546.713 37.2174  16
   4   4  -7 546.669 33.8812  18
  -4  -4   7 568.038 36.1025  14
  -4  -4   6 101.737 17.3254  16
  -4   4   6 112.572 17.3452  15
   4   4  -6 119.862 17.3303  18
  -4  -4   6 107.358 17.6968  14
   4   4  -5 678.360 39.2583   7
   4   4  -5 651.650 36.7140  18
  -4   4   5 726.673 38.7780  15
  -4  -4   5 647.617 41.3780  16
  -4  -4   5 669.224 39.5839  14
   4   4  -4 1272.89 53.5583   7
   4   4  -4 1232.24 50.2870  18
  -4   4   4 1323.64 52.0658  15
  -4  -4   4 1259.81 54.8618  14
   4   4  -3 828.675 43.8661   7
   4   4  -3 742.554 39.7457  18
  -4   4   3 819.700 41.6267  15
  -4  -4   3 789.399 44.0775  14
   4   4  -2 4446.12 101.252   7
  -4  -4   2 4126.86 155.285   4
   4   4  -2 4275.55 92.9185  18
  -4   4   2 4472.22 95.0695  15
  -4  -4   2 4303.79 101.586  14
  -4  -4   1 2678.07 78.4184   9
   4   4  -1 2778.77 81.0352   7
  -4  -4   1 2585.57 121.829   4
  -4   4   1 2924.81 77.3345  15
   4   4  -1 2735.41 74.7764  18
  -4  -4   1 2739.28 81.9558  14
  -4  -4   0 410.121 31.6570   9
   4   4   0 418.538 32.4244   7
  -4  -4   0 369.744 45.7353   4
  -4   4   0 426.747 30.1006  15
   4   4   0 455.821 31.3783  18
  -4  -4   0 409.738 33.3515  14
  -4  -4  -1 5733.34 116.151   9
   4   4   1 5888.04 119.694   7
  -4   4  -1 6055.35 110.055  15
   4   4   1 5969.16 108.936  18
  -4  -4  -1 5909.66 122.909  14
  -4  -4  -2 7051.71 130.068   9
   4   4   2 6947.43 131.579   7
  -4   4  -2 6965.57 117.623  15
   4   4   2 7236.31 119.227  18
  -4  -4  -2 7126.97 133.931  14
  -4  -4  -3 1956.13 69.8316   9
   4   4   3 2060.46 72.6305   7
  -4   4  -3 2038.06 63.9306  15
   4   4   3 2067.43 63.5298  18
  -4  -4  -3 2009.82 72.6845  14
  -4  -4  -4 215.328 24.6527   9
   4   4   4 195.453 23.6610   7
  -4   4  -4 36.8029 16.6851   8
   4   4   4 61.0319 12.5648  18
  -4  -4  -4 3.35814 9.14336  14
  -4   4  -4 12.0443 9.71442  15
  -4  -4  -5 3421.80 94.2051   9
  -4   4  -5 3783.79 102.739   8
   4   4   5 3588.66 96.3377   7
  -4   4  -5 3479.43 81.4673  15
   4   4   5 3563.81 81.8836  18
  -4  -4  -5 3442.90 94.8821  14
  -4  -4  -6 501.790 37.1932   9
  -4   4  -6 571.218 41.5634   8
   4   4   6 518.176 38.2133   7
   4   4   6 515.664 31.1782  18
  -4   4  -6 522.506 32.1216  15
  -4  -4  -6 492.960 36.7667  14
  -4  -4  -7 997.468 51.9406   9
  -4   4  -7 1093.49 55.8435   8
   4   4   7 1055.47 53.4982   7
  -4   4  -7 1088.19 45.3464  15
   4   4   7 1011.81 42.8465  18
  -4  -4  -7 1111.19 54.4621  14
  -4  -4  -8 70.0496 15.6530   9
   4   4   8 71.7723 16.3682   7
  -4   4  -8 75.0056 17.7563   8
   4   4   8 79.8235 13.0630  18
  -4  -4  -8 34.8064 10.6882  14
  -4   4  -8 63.8081 12.0599  15
  -4  -4  -9 62.9893 16.3590   9
   4   4   9 67.3754 17.4965   7
  -4   4  -9 65.0334 17.6904   8
   4   4   9 63.0526 11.3738  18
  -4  -4  -9 43.8082 14.1815  14
  -4  -4 -10 3142.30 92.1151   9
  -4   4 -10 3181.90 94.6159   8
   4   4  10 3138.53 93.0167   7
  -4  -4 -10 3079.80 90.6963  14
  -4  -4 -11 178.637 23.9266   9
  -4   4 -11 208.671 26.2824   8
   4   4  11 158.425 23.7323   7
  -4  -4 -11 173.792 23.7761  14
  -4  -4 -12 454.398 35.9817   9
  -4   4 -12 421.582 34.8573   8
   4   4  12 432.634 35.1812   7
  -4  -4 -12 428.015 34.6575  14
  -4  -4 -13 751.035 46.2269   9
  -4   4 -13 715.099 44.5088   8
   4   4  13 745.048 46.4825   7
  -4  -4 -13 705.746 44.0425  14
  -4  -4 -14 1455.75 63.3440   9
  -4   4 -14 1437.88 62.3543   8
   4   4  14 1534.97 65.6710   7
  -4  -4 -15 49.0995 15.9965   9
   4   4  15 29.4189 14.7562   7
  -4   4 -15 29.8866 14.1369   8
  -4  -4 -16 2266.88 78.6679   9
  -4   4 -16 2351.24 77.5888   8
   4   4  16 2430.48 82.8315   7
  -4  -4 -17 1671.21 67.3525   9
  -4   4 -17 1746.70 65.6846   8
   4   4  17 1663.86 68.2300   7
  -4  -4 -17 1693.17 65.2082  14
  -4  -4 -18 170.120 23.2107   9
  -4   4 -18 200.456 22.9698   8
   4   4  18 184.462 24.3795   7
  -4  -4 -18 188.427 23.2555  14
  -4  -4 -19 985.097 50.8632   9
  -4   4 -19 921.727 45.4188   8
   4   4  19 1035.36 53.3283   7
  -4  -4 -19 926.249 47.3579  14
  -4  -4 -20 2743.07 82.2386   9
  -4   4 -20 2761.03 75.8011   8
   4   4  20 2775.93 85.2555   7
  -4  -4 -20 2826.73 80.0508  14
  -4  -4 -21 56.5568 14.1937   9
   4   4  21 82.4175 17.2358   7
  -4   4 -21 63.5127 11.8018   8
  -4  -4 -21 57.2711 12.9391  14
  -4  -4 -22 46.0199 11.4800   9
   4   4  22 54.6630 13.7895   7
  -4  -4 -22 42.3219 10.9350  14
  -4  -4 -23 162.500 19.7957   9
   4   4  23 163.508 20.4765   7
  -4  -4 -23 155.701 17.6782  14
  -4  -4 -24 122.424 16.8893   9
   4   4  24 102.087 16.2970   7
  -4  -4 -24 102.390 14.1303  14
  -4  -4 -25 470.130 30.6413   9
   4   4  25 548.794 34.3400   7
  -4  -4 -25 498.393 28.6928  14
  -4  -4 -26 5.44154 7.28071   9
   4   4  26 14.5220 10.2320   7
  -4  -4 -26 6.77012 5.94360  14
  -4  -4 -27 1939.35 55.8588   9
   4   4  27 2030.52 60.0945   7
  -4  -4 -27 1902.79 49.1787  14
  -4  -4 -28 39.0483 8.90849   9
   4   4  28 34.6982 9.96365   7
  -4  -4 -28 36.7611 7.83809  14
  -4  -4 -29 19.0296 6.56170   9
   4   4  29 17.7426 6.91994   7
  -4  -4 -30 14.3818 4.50530   9
   4   4  30 33.8258 7.55629   7
  -4  -4 -31 352.051 17.7891   9
   4   4  31 368.841 20.1953   7
  -4  -4 -31 392.176 21.9361  15
  -4  -4 -32 56.2704 8.45398  15
   4   5 -29 1021.98 31.7287   8
  -4  -5  29 1172.96 33.6191  21
   4   5 -28 792.656 29.8963   8
  -4  -5  28 860.382 30.4946  19
  -4  -5  28 879.480 30.9953  21
  -4  -5  27 200.752 12.9649  11
   4   5 -27 192.787 15.8153   8
  -4  -5  27 213.482 16.6558  19
  -4  -5  27 228.174 17.4001  21
  -4  -5  27 216.662 14.2390  12
   4   5 -26 481.827 25.3821   8
  -4  -5  26 519.406 26.1317  19
  -4  -5  26 581.425 27.7382  21
  -4  -5  26 531.131 23.3182  12
   4   5 -25 271.266 20.0659   8
  -4  -5  25 276.205 20.0154  19
   4   5 -24 23.1208 7.23694   8
  -4  -5  24 28.1681 8.30196  19
   4   5 -23 109.444 13.4166   8
  -4  -5  23 113.815 12.3182  10
  -4  -5  23 112.788 13.7522  19
   4   5 -22 281.388 21.5519   8
  -4  -5  22 277.496 19.9024  10
  -4  -5  22 312.772 22.8393  19
   4   5 -22 268.606 17.5600  18
   4   5 -21 23.5220 7.58883   8
  -4  -5  21 31.5257 8.18872  10
   4   5 -21 31.3327 7.24798  18
  -4  -5  21 10.7024 7.00962  19
   4   5 -20 1882.67 56.3986   8
  -4  -5  20 1884.30 54.3863  10
  -4  -5  20 1926.14 57.2625  19
   4   5 -20 1785.98 49.0926  18
   4   5 -19 646.272 33.4836   8
  -4  -5  19 643.469 32.8324  10
  -4  -5  19 604.801 33.4758  19
   4   5 -19 585.942 29.4091  18
   4   5 -18 39.2411 10.1766   8
  -4  -5  18 23.4377 9.42893  10
   4   5 -18 32.5413 8.98832  18
  -4  -5  18 29.3245 9.40885  19
  -4  -5  17 931.274 41.2895  10
  -4  -5  17 915.761 42.9388  22
   4   5 -17 889.255 38.2595  18
  -4  -5  16 456.584 29.4502  10
  -4  -5  16 464.521 31.4554  22
   4   5 -16 417.808 27.2099  18
  -4  -5  15 54.6922 11.3588  10
   4   5 -15 65.5310 11.3263  18
  -4  -5  15 51.8237 11.7481  22
  -4  -5  14 96.3945 15.1287  10
   4   5 -14 72.4616 11.9166  18
  -4  -5  14 84.7011 14.0528  16
  -4  -5  13 155.093 19.1804  10
  -4  -5  13 122.507 15.5768  16
   4   5 -13 149.640 18.4749  18
  -4  -5  12 753.593 40.5546  10
  -4  -5  12 790.356 40.4838  16
   4   5 -12 742.037 38.6589  18
  -4  -5  11 5454.81 108.078  10
  -4  -5  11 5576.24 106.785  16
   4   5 -11 5472.12 102.785  18
  -4  -5  10 438.568 33.6090  10
  -4  -5  10 418.974 31.3316  16
   4   5 -10 438.853 31.1834  18
  -4  -5   9 7658.65 131.044  10
  -4  -5   9 7726.27 129.675  16
   4   5  -9 7744.51 123.875  18
  -4  -5   8 5494.94 111.675  10
  -4  -5   8 5467.00 110.517  16
   4   5  -8 5578.25 106.314  18
  -4  -5   7 86.3463 18.9184  10
   4   5  -7 112.067 19.5845  18
  -4  -5   7 109.162 19.2112  16
  -4  -5   6 1605.64 61.7747  16
   4   5  -6 1570.90 56.9783  18
  -4  -5   6 1599.24 57.0468  14
  -4  -5   5 685.704 41.6029  16
   4   5  -5 723.045 39.7272  18
  -4  -5   5 696.826 38.5469  14
  -4  -5   4 2564.52 79.0404  16
   4   5  -4 2521.17 72.5377  18
  -4  -5   4 2492.40 72.8059  14
  -4  -5   3 206.923 24.9500  16
   4   5  -3 252.352 24.5112  18
  -4  -5   3 225.788 24.0849  14
   4   5  -2 1259.36 52.1454  18
  -4  -5   2 1177.48 51.8437  14
   4   5  -1 8067.66 139.755   7
   4   5  -1 7950.98 127.563  18
  -4  -5   1 7744.17 132.940  14
   4   5   0 3969.01 98.7221   7
   4   5   0 3824.94 88.7428  18
  -4  -5   0 3891.37 95.2863  14
  -4  -5  -1 240.122 24.2027   9
   4   5   1 246.556 26.7932   7
   4   5   1 231.594 23.4377  18
  -4  -5  -1 211.890 24.4031  14
  -4  -5  -2 407.759 30.3154   9
   4   5   2 393.842 32.6789   7
   4   5   2 432.949 30.1962  18
  -4  -5  -2 376.615 30.7579  14
  -4  -5  -3 1833.04 63.5231   9
   4   5   3 1934.01 70.0664   7
   4   5   3 1969.52 62.1280  18
  -4  -5  -3 1931.19 68.4996  14
  -4  -5  -4 63.3757 14.4567   9
   4   5   4 53.4612 14.3051   7
   4   5   4 59.8611 13.1770  18
  -4  -5  -4 27.0397 12.5404  14
  -4  -5  -5 1.62969 6.29532   9
   4   5   5 2.68670 8.79970   7
   4   5   5 9.32575 7.78525  18
  -4  -5  -5-7.09292 9.70671  14
  -4  -5  -6 215.104 22.9365   9
  -4   5  -6 242.585 27.6427   8
   4   5   6 229.411 25.4826   7
   4   5   6 239.470 21.5442  18
  -4  -5  -6 237.293 25.3161  14
  -4  -5  -7 1212.81 53.5704   9
  -4   5  -7 1200.91 57.9280   8
   4   5   7 1232.71 56.8049   7
   4   5   7 1233.36 46.5760  18
  -4  -5  -7 1154.63 53.7677  14
  -4  -5  -8 70.4227 13.8493   9
   4   5   8 66.5925 15.6436   7
  -4   5  -8 85.3524 18.4345   8
   4   5   8 70.6355 12.7365  18
  -4  -5  -8 66.3171 14.9133  14
  -4  -5  -9 820.912 45.1838   9
  -4   5  -9 872.616 49.6167   8
   4   5   9 880.384 48.5213   7
   4   5   9 925.192 38.3748  18
  -4  -5  -9 820.879 46.1629  14
  -4  -5 -10 2846.92 82.9138   9
  -4   5 -10 3033.80 90.2427   8
   4   5  10 2999.61 87.9049   7
  -4  -5 -10 2959.83 86.0237  14
  -4  -5 -11 107.658 18.9296   9
   4   5  11 91.3571 19.1720   7
  -4   5 -11 72.0043 17.3462   8
  -4  -5 -11 93.8318 18.7350  14
  -4  -5 -12 479.159 34.3618   9
  -4   5 -12 481.601 35.6418   8
   4   5  12 480.816 36.3267   7
  -4  -5 -12 471.220 34.4211  14
  -4  -5 -13 151.985 20.5420   9
   4   5  13 149.564 20.9682   7
  -4   5 -13 142.335 19.8294   8
  -4  -5 -13 153.888 20.2129  14
  -4  -5 -14 67.9865 13.7647   9
   4   5  14 81.5652 16.3008   7
  -4   5 -14 70.6855 14.7717   8
  -4  -5 -14 78.4373 14.6381  14
  -4  -5 -15 181.364 21.1830   9
  -4   5 -15 160.450 20.5282   8
   4   5  15 208.741 23.8247   7
  -4  -5 -15 183.332 21.9868  14
  -4  -5 -16 281.011 25.5331   9
  -4   5 -16 298.185 26.7513   8
   4   5  16 317.608 28.6176   7
  -4  -5 -16 298.844 26.4443  14
  -4  -5 -17 33.4051 10.4710   9
   4   5  17 28.2999 12.1348   7
  -4   5 -17 28.7351 10.0205   8
  -4  -5 -17 31.0321 11.8170  14
  -4  -5 -18 832.850 42.2506   9
  -4   5 -18 852.095 42.1782   8
   4   5  18 922.156 45.9465   7
  -4  -5 -18 876.834 42.8813  14
  -4  -5 -19 428.917 30.1647   9
  -4   5 -19 421.966 28.7495   8
   4   5  19 496.436 33.1199   7
  -4  -5 -19 432.418 29.5763  14
  -4  -5 -20 44.5278 11.0526   9
   4   5  20 47.7126 12.8208   7
  -4   5 -20 50.0369 9.94125   8
  -4  -5 -20 40.6736 10.5249  14
  -4  -5 -21 268.662 23.1312   9
   4   5  21 298.895 24.9031   7
  -4  -5 -21 248.061 21.2781  14
  -4  -5 -22 30.9123 9.28181   9
   4   5  22 38.5238 11.0077   7
  -4  -5 -22 30.9093 9.35856  14
  -4  -5 -23 506.092 29.1150   9
   4   5  23 496.048 29.1836   7
  -4  -5 -23 461.263 26.3895  14
  -4  -5 -24 750.458 33.8756   9
   4   5  24 822.986 36.0094   7
  -4  -5 -24 767.141 32.2677  14
  -4  -5 -25 1092.98 38.6407   9
   4   5  25 1193.28 40.9761   7
  -4  -5 -25 1076.19 35.9802  14
  -4  -5 -26 910.308 33.6282   9
  -4  -5 -26 857.511 29.6130  14
  -4  -5 -27 14.2288 5.81945   9
   4   5  27 25.6355 7.19574   7
  -4  -5 -28 585.677 23.0746   9
  -4  -5 -28 553.374 23.2198  15
  -4  -6  24 249.378 14.8016  19
  -4  -6  24 235.934 14.6138  21
  -4  -6  23 3.41017 4.34562  19
  -4  -6  22 146.470 12.6941  19
  -4  -6  21 261.994 17.3865  19
  -4  -6  20 28.0057 5.67624  10
   4   6 -20 16.9892 4.74655  18
  -4  -6  20 23.6713 6.18566  19
  -4  -6  19 41.6269 7.30079  10
   4   6 -19 26.8551 5.44962  18
  -4  -6  19 46.6001 9.00168  19
  -4  -6  18 26.0851 6.47365  10
   4   6 -18 40.5102 7.74728  18
  -4  -6  18 17.1272 6.38405  19
  -4  -6  17 58.2309 9.35981  10
   4   6 -17 56.2254 8.92443  18
  -4  -6  17 43.9487 9.52838  19
  -4  -6  16 612.087 28.0782  10
  -4  -6  16 658.753 31.1095  19
   4   6 -16 573.581 27.1514  18
  -4  -6  15 66.0583 10.6463  10
  -4  -6  15 74.6316 11.5150  22
   4   6 -15 71.3523 10.6133  18
  -4  -6  14 156.395 15.7357  10
  -4  -6  14 163.039 16.9279  22
   4   6 -14 173.124 16.4637  18
  -4  -6  13 863.920 36.5174  10
  -4  -6  13 868.726 38.0664  22
   4   6 -13 867.248 35.8753  18
  -4  -6  12 391.000 25.2992  10
  -4  -6  12 404.668 26.6496  22
   4   6 -12 416.388 25.7521  18
  -4  -6  11 135.622 15.9203  10
   4   6 -11 106.468 14.4075  18
  -4  -6  11 105.203 12.9793  16
  -4  -6  10 417.559 27.0432  10
  -4  -6  10 426.921 25.3121  16
   4   6 -10 418.529 26.5910  18
  -4  -6   9 351.319 25.4255  10
  -4  -6   9 384.353 24.8137  16
   4   6  -9 376.941 26.0326  18
  -4  -6   8 34.5666 9.61721  10
   4   6  -8 31.4653 9.19017  18
  -4  -6   8 31.8774 8.86160  16
  -4  -6   7 4.24976 8.01809  10
   4   6  -7 7.90509 7.23083  18
  -4  -6   7 5.38147 6.79323  16
  -4  -6   6 345.209 26.4807  10
  -4  -6   6 330.527 24.1609  16
   4   6  -6 337.967 25.1406  18
  -4  -6   5 417.589 29.1642  10
  -4  -6   5 428.196 27.9666  16
   4   6  -5 416.120 27.8039  18
  -4  -6   4 29.6292 10.0618  10
   4   6  -4 22.1373 9.07771  18
  -4  -6   4 31.8717 9.75105  16
  -4  -6   3 161.982 18.3461  16
   4   6  -3 165.051 18.4923  18
  -4  -6   3 180.859 17.7523  14
  -4  -6   2 1244.66 49.0398  16
   4   6  -2 1321.62 48.7999  18
  -4  -6   2 1172.39 44.3699  14
  -4  -6   1 1283.53 50.2569  16
   4   6  -1 1338.89 48.9447  18
  -4  -6   1 1248.19 46.4443  14
  -4  -6   0 11.8029 8.62691  16
   4   6   0 13.8986 8.67803  18
  -4  -6   0 27.9212 9.39855  14
  -4  -6  -1 1020.39 45.4382  16
  -4  -6  -1 1034.09 43.4098  14
  -4  -6  -2 1955.61 62.5959  16
  -4  -6  -2 1926.49 59.3571  14
   4   6   3 446.292 27.6335  18
  -4  -6  -3 407.389 28.1174  14
   4   6   4 152.491 16.4750  18
  -4  -6  -4 128.341 16.4961  14
   4   6   5 744.784 33.8120  18
  -4  -6  -5 694.724 36.3366  14
   4   6   6 156.282 15.4368  18
  -4  -6  -6 139.849 17.1335  14
  -4  -6  -7 159.800 16.4173   9
   4   6   7 175.276 16.2118  18
  -4  -6  -7 177.498 19.0276  14
  -4  -6  -8 183.137 17.5038   9
   4   6   8 214.118 16.8623  18
  -4  -6  -8 183.548 19.0808  14
  -4  -6  -9 47.3243 9.93005   9
  -4  -6  -9 55.4487 11.2300  14
  -4  -6 -10 227.933 19.6402   9
   4   6  10 283.457 24.2571   7
  -4  -6 -10 231.395 21.1823  14
  -4  -6 -11 168.849 17.1971   9
   4   6  11 197.178 20.8537   7
  -4  -6 -11 150.954 17.5553  14
  -4  -6 -12 732.088 34.3066   9
  -4  -6 -12 736.393 36.0257  14
  -4  -6 -13 276.046 21.4367   9
  -4  -6 -13 281.514 22.4424  14
  -4  -6 -14 899.922 37.3412   9
  -4  -6 -14 950.048 39.6008  14
  -4  -6 -15 149.551 15.7700   9
   4   6  15 169.044 18.3053   7
  -4  -6 -15 162.147 16.6828  14
  -4  -6 -16 127.487 13.8876   9
   4   6  16 174.580 17.9113   7
  -4  -6 -16 155.608 15.8921  14
  -4  -6 -17 393.681 23.4612   9
  -4  -6 -17 413.138 24.6231  14
  -4  -6 -18 5.38358 4.97421   9
   4   6  18 1.92420 5.71641   7
  -4  -6 -18 3.58204 4.83082  14
  -4  -6 -19 84.4893 10.6781   9
   4   6  19 99.3281 12.1848   7
  -4  -6 -19 80.7815 10.7967  14
  -4  -6 -20 1.73889 3.86546   9
  -4  -6 -20 13.3114 5.33194  14
  -4  -6 -21-5.76982 5.05139   9
  -4  -6 -21-0.52697 4.05447  14
  -4  -6 -22 171.412 12.8904   9
  -4  -6 -22 180.525 13.3863  14
  -4  -7  14 30.8406 5.71851  19
   4   7 -13 50.6252 6.98008  18
  -4  -7  13 70.4715 8.55608  19
  -4  -7  12 123.886 11.0163  19
   4   7 -12 123.543 10.5912  18
  -4  -7  11 157.742 12.8356  19
   4   7 -11 138.195 11.7863  18
  -4  -7  10 96.6866 9.30364  10
   4   7 -10 103.450 10.8116  18
  -4  -7   9 796.818 26.7740  10
   4   7  -9 838.413 29.6766  18
  -4  -7   9 824.342 27.4941  22
  -4  -7   8 510.966 22.2664  10
   4   7  -8 569.595 25.1003  18
  -4  -7   8 524.863 22.5293  22
  -4  -7   7 320.652 18.1630  10
   4   7  -7 336.087 19.8849  18
  -4  -7   7 286.301 17.2104  22
  -4  -7   6 96.0327 10.7687  10
   4   7  -6 107.620 11.8838  18
  -4  -7   6 72.5299 9.73089  22
  -4  -7   5 275.737 17.6319  10
   4   7  -5 292.697 18.6348  18
  -4  -7   4 34.1472 8.06377  10
   4   7  -4 31.3931 7.63519  18
  -4  -7   3 340.963 20.1829  10
   4   7  -3 372.293 21.1275  18
  -4  -7   2 246.721 17.6521  10
  -4  -7   2 240.338 14.1742  16
   4   7  -2 251.281 17.3166  18
  -4  -7   1 161.562 14.7548  10
  -4  -7   1 157.407 12.1481  16
  -4  -7   0 773.860 30.6559  10
  -4  -7   0 715.541 25.2580  16
   4   7   0 795.414 29.6597  18
  -4  -7  -1 41.2656 8.25271  10
   4   7   1 53.5059 8.47597  18
  -4  -7  -1 41.2392 7.30568  16
  -4  -7  -2 216.798 16.5458  10
  -4  -7  -2 195.525 14.1124  16
   4   7   2 238.112 15.7134  18
  -4  -7  -3 281.612 18.6934  10
  -4  -7  -3 259.007 15.8073  16
   4   7   3 294.590 16.7219  18
  -4  -7  -4-6.35049 5.05198  10
   4   7   4-0.79107 3.55832  18
  -4  -7  -4 1.76986 3.32556  16
  -4  -7  -5 3.94999 4.23210  10
  -4  -7  -5 4.67688 4.19917  16
  -4  -7  -5 0.18172 2.61279  14
  -4  -7  -6 241.445 15.3034  16
  -4  -7  -6 223.337 14.1158  14
  -4  -7  -7 93.0894 9.95992  16
  -4  -7  -7 105.526 10.0348  14
  -4  -7  -8 199.700 13.9535  16
  -4  -7  -8 223.732 14.0273  14
  -4  -7  -9 256.018 15.4846  16
  -4  -7  -9 299.621 16.2199  14
  -4  -7 -10 668.928 24.2720  16
  -4  -7 -10 693.962 24.1496  14
  -4  -7 -11 58.4320 7.47905  16
  -4  -7 -11 49.2828 6.60399  14
  -5   0  35 180.006 13.3766  11
  -5   0  34 6.31719 4.38983  11
  -5   0  33 85.4064 11.0511  11
  -5   0  32 3.25799 5.90469  11
  -5   0  31 1425.05 36.8861  20
  -5   0  31 1581.86 47.2186  11
  -5   0  30 6.85123 6.58860  11
  -5   0  30 4.74686 4.36248  20
  -5   0  29 138.191 13.2613  20
  -5   0  29 132.178 15.3079  11
  -5   0  28-5.06369 7.21257  11
  -5   0  28 4.32448 5.47249  20
  -5   0  27 35.9431 10.0076  11
  -5   0  27 58.2247 10.1351  20
  -5   0  26-0.68454 6.55286  11
  -5   0  26-3.24675 5.08133  20
  -5   0  25 571.688 32.9712  11
  -5   0  25 561.785 29.8400  20
  -5   0  24-2.06839 6.92092  11
  -5   0  24 0.56372 6.27036  20
  -5   0  23 1409.28 52.4548  11
  -5   0  23 1580.31 52.1856  20
  -5   0  22-0.94679 6.99329  11
  -5   0  22 3.59017 7.12928  20
  -5   0  21 838.394 40.7747  11
  -5   0  21 912.386 41.1909  20
  -5   0  20-5.13358 7.88824  11
  -5   0  20-6.39896 8.94221  20
  -5   0  19 39.2509 10.3934  20
  -5   0  18-5.74949 9.17607  20
  -5   0  17 39.6425 10.6065  20
  -5   0  16-2.22246 7.26155  20
  -5   0  15 1697.26 59.6444  20
  -5   0  14 49.6319 15.0430  20
  -5   0  14 17.2920 8.99336  15
  -5   0  13 5045.62 102.585  20
  -5   0  13 5235.81 93.2134  15
  -5   0  12 161.930 23.5958  20
  -5   0  12 94.4379 18.1822  15
  -5   0  11 10317.7 139.601  10
  -5   0  11 10071.7 143.568  20
  -5   0  11 10275.3 135.430  15
  -5   0  10 38.2289 13.6463  10
  -5   0  10 76.0598 19.0047  20
  -5   0  10 48.3589 14.8461  15
  -5   0   9 7100.16 113.100  10
  -5   0   9 6987.90 115.082  15
  -5   0   8-10.8196 7.61233  15
  -5   0   7 692.924 37.4786  15
  -5   0   6-10.6109 11.8857  15
  -5   0   5 949.752 62.8492   6
  -5   0   5 994.006 46.4568  15
  -5   0   4-8.79074 10.8073   6
  -5   0   4-7.25252 9.69542  15
  -5   0   3 361.294 40.7936   6
  -5   0   3 386.941 30.0852  15
  -5   0   2 29.6804 18.7578   6
  -5   0   2 36.9216 17.1143  15
  -5   0   1 19864.0 303.849   6
  -5   0   1 20359.1 216.896  15
  -5   0   0 53.1711 23.6736   6
  -5   0   0 43.1065 19.6455  15
  -5   0  -1 13520.4 257.064   6
  -5   0  -1 14073.1 183.508  15
  -5   0  -2 44.8087 20.9260   6
  -5   0  -2 110.669 22.0672  15
  -5   0  -3 6877.49 188.137   6
  -5   0  -3 7054.00 131.373  15
  -5   0  -4 0.71656 9.64005   6
  -5   0  -4 40.0289 14.5239  15
  -5   0  -5 12.3757 10.1017  15
  -5   0  -6 5.98637 10.6319   6
  -5   0  -6 6.10124 9.89363  15
  -5   0  -7 2188.91 75.0901  15
  -5   0  -8 1.55989 9.29382  15
  -5   0  -9 1434.70 61.7448  15
  -5   0 -10 2.11181 9.65457  15
   5   0  11 2678.55 78.2649   7
  -5   0 -11 2442.17 81.7603  15
   5   0  12 18.2251 10.7633   7
  -5   0 -12 10.5647 12.2166  15
   5   0  13 4526.51 104.856   7
  -5   0 -13 4308.43 108.794  15
   5   0  14 12.3916 10.4170   7
  -5   0 -14 22.1302 15.6046  15
   5   0  15 4266.48 103.579   7
  -5   0 -15 4055.54 105.833  15
   5   0  16 60.0600 19.8704   7
  -5   0 -16 110.361 25.7263  15
   5   0  17 17433.8 211.856   7
  -5   0 -17 16492.8 211.132  15
   5   0  18 61.2454 20.2187   7
  -5   0 -18 119.980 25.3409  15
   5   0  19 1592.91 64.9402   7
  -5   0 -19 1556.10 64.2234  15
   5   0  20 10.1632 9.66797   7
  -5   0 -20 10.7365 10.2470  15
   5   0  21 407.000 32.6429   7
  -5   0 -21 455.482 33.8650  15
   5   0  22-2.54525 8.77294   7
  -5   0 -22 2.65010 9.67944  15
   5   0  23 2229.75 73.4278   7
  -5   0 -23 2388.15 71.9784  15
   5   0  24 7.51813 7.45340   7
  -5   0 -24 0.64920 6.21136  15
   5   0  25 154.142 19.2578   7
  -5   0 -25 153.162 17.8009  15
   5   0  26 11.0716 7.67123   7
  -5   0 -26 4.22485 5.24004  15
   5   0  27 1650.31 57.4392   7
  -5   0 -27 1582.15 49.0231  15
   5   0  28 13.7406 8.23264   7
  -5   0 -28 10.5049 7.34134  15
   5   0  29 297.977 22.9036   7
  -5   0 -29 282.321 18.4635  15
   5   0  30 7.44034 5.78078   7
  -5   0 -30 0.30705 3.47640  15
   5   0  31 86.8593 12.0141   7
   5   0  32 10.0104 5.58918   7
   5   0  33 1777.15 43.3809   7
  -5  -1  35 1083.45 29.7646  11
  -5   1  35 1109.30 31.8960  11
  -5   1  34 316.914 18.6082  11
  -5  -1  34 303.450 17.5197  11
  -5  -1  33 559.155 24.7850  11
  -5   1  33 560.834 25.6586  11
  -5   1  32 0.22903 4.44035  11
  -5  -1  32 1.83571 4.46209  11
  -5   1  31 831.715 33.9723  11
  -5  -1  31 778.123 32.1675  11
  -5   1  30 20.7016 7.81245  11
  -5  -1  30 20.3812 7.99055  11
  -5   1  30 20.5385 6.66049  20
  -5  -1  30 23.4609 5.47282  20
  -5  -1  29 1273.34 44.3573  11
  -5   1  29 1192.08 38.6586  20
  -5  -1  29 1171.06 34.4415  20
  -5   1  29 1269.36 44.5061  11
  -5  -1  28 197.084 18.8374  11
  -5   1  28 186.472 16.5403  20
  -5  -1  28 169.708 14.4431  20
  -5   1  28 191.855 18.4303  11
  -5   1  27 102.748 13.9862  11
  -5  -1  27 95.4203 13.2075  11
  -5   1  27 90.6003 12.4474  20
  -5  -1  27 85.9525 10.7253  20
  -5   1  26 82.6431 13.2302  11
  -5  -1  26 86.3980 13.6526  11
  -5   1  26 92.4290 12.7252  20
  -5  -1  26 68.7713 10.1407  20
  -5  -1  25 181.052 19.1821  11
  -5   1  25 180.436 17.6125  20
  -5  -1  25 168.674 16.2140  20
  -5   1  25 182.492 18.8393  11
  -5   1  24 67.1092 12.7435  11
  -5   1  24 59.5519 11.4818  20
  -5  -1  24 70.0076 11.4373  20
  -5   1  23 1604.37 53.2095  20
  -5  -1  23 1499.26 49.1560  20
  -5   1  23 1620.98 55.3505  11
  -5   1  22 563.040 32.4599  20
  -5  -1  22 513.122 30.2255  20
  -5   1  22 539.956 32.5899  11
  -5   1  21 34.4072 11.0080  11
  -5   1  21 19.4352 7.99300  20
  -5  -1  21 25.3631 9.29053  20
  -5   1  20 26.9148 9.48831  11
  -5   1  20 16.7373 7.16030  20
  -5  -1  20 18.7529 7.74680  20
  -5   1  19 592.737 34.3690  11
  -5  -1  19 621.252 34.6107  20
  -5   1  19 566.502 33.3572  20
  -5   1  18 63.0100 12.7038  11
  -5  -1  18 28.4965 7.30206  10
  -5   1  18 51.8131 11.3941  20
  -5  -1  18 55.2938 12.5864  20
  -5  -1  17 8.24711 8.19307  10
  -5   1  17 20.7064 8.48861  20
  -5  -1  17 31.5913 11.3033  20
  -5   1  16 26.0817 11.1063  11
  -5  -1  16 15.6413 10.2922  10
  -5   1  16 13.0050 11.5378  20
  -5  -1  16 43.2672 14.5332  20
  -5   1  16 13.2809 9.34446  15
  -5   1  15 8577.52 127.466  11
  -5  -1  15 8429.69 132.790  10
  -5  -1  15 8872.09 134.510  20
  -5   1  15 8645.90 120.774  15
  -5   1  15 8341.59 130.716  20
  -5   1  14 440.191 30.1703  11
  -5  -1  14 393.655 31.0214  10
  -5  -1  14 519.619 35.5965  20
  -5   1  14 441.631 29.6968  15
  -5   1  14 457.074 32.3808  20
  -5   1  13 19527.0 188.109  11
  -5  -1  13 18918.2 197.613  10
  -5   1  13 19220.6 185.678  15
  -5   1  13 19269.7 198.108  20
  -5  -1  12 393.440 32.0241  10
  -5   1  12 448.368 35.0365  20
  -5   1  12 423.663 31.8528  15
  -5  -1  11 35271.7 266.260  10
  -5   1  11 35462.4 266.896  20
  -5   1  11 35116.9 257.939  15
  -5  -1  10 93.1486 20.3963  10
  -5   1  10 123.222 23.4082  20
  -5   1  10 116.626 20.3459  15
  -5  -1   9 4925.49 98.4856  10
  -5   1   9 4924.75 99.7641  20
  -5   1   9 5137.45 101.408  15
  -5  -1   9 5035.04 105.045  16
  -5  -1   8 943.445 43.1815  10
  -5   1   8 916.242 43.1428  20
  -5  -1   8 958.553 41.9674  15
  -5   1   8 961.421 45.0727  15
  -5  -1   8 980.012 46.7567  16
  -5  -1   7 677.873 36.3074  10
  -5   1   7 658.502 53.0967   6
  -5  -1   7 706.487 39.4799  16
  -5  -1   7 706.930 36.4170  15
  -5   1   7 691.263 37.1052  20
  -5   1   7 715.827 39.3528  15
  -5  -1   6 126.401 15.9012  10
  -5   1   6 151.893 26.7672   6
  -5   1   6 147.190 17.8787  20
  -5  -1   6 122.825 16.7626  16
  -5   1   6 126.450 17.4383  15
  -5  -1   6 143.236 16.7499  15
  -5  -1   5 609.898 33.6900  10
  -5   1   5 652.693 54.9295   6
  -5   1   5 651.548 35.9120  20
  -5  -1   5 676.673 38.1577  16
  -5   1   5 616.933 36.7301  15
  -5  -1   5 635.156 36.1546  15
  -5  -1   4 385.246 27.2896  10
  -5   1   4 371.643 41.2470   6
  -5   1   4 413.057 29.8374  20
  -5  -1   4 390.901 29.9166  16
  -5   1   4 361.630 29.8567  15
  -5  -1   4 452.980 31.5084  15
  -5   1   3 14145.8 256.680   6
  -5   1   3 14078.1 163.812  20
  -5  -1   3 14448.7 174.249  16
  -5   1   3 14377.7 178.508  15
  -5  -1   3 14165.9 174.454  15
  -5   1   2 974.400 68.7472   6
  -5   1   2 1024.64 44.9068  20
  -5  -1   2 1037.33 48.1597  16
  -5   1   2 1046.96 50.1629  15
  -5  -1   2 1046.38 48.9565  15
  -5   1   1 16545.0 280.136   6
  -5  -1   1 16851.8 187.382  16
  -5   1   1 17005.5 197.311  15
  -5  -1   1 17361.0 197.755  15
  -5   1   0 491.648 51.2543   6
  -5  -1   0 417.810 46.9588   6
  -5   1   0 502.827 33.0833  20
  -5  -1   0 482.163 35.3667  16
  -5   1   0 509.911 38.8140  15
  -5  -1   0 506.365 37.1256  15
  -5   1  -1 11830.4 243.579   6
  -5  -1  -1 11501.4 231.464   6
  -5  -1  -1 11646.8 155.023  16
  -5   1  -1 11872.0 166.884  15
  -5  -1  -1 11570.0 165.959  15
  -5   1  -2 31.7384 15.1058   6
  -5  -1  -2 36.6653 15.8998   6
  -5  -1  -2 49.5043 12.1185  16
  -5   1  -2 51.6687 15.3491  15
  -5  -1  -2 58.3034 17.5222  15
  -5   1  -3 1828.96 97.3004   6
  -5  -1  -3 1814.55 94.5010   6
  -5  -1  -3 1899.31 62.8073  16
  -5   1  -3 1887.49 67.9263  15
  -5  -1  -3 1907.28 68.9795  15
  -5   1  -4 671.716 59.3945   6
  -5  -1  -4 602.487 54.6873   6
  -5  -1  -4 593.651 35.4602  16
  -5   1  -4 571.513 37.5102  15
  -5  -1  -4 633.438 41.0398  15
  -5  -1  -5 1051.44 73.2544   6
  -5   1  -5 974.227 49.0294  15
  -5  -1  -5 1095.91 53.6275  15
  -5   1  -6 63.3284 12.3568  15
  -5  -1  -6 80.7730 15.8320  15
  -5   1  -7 16.7346 8.81020  15
  -5  -1  -7 48.9296 13.4767  15
   5   1   8 57.8519 12.8356   7
  -5   1  -8 26.7218 8.11832  15
  -5  -1  -8 45.6209 13.0532  15
   5   1   9 245.455 24.6857   7
  -5  -1  -9 215.862 25.0809  15
  -5   1  -9 172.693 21.7766  15
   5   1  10 75.7055 15.2910   7
  -5   1 -10 72.6820 15.6776  15
  -5  -1 -10 105.225 19.1929  15
   5   1  11 3870.73 98.2951   7
  -5  -1 -11 3713.37 102.405  15
   5   1  12 6.32358 9.82954   7
  -5   1 -12 4.69886 9.19736  15
  -5  -1 -12 14.4264 12.9318  15
   5   1  13 64.0916 14.4876   7
  -5   1 -13 47.9531 12.4811  15
  -5  -1 -13 66.1181 16.5849  15
   5   1  14 109.746 19.0242   7
   5  -1  14 126.743 19.3581   7
  -5   1 -14 115.138 20.2757  15
  -5  -1 -14 134.798 22.9288  15
   5   1  15 5079.22 116.053   7
   5  -1  15 4868.30 106.866   7
  -5   1 -15 4772.20 109.264  15
  -5  -1 -15 4912.08 118.339  15
   5   1  16 25.0031 13.6749   7
   5  -1  16 33.8297 13.3070   7
  -5   1 -16 72.7227 17.9593  15
  -5  -1 -16 72.6177 20.6557  15
   5   1  17 2105.46 75.5993   7
   5  -1  17 2082.82 71.0884   7
  -5   1 -17 2228.14 73.6567  15
  -5  -1 -17 2122.55 77.6068  15
   5   1  18 152.330 21.4354   7
   5  -1  18 136.333 18.9575   7
  -5   1 -18 174.253 21.6752  15
  -5  -1 -18 150.603 23.4530  15
   5   1  19-10.8082 12.1003   7
  -5   1 -19 19.0575 10.7199  15
  -5  -1 -19 4.86712 8.92206  15
   5   1  20 106.210 17.9936   7
   5  -1  20 87.1780 15.3350   7
  -5   1 -20 124.625 18.3684  15
  -5  -1 -20 87.4707 17.2886  15
   5   1  21 81.0559 15.5928   7
   5  -1  21 115.298 17.3016   7
  -5   1 -21 101.278 16.1801  15
  -5  -1 -21 97.6036 16.9930  15
   5   1  22 30.5519 8.85047   7
   5  -1  22 25.2056 8.62968   7
  -5   1 -22 40.2926 10.3990  15
  -5  -1 -22 19.0896 8.56095  15
   5   1  23 95.1150 16.3822   7
   5  -1  23 112.086 17.3956   7
  -5   1 -23 90.7674 13.5442  15
  -5  -1 -23 100.129 15.8394  15
   5   1  24 12.8452 9.84520   7
   5  -1  24 4.62662 5.84543   7
  -5   1 -24-1.90537 6.06123  15
  -5  -1 -24 0.24616 7.58708  15
   5  -1  25 433.607 30.4883   7
   5   1  25 417.639 31.0530   7
  -5   1 -25 419.615 25.5203  15
  -5  -1 -25 443.947 30.8859  15
   5   1  26 9.13519 7.09031   7
   5  -1  26-4.94407 5.76299   7
  -5   1 -26-3.96729 6.62079  15
  -5  -1 -26 9.77702 8.27262  15
   5  -1  27 382.416 26.7428   7
   5   1  27 373.504 27.8212   7
  -5  -1 -27 401.415 26.7703  15
   5  -1  28 29.7983 8.52472   7
   5   1  28 29.0160 9.35166   7
  -5  -1 -28 42.7014 9.85328  15
   5  -1  29 12.7395 6.06959   7
   5   1  29-2.79842 5.99927   7
  -5  -1 -29 5.03919 4.65748  15
   5  -1  30 8.46654 5.45184   7
   5   1  30 2.60523 5.02015   7
  -5  -1 -30 5.77101 5.49299  15
   5  -1  31 647.741 28.9469   7
   5   1  31 631.395 29.4922   7
  -5  -1 -31 609.761 24.3198  15
   5  -1  32 11.8364 4.61778   7
   5   1  32 19.7461 6.50058   7
   5  -1  33 31.9550 6.25569   7
   5   1  33 24.9354 5.77178   7
  -5   2  33 27.4909 5.98927  11
  -5  -2  33 28.0945 5.81737  11
  -5   2  32 11.2751 4.88745  11
  -5  -2  32 16.2144 5.23076  11
  -5  -2  31 703.165 28.1241  11
  -5   2  31 745.162 30.1204  11
  -5  -2  30 225.013 17.1107  11
  -5   2  30 215.695 17.1124  11
  -5   2  29 11.7776 6.10475  11
  -5  -2  29 11.0733 6.11122  11
  -5  -2  28 372.288 23.3223  11
  -5   2  28 446.090 25.9846  11
  -5   2  27 66.0428 11.1406  11
  -5  -2  27 67.7958 11.6386  11
  -5   2  27 55.5904 10.2153  20
  -5   2  26 617.675 30.5136  20
  -5  -2  26 630.835 26.0909  20
  -5   2  26 629.304 32.1247  11
  -5   2  25 22.0411 7.62015  11
  -5   2  25 25.8878 8.59612  20
  -5  -2  25 23.9194 6.27483  20
  -5   2  24 259.029 21.0713  20
  -5  -2  24 258.338 18.5722  20
  -5   2  24 243.228 20.8405  11
  -5   2  23 435.658 28.0594  20
  -5  -2  23 412.468 24.3183  20
  -5   2  23 462.904 28.7890  11
  -5   2  22 56.7638 12.1200  11
  -5   2  22 63.4533 12.5347  20
  -5  -2  22 59.5448 10.3963  20
   5   2 -22 56.6654 9.35329  18
  -5  -2  22 55.9697 10.3622  19
  -5  -2  21 1568.40 55.9571  10
  -5  -2  21 1468.56 48.1963  20
  -5  -2  21 1610.24 51.7936  19
  -5   2  21 1564.91 53.2103  20
  -5   2  21 1556.68 53.1961  11
  -5  -2  20 117.146 16.3286  10
  -5  -2  20 122.431 15.0225  20
  -5   2  20 133.801 16.9157  20
  -5   2  20 135.518 16.6413  11
  -5   2  19 76.9545 12.9377  11
  -5  -2  19 45.7101 9.98838  10
  -5   2  19 79.5775 13.3254  20
  -5  -2  19 66.9975 11.7885  20
  -5   2  18 31.7401 9.12322  11
  -5  -2  18 16.0043 8.69604  10
  -5   2  18 42.8636 11.5923  20
  -5  -2  18 34.2630 9.98025  20
  -5  -2  17 680.797 38.1706  10
  -5  -2  17 736.275 37.4140  20
  -5   2  17 699.426 37.3112  20
  -5  -2  16 11.5327 10.1682  10
  -5   2  16 29.7725 11.2815  20
  -5  -2  16 37.2068 12.4778  20
  -5  -2  15 2586.37 74.4678  10
  -5   2  15 2620.10 68.2670  15
  -5   2  15 2519.54 70.1978  20
  -5  -2  14 375.833 29.8633  10
  -5   2  14 398.427 28.0568  15
  -5   2  14 395.671 28.6727  20
  -5  -2  13 1171.20 50.9444  10
  -5   2  13 1166.42 47.3638  15
  -5  -2  13 1178.38 49.2699  22
  -5   2  13 1084.68 46.4466  20
  -5  -2  12 115.497 19.4718  10
  -5   2  12 144.680 19.6732  15
  -5  -2  12 97.9971 16.2698  22
  -5  -2  12 127.980 20.7898  16
  -5   2  12 145.378 19.6720  20
  -5  -2  11 1727.68 61.7371  10
  -5  -2  11 1731.77 59.2918  22
  -5   2  11 1742.14 59.1316  15
  -5   2  11 1751.45 58.3320  20
  -5  -2  11 1732.96 63.4990  16
  -5  -2  10 1680.15 60.4815  10
  -5  -2  10 1719.39 64.0742  16
  -5  -2  10 1664.28 58.2528  22
  -5   2  10 1753.90 59.8429  15
  -5   2  10 1661.16 57.4083  20
  -5  -2   9 7362.17 125.010  10
  -5  -2   9 7534.62 132.165  16
  -5   2   9 7779.18 126.123  15
  -5   2   9 7568.19 120.036  20
  -5  -2   8 145.901 19.4725  10
  -5   2   8 172.151 21.1914  15
  -5  -2   8 171.306 22.0643  16
  -5   2   8 137.713 18.3966  20
  -5  -2   7 685.720 38.2791  10
  -5   2   7 768.593 40.7936  15
  -5  -2   7 678.633 40.0312  16
  -5   2   7 706.315 36.8227  20
  -5  -2   6 957.569 44.8525  10
  -5  -2   6 1017.26 49.2347  16
  -5   2   6 1008.07 47.0122  15
  -5   2   6 964.981 42.7200  20
  -5  -2   5 37.2551 10.0890  10
  -5   2   5 36.5183 9.58452  20
  -5  -2   5 19.0808 8.17730  16
  -5   2   5 33.9176 11.7909  15
  -5  -2   4 299.179 25.2334  10
  -5  -2   4 285.712 27.0953  16
  -5   2   4 295.435 26.9167  15
  -5   2   4 315.133 24.6673  20
  -5  -2   3 2530.38 71.8632  10
  -5  -2   3 2536.31 78.1913  16
  -5   2   3 2474.75 74.4946  15
  -5   2   3 2576.98 67.4865  20
  -5  -2   3 2497.34 70.4351  15
  -5  -2   2 613.789 37.7339  10
  -5   2   2 677.847 40.9469  15
  -5  -2   2 619.183 40.8548  16
  -5   2   2 613.182 34.8347  20
  -5  -2   2 601.937 37.7837  15
  -5  -2   1 25211.6 224.410  10
  -5  -2   1 24991.1 243.236  16
  -5  -2   1 25618.3 232.694  15
  -5  -2   0 47.9884 16.5310  10
  -5  -2   0 111.722 23.1746  16
  -5   2   0 101.797 20.0865  15
  -5  -2   0 65.0682 17.8657  15
  -5  -2  -1 3914.07 87.4690  10
  -5   2  -1 3635.09 91.4074  15
  -5  -2  -1 3826.83 95.6598  16
  -5  -2  -1 3903.24 94.5489  15
  -5  -2  -1 3827.81 96.4259  14
  -5  -2  -2 1826.46 59.6742  10
  -5   2  -2 1764.42 63.9979  15
  -5  -2  -2 1815.92 66.2926  16
  -5  -2  -2 1822.75 65.7445  15
  -5  -2  -2 1828.61 67.2738  14
  -5   2  -3 1231.09 53.8499  15
  -5  -2  -3 1203.59 54.3486  16
  -5  -2  -3 1261.33 55.6361  15
  -5  -2  -3 1221.43 54.6726  14
  -5   2  -4 342.286 28.7504  15
  -5  -2  -4 322.615 28.4831  16
  -5  -2  -4 346.251 30.2464  15
  -5  -2  -4 362.251 30.7906  14
   5   2   5 31.9603 10.0082   7
  -5  -2  -5 26.8172 8.97714  16
  -5  -2  -5 31.9219 11.1241  14
  -5   2  -5 20.9080 9.48269  15
  -5  -2  -5 36.2843 10.8308  15
   5   2   6 1014.19 48.5000   7
  -5   2  -6 981.874 49.0397  15
  -5  -2  -6 972.739 50.8772  15
  -5  -2  -6 1002.92 49.5840  14
   5   2   7 3121.69 85.7844   7
  -5   2  -7 3022.97 84.4374  15
  -5  -2  -7 3212.88 92.1329  15
  -5  -2  -7 3124.15 86.9241  14
   5   2   8 96.9552 15.8757   7
  -5   2  -8 118.859 18.1461  15
  -5  -2  -8 97.7642 18.5198  15
  -5  -2  -8 131.909 20.2609  14
   5   2   9 353.392 30.5703   7
  -5   2  -9 369.086 30.2803  15
  -5  -2  -9 353.380 31.2257  15
  -5  -2  -9 361.818 29.8576  14
   5   2  10 63.9005 15.5926   7
  -5  -2 -10 64.4558 15.7849  14
  -5   2 -10 57.1027 15.2567  15
  -5  -2 -10 45.9144 15.9449  15
   5   2  11 5373.86 116.896   7
  -5  -2 -11 5381.58 121.080  15
  -5   2 -11 5229.11 110.651  15
  -5  -2 -11 5128.38 109.433  14
   5   2  12 391.927 33.0160   7
  -5   2 -12 401.962 31.8381  15
  -5  -2 -12 454.791 36.7346  15
  -5  -2 -12 358.811 29.6854  14
   5   2  13 450.321 34.9239   7
  -5   2 -13 413.936 31.8057  15
  -5  -2 -13 437.407 36.4943  15
  -5  -2 -13 417.002 31.0698  14
   5   2  14 163.344 23.2556   7
  -5   2 -14 167.387 20.8113  15
  -5  -2 -14 213.704 27.3005  15
  -5  -2 -14 170.932 20.8996  14
   5   2  15 5472.78 119.720   7
  -5   2 -15 5391.23 109.031  15
  -5  -2 -15 5442.58 122.750  15
  -5  -2 -15 5304.69 106.385  14
   5   2  16 1393.90 61.7505   7
  -5  -2 -16 1438.50 64.1818  15
  -5   2 -16 1314.23 53.5687  15
  -5  -2 -16 1341.03 53.1182  14
   5   2  17 9616.39 159.146   7
  -5   2 -17 9090.05 135.878  15
  -5  -2 -17 9550.25 160.893  15
  -5  -2 -17 9368.13 134.380  14
   5   2  18 2904.61 88.0192   7
  -5   2 -18 2829.16 74.5594  15
  -5  -2 -18 2936.75 89.5424  15
  -5  -2 -18 2940.98 73.2909  14
   5   2  19 1520.58 63.2136   7
  -5   2 -19 1548.50 53.6768  15
  -5  -2 -19 1600.24 65.7280  15
   5   2  20 340.031 30.4241   7
  -5   2 -20 334.656 24.1045  15
  -5  -2 -20 336.569 30.5654  15
   5   2  21 66.1493 14.4812   7
  -5   2 -21 35.0253 8.59804  15
  -5  -2 -21 73.5436 16.3178  15
   5   2  22 680.608 40.7803   7
  -5  -2 -22 748.597 42.5844  15
   5   2  23 499.255 34.1580   7
  -5  -2 -23 517.155 34.7357  15
   5   2  24 258.776 24.5949   7
  -5  -2 -24 276.415 24.7211  15
   5  -2  25 264.992 22.3089   7
   5   2  25 255.888 23.5883   7
  -5  -2 -25 247.317 22.5566  15
   5  -2  26 193.102 18.6787   7
   5   2  26 183.382 19.4885   7
  -5  -2 -26 194.011 19.9055  15
   5  -2  27 185.670 17.7027   7
   5   2  27 154.594 17.2385   7
  -5  -2 -27 196.444 18.7105  15
   5  -2  28 198.937 17.5939   7
   5   2  28 192.981 18.2267   7
  -5  -2 -28 228.838 19.1248  15
   5  -2  29 5.73648 5.22914   7
   5   2  29-6.92684 6.12892   7
  -5  -2 -29 6.83374 5.15989  15
   5  -2  30-1.92149 3.68759   7
   5   2  30-8.40598 5.90748   7
  -5  -2 -30-2.86430 4.03096  15
   5  -2  31 119.809 11.2899   7
   5   2  31 120.937 12.1447   7
  -5  -2 -31 125.727 11.2118  15
   5   2  32 3.34067 3.82694   7
  -5  -3  31 180.039 12.0367  11
  -5  -3  30 288.772 16.7346  11
  -5  -3  29 250.315 16.4271  11
  -5   3  29 276.331 16.8453  11
  -5  -3  28 352.444 20.2749  11
  -5   3  28 313.199 18.9433  11
  -5  -3  27 752.237 30.5401  11
  -5   3  27 683.656 28.9901  11
  -5  -3  26 122.124 12.2137  21
  -5   3  26 113.162 13.0190  11
  -5   3  25 41.9152 8.14468  11
  -5  -3  25 58.6933 9.26761  21
  -5   3  24 89.1924 12.1675  11
  -5  -3  24 114.772 13.8988  19
  -5  -3  24 97.8882 11.9555  21
   5   3 -23 5.86803 3.77148  18
  -5  -3  23 14.0749 6.89321  19
  -5  -3  22 590.515 32.2343  10
  -5  -3  22 619.634 30.9679  19
  -5   3  22 577.230 30.3998  20
   5   3 -22 580.538 26.1419  18
  -5  -3  22 579.937 25.9742  20
  -5  -3  21 165.719 18.1878  10
  -5  -3  21 198.067 18.3886  19
  -5   3  21 190.302 18.2026  20
   5   3 -21 175.916 15.5268  18
  -5  -3  21 186.707 15.6088  20
  -5  -3  20 222.672 20.9331  10
  -5  -3  20 219.844 17.7041  20
  -5  -3  20 207.446 19.0142  19
  -5   3  20 226.887 19.9851  20
   5   3 -20 227.601 18.3119  18
  -5  -3  19 320.862 25.6065  10
  -5  -3  19 290.236 21.0044  20
  -5  -3  19 321.818 23.3673  19
  -5   3  19 337.843 24.2927  20
   5   3 -19 299.867 21.4697  18
  -5  -3  18 10.5251 10.4193  10
  -5   3  18 17.4407 9.25452  20
  -5  -3  18 12.6952 6.60893  20
   5   3 -18 34.0574 10.0131  18
  -5  -3  18 17.6360 7.73673  19
  -5  -3  17 1596.69 56.8802  10
   5   3 -17 1497.29 49.5522  18
  -5  -3  17 1533.62 49.6677  20
  -5  -3  17 1612.18 52.6052  19
  -5   3  17 1629.20 53.7213  20
  -5  -3  16 163.244 20.3488  10
   5   3 -16 152.508 17.8385  18
  -5  -3  16 140.212 16.5269  19
  -5   3  16 137.440 17.5928  20
  -5  -3  15 3060.27 79.5704  10
   5   3 -15 3129.47 73.8938  18
  -5  -3  15 3152.23 73.8413  19
  -5  -3  15 3038.57 79.3020  22
  -5   3  15 3046.85 74.1958  20
  -5  -3  14 1417.58 55.9215  10
  -5  -3  14 1405.48 49.8102  19
  -5  -3  14 1395.23 54.4728  22
  -5   3  14 1475.89 52.0023  20
  -5  -3  13 6849.55 121.068  10
  -5  -3  13 7058.99 110.664  19
  -5  -3  13 6809.69 119.736  22
  -5   3  13 6985.92 112.016  20
  -5  -3  13 7259.44 126.442  16
  -5  -3  12 452.795 34.2383  10
  -5  -3  12 461.700 35.7323  16
  -5  -3  12 450.105 29.6280  19
  -5  -3  12 403.672 31.2745  22
  -5   3  12 425.904 29.7920  20
  -5  -3  11 13053.4 167.098  10
  -5  -3  11 13033.2 171.207  16
  -5   3  11 13081.0 152.524  20
  -5  -3  10 680.725 40.6875  10
  -5  -3  10 643.829 41.6439  16
  -5   3  10 763.326 40.4911  15
  -5   3  10 651.935 35.2434  20
  -5  -3   9 486.400 33.5646  10
  -5  -3   9 480.408 34.2602  16
  -5   3   9 537.077 33.3333  15
  -5   3   9 497.776 30.0766  20
  -5  -3   8 1578.63 59.2289  10
  -5  -3   8 1592.50 61.4692  16
  -5   3   8 1708.28 58.5727  15
  -5   3   8 1579.36 52.0870  20
  -5  -3   7 1534.79 58.1085  10
  -5  -3   7 1572.61 61.5410  16
  -5   3   7 1583.84 57.1559  15
  -5   3   7 1654.24 52.6828  20
  -5  -3   6 52.5751 13.3067  10
  -5   3   6 61.8202 12.3102  20
  -5  -3   6 45.8434 12.4762  16
  -5   3   6 44.7016 12.6143  15
  -5  -3   5 61.2762 12.9086  10
  -5  -3   5 62.0303 13.8468  16
  -5   3   5 70.2349 14.6474  15
  -5  -3   4 742.840 41.8798  10
  -5  -3   4 713.346 42.6888  16
  -5   3   4 750.491 40.9344  15
  -5  -3   3 7701.04 130.208  10
  -5  -3   3 7760.70 138.452  16
  -5   3   3 7572.46 126.621  15
  -5  -3   2 3391.55 86.4389  10
  -5   3   2 3268.13 83.9534  15
  -5  -3   2 3305.73 91.0659  16
  -5  -3   1 2242.63 70.4009  10
  -5   3   1 2257.56 70.0761  15
  -5  -3   1 2209.85 74.4782  16
  -5  -3   1 2408.14 77.4755  14
  -5  -3   0 1642.66 60.6113  10
  -5   3   0 1768.41 62.5067  15
  -5  -3   0 1698.49 66.4422  16
  -5  -3   0 1791.02 67.5817  14
   5   3   1 8435.17 132.686   7
  -5  -3  -1 7981.14 131.503  10
  -5   3  -1 8223.35 132.879  15
  -5  -3  -1 8071.65 142.303  16
  -5  -3  -1 8087.21 140.417  14
   5   3   2 528.923 34.7570   7
  -5  -3  -2 528.618 34.8933  10
  -5   3  -2 565.190 36.5349  15
  -5  -3  -2 486.590 37.1571  16
  -5  -3  -2 545.019 34.4591  15
  -5  -3  -2 558.967 39.0114  14
  -5  -3  -3 12.7756 7.00333  10
   5   3   3 32.5256 11.0531   7
  -5  -3  -3 16.3928 8.66170  16
  -5  -3  -3 37.2426 13.4148  14
  -5   3  -3 38.7556 11.9884  15
  -5  -3  -3 37.1890 11.5833  15
   5   3   4 845.441 44.2285   7
  -5  -3  -4 772.724 40.5340  10
  -5   3  -4 806.361 42.2628  15
  -5  -3  -4 864.143 44.0636  15
  -5  -3  -4 788.028 44.7856  14
  -5  -3  -5 74.8179 13.7167  10
   5   3   5 87.0072 15.8759   7
  -5  -3  -5 88.8217 16.8903  14
  -5   3  -5 91.1972 15.2288  15
  -5  -3  -5 84.7945 14.5736  15
   5   3   6 19.0996 8.00503   7
  -5  -3  -6-7.04205 8.54192  14
  -5   3  -6-1.85791 7.74544  15
  -5  -3  -6-1.70566 8.00261  15
   5   3   7 151.045 20.0211   7
  -5  -3  -7 147.383 19.5168  15
  -5   3  -7 131.586 16.8816  15
  -5  -3  -7 160.377 21.0722  14
   5   3   8 157.872 21.3681   7
   5   3   8 160.208 17.2004  18
  -5   3  -8 177.212 20.4071  15
  -5  -3  -8 148.007 20.1116  14
  -5  -3  -8 152.204 20.3576  15
   5   3   9 848.650 46.8017   7
   5   3   9 884.559 36.9414  18
  -5   3  -9 779.782 40.0346  15
  -5  -3  -9 864.426 46.5393  15
  -5  -3  -9 816.370 44.9500  14
   5   3  10 382.548 32.0378   7
  -5   3 -10 360.526 27.6185  15
  -5  -3 -10 360.858 31.2121  15
  -5  -3 -10 382.452 30.7957  14
  -5  -3 -11 644.161 41.3482   9
   5   3  11 705.332 42.2310   7
  -5   3 -11 665.031 36.2396  15
  -5  -3 -11 701.564 42.2870  15
  -5  -3 -11 650.815 40.3672  14
  -5  -3 -12 10.0782 9.51898   9
   5   3  12 4.67772 8.11310   7
  -5  -3 -12 15.7491 9.82466  14
  -5   3 -12-5.68428 9.22230  15
  -5  -3 -12 11.9277 10.0796  15
  -5  -3 -13 128.743 19.1856   9
   5   3  13 110.950 18.4789   7
  -5  -3 -13 125.449 18.5087  14
  -5  -3 -13 157.260 21.4681  15
  -5   3 -13 111.453 15.0341  15
  -5  -3 -14 509.046 37.5307   9
   5   3  14 547.897 38.6446   7
  -5   3 -14 486.738 29.6309  15
  -5  -3 -14 527.204 38.1286  15
  -5  -3 -14 502.452 34.8971  14
  -5  -3 -15 3855.29 97.6367   9
   5   3  15 4070.29 101.654   7
  -5   3 -15 4072.00 81.5902  15
  -5  -3 -15 3941.07 98.9165  15
  -5  -3 -15 4014.51 92.8474  14
  -5  -3 -16 45.3821 14.6503   9
   5   3  16 82.4996 18.1784   7
  -5  -3 -16 58.1734 14.8200  14
  -5   3 -16 58.8531 12.4046  15
  -5  -3 -16 58.9002 15.5735  15
  -5  -3 -17 93.7817 17.3074   9
   5   3  17 95.0784 18.7458   7
  -5  -3 -17 79.3713 17.1204  15
  -5  -3 -17 116.534 17.3503  14
  -5  -3 -18 438.975 32.0935   9
   5   3  18 434.594 33.2981   7
  -5  -3 -18 412.045 31.8916  15
  -5  -3 -18 457.879 29.7577  14
   5   3  19 367.611 29.8007   7
  -5  -3 -19 366.345 29.9067  15
  -5  -3 -19 372.635 26.1017  14
   5   3  20 396.739 30.4129   7
  -5  -3 -20 390.915 29.9064  15
  -5  -3 -20 427.424 27.9616  14
   5   3  21 67.6343 13.1544   7
  -5  -3 -21 89.3026 12.4029  14
  -5  -3 -21 96.5609 15.6137  15
   5   3  22 151.790 19.2172   7
  -5  -3 -22 150.074 18.2846  15
   5   3  23 9.63418 6.47229   7
  -5  -3 -23 29.9442 9.23314  15
   5   3  24-9.39452 8.33298   7
  -5  -3 -24 3.49574 6.23288  15
   5   3  25 221.921 19.8517   7
  -5  -3 -25 246.858 20.6670  15
   5   3  26 2.05340 4.88730   7
   5  -3  26 12.4481 5.86941   7
  -5  -3 -26 9.05240 6.03965  15
   5  -3  27 28.4354 6.31347   7
   5   3  27 35.2212 8.34470   7
  -5  -3 -27 28.5970 7.19428  15
   5  -3  28 36.1644 6.58169   7
   5   3  28 32.9079 7.32501   7
  -5  -3 -28 35.3582 7.60871  15
   5   3  29 93.0090 10.3590   7
  -5  -3 -29 99.8285 10.6878  15
   5   3  30 58.5844 8.04227   7
  -5  -4  27 47.3445 7.02212  11
   5   4 -26 351.610 19.0672   8
  -5  -4  26 373.251 17.9962  21
   5   4 -25 264.618 17.2560   8
  -5  -4  25 274.297 16.3829  21
   5   4 -24 42.4438 7.64910   8
  -5  -4  24 30.8040 6.37157  19
  -5  -4  24 49.5823 8.06010  21
   5   4 -23 315.683 20.0282   8
  -5  -4  23 321.033 19.6825  19
  -5  -4  22 0.37533 5.57648  10
   5   4 -22 6.24072 3.79871  18
  -5  -4  22 0.51917 5.12458  19
  -5  -4  21 760.286 32.7994  10
  -5  -4  21 806.436 32.6816  19
   5   4 -21 753.849 28.4596  18
  -5  -4  20 201.477 17.9780  10
  -5  -4  20 214.279 17.7375  19
   5   4 -20 195.402 15.6544  18
  -5  -4  19 108.491 13.5763  10
  -5  -4  19 110.928 13.4413  19
   5   4 -19 110.656 12.4735  18
  -5  -4  18 37.6752 9.60174  10
   5   4 -18 31.2932 7.57665  18
  -5  -4  18 38.2567 9.44373  19
  -5  -4  17 525.557 30.1042  10
  -5  -4  17 541.425 25.5884  20
  -5  -4  17 562.779 29.5467  19
   5   4 -17 565.683 28.7525  18
  -5  -4  16 279.470 22.8964  10
  -5  -4  16 285.844 19.5119  20
  -5  -4  16 294.889 22.1689  19
   5   4 -16 273.703 20.7850  18
  -5  -4  15 70.2266 13.4906  10
   5   4 -15 68.9881 11.9961  18
  -5  -4  15 77.7430 12.6234  19
  -5  -4  15 70.0940 12.9472  22
  -5  -4  14 5.00936 9.02437  10
   5   4 -14 6.59893 6.49795  18
  -5  -4  14 3.58722 6.82034  19
  -5  -4  14-9.03969 8.44355  22
  -5  -4  13 680.259 36.5982  10
  -5  -4  13 660.558 33.8984  19
  -5  -4  13 672.521 36.8782  22
   5   4 -13 654.288 33.4965  18
  -5  -4  12 304.236 25.5158  10
  -5  -4  12 274.573 24.2308  22
   5   4 -12 286.775 22.9460  18
  -5  -4  12 313.709 25.9239  16
  -5  -4  11 6.96934 8.48610  10
   5   4 -11 9.38460 8.80643  18
  -5  -4  11 3.28132 7.99778  16
  -5  -4  10 635.298 36.6830  10
  -5  -4  10 659.141 37.6004  16
   5   4 -10 643.323 35.1631  18
  -5  -4   9 2365.94 69.5040  10
  -5  -4   9 2284.92 69.8742  16
   5   4  -9 2192.20 63.9764  18
  -5  -4   8 20.8810 11.2401  10
   5   4  -8 26.8473 12.4757  18
  -5  -4   8 23.3128 11.5383  16
  -5  -4   7 145.127 18.6681  10
  -5  -4   7 151.876 20.0546  16
   5   4  -7 139.749 18.0927  18
  -5  -4   6 396.086 29.5184  10
  -5  -4   6 418.758 31.7559  16
   5   4  -6 387.745 28.0060  18
  -5  -4   5 6.88654 8.30457  10
   5   4  -5 16.0184 8.74107  18
  -5  -4   5 15.8298 9.10560  16
  -5  -4   4 2.33613 8.49823  10
   5   4  -4 8.77495 8.39321  18
  -5  -4   4 6.24089 8.69046  16
  -5   4   4 26.1224 11.5095  15
  -5  -4   3 585.130 35.9585  10
  -5   4   3 646.532 35.9178  15
  -5  -4   3 579.933 37.9457  16
   5   4  -3 605.793 34.6750  18
  -5  -4   2 853.838 44.2437  10
  -5   4   2 920.749 42.6052  15
  -5  -4   2 900.255 47.5464  16
   5   4  -2 902.582 42.5606  18
   5   4  -1 6663.92 114.347   7
  -5  -4   1 6356.19 116.455  10
  -5   4   1 6478.94 109.556  15
  -5  -4   1 6171.67 120.626  16
   5   4  -1 6383.59 109.048  18
  -5  -4   1 6657.66 121.681  14
   5   4   0 315.496 26.6376   7
  -5  -4   0 304.768 27.5029  10
  -5   4   0 336.294 27.0846  15
  -5  -4   0 287.643 29.0434  16
   5   4   0 298.154 25.3247  18
  -5  -4   0 358.768 31.4049  14
   5   4   1 1337.39 52.9844   7
  -5  -4  -1 1244.79 51.7453  10
  -5   4  -1 1277.88 48.6614  15
  -5  -4  -1 1227.96 54.7282  16
   5   4   1 1277.92 48.7728  18
  -5  -4  -1 1297.35 54.8196  14
   5   4   2 1237.21 51.6257   7
  -5  -4  -2 1154.92 49.7775  10
  -5   4  -2 1223.72 47.7189  15
  -5  -4  -2 1134.46 52.2866  16
   5   4   2 1166.44 46.1207  18
  -5  -4  -2 1182.00 52.3587  14
  -5  -4  -3-3.75293 7.93499  10
   5   4   3 7.59707 8.12651   7
  -5  -4  -3 3.07674 8.58081  16
   5   4   3 4.20530 6.91181  18
  -5  -4  -3-2.77427 7.97468  14
  -5   4  -3 22.1111 9.62080  15
   5   4   4 72.3763 13.7888   7
   5   4   4 76.1630 13.1505  18
  -5  -4  -4 96.0762 17.0213  14
  -5   4  -4 78.2008 13.3834  15
   5   4   5 400.513 30.2919   7
  -5   4  -5 399.521 27.2117  15
   5   4   5 385.305 25.9465  18
  -5  -4  -5 378.948 30.6565  14
   5   4   6 958.103 46.3518   7
  -5   4  -6 992.290 41.4554  15
   5   4   6 1008.23 40.3313  18
  -5  -4  -6 992.163 48.7577  14
   5   4   7 1216.26 52.3677   7
  -5   4  -7 1312.92 46.8143  15
   5   4   7 1328.06 44.9416  18
  -5  -4  -7 1180.39 47.0675  15
  -5  -4  -7 1243.11 54.0553  14
   5   4   8 561.744 36.1248   7
  -5   4  -8 598.891 31.1846  15
   5   4   8 633.276 30.5050  18
  -5  -4  -8 572.674 33.4927  15
  -5  -4  -8 653.672 39.5865  14
   5   4   9 1415.44 57.0693   7
  -5   4  -9 1501.52 47.7950  15
  -5  -4  -9 1392.69 52.2333  15
  -5  -4  -9 1420.08 57.0054  14
   5   4  10 12.4127 8.04299   7
  -5  -4 -10 33.1926 13.2699  14
  -5   4 -10 19.2563 7.50905  15
  -5  -4 -10 22.4740 9.27067  15
   5   4  11 1243.12 53.3857   7
  -5  -4 -11 1127.93 47.6624  15
  -5  -4 -11 1251.06 52.2564  14
   5   4  12 230.377 23.4955   7
  -5  -4 -12 254.127 23.1648  15
  -5  -4 -12 244.892 23.9617  14
   5   4  13 80.1605 14.7850   7
  -5  -4 -13 85.9912 15.0708  14
  -5  -4 -13 90.7451 14.5517  15
  -5  -4 -14 129.716 18.3391   9
   5   4  14 129.852 18.9569   7
  -5  -4 -14 148.918 18.2734  15
  -5  -4 -14 151.971 18.9217  14
  -5  -4 -15 1844.28 62.2270   9
   5   4  15 1880.30 63.5985   7
  -5  -4 -15 1764.62 58.2977  15
  -5  -4 -15 1833.60 59.4677  14
   5   4  16 1460.45 56.1511   7
  -5  -4 -16 1323.80 50.2818  15
  -5  -4 -16 1396.24 50.7221  14
   5   4  17 1879.73 61.9387   7
  -5  -4 -17 1852.39 56.5353  14
   5   4  18 3089.53 77.5060   7
  -5  -4 -18 2973.48 68.9551  14
   5   4  19 348.294 26.8717   7
  -5  -4 -19 302.561 23.5000  15
  -5  -4 -19 337.885 22.9040  14
   5   4  20 493.747 30.3125   7
  -5  -4 -20 464.558 27.8972  15
  -5  -4 -20 481.343 25.7948  14
   5   4  21 212.449 19.7077   7
  -5  -4 -21 198.976 18.3429  15
  -5  -4 -21 199.864 16.3917  14
   5   4  22 484.227 27.9684   7
  -5  -4 -22 470.605 26.3613  15
  -5  -4 -22 471.710 22.5772  14
   5   4  23 453.865 26.0589   7
  -5  -4 -23 405.651 23.7140  15
  -5  -4 -23 420.584 19.4923  14
   5   4  24 376.648 22.8525   7
  -5  -4 -24 339.177 20.6333  15
   5   4  25 293.685 19.3713   7
  -5  -4 -25 256.957 17.3686  15
   5   4  26 19.9874 6.26607   7
  -5  -4 -26 20.7229 5.26026  15
  -5  -5  22 94.0173 9.04867  19
  -5  -5  22 99.1229 9.41486  21
  -5  -5  21-1.40772 4.11342  19
  -5  -5  20 257.720 16.2721  10
  -5  -5  20 256.304 16.0125  19
   5   5 -20 242.435 13.9435  18
  -5  -5  19 369.019 20.2235  10
  -5  -5  19 371.807 19.7978  19
   5   5 -19 350.579 17.9108  18
  -5  -5  18 11.2503 5.33106  10
   5   5 -18 6.99232 4.30303  18
  -5  -5  18 10.3500 5.30288  19
  -5  -5  17 778.770 31.1888  10
  -5  -5  17 816.225 30.6805  19
   5   5 -17 789.309 29.2269  18
  -5  -5  16 225.550 17.7111  10
  -5  -5  16 205.122 16.5421  19
   5   5 -16 211.321 16.0596  18
  -5  -5  15 1199.88 40.5312  10
  -5  -5  15 1216.38 38.7744  19
   5   5 -15 1153.24 37.7929  18
  -5  -5  14 478.403 26.5319  10
  -5  -5  14 478.885 25.1375  19
   5   5 -14 471.434 25.0634  18
  -5  -5  13 497.760 27.4097  10
  -5  -5  13 489.574 25.8195  19
  -5  -5  13 532.685 29.3434  22
   5   5 -13 514.166 26.7296  18
  -5  -5  12 161.691 16.7594  10
  -5  -5  12 158.093 15.6076  19
  -5  -5  12 145.261 16.2742  22
   5   5 -12 144.985 14.8741  18
  -5  -5  11 444.993 26.6451  10
  -5  -5  11 427.220 27.1486  22
   5   5 -11 440.859 25.8952  18
  -5  -5  10 318.555 23.4079  10
  -5  -5  10 285.913 23.2403  22
   5   5 -10 309.883 22.2567  18
  -5  -5  10 299.175 22.7365  16
  -5  -5   9 366.225 25.2410  10
  -5  -5   9 363.821 25.3163  16
   5   5  -9 348.920 23.7965  18
  -5  -5   8 1579.92 51.4532  10
  -5  -5   8 1548.65 51.5277  16
   5   5  -8 1588.80 50.1586  18
  -5  -5   7 1374.64 48.7551  10
  -5  -5   7 1334.33 48.1948  16
   5   5  -7 1402.90 47.8743  18
  -5  -5   6 629.161 33.9013  10
  -5  -5   6 621.549 34.0044  16
   5   5  -6 606.803 32.0465  18
  -5  -5   5 1639.49 53.5733  10
  -5  -5   5 1559.63 53.0688  16
   5   5  -5 1714.11 53.0909  18
  -5  -5   4 433.998 28.3797  10
  -5  -5   4 418.615 28.7114  16
   5   5  -4 450.114 28.0079  18
  -5  -5   3 156.718 17.8989  10
  -5  -5   3 151.516 18.5380  16
   5   5  -3 172.624 17.7985  18
  -5  -5   2 1237.68 47.2119  10
  -5  -5   2 1108.27 46.0164  16
   5   5  -2 1261.99 45.7600  18
  -5  -5   1 22.0653 9.83458  10
   5   5  -1 32.4745 10.1666  18
  -5  -5   1 24.2690 9.50597  16
  -5  -5   0 249.049 22.1287  10
  -5  -5   0 245.699 23.0223  16
   5   5   0 258.058 21.1205  18
  -5  -5  -1 1548.75 53.0446  10
  -5  -5  -1 1489.99 54.1252  16
   5   5   1 1603.25 50.0720  18
  -5  -5  -1 1487.14 51.9747  14
  -5  -5  -2 49.2469 11.9801  10
   5   5   2 68.0506 11.6721  18
  -5  -5  -2 46.7709 11.8107  16
  -5  -5  -2 73.9423 13.5962  14
  -5  -5  -3 6.03699 7.42251  10
   5   5   3 7.12032 6.98444  18
  -5  -5  -3-3.76412 7.83300  16
  -5  -5  -3 3.63667 7.09818  14
  -5  -5  -4 187.183 18.5081  10
  -5  -5  -4 193.184 20.4286  16
   5   5   4 222.062 18.3826  18
  -5  -5  -4 180.184 18.5580  14
  -5  -5  -5 15.9403 6.80468  10
   5   5   5 23.2946 8.45031   7
  -5  -5  -5 5.99138 7.27498  16
   5   5   5 20.9145 7.23136  18
  -5  -5  -5 20.2049 7.93114  14
  -5  -5  -6 55.6598 11.0046  10
   5   5   6 69.8099 12.6364   7
  -5  -5  -6 53.4628 11.4854  16
   5   5   6 64.2321 10.8077  18
  -5  -5  -6 50.1940 10.9361  14
   5   5   7 627.169 34.0911   7
  -5  -5  -7 582.054 30.9899  10
  -5  -5  -7 596.148 33.9971  16
   5   5   7 653.648 27.8918  18
  -5  -5  -7 592.193 33.0279  14
   5   5   8 234.798 21.5679   7
  -5  -5  -8 205.987 20.6795  16
  -5  -5  -8 200.592 19.9906  14
   5   5   9 27.2603 8.66516   7
  -5  -5  -9 25.8080 9.97990  14
   5   5  10 114.164 15.1187   7
  -5  -5 -10 118.664 15.5847  14
   5   5  11 180.805 18.6137   7
  -5  -5 -11 193.295 18.5696  14
   5   5  12-8.65768 6.42743   7
  -5  -5 -12 7.92634 7.55941  14
   5   5  13 151.707 16.5683   7
  -5  -5 -13 154.480 13.9452  10
  -5  -5 -13 157.785 16.5827  14
  -5  -5 -14 42.0025 7.55860  10
   5   5  14 49.3764 10.5835   7
  -5  -5 -14 56.2295 10.6211  14
   5   5  15 408.859 25.7602   7
  -5  -5 -15 356.670 18.5917  10
  -5  -5 -15 353.986 19.6924  15
  -5  -5 -15 383.282 23.6525  14
   5   5  16 19.6649 8.11146   7
  -5  -5 -16 24.9633 8.42103  14
  -5  -5 -16 20.2625 6.39837  15
   5   5  17 394.824 24.1764   7
  -5  -5 -17 346.212 18.8649  15
  -5  -5 -17 372.318 21.6199  14
   5   5  18 180.529 16.3046   7
  -5  -5 -18 166.998 12.7686  15
  -5  -5 -18 181.178 14.8468  14
   5   5  19 1.33039 4.78102   7
  -5  -5 -19 1.03433 4.04556  14
   5   5  20 275.278 18.0397   7
  -5  -5 -20 247.040 15.3747  16
  -5  -5 -20 243.150 14.7157  14
   5   5  21 26.0752 6.70094   7
  -5  -6  14 39.3509 6.46540  10
   5   6 -14 35.8935 6.14320  18
  -5  -6  13 252.407 14.8515  10
   5   6 -13 236.311 14.3832  18
  -5  -6  12 34.6331 6.58746  10
   5   6 -12 28.3902 5.99512  18
  -5  -6  12 31.7167 6.09033  19
  -5  -6  11 15.3060 5.74195  10
   5   6 -11 21.8661 5.98154  18
  -5  -6  11 20.5568 5.59252  19
  -5  -6  10 125.092 11.8056  10
  -5  -6  10 117.647 10.5770  19
  -5  -6  10 114.698 11.4164  22
   5   6 -10 108.137 11.1851  18
  -5  -6   9 83.0567 10.1745  10
  -5  -6   9 97.0190 10.2771  19
  -5  -6   9 78.2774 10.1330  22
   5   6  -9 110.101 11.3543  18
  -5  -6   8 180.588 14.3768  10
  -5  -6   8 176.644 13.5192  19
  -5  -6   8 194.970 15.4910  22
   5   6  -8 190.025 14.9128  18
  -5  -6   7 10.9605 5.81175  10
   5   6  -7 6.87943 5.34833  18
  -5  -6   7-0.36677 5.36380  22
  -5  -6   6 18.7746 6.63061  10
   5   6  -6 6.79291 5.69537  18
  -5  -6   6 8.71390 6.07332  22
  -5  -6   6 17.9234 6.06895  16
  -5  -6   5 52.5185 9.23829  10
   5   6  -5 50.8123 8.79240  18
  -5  -6   5 52.6923 8.69038  16
  -5  -6   4 14.0326 6.46293  10
   5   6  -4 2.99863 5.13845  18
  -5  -6   4 5.25389 4.90251  16
  -5  -6   3 151.556 13.9747  10
  -5  -6   3 147.277 13.5766  16
   5   6  -3 151.115 13.8789  18
  -5  -6   2 3.22496 5.06340  10
   5   6  -2-1.91903 5.06189  18
  -5  -6   2 0.02016 4.28332  16
  -5  -6   1 137.287 13.5220  10
  -5  -6   1 145.891 14.0402  16
   5   6  -1 153.172 13.4218  18
  -5  -6   0 2.40693 5.03808  10
   5   6   0-0.82666 4.29175  18
  -5  -6   0 6.21744 5.32095  16
  -5  -6  -1 624.016 27.5777  10
  -5  -6  -1 576.859 26.7529  16
   5   6   1 579.009 24.5410  18
  -5  -6  -2 342.997 20.5864  10
  -5  -6  -2 320.429 20.3893  16
   5   6   2 372.826 19.2439  18
  -5  -6  -3 55.3106 9.03362  10
   5   6   3 47.4059 7.48742  18
  -5  -6  -3 55.2994 9.44988  16
  -5  -6  -4 33.7444 7.88107  10
   5   6   4 40.3105 6.82783  18
  -5  -6  -4 39.9594 8.84894  16
  -5  -6  -5 714.400 28.0646  10
  -5  -6  -5 652.495 28.1781  16
  -5  -6  -6 124.756 12.5847  10
  -5  -6  -6 135.556 13.7235  16
  -5  -6  -7 719.648 27.0328  10
  -5  -6  -7 717.141 29.0088  16
  -5  -6  -8 360.760 18.9033  10
  -5  -6  -8 363.129 20.4713  16
  -5  -6  -9 676.708 24.7394  10
  -5  -6  -9 665.629 26.7638  16
  -5  -6 -10 177.593 12.6726  10
  -5  -6 -10 175.280 13.7980  16
  -5  -6 -11 7.97164 4.47186  16
  -5  -6 -12 28.8716 5.79509  16
  -5  -6 -13 129.738 10.8720  16
  -6   0  27 2.22220 3.69695  11
  -6   0  27-2.31083 3.27004  20
  -6   0  26 389.438 18.6551  20
  -6   0  26 371.215 19.1241  11
  -6   0  25 1.73256 3.89184  11
  -6   0  25-3.41322 3.70801  20
  -6   0  24 194.419 14.7080  20
  -6   0  24 196.236 14.9845  11
  -6   0  23 0.55368 4.37846  11
  -6   0  23 9.59000 5.70242  20
  -6   0  22 437.125 23.6162  20
  -6   0  22 413.456 22.7202  11
  -6   0  21 6.43445 5.82853  11
  -6   0  21 6.82032 5.87197  20
  -6   0  20 193.679 16.9855  20
  -6   0  20 187.006 16.1066  11
  -6   0  19 1.48507 5.23370  11
  -6   0  19-3.81851 6.47306  20
  -6   0  18 226.967 17.8101  11
  -6   0  18 199.321 17.7010  20
  -6   0  17 16.7776 8.44443  11
  -6   0  17 6.36726 7.80623  20
  -6   0  16 3658.19 71.5488  11
  -6   0  16 3782.55 78.5498  20
  -6   0  15 19.8847 10.0056  11
  -6   0  15 45.0873 14.4034  20
  -6   0  14 5935.56 101.376  20
  -6   0  13 31.8440 13.4834  20
  -6   0  12 4069.37 85.2639  20
  -6   0  12 3831.50 71.7602  15
  -6   0  11 12.5024 10.0439  20
  -6   0  11 13.0530 7.21747  15
  -6   0  10 552.263 32.3006  20
  -6   0  10 515.730 28.4078  15
  -6   0   9 10.9255 7.54163  20
  -6   0   9 0.22020 5.47296  15
  -6   0   8 2037.76 61.5658  20
  -6   0   8 2091.06 59.2511  15
  -6   0   7-0.43164 6.47097  20
  -6   0   7 7.38890 5.93453  15
  -6   0   6-0.32023 6.33679  20
  -6   0   6 6.16404 7.29697  15
  -6   0   5-1.99262 6.44167  20
  -6   0   5-6.79030 9.31843  15
  -6   0   4 1970.73 60.5971  20
  -6   0   4 2042.15 63.2846  15
  -6   0   3 7.61965 9.48596  20
  -6   0   3 1.79428 8.32021  15
  -6   0   2 1753.65 57.0228  20
  -6   0   2 1812.10 61.3575  15
  -6   0   1 129.162 21.0869  20
  -6   0   1 119.674 22.2675  15
  -6   0   0 12828.1 151.066  20
  -6   0   0 13539.0 168.153  15
  -6   0  -1 76.5177 17.3100  20
  -6   0  -1 54.5880 18.0197  15
  -6   0  -2 2026.24 59.2948  20
  -6   0  -2 2122.52 68.4264  15
  -6   0  -3 17.5776 10.2032  20
  -6   0  -3 18.5748 13.8564  15
  -6   0  -4 5105.10 106.863  15
  -6   0  -5 8.82862 11.3830  15
  -6   0  -6-18.1028 12.5609  15
  -6   0  -7-15.3376 13.4284  15
  -6   0  -8 247.691 24.2719  15
  -6   0  -9-0.15475 10.2733  15
  -6   0 -10 1883.06 65.5310  15
  -6   0 -11 10.4620 9.79498  15
  -6   0 -12 118.303 17.1165  15
  -6   0 -13 2.94808 7.15312  15
  -6   0 -14 7.12052 7.31655  15
  -6   0 -15 4.36348 7.35106  15
  -6   0 -16 284.705 24.3437  15
  -6   0 -17 40.1440 13.8467  15
  -6   0 -18 4412.57 88.5295  15
  -6   0 -19 35.3948 11.8476  15
   6   0  20 629.890 29.0776   7
  -6   0 -20 741.981 34.2130  15
   6   0  21 8.44623 5.25374   7
  -6   0 -21 2.47012 4.97049  15
   6   0  22 21.6978 6.26431   7
  -6   0 -22 28.4107 6.72060  15
   6   0  23 1.58308 4.17745   7
  -6   0 -23-0.21696 3.87267  15
   6   0  24 244.483 16.0810   7
  -6   0 -24 272.653 16.8684  15
  -6   0 -25-0.31350 3.27859  15
  -6  -1  27 3.61665 3.23987  11
  -6   1  26 160.994 12.2454  20
  -6  -1  26 179.483 11.7152  20
  -6  -1  26 156.780 12.5112  11
  -6  -1  25 24.7431 6.02345  11
  -6   1  25 26.0542 6.04787  20
  -6  -1  25 19.7731 5.08720  20
  -6  -1  24 188.879 15.0298  11
  -6   1  24 195.807 14.9555  20
  -6  -1  24 183.299 13.4107  20
  -6   1  24 190.923 13.6439  11
  -6  -1  23 173.640 15.4949  11
  -6   1  23 193.267 15.4029  20
  -6  -1  23 161.023 13.5335  20
  -6   1  23 155.321 12.9931  11
  -6  -1  22 2140.45 51.5871  11
  -6   1  22 2160.09 51.4974  20
  -6  -1  22 2063.24 48.1272  20
  -6   1  22 2064.23 46.5738  11
  -6  -1  21 145.406 14.7420  11
  -6   1  21 136.589 14.4029  20
  -6  -1  21 130.826 13.2739  20
  -6  -1  20 7.37480 5.25214  11
  -6   1  20 10.6490 6.26409  20
  -6  -1  20-2.21685 5.66795  20
  -6  -1  19 129.985 14.2601  11
  -6  -1  19 110.569 12.6230  20
  -6   1  19 122.227 13.9722  20
  -6  -1  18 6.46827 5.51813  11
  -6  -1  18-2.47049 6.83620  20
  -6   1  17 26.2168 9.53232  20
  -6  -1  17 20.8647 9.12298  20
  -6   1  16 1843.90 53.6355  20
  -6  -1  16 1825.18 54.2431  20
  -6  -1  15 180.558 19.5143  20
  -6   1  15 198.434 19.7402  20
  -6  -1  14 4727.82 90.2871  20
  -6   1  14 4824.50 87.8515  20
  -6  -1  13 996.517 43.1198  20
  -6   1  13 973.705 37.7379  15
  -6   1  13 1029.79 41.4187  20
  -6  -1  12 93.1353 15.7685  20
  -6   1  12 83.8388 13.0148  15
  -6   1  12 108.227 15.8714  20
  -6   1  11 67.3471 13.0723  20
  -6  -1  11 52.8994 11.1699  20
  -6   1  11 55.0356 11.4244  15
  -6   1  10 15.3807 8.31140  20
  -6  -1  10 2.54223 9.23950  20
  -6   1  10 10.8074 6.70917  15
  -6  -1   9 4.94059 8.18048  20
  -6   1   9 14.9689 6.43737  15
  -6  -1   8 1736.18 57.4659  20
  -6   1   8 1676.67 54.4843  15
  -6   1   8 1652.79 53.6131  20
  -6   1   7 163.594 17.9839  15
  -6  -1   7 159.799 18.3295  20
  -6  -1   7 158.041 15.8415  15
  -6   1   7 155.821 17.3001  20
  -6   1   6 266.128 22.5933  15
  -6  -1   6 273.380 21.0772  15
  -6   1   6 263.574 21.7412  20
  -6   1   5 34.5943 8.52411  20
  -6   1   5 24.9456 8.76315  15
  -6  -1   5 34.2847 8.52604  15
  -6   1   4 1154.59 47.8143  15
  -6  -1   4 1113.23 44.2316  15
  -6   1   4 1076.67 42.8628  20
  -6   1   3 870.285 39.0481  20
  -6  -1   3 853.343 40.4985  15
  -6   1   3 918.467 44.7137  15
  -6   1   2 13774.5 150.000  20
  -6   1   2 13838.5 166.779  15
  -6  -1   2 13604.6 160.016  15
  -6   1   1 86.1622 16.1668  20
  -6   1   1 108.503 22.4824  15
  -6  -1   1 84.8639 18.5292  15
  -6   1   0 6454.94 100.601  20
  -6   1   0 6306.58 114.645  15
  -6  -1   0 6414.77 114.359  15
  -6   1  -1 54.1636 13.8712  20
  -6   1  -1 80.9191 20.0517  15
  -6  -1  -1 54.5275 16.6815  15
  -6   1  -2 2441.54 71.9690  15
  -6  -1  -2 2485.56 72.0289  15
  -6   1  -3 73.1753 15.1536  15
  -6  -1  -3 52.9915 13.1267  15
  -6   1  -4 1.57554 8.80388  15
  -6  -1  -4 4.50709 11.6290  15
  -6   1  -5 43.5847 12.0029  15
  -6  -1  -5 19.5809 9.01176  15
  -6   1  -6 914.321 44.8228  15
  -6  -1  -6 846.944 43.4106  15
  -6   1  -7 7.98541 9.85639  15
  -6  -1  -7-7.18184 9.30399  15
  -6   1  -8 1605.86 58.4799  15
  -6  -1  -8 1512.90 57.7856  15
  -6   1  -9 66.6905 15.0764  15
  -6  -1  -9 62.9561 13.2694  15
  -6   1 -10 143.575 18.5606  15
  -6  -1 -10 137.581 18.1849  15
  -6   1 -11 33.1002 10.1504  15
  -6  -1 -11 14.7829 7.23806  15
  -6   1 -12 22.2236 8.34820  15
  -6  -1 -12 20.1666 7.87967  15
  -6   1 -13 14.5309 7.29823  15
  -6  -1 -13 6.21236 6.78941  15
  -6   1 -14 0.22719 7.06465  15
  -6  -1 -14-1.01607 6.57511  15
   6   1  15 115.170 14.8741   7
  -6   1 -15 115.591 16.7879  15
  -6  -1 -15 106.810 16.9024  15
   6   1  16 2516.77 63.4461   7
  -6   1 -16 2653.26 67.7986  15
  -6  -1 -16 2585.75 70.9876  15
   6   1  17 49.7002 10.5539   7
  -6   1 -17 56.1895 12.7831  15
  -6  -1 -17 54.9427 13.9961  15
   6   1  18 619.351 30.9677   7
  -6   1 -18 700.545 33.2478  15
  -6  -1 -18 667.690 35.0142  15
   6   1  19 9.07818 5.95488   7
  -6   1 -19 15.0106 7.48873  15
  -6  -1 -19 18.4123 8.05424  15
   6   1  20 13.1627 6.07593   7
  -6   1 -20 5.13749 4.64819  15
  -6  -1 -20 3.59112 5.23160  15
   6   1  21 22.6418 7.00866   7
  -6   1 -21 32.1640 7.21742  15
  -6  -1 -21 41.9250 9.33896  15
   6   1  22 229.711 17.5572   7
  -6   1 -22 209.326 15.0140  15
  -6  -1 -22 226.384 18.2745  15
   6   1  23 6.62098 5.13608   7
  -6   1 -23 11.4995 4.80013  15
  -6  -1 -23 3.83913 5.14210  15
   6   1  24 617.309 25.3580   7
  -6  -1 -24 627.289 26.1354  15
  -6  -1 -25 55.3110 7.97140  15
  -6  -2  26 792.470 25.4227  11
  -6  -2  25 32.9463 6.72971  11
  -6  -2  24 15.8768 5.61579  11
  -6  -2  24 23.0090 4.95206  20
  -6  -2  23-2.29849 3.98216  11
  -6   2  23 0.48335 4.04610  20
  -6  -2  23 2.35015 3.15185  20
  -6  -2  22 102.794 12.1200  11
  -6   2  22 88.8336 10.4496  20
  -6  -2  22 83.9861 9.08975  20
  -6   2  21 2.90273 4.67430  20
  -6  -2  21-6.20206 4.55530  20
   6   2 -21 1.78172 3.07477  18
  -6   2  20 175.650 15.2752  20
   6   2 -20 158.160 12.7452  18
  -6  -2  20 170.829 13.8436  20
  -6   2  19 27.8663 8.44148  20
  -6  -2  19 16.9680 5.75300  20
   6   2 -19 21.8165 6.18664  18
   6   2 -18 735.291 29.2839  18
  -6   2  18 776.669 32.0055  20
  -6  -2  18 759.052 31.1223  20
  -6  -2  17 224.967 17.9097  20
  -6   2  17 235.198 18.4197  20
  -6  -2  16 1365.28 44.0857  20
  -6   2  16 1391.08 43.6133  20
  -6   2  15 47.7318 11.8766  20
  -6  -2  15 33.3235 10.9377  20
  -6  -2  14 4644.69 85.0112  20
  -6   2  14 4646.22 80.7464  20
  -6  -2  13 194.493 19.0864  10
  -6  -2  13 197.703 19.7443  20
  -6   2  13 198.175 18.7216  20
  -6  -2  12 1608.16 50.1532  10
  -6  -2  12 1663.59 52.8811  20
  -6   2  12 1645.65 49.0988  20
  -6  -2  11 490.508 28.3021  10
  -6  -2  11 504.674 30.1092  20
  -6   2  11 506.137 28.6368  15
  -6   2  11 512.084 27.8692  20
  -6  -2  10 232.424 19.7574  10
  -6  -2  10 214.118 19.6495  20
  -6   2  10 228.324 19.8582  15
  -6   2  10 223.011 18.8405  20
  -6  -2   9 152.401 15.7243  10
  -6   2   9 168.602 17.3767  15
  -6   2   9 156.608 16.1240  20
  -6  -2   8 36.2786 9.19688  10
  -6   2   8 41.9201 8.74764  20
  -6   2   8 36.1094 9.17132  15
  -6  -2   7-4.20304 6.14664  10
  -6   2   7-4.92369 6.57242  20
  -6   2   7 2.83658 7.42389  15
  -6  -2   6 183.947 17.4588  10
  -6   2   6 149.660 17.0655  15
  -6   2   6 167.932 16.0529  20
  -6  -2   5 184.613 17.2899  10
  -6   2   5 165.617 18.6124  15
  -6   2   5 199.397 17.7437  20
  -6   2   4 2241.46 64.1964  15
  -6   2   4 2308.46 56.2714  20
  -6  -2   4 2319.66 66.0540  16
  -6   2   3 163.823 18.9762  15
  -6  -2   3 201.030 20.7794  16
  -6  -2   2 233.800 21.9360  16
  -6   2   2 254.844 23.2288  15
  -6  -2   2 233.367 19.4379  15
  -6  -2   1 835.340 40.1756  16
  -6   2   1 807.359 40.3849  15
  -6  -2   1 731.347 35.5025  15
  -6  -2   0 6781.73 110.965  16
  -6   2   0 6898.14 114.426  15
  -6  -2   0 6511.85 105.034  15
  -6   2  -1 74.1082 17.3672  15
  -6  -2  -1 66.1727 15.1880  16
  -6  -2  -1 19.5949 9.90533  15
  -6  -2  -2 1095.99 44.3480  16
  -6   2  -2 1070.17 46.1064  15
  -6  -2  -2 952.745 41.5659  15
  -6  -2  -3 263.343 22.1813  16
  -6   2  -3 274.865 25.2647  15
  -6  -2  -3 268.687 22.9016  15
  -6  -2  -4 1035.29 42.1471  16
  -6   2  -4 991.220 44.2599  15
  -6  -2  -4 894.542 41.3077  15
  -6  -2  -5 30.6539 9.44387  16
  -6   2  -5 32.6392 11.3775  15
  -6  -2  -5 8.44640 6.01300  15
  -6  -2  -6 252.352 20.8608  16
  -6   2  -6 251.963 23.0114  15
  -6  -2  -6 253.617 22.8677  15
  -6   2  -7 308.438 24.7948  15
  -6  -2  -7 276.916 23.6134  15
  -6   2  -8 7.17992 6.60023  15
  -6  -2  -8-8.45840 8.16029  15
  -6   2  -9 24.9298 9.00510  15
  -6  -2  -9 21.7538 8.03251  15
  -6   2 -10 183.276 18.7969  15
  -6  -2 -10 182.865 19.9944  15
  -6   2 -11 286.396 22.8312  15
  -6  -2 -11 270.770 23.4827  15
   6   2  12-6.81686 5.87905   7
  -6   2 -12 6.78335 5.69379  15
  -6  -2 -12-0.38138 6.28605  15
   6   2  13 172.593 16.6714   7
  -6   2 -13 171.324 17.1028  15
  -6  -2 -13 170.063 18.9308  15
   6   2  14 83.2709 11.7419   7
  -6   2 -14 95.9643 13.1031  15
  -6  -2 -14 69.1336 12.5349  15
   6   2  15 307.610 22.1734   7
  -6   2 -15 335.367 22.4215  15
  -6  -2 -15 319.309 24.8921  15
   6   2  16 189.870 17.4256   7
  -6   2 -16 212.408 17.7591  15
  -6  -2 -16 167.543 17.9998  15
   6   2  17 6.14909 5.37193   7
  -6   2 -17 6.67012 5.75123  15
  -6  -2 -17 13.1168 7.48426  15
   6   2  18 1146.88 40.7976   7
  -6   2 -18 1202.59 36.3056  15
  -6  -2 -18 1142.60 42.7674  15
   6   2  19 283.236 20.2483   7
  -6   2 -19 287.073 17.2220  15
  -6  -2 -19 264.926 20.6268  15
   6   2  20 0.74285 3.97147   7
  -6   2 -20 12.4534 4.69300  15
   6   2  21 29.4099 6.78739   7
  -6  -2 -21 32.3979 7.52988  15
   6   2  22 86.0744 10.1091   7
  -6  -2 -22 106.085 11.8231  15
   6   2  23 305.303 17.8271   7
  -6  -2 -23 297.776 17.9676  15
  -6  -2 -24 172.438 13.0454  15
  -6  -3  23 131.818 11.0330  11
  -6  -3  22 1122.27 31.7130  11
  -6  -3  20 10.8346 3.49890  20
   6   3 -20 19.8224 5.16117  18
   6   3 -19 513.221 21.1044  18
  -6  -3  19 483.674 20.2291  20
  -6  -3  18 18.0041 5.48663  20
   6   3 -18 14.2681 5.59076  18
  -6  -3  17 4.88336 4.78485  20
   6   3 -17 4.58088 4.43838  18
  -6  -3  16 428.786 22.0196  20
   6   3 -16 398.749 21.5819  18
  -6  -3  15 1316.94 41.9411  10
  -6  -3  15 1229.53 38.2069  20
  -6   3  15 1258.74 37.3777  20
   6   3 -15 1208.92 37.9111  18
  -6  -3  14 1135.58 39.6409  10
  -6  -3  14 1030.39 36.1924  20
  -6   3  14 1097.47 35.0173  20
   6   3 -14 1035.67 36.3298  18
  -6  -3  13 2027.79 53.5045  10
  -6  -3  13 1943.34 50.5184  20
  -6   3  13 1920.98 46.6576  20
   6   3 -13 1940.46 50.6481  18
  -6  -3  12 52.6627 10.7744  10
  -6   3  12 58.4017 9.91002  20
  -6  -3  12 68.8483 12.0209  20
   6   3 -12 68.3068 12.2640  18
  -6  -3  11 996.329 38.3124  10
   6   3 -11 914.728 36.2793  18
  -6  -3  11 929.866 36.8519  20
  -6   3  11 975.115 33.3459  20
  -6  -3  10 360.218 23.8927  10
   6   3 -10 383.289 24.5468  18
  -6   3  10 399.141 21.7535  20
  -6  -3   9 407.867 25.4289  10
   6   3  -9 406.288 25.6122  18
  -6  -3   8 2245.16 58.0082  10
   6   3  -8 2199.69 57.8242  18
  -6  -3   7 502.855 27.9431  10
   6   3  -7 521.834 29.2629  18
  -6   3   7 523.534 28.7378  15
  -6  -3   7 541.233 27.6177  22
  -6  -3   6 184.968 17.4655  10
   6   3  -6 204.276 19.1450  18
  -6   3   6 222.319 19.7239  15
  -6  -3   6 177.221 16.0349  22
  -6  -3   6 247.574 21.7330  16
  -6  -3   5 400.246 24.8979  10
   6   3  -5 398.753 25.5605  18
  -6   3   5 417.189 26.0540  15
  -6  -3   5 386.150 23.2133  22
  -6  -3   5 414.464 27.5168  16
  -6  -3   4 79.3768 12.5462  10
  -6   3   4 94.4034 15.0141  15
   6   3  -4 78.3812 13.5437  18
  -6  -3   4 46.6903 9.31023  22
  -6  -3   4 90.9511 14.9964  16
  -6  -3   3 1990.77 54.4095  10
  -6  -3   3 2091.26 61.2077  16
   6   3  -3 2088.42 57.6095  18
  -6   3   3 2152.94 58.5532  15
  -6  -3   2 5067.43 85.1640  10
   6   3  -2 5150.15 88.8855  18
  -6  -3   2 5156.02 95.1950  16
  -6   3   2 5205.09 90.9435  15
  -6  -3   1 440.775 25.8300  10
   6   3  -1 474.253 28.1712  18
  -6  -3   1 470.306 30.4485  16
  -6   3   1 475.051 29.1903  15
  -6  -3   0 1739.99 48.7962  10
   6   3   0 1777.05 51.8455  18
  -6  -3   0 1737.41 55.1050  16
  -6   3   0 1744.31 53.2716  15
   6   3   1 383.677 24.3481  18
  -6  -3  -1 408.533 27.4591  16
  -6   3  -1 389.742 25.8304  15
   6   3   2 6.84823 5.84244  18
  -6  -3  -2 12.0415 8.05252  16
  -6   3  -2 19.5994 8.17808  15
   6   3   3-2.35421 4.88300  18
  -6  -3  -3-9.13689 8.18524  16
  -6   3  -3-0.85514 6.13228  15
  -6  -3  -4 88.6227 12.9690  16
   6   3   4 105.152 12.6858  18
  -6   3  -4 75.0700 11.7650  15
  -6  -3  -4 79.9570 11.1362  15
  -6  -3  -5 113.104 14.4248  16
  -6   3  -5 120.986 14.8364  15
   6   3   5 119.161 13.2442  18
  -6  -3  -5 111.043 12.5209  15
  -6  -3  -6 543.603 29.7917  16
  -6   3  -6 519.960 28.6891  15
   6   3   6 534.843 25.7329  18
  -6  -3  -6 486.659 26.9197  15
   6   3   7 79.2500 10.5042  18
  -6  -3  -7 63.2208 11.4330  16
  -6   3  -7 72.9949 11.9605  15
  -6  -3  -7 69.3570 10.9597  15
  -6  -3  -8 839.417 35.6154  16
  -6   3  -8 887.107 35.8924  15
  -6  -3  -8 812.021 35.2396  15
   6   3   9 191.035 16.4665   7
  -6  -3  -9 184.172 17.1216  16
  -6   3  -9 194.499 16.9767  15
  -6  -3  -9 167.124 16.4879  15
   6   3  10 48.9675 8.80258   7
  -6  -3 -10 53.0941 9.75283  16
  -6   3 -10 56.0221 9.73810  15
  -6  -3 -10 56.8888 9.79693  15
   6   3  11 20.4736 6.32086   7
  -6  -3 -11 10.9262 6.15762  16
  -6   3 -11 13.3505 5.62924  15
  -6  -3 -11-2.52776 6.32522  15
   6   3  12-4.31571 5.48739   7
  -6  -3 -12 0.65734 5.01305  16
  -6   3 -12 0.96170 4.65670  15
  -6  -3 -12 1.07618 4.40748  15
   6   3  13 29.2651 7.53037   7
  -6   3 -13 34.7445 8.24717  15
  -6  -3 -13 22.1132 6.87292  15
   6   3  14 555.917 28.0443   7
  -6   3 -14 634.193 25.4060  15
  -6  -3 -14 577.492 28.7328  15
   6   3  15 430.416 24.2458   7
  -6   3 -15 457.382 20.1459  15
  -6  -3 -15 442.737 24.7639  15
   6   3  16 339.451 21.4146   7
  -6  -3 -16 337.954 21.2837  15
   6   3  17 56.2741 9.44006   7
  -6  -3 -17 39.1991 7.67758  15
   6   3  18 189.977 15.4091   7
  -6  -3 -18 186.302 15.2951  15
   6   3  19 36.0190 7.29897   7
  -6  -3 -19 33.1267 6.93638  15
   6   3  20 1.15136 3.29674   7
  -6  -3 -20-0.79475 3.33854  15
  -6  -3 -21 50.4425 7.59620  15
   6   4 -17 13.5018 4.18369  18
   6   4 -16 537.819 21.1636  18
  -6  -4  15 223.564 15.1914  10
   6   4 -15 201.710 14.1911  18
  -6  -4  15 202.767 12.2159  20
  -6  -4  14 1181.87 35.0647  10
  -6  -4  14 1150.81 30.0772  20
   6   4 -14 1168.25 33.9845  18
  -6  -4  13 220.183 16.2215  10
  -6  -4  13 195.285 13.5937  20
   6   4 -13 220.931 15.6749  18
  -6  -4  12 71.0471 10.1818  10
  -6  -4  12 69.7375 8.99624  20
   6   4 -12 76.9488 10.3695  18
  -6  -4  11 541.655 25.4482  10
  -6  -4  11 508.802 22.9233  20
   6   4 -11 517.733 24.4546  18
  -6  -4  10 310.649 19.5657  10
  -6  -4  10 276.255 17.4159  20
   6   4 -10 292.736 18.9194  18
  -6  -4   9 183.910 15.5421  10
   6   4  -9 195.379 16.1055  18
  -6  -4   8 580.846 26.7304  10
   6   4  -8 624.325 27.9474  18
  -6  -4   7 369.004 21.6858  10
  -6  -4   7 356.986 20.6331  22
   6   4  -7 366.846 22.0403  18
  -6  -4   6 31.1581 7.52164  10
   6   4  -6 31.7907 8.21178  18
  -6  -4   6 28.7076 7.13982  22
  -6  -4   5 2.94417 4.97221  10
   6   4  -5 2.69747 5.76723  18
  -6  -4   5 10.0134 5.53917  22
  -6  -4   5 13.1274 7.19667  16
  -6  -4   4 70.9019 10.5436  10
   6   4  -4 85.6086 11.4992  18
  -6  -4   4 84.6229 10.5828  22
  -6  -4   4 80.0420 12.3913  16
  -6  -4   3 122.321 13.2502  10
  -6  -4   3 143.698 15.5904  16
  -6  -4   3 122.902 12.8562  22
   6   4  -3 138.576 14.2800  18
  -6  -4   2 17.9290 7.13004  10
   6   4  -2 18.6407 8.18379  18
  -6  -4   2 10.0354 6.43161  22
  -6  -4   2 19.9941 9.62331  16
  -6  -4   1 1517.94 42.5400  10
  -6  -4   1 1627.66 48.7481  16
  -6  -4   1 1563.09 42.7707  22
   6   4  -1 1582.75 44.0970  18
  -6  -4   0 878.644 32.2457  10
  -6  -4   0 951.370 37.5177  16
   6   4   0 892.460 33.0138  18
  -6  -4  -1 9.63642 6.20271  10
   6   4   1 3.97787 5.48597  18
  -6  -4  -1 20.3085 8.76794  16
  -6  -4  -2 520.490 23.9436  10
  -6  -4  -2 542.476 27.9561  16
   6   4   2 547.454 25.1271  18
  -6  -4  -3 359.494 19.3315  10
  -6  -4  -3 352.044 22.6224  16
   6   4   3 358.438 19.9292  18
   6   4   4 4.75087 4.78250  18
  -6  -4  -4 0.89243 5.22568  16
   6   4   5 48.7154 7.38061  18
  -6  -4  -5 61.0727 10.2572  16
   6   4   6 21.6151 5.57173  18
  -6  -4  -6 23.1856 7.15370  16
  -6  -4  -7 71.3609 10.6981  16
  -6  -4  -8 249.514 17.7175  16
   6   4   9 53.4634 8.13007   7
  -6  -4  -9 56.9791 9.01638  16
   6   4  10 35.7843 7.33848   7
  -6  -4 -10 29.8803 6.84616  16
   6   4  11 470.914 22.4610   7
  -6  -4 -11 475.832 22.1004  16
   6   4  12 20.6661 5.93216   7
  -6  -4 -12 19.0984 5.99978  16
   6   4  13 82.1550 9.28662   7
  -6  -4 -13 77.0513 8.74854  16
   6   5  -9 427.424 18.3953  18
   6   5  -8 483.213 20.0434  18
  -6  -5   7 104.462 9.44292  10
   6   5  -7 103.381 9.69015  18
  -6  -5   6 266.792 14.6190  10
   6   5  -6 258.883 15.3167  18
  -6  -5   5 226.887 13.6611  10
   6   5  -5 237.201 14.4742  18
  -6  -5   4 62.0779 7.86850  10
   6   5  -4 58.8226 8.06063  18
  -6  -5   3 904.560 26.8175  10
   6   5  -3 977.020 28.4745  18
  -6  -5   2 96.0053 9.15616  10
   6   5  -2 106.889 10.1067  18
   6   5  -1 78.8195 8.47486  18
  -6  -5   1 78.1057 9.63451  16
  -6  -5   0 1140.77 33.1605  16
  -6  -5  -1 184.390 13.9255  16
  -6  -5  -2 31.1100 6.36189  16
  -6  -5  -3 134.736 11.5934  16
  -6  -5  -4 60.4858 7.95312  16
  -6  -5  -5 49.7030 7.44964  16
  -6  -5  -6 545.431 21.1901  16
  -7   0  17 7.88089 3.34114  20
  -7   0  16 8.52919 3.69149  20
  -7   0  15-0.21140 3.13868  20
  -7   0  14-1.90979 3.14874  20
  -7   0  13 7.89749 4.31044  20
  -7   0  12 1.57053 3.72576  20
  -7   0  11 401.871 19.6728  20
  -7   0  10 2.66668 4.39388  20
  -7   0   9 52.7170 8.12989  20
  -7   0   8 3.26809 4.46148  20
  -7   0   7 55.4330 8.05062  20
  -7   0   7 50.9550 6.97562  15
  -7   0   6 4.14774 4.50114  20
  -7   0   6 7.15016 4.03016  15
  -7   0   5 378.021 18.7390  15
  -7   0   5 346.270 19.0071  20
  -7   0   4 12.6569 5.69542  20
  -7   0   4 10.3527 5.38421  15
  -7   0   3 330.692 18.4692  15
  -7   0   3 337.969 18.2162  20
  -7   0   2-0.49481 3.96070  20
  -7   0   2 3.82087 4.61781  15
  -7   0   1 61.8316 7.67890  20
  -7   0   1 64.5092 8.85339  15
  -7   0   0 3.06893 3.80406  20
  -7   0   0 3.46722 4.19740  15
  -7   0  -1 10.5257 4.48387  15
  -7   0  -2 4.91727 4.34166  15
  -7   0  -3 51.0294 8.67697  15
  -7   0  -4 9.16467 6.38067  15
  -7   0  -5 945.859 33.3710  15
  -7   0  -6 20.2948 7.13943  15
  -7   0  -7 124.169 12.4952  15
  -7   0  -8 11.5975 6.65801  15
  -7   0  -9 588.172 25.5160  15
  -7   0 -10 0.09244 4.05306  15
  -7   0 -11 446.492 21.5265  15
  -7   0 -12-2.97010 3.75023  15
  -7   0 -13 94.3616 9.54529  15
  -7   0 -14 0.22564 2.97808  15
  -7  -1  16 20.1909 4.47576  20
  -7   1  15 21.2297 4.66941  20
  -7  -1  15 21.5171 4.97985  20
  -7   1  14 20.2462 4.65627  20
  -7  -1  14 13.3876 4.09642  20
   7   1 -14 8.60693 3.22166  18
  -7   1  13 157.876 11.4834  20
  -7  -1  13 165.291 12.0552  20
  -7   1  12 54.3202 7.51414  20
  -7  -1  12 48.9681 7.27861  20
  -7   1  11-1.74957 3.17127  20
  -7  -1  11 4.03334 4.53282  20
  -7   1  10 16.9927 5.82136  20
  -7  -1  10 9.92211 6.32847  20
  -7   1   9 1460.87 34.6711  20
  -7  -1   9 1563.99 39.6922  20
  -7   1   8 21.4771 5.76738  20
  -7  -1   8 16.0895 6.33547  20
  -7   1   7 35.1101 6.21907  20
  -7  -1   7 31.0942 6.74078  20
  -7   1   6 19.4713 4.81312  20
  -7  -1   6 18.6762 5.72837  20
  -7   1   6 29.0981 6.27188  15
  -7   1   5 14.6455 4.66809  20
  -7  -1   5 8.47535 5.89510  20
  -7   1   5 20.6165 6.20836  15
  -7  -1   4 410.705 21.0450  20
  -7   1   4 414.858 20.7805  15
  -7  -1   3 162.085 13.6091  20
  -7   1   3 151.682 13.1810  15
  -7  -1   2 150.851 13.4235  20
  -7   1   2 156.998 13.5492  15
  -7  -1   2 149.328 11.3500  15
  -7  -1   1 982.140 31.7004  20
  -7  -1   1 946.086 28.9015  15
  -7   1   1 942.054 32.3117  15
  -7  -1   0 7.56777 5.38762  20
  -7   1   0 15.9269 5.78374  15
  -7  -1   0 9.86766 4.46015  15
  -7  -1  -1 10.4060 4.23748  20
  -7   1  -1 5.91342 4.73051  15
  -7  -1  -1 13.7366 4.82909  15
  -7  -1  -2 132.317 11.2894  20
  -7  -1  -2 145.502 12.4687  15
  -7   1  -2 131.555 12.8600  15
  -7  -1  -3 51.1404 7.36349  20
  -7   1  -3 35.5176 7.04744  15
  -7  -1  -4 7.53241 4.28527  20
  -7   1  -4-4.16522 4.87576  15
  -7  -1  -4 9.38128 4.86268  15
  -7   1  -5 7.35183 4.18100  15
  -7  -1  -5 17.5897 5.80926  15
  -7   1  -6 19.9160 5.60115  15
  -7  -1  -6 12.4976 4.48948  15
  -7   1  -7 120.149 11.8977  15
  -7  -1  -7 119.805 11.5218  15
  -7   1  -8 92.8712 10.6469  15
  -7  -1  -8 101.338 10.5236  15
  -7   1  -9 15.4865 4.82407  15
  -7  -1  -9 17.7756 5.49045  15
  -7   1 -10-6.40642 4.82015  15
  -7  -1 -10 8.09303 4.26034  15
  -7   1 -11 96.7985 9.81841  15
  -7  -1 -11 84.9982 9.64154  15
  -7   1 -12 38.2900 6.32143  15
  -7  -1 -12 31.7353 5.96109  15
  -7   1 -13 141.197 10.7510  15
  -7  -1 -13 127.623 10.5373  15
  -7  -2  13 5.39021 3.32557  20
  -7  -2  12 5.32798 3.49235  20
   7   2 -12 4.63492 4.13564  18
   7   2 -11 770.754 24.6051  18
  -7  -2  11 786.537 25.0969  20
   7   2 -10 567.348 21.9360  18
  -7  -2  10 591.484 22.5858  20
   7   2  -9 437.614 20.0290  18
  -7  -2   9 505.124 21.1692  20
  -7  -2   8 1044.39 30.7335  20
   7   2  -8 1084.67 31.2261  18
  -7  -2   7 6.38711 5.29347  20
   7   2  -7 14.8240 6.08941  18
   7   2  -6 243.722 15.7203  18
  -7  -2   6 242.860 15.5168  20
   7   2  -5 275.034 16.5022  18
  -7  -2   5 266.089 16.4558  20
   7   2  -4 413.744 20.1701  18
  -7  -2   4 431.710 20.7476  20
   7   2  -3 343.926 18.4520  18
  -7  -2   3 307.225 17.7094  20
  -7   2   3 332.599 17.9334  15
   7   2  -2 161.921 12.7829  18
  -7  -2   2 162.294 12.9504  20
  -7   2   2 152.278 12.5746  15
  -7  -2   1 19.0979 5.49868  20
   7   2  -1 13.6494 4.77643  18
  -7   2   1 23.6952 6.16560  15
  -7  -2   0 464.058 20.8651  20
  -7   2   0 476.274 21.8103  15
   7   2   0 468.742 20.6483  18
  -7  -2  -1 69.0712 8.51308  20
  -7   2  -1 85.4109 9.91846  15
   7   2   1 73.8370 8.44391  18
  -7  -2  -2 113.529 10.3414  20
  -7   2  -2 139.939 12.4083  15
   7   2   2 121.737 10.1083  18
  -7  -2  -3 89.1560 9.45744  20
   7   2   3 95.0315 8.91105  18
  -7  -2  -4 743.335 24.2764  20
  -7   2  -4 757.726 26.8289  15
  -7  -2  -5 251.643 14.0096  20
  -7   2  -5 275.733 16.5013  15
  -7   2  -6 108.871 10.5023  15
  -7   2  -7 98.2349 9.90066  15
  -7   2  -8 289.891 15.8952  15
  -7   2  -9 501.298 19.8644  15
   0   0   0    0.00    0.00   0

TITL 221127_auto in P2(1)/n
REM P2(1)/n (#14 in standard setting)
CELL 1.54184   6.004831   7.131177  37.837568  90.0000  91.6595  90.0000
ZERR    4.00   0.000062   0.000096   0.000411   0.0000   0.0009   0.0000
LATT  1
SYMM -x+1/2, y+1/2,-z+1/2
SFAC C H N O
UNIT 80.00 80.00 8.00 8.00
TREF
HKLF 4
END
;
_shelx_hkl_checksum              5248
_olex2_submission_special_instructions 'No special instructions were received'
_oxdiff_exptl_absorpt_empirical_details
;
Empirical correction (ABSPACK) includes:
- Absorption correction using spherical harmonics
- Frame scaling
;
_oxdiff_exptl_absorpt_empirical_full_max 1.393
_oxdiff_exptl_absorpt_empirical_full_min 0.678
loop_
_space_group_symop_operation_xyz
'x, y, z'
'-x+1/2, y+1/2, -z+1/2'
'-x, -y, -z'
'x-1/2, -y-1/2, z-1/2'
loop_
_atom_site_label
_atom_site_type_symbol
_atom_site_fract_x
_atom_site_fract_y
_atom_site_fract_z
_atom_site_U_iso_or_equiv
_atom_site_adp_type
_atom_site_occupancy
_atom_site_site_symmetry_order
_atom_site_calc_flag
_atom_site_refinement_flags_posn
_atom_site_refinement_flags_adp
_atom_site_refinement_flags_occupancy
_atom_site_disorder_assembly
_atom_site_disorder_group
O1 O 0.21767(15) 0.21466(16) 0.75924(2) 0.0686(3) Uani 1 1 d . . . . .
N1 N 0.16131(19) 0.2143(2) 0.72294(3) 0.0678(3) Uani 1 1 d . . . . .
C13 C 0.33973(19) 0.23937(16) 0.59289(3) 0.0496(3) Uani 1 1 d . . . . .
C9 C 0.3506(2) 0.23003(16) 0.70679(3) 0.0513(3) Uani 1 1 d . . . . .
C7 C 0.4417(2) 0.23156(17) 0.76334(3) 0.0529(3) Uani 1 1 d . . . . .
C15 C 0.5311(2) 0.29562(18) 0.64940(3) 0.0541(3) Uani 1 1 d . . . . .
H15 H 0.6580 0.3366 0.6618 0.065 Uiso 1 1 calc R U . . .
C10 C 0.3491(2) 0.23172(16) 0.66783(3) 0.0489(3) Uani 1 1 d . . . . .
C14 C 0.5250(2) 0.29878(18) 0.61276(3) 0.0543(3) Uani 1 1 d . . . . .
H14 H 0.6490 0.3421 0.6011 0.065 Uiso 1 1 calc R U . . .
C4 C 0.5274(2) 0.23398(16) 0.79982(3) 0.0516(3) Uani 1 1 d . . . . .
C1 C 0.6812(2) 0.24943(17) 0.86976(4) 0.0587(3) Uani 1 1 d . . . . .
C8 C 0.5326(2) 0.24286(17) 0.73124(3) 0.0534(3) Uani 1 1 d . . . . .
H8 H 0.6826 0.2562 0.7263 0.064 Uiso 1 1 calc R U . . .
C3 C 0.3947(2) 0.17168(18) 0.82701(3) 0.0576(3) Uani 1 1 d . . . . .
H3 H 0.2532 0.1246 0.8217 0.069 Uiso 1 1 calc R U . . .
C12 C 0.1588(2) 0.17511(19) 0.61200(3) 0.0570(3) Uani 1 1 d . . . . .
H12 H 0.0317 0.1338 0.5997 0.068 Uiso 1 1 calc R U . . .
C11 C 0.1628(2) 0.17100(19) 0.64833(3) 0.0565(3) Uani 1 1 d . . . . .
H11 H 0.0392 0.1270 0.6600 0.068 Uiso 1 1 calc R U . . .
C16 C 0.3239(2) 0.25128(19) 0.55258(3) 0.0571(3) Uani 1 1 d . . . . .
C2 C 0.4699(2) 0.17875(19) 0.86167(4) 0.0619(3) Uani 1 1 d . . . . .
H2 H 0.3799 0.1365 0.8796 0.074 Uiso 1 1 calc R U . . .
C5 C 0.7408(2) 0.30181(19) 0.80816(4) 0.0600(3) Uani 1 1 d . . . . .
H5 H 0.8324 0.3413 0.7902 0.072 Uiso 1 1 calc R U . . .
C6 C 0.8159(2) 0.31037(19) 0.84287(4) 0.0626(3) Uani 1 1 d . . . . .
H6 H 0.9574 0.3571 0.8483 0.075 Uiso 1 1 calc R U . . .
C20 C 0.7569(3) 0.2612(2) 0.90608(4) 0.0720(4) Uani 1 1 d . . . . .
C18 C 0.5532(2) 0.2688(2) 0.53624(4) 0.0706(4) Uani 1 1 d . . . . .
H18A H 0.6218 0.3842 0.5438 0.106 Uiso 1 1 calc R U . . .
H18B H 0.5365 0.2678 0.5109 0.106 Uiso 1 1 calc R U . . .
H18C H 0.6451 0.1653 0.5438 0.106 Uiso 1 1 calc R U . . .
N2 N 0.8139(3) 0.2692(2) 0.93510(4) 0.1009(5) Uani 1 1 d . . . . .
C17 C 0.1876(3) 0.4268(3) 0.54274(4) 0.0813(5) Uani 1 1 d . . . . .
H17A H 0.0440 0.4192 0.5532 0.122 Uiso 1 1 calc R U . . .
H17B H 0.1692 0.4346 0.5175 0.122 Uiso 1 1 calc R U . . .
H17C H 0.2643 0.5364 0.5514 0.122 Uiso 1 1 calc R U . . .
C19 C 0.2099(3) 0.0767(3) 0.53686(4) 0.0836(5) Uani 1 1 d . . . . .
H19A H 0.2910 -0.0332 0.5442 0.125 Uiso 1 1 calc R U . . .
H19B H 0.2071 0.0848 0.5115 0.125 Uiso 1 1 calc R U . . .
H19C H 0.0602 0.0692 0.5450 0.125 Uiso 1 1 calc R U . . .
loop_
_atom_site_aniso_label
_atom_site_aniso_U_11
_atom_site_aniso_U_22
_atom_site_aniso_U_33
_atom_site_aniso_U_23
_atom_site_aniso_U_13
_atom_site_aniso_U_12
O1 0.0530(5) 0.0968(8) 0.0566(5) 0.0015(5) 0.0117(4) -0.0051(5)
N1 0.0538(6) 0.0938(9) 0.0562(6) 0.0017(6) 0.0086(5) -0.0036(6)
C13 0.0448(6) 0.0478(7) 0.0564(7) -0.0024(5) 0.0036(5) 0.0007(4)
C9 0.0516(6) 0.0451(6) 0.0577(7) 0.0004(5) 0.0107(5) 0.0010(5)
C7 0.0505(6) 0.0489(7) 0.0597(7) -0.0001(5) 0.0105(5) -0.0011(5)
C15 0.0471(6) 0.0580(7) 0.0573(7) -0.0021(5) 0.0023(5) -0.0065(5)
C10 0.0484(6) 0.0427(6) 0.0561(7) 0.0001(5) 0.0070(5) 0.0018(4)
C14 0.0444(6) 0.0625(8) 0.0564(7) 0.0002(5) 0.0066(5) -0.0078(5)
C4 0.0540(7) 0.0443(7) 0.0570(7) 0.0001(5) 0.0111(5) 0.0005(5)
C1 0.0669(8) 0.0457(7) 0.0633(8) 0.0010(5) 0.0010(6) 0.0058(5)
C8 0.0496(6) 0.0549(7) 0.0564(7) -0.0006(5) 0.0119(5) -0.0009(5)
C3 0.0593(7) 0.0538(7) 0.0602(7) 0.0010(5) 0.0102(5) -0.0101(6)
C12 0.0453(6) 0.0617(8) 0.0641(7) -0.0019(6) 0.0014(5) -0.0085(5)
C11 0.0463(6) 0.0585(8) 0.0654(7) 0.0017(6) 0.0107(5) -0.0079(5)
C16 0.0476(6) 0.0681(9) 0.0555(7) -0.0035(6) 0.0001(5) -0.0014(5)
C2 0.0700(8) 0.0567(8) 0.0597(7) 0.0047(6) 0.0123(6) -0.0061(6)
C5 0.0525(7) 0.0586(8) 0.0695(8) 0.0055(6) 0.0128(6) -0.0028(5)
C6 0.0536(7) 0.0579(8) 0.0763(9) 0.0007(6) 0.0006(6) -0.0002(6)
C20 0.0838(10) 0.0595(9) 0.0723(10) 0.0011(7) -0.0069(8) 0.0041(7)
C18 0.0570(8) 0.0983(12) 0.0567(8) -0.0034(7) 0.0081(6) -0.0016(7)
N2 0.1255(14) 0.0984(12) 0.0772(10) -0.0019(8) -0.0235(9) 0.0002(9)
C17 0.0719(9) 0.1012(13) 0.0708(9) 0.0151(8) 0.0003(7) 0.0189(9)
C19 0.0801(10) 0.1021(13) 0.0687(9) -0.0224(8) 0.0011(7) -0.0212(9)
loop_
_atom_type_symbol
_atom_type_description
_atom_type_scat_dispersion_real
_atom_type_scat_dispersion_imag
_atom_type_scat_source
C C 0.0181 0.0091 'International Tables Vol C Tables 4.2.6.8 and 6.1.1.4'
H H 0.0000 0.0000 'International Tables Vol C Tables 4.2.6.8 and 6.1.1.4'
N N 0.0311 0.0180 'International Tables Vol C Tables 4.2.6.8 and 6.1.1.4'
O O 0.0492 0.0322 'International Tables Vol C Tables 4.2.6.8 and 6.1.1.4'
loop_
_geom_angle_atom_site_label_1
_geom_angle_atom_site_label_2
_geom_angle_atom_site_label_3
_geom_angle
_geom_angle_site_symmetry_1
_geom_angle_site_symmetry_3
_geom_angle_publ_flag
C7 O1 N1 108.79(9) . . ?
C9 N1 O1 105.54(10) . . ?
C14 C13 C12 116.19(11) . . ?
C14 C13 C16 123.25(11) . . ?
C12 C13 C16 120.48(11) . . ?
N1 C9 C10 119.12(12) . . ?
N1 C9 C8 111.39(11) . . ?
C8 C9 C10 129.50(11) . . ?
O1 C7 C4 115.53(11) . . ?
C8 C7 O1 109.20(12) . . ?
C8 C7 C4 135.27(12) . . ?
C10 C15 H15 119.7 . . ?
C14 C15 H15 119.7 . . ?
C14 C15 C10 120.60(11) . . ?
C15 C10 C9 121.49(11) . . ?
C15 C10 C11 117.88(12) . . ?
C11 C10 C9 120.63(11) . . ?
C13 C14 H14 118.9 . . ?
C15 C14 C13 122.22(11) . . ?
C15 C14 H14 118.9 . . ?
C3 C4 C7 120.10(12) . . ?
C3 C4 C5 118.96(12) . . ?
C5 C4 C7 120.93(11) . . ?
C2 C1 C20 119.52(13) . . ?
C6 C1 C2 119.97(13) . . ?
C6 C1 C20 120.51(14) . . ?
C9 C8 H8 127.5 . . ?
C7 C8 C9 105.07(11) . . ?
C7 C8 H8 127.5 . . ?
C4 C3 H3 119.5 . . ?
C2 C3 C4 120.91(12) . . ?
C2 C3 H3 119.5 . . ?
C13 C12 H12 118.9 . . ?
C11 C12 C13 122.15(11) . . ?
C11 C12 H12 118.9 . . ?
C10 C11 H11 119.5 . . ?
C12 C11 C10 120.95(11) . . ?
C12 C11 H11 119.5 . . ?
C13 C16 C18 112.17(11) . . ?
C13 C16 C17 107.74(11) . . ?
C13 C16 C19 110.88(11) . . ?
C18 C16 C17 108.36(12) . . ?
C18 C16 C19 107.85(12) . . ?
C19 C16 C17 109.81(13) . . ?
C1 C2 H2 120.2 . . ?
C3 C2 C1 119.69(12) . . ?
C3 C2 H2 120.2 . . ?
C4 C5 H5 119.9 . . ?
C6 C5 C4 120.26(12) . . ?
C6 C5 H5 119.9 . . ?
C1 C6 H6 119.9 . . ?
C5 C6 C1 120.21(13) . . ?
C5 C6 H6 119.9 . . ?
N2 C20 C1 178.9(2) . . ?
C16 C18 H18A 109.5 . . ?
C16 C18 H18B 109.5 . . ?
C16 C18 H18C 109.5 . . ?
H18A C18 H18B 109.5 . . ?
H18A C18 H18C 109.5 . . ?
H18B C18 H18C 109.5 . . ?
C16 C17 H17A 109.5 . . ?
C16 C17 H17B 109.5 . . ?
C16 C17 H17C 109.5 . . ?
H17A C17 H17B 109.5 . . ?
H17A C17 H17C 109.5 . . ?
H17B C17 H17C 109.5 . . ?
C16 C19 H19A 109.5 . . ?
C16 C19 H19B 109.5 . . ?
C16 C19 H19C 109.5 . . ?
H19A C19 H19B 109.5 . . ?
H19A C19 H19C 109.5 . . ?
H19B C19 H19C 109.5 . . ?
loop_
_geom_bond_atom_site_label_1
_geom_bond_atom_site_label_2
_geom_bond_distance
_geom_bond_site_symmetry_2
_geom_bond_publ_flag
O1 N1 1.4050(15) . ?
O1 C7 1.3553(16) . ?
N1 C9 1.3111(16) . ?
C13 C14 1.3907(17) . ?
C13 C12 1.3993(17) . ?
C13 C16 1.5279(18) . ?
C9 C10 1.4739(17) . ?
C9 C8 1.4143(18) . ?
C7 C4 1.4592(18) . ?
C7 C8 1.3481(17) . ?
C15 H15 0.9300 . ?
C15 C10 1.3897(17) . ?
C15 C14 1.3860(17) . ?
C10 C11 1.3912(18) . ?
C14 H14 0.9300 . ?
C4 C3 1.3926(17) . ?
C4 C5 1.3969(18) . ?
C1 C2 1.3912(19) . ?
C1 C6 1.388(2) . ?
C1 C20 1.437(2) . ?
C8 H8 0.9300 . ?
C3 H3 0.9300 . ?
C3 C2 1.3754(19) . ?
C12 H12 0.9300 . ?
C12 C11 1.3746(18) . ?
C11 H11 0.9300 . ?
C16 C18 1.5305(18) . ?
C16 C17 1.536(2) . ?
C16 C19 1.533(2) . ?
C2 H2 0.9300 . ?
C5 H5 0.9300 . ?
C5 C6 1.378(2) . ?
C6 H6 0.9300 . ?
C20 N2 1.142(2) . ?
C18 H18A 0.9600 . ?
C18 H18B 0.9600 . ?
C18 H18C 0.9600 . ?
C17 H17A 0.9600 . ?
C17 H17B 0.9600 . ?
C17 H17C 0.9600 . ?
C19 H19A 0.9600 . ?
C19 H19B 0.9600 . ?
C19 H19C 0.9600 . ?
loop_
_geom_torsion_atom_site_label_1
_geom_torsion_atom_site_label_2
_geom_torsion_atom_site_label_3
_geom_torsion_atom_site_label_4
_geom_torsion
_geom_torsion_site_symmetry_1
_geom_torsion_site_symmetry_2
_geom_torsion_site_symmetry_3
_geom_torsion_site_symmetry_4
_geom_torsion_publ_flag
O1 N1 C9 C10 179.28(10) . . . . ?
O1 N1 C9 C8 -0.57(15) . . . . ?
O1 C7 C4 C3 16.73(17) . . . . ?
O1 C7 C4 C5 -161.96(12) . . . . ?
O1 C7 C8 C9 -0.56(14) . . . . ?
N1 O1 C7 C4 -179.93(10) . . . . ?
N1 O1 C7 C8 0.24(14) . . . . ?
N1 C9 C10 C15 163.07(13) . . . . ?
N1 C9 C10 C11 -16.13(18) . . . . ?
N1 C9 C8 C7 0.72(15) . . . . ?
C13 C12 C11 C10 0.1(2) . . . . ?
C9 C10 C11 C12 178.90(11) . . . . ?
C7 O1 N1 C9 0.21(14) . . . . ?
C7 C4 C3 C2 -177.82(12) . . . . ?
C7 C4 C5 C6 177.33(12) . . . . ?
C15 C10 C11 C12 -0.33(19) . . . . ?
C10 C9 C8 C7 -179.11(12) . . . . ?
C10 C15 C14 C13 0.1(2) . . . . ?
C14 C13 C12 C11 0.14(19) . . . . ?
C14 C13 C16 C18 19.91(18) . . . . ?
C14 C13 C16 C17 -99.27(15) . . . . ?
C14 C13 C16 C19 140.55(13) . . . . ?
C14 C15 C10 C9 -179.00(11) . . . . ?
C14 C15 C10 C11 0.23(19) . . . . ?
C4 C7 C8 C9 179.66(13) . . . . ?
C4 C3 C2 C1 0.1(2) . . . . ?
C4 C5 C6 C1 0.8(2) . . . . ?
C8 C9 C10 C15 -17.11(19) . . . . ?
C8 C9 C10 C11 163.69(13) . . . . ?
C8 C7 C4 C3 -163.49(15) . . . . ?
C8 C7 C4 C5 17.8(2) . . . . ?
C3 C4 C5 C6 -1.38(19) . . . . ?
C12 C13 C14 C15 -0.24(19) . . . . ?
C12 C13 C16 C18 -163.40(13) . . . . ?
C12 C13 C16 C17 77.42(15) . . . . ?
C12 C13 C16 C19 -42.76(17) . . . . ?
C16 C13 C14 C15 176.58(12) . . . . ?
C16 C13 C12 C11 -176.78(12) . . . . ?
C2 C1 C6 C5 0.3(2) . . . . ?
C5 C4 C3 C2 0.9(2) . . . . ?
C6 C1 C2 C3 -0.7(2) . . . . ?
C20 C1 C2 C3 178.37(13) . . . . ?
C20 C1 C6 C5 -178.84(13) . . . . ?
