#------------------------------------------------------------------------------
#$Date: 2023-12-25 04:20:52 +0200 (Mon, 25 Dec 2023) $
#$Revision: 288547 $
#$URL: file:///home/coder/svn-repositories/cod/cif/1/57/05/1570595.cif $
#------------------------------------------------------------------------------
#
# This file is available in the Crystallography Open Database (COD),
# http://www.crystallography.net/
#
# All data on this site have been placed in the public domain by the
# contributors.
#
data_1570595
loop_
_publ_author_name
'Kitahara, Koichi'
'Takakura, Hiroyuki'
'Iwasaki, Yutaka'
'Kimura, Kaoru'
_publ_section_title
;
 Phase Equilibria in Aluminium--Ruthenium--Silicon System near 1200 Kelvin
;
_journal_issue                   1
_journal_name_full               'Materials Transactions'
_journal_page_first              18
_journal_page_last               26
_journal_paper_doi               10.2320/matertrans.MT-M2023128
_journal_volume                  65
_journal_year                    2024
_chemical_formula_iupac          '\\sim Ru7 (Al0.9 Si0.1)24'
_chemical_formula_moiety         'Al22.43 Ru6.88 Si1.79'
_chemical_formula_sum            'Al22.43 Ru6.88 Si1.79'
_chemical_formula_weight         1350.80
_space_group_crystal_system      cubic
_space_group_IT_number           200
_space_group_name_Hall           '-P 2 2 3'
_space_group_name_H-M_alt        'P m -3'
_atom_sites_solution_hydrogens   .
_atom_sites_solution_primary     dual
_atom_sites_solution_secondary   difmap
_audit_creation_method           SHELXL-2019/3
_cell_angle_alpha                90
_cell_angle_beta                 90
_cell_angle_gamma                90
_cell_formula_units_Z            1
_cell_length_a                   7.75500(4)
_cell_length_b                   7.75500(4)
_cell_length_c                   7.75500(4)
_cell_measurement_reflns_used    18811
_cell_measurement_temperature    300(1)
_cell_measurement_theta_max      38.2580
_cell_measurement_theta_min      2.5790
_cell_volume                     466.386(4)
_computing_cell_refinement
'CrysAlisPro 1.171.42.84a (Matsumoto <i>et al.</i>, 2021)'
_computing_data_collection
'CrysAlisPro 1.171.42.84a (Matsumoto <i>et al.</i>, 2021)'
_computing_data_reduction
'CrysAlisPro 1.171.42.84a (Matsumoto <i>et al.</i>, 2021)'
_computing_structure_refinement  'SHELXL-2019/3 (Sheldrick, 2015b)'
_computing_structure_solution    'SHELXT-2018/2 (Sheldrick, 2015a)'
_diffrn_ambient_temperature      300(1)
_diffrn_detector                 'Hybrid Pixel Array Detector'
_diffrn_detector_area_resol_mean 10.0000
_diffrn_detector_type            HyPix
_diffrn_measured_fraction_theta_full 1.000
_diffrn_measured_fraction_theta_max 0.984
_diffrn_measurement_device       'four-circle diffractometer'
_diffrn_measurement_device_type  'XtaLAB Synergy R, HyPix'
_diffrn_measurement_method       '\w scans'
_diffrn_radiation_monochromator  mirror
_diffrn_radiation_probe          x-ray
_diffrn_radiation_type           'Mo K\a'
_diffrn_radiation_wavelength     0.71073
_diffrn_reflns_av_R_equivalents  0.0275
_diffrn_reflns_av_unetI/netI     0.0063
_diffrn_reflns_Laue_measured_fraction_full 1.000
_diffrn_reflns_Laue_measured_fraction_max 0.984
_diffrn_reflns_limit_h_max       13
_diffrn_reflns_limit_h_min       -12
_diffrn_reflns_limit_k_max       13
_diffrn_reflns_limit_k_min       -13
_diffrn_reflns_limit_l_max       13
_diffrn_reflns_limit_l_min       -13
_diffrn_reflns_number            23268
_diffrn_reflns_point_group_measured_fraction_full 1.000
_diffrn_reflns_point_group_measured_fraction_max 0.984
_diffrn_reflns_theta_full        25.242
_diffrn_reflns_theta_max         38.061
_diffrn_reflns_theta_min         2.626
_diffrn_source                   'micro-focus sealed X-ray tube'
_diffrn_source_type              'Mova (Mo) X-ray Source'
_exptl_absorpt_coefficient_mu    6.590
_exptl_absorpt_correction_T_max  0.882
_exptl_absorpt_correction_T_min  0.828
_exptl_absorpt_correction_type   gaussian
_exptl_absorpt_process_details
'CrysAlisPro 1.171.42.84a (Matsumoto <i>et al.</i>, 2021)'
_exptl_crystal_colour            silver
_exptl_crystal_density_diffrn    4.809
_exptl_crystal_density_method    'not measured'
_exptl_crystal_description       irregular
_exptl_crystal_F_000             612.22
_exptl_crystal_size_max          0.045
_exptl_crystal_size_mid          0.035
_exptl_crystal_size_min          0.032
_refine_diff_density_max         0.569
_refine_diff_density_min         -0.600
_refine_diff_density_rms         0.095
_refine_ls_extinction_coef       0.0030(4)
_refine_ls_extinction_expression Fc^*^=kFc[1+0.001xFc^2^\l^3^/sin(2\q)]^-1/4^
_refine_ls_extinction_method     'SHELXL-2019/3 (Sheldrick, 2015b)'
_refine_ls_goodness_of_fit_ref   1.221
_refine_ls_hydrogen_treatment    undef
_refine_ls_matrix_type           full
_refine_ls_number_parameters     48
_refine_ls_number_reflns         499
_refine_ls_number_restraints     0
_refine_ls_restrained_S_all      1.221
_refine_ls_R_factor_all          0.0165
_refine_ls_R_factor_gt           0.0161
_refine_ls_shift/su_max          0.000
_refine_ls_shift/su_mean         0.000
_refine_ls_structure_factor_coef Fsqd
_refine_ls_weighting_details
'w=1/[\s^2^(Fo^2^)+(0.0110P)^2^+0.6679P] where P=(Fo^2^+2Fc^2^)/3'
_refine_ls_weighting_scheme      calc
_refine_ls_wR_factor_gt          0.0356
_refine_ls_wR_factor_ref         0.0357
_reflns_Friedel_coverage         0.000
_reflns_Friedel_fraction_full    .
_reflns_Friedel_fraction_max     .
_reflns_number_gt                492
_reflns_number_total             499
_reflns_threshold_expression     'I > 2\s(I)'
_cod_data_source_file            c_asrs14b001_a.checkcif.cif
_cod_data_source_block           asr-s14b001
_cod_original_cell_volume        466.385(7)
_cod_database_code               1570595
_shelx_shelxl_version_number     2019/3
_shelx_space_group_comment
;
The symmetry employed for this shelxl refinement is uniquely defined
by the following loop, which should always be used as a source of
symmetry information in preference to the above space-group names.
They are only intended as comments.
;
_exptl_absorpt_special_details
;
CrysAlisPro 1.171.42.84a (Matsumoto <i>et al.</i>, 2021)
Numerical absorption correction based on gaussian integration over
a multifaceted crystal model
Empirical absorption correction using spherical harmonics,
implemented in SCALE3 ABSPACK scaling algorithm.
;
_oxdiff_exptl_absorpt_empirical_full_min 0.783
_oxdiff_exptl_absorpt_empirical_full_max 1.315
_oxdiff_exptl_absorpt_empirical_details
;
Empirical correction (ABSPACK) includes:
- Absorption correction using spherical harmonics
- Frame scaling
- Detector area scaling
;
_shelx_res_file
;
TITL asrs14b001_a.res in Pm-3
    asrs14b001_a.res
    created by SHELXL-2019/3 at 17:55:39 on 07-Aug-2023
REM Old TITL asrs14b001 in Fm-3
REM SHELXT solution in Pm-3: R1 0.167, Rweak 0.008, Alpha 0.025
REM <I/s>   0.000 for    0 systematic absences,  Orientation as input
REM Formula found by SHELXT:  Al14 Ru7 Si13

CELL 0.71073   7.754997   7.754997  7.7549974  90.0000  90.0000  90.0000
ZERR    1.00   0.0000385  0.0000385  0.0000385  0.0000   0.0000   0.0000
LATT  1
SYMM -X, -Y, Z
SYMM -X, Y, -Z
SYMM X, -Y, -Z
SYMM Z, X, Y
SYMM Z, -X, -Y
SYMM -Z, -X, Y
SYMM -Z, X, -Y
SYMM Y, Z, X
SYMM -Y, Z, -X
SYMM Y, -Z, -X
SYMM -Y, -Z, X
SFAC AL RU SI
UNIT 22.43 6.88 1.79
SIZE 0.045 0.035 0.032
TEMP 27
L.S. 30
ACTA
MORE -1

WGHT    0.011000    0.667900
EXTI    0.003015
FVAR       0.35951
RU1   2    0.000000    0.000000    0.000000     0.03666    0.00720    0.00720 =
         0.00720    0.00000    0.00000    0.00000
SI2   3    0.500000    0.500000    0.500000    10.04167    0.00731    0.00731 =
         0.00731    0.00000    0.00000    0.00000
RU3   2    0.299633    0.500000    0.000000    10.25000    0.00636    0.02476 =
         0.00762    0.00000    0.00000    0.00000
AL4   1    0.500000    0.315581    0.190382    10.50000    0.02769    0.01517 =
         0.01471    0.00775    0.00000    0.00000
AL5A  1    0.380591    0.000000    0.000000     0.11056    0.03374    0.01991 =
         0.01243    0.00000    0.00000    0.00000
AL5B  1    0.460978    0.000000    0.000000     0.01148    0.00852
AL6A  1    0.180037    0.180037    0.180037     0.08651    0.01772    0.01772 =
         0.01772    0.00618    0.00618    0.00618
AL6B  1    0.138589    0.244484    0.154468     0.21093    0.08667    0.03885 =
         0.03532   -0.02520    0.01793   -0.04414
AL6C  1    0.000000    0.286545    0.124905     0.01503    0.06807
SI6D  3    0.000000    0.157917    0.252256     0.03307    0.03334    0.02800 =
         0.02885   -0.01713    0.00000    0.00000
HKLF 4




REM  asrs14b001_a.res in Pm-3
REM wR2 = 0.0357, GooF = S = 1.221, Restrained GooF = 1.221 for all data
REM R1 = 0.0161 for 492 Fo > 4sig(Fo) and 0.0165 for all 499 data
REM 48 parameters refined using 0 restraints

END

WGHT      0.0110      0.6679

REM Highest difference peak  0.569,  deepest hole -0.600,  1-sigma level  0.095
Q1    1   0.3204  0.0000  0.0657  10.50000  0.05    0.57
Q2    1   0.1448  0.2717  0.0872  11.00000  0.05    0.49
Q3    1   0.0000  0.3381  0.0743  10.50000  0.05    0.44
Q4    1   0.0681  0.0000  0.0648  10.50000  0.05    0.37
Q5    1   0.3479  0.4511  0.0000  10.50000  0.05    0.35
Q6    1   0.2530  0.5000  0.0527  10.50000  0.05    0.34
Q7    1   0.0633  0.2633  0.1774  11.00000  0.05    0.30
Q8    1   0.5000  0.0490  0.0000  10.25000  0.05    0.29
Q9    1   0.4058  0.5000  0.0718  10.50000  0.05    0.29
Q10   1   0.5000  0.1120  0.0881  10.50000  0.05    0.28
Q11   1   0.5000  0.0000  0.1334  10.25000  0.05    0.27
Q12   1   0.0983  0.3169  0.2075  11.00000  0.05    0.27
Q13   1   0.2235  0.4150  0.0000  10.50000  0.05    0.26
Q14   1   0.1420  0.1420  0.1420  10.33333  0.05    0.25
Q15   1   0.0774  0.1108  0.0883  11.00000  0.05    0.24
Q16   1   0.3574  0.4300  0.0614  11.00000  0.05    0.23
Q17   1   0.2083  0.2212  0.1775  11.00000  0.05    0.23
Q18   1   0.4147  0.4106  0.1038  11.00000  0.05    0.23
Q19   1   0.3899  0.3969  0.0667  11.00000  0.05    0.23
Q20   1   0.0000  0.1587  0.3791  10.50000  0.05    0.21
;
_shelx_res_checksum              56698
_shelx_hkl_file
;
   1   0   0    8.34    0.70
  -1   0   0    7.65    0.67
   0  -1   0    6.82    0.57
   0   1   0    6.89    0.56
   0   0   1    5.74    0.56
   1   0   0    7.19    0.64
   0   0  -1    6.55    0.63
   1   0   0    7.04    0.63
   1   0   0    6.38    0.66
  -1   0   0    7.12    0.59
   1   0   0    7.19    0.67
  -1   0   0    7.42    0.68
   0   0   1    6.33    0.61
   0   0   1    6.74    0.60
   0   0  -1    6.78    0.60
   0   0  -1    5.46    0.55
  -1   0   0    7.79    0.67
   1   0   0    7.00    0.75
  -1   0   0    7.79    0.78
   1   0   0    6.76    0.59
  -1   0   0    7.63    0.64
   0   1   0    7.19    0.61
   0  -1   0    7.68    0.65
   0   0   1    6.86    0.63
   0   0  -1    6.06    0.58
   0   0  -1    6.28    0.60
   0   0   1    6.04    0.55
   1   0   0    7.08    0.63
   0   0  -1    6.70    0.60
  -1   0   0    7.60    0.73
   1   0   0    7.80    0.71
   1   1   0  116.71    2.65
   0   1   1  123.36    3.00
   1   1   0  112.12    2.48
   1  -1   0  112.09    2.25
  -1   1   0  113.23    2.73
   0  -1  -1  115.76    2.95
   1   0  -1  112.86    2.73
   0   1  -1  111.11    2.96
  -1   0   1  106.95    2.86
   1   0   1  106.82    3.21
   0  -1   1  116.16    2.89
  -1   0  -1  110.70    3.35
   1   1   0  108.87    2.45
   1   1   0  113.91    2.66
  -1   0   1  107.02    2.90
  -1   0  -1  112.80    3.14
   1   0   1  105.17    2.95
   0  -1   1  114.59    3.08
   1  -1   0  115.77    2.75
  -1   1   0  113.54    2.73
   1   0  -1  108.31    3.07
   0  -1   1  109.44    3.05
   0   1  -1  113.73    2.95
   0  -1   1  107.21    3.01
   0   1  -1  113.36    3.24
   1   0   1  108.50    3.01
   1   0  -1  114.66    2.46
  -1   1   0  111.14    2.57
  -1  -1   0  109.49    3.04
   1   1   0  117.64    2.53
   1   0   1  107.64    3.27
   1  -1   0  113.91    2.91
  -1   0  -1  108.10    3.38
  -1  -1   0  110.99    3.14
   1   0  -1  111.81    2.62
   1   1   0  112.95    3.01
   0   1  -1  117.82    2.64
   1  -1   0  111.80    2.91
  -1   0   1  109.72    2.87
   1   0   1  106.20    2.70
   1   0  -1  109.57    2.25
   1  -1   0  110.75    2.50
   1   0  -1  110.08    3.02
   0  -1  -1  118.96    3.09
   1   0   1  108.50    2.86
   1   1   0  114.11    3.04
   1   0  -1  115.27    2.87
  -1   1   0  114.66    2.91
   1   0   1  108.51    2.54
   0   1   1  118.05    3.20
   1  -1   0  119.62    2.77
  -1  -1   0  113.13    2.84
   1   1   1 1054.71    9.46
   1  -1  -1 1047.00    8.22
  -1  -1   1 1031.09    9.63
  -1  -1  -1  963.99   10.18
   1  -1   1 1016.50    9.93
   1  -1   1  995.76    7.83
   1   1  -1 1061.85   10.26
   1   1  -1 1045.26    8.98
  -1  -1  -1 1059.78   10.19
   1   1  -1  987.01   10.29
   1   1  -1 1029.28    9.83
   1  -1   1  957.70    8.94
   1  -1   1 1043.30    9.82
  -1  -1  -1 1047.21   11.92
  -1   1   1 1012.82    6.96
  -1  -1  -1 1017.03    8.90
   1   1  -1 1028.78    6.59
   1  -1   1 1049.68   10.17
  -1   1  -1 1081.58    9.83
   1  -1  -1  997.15    8.34
   1   1  -1  975.84    9.37
   1   1   1  968.44    8.79
   1   1   1  960.84    7.85
   1  -1  -1 1065.70    9.75
   1  -1  -1 1001.76    6.89
  -1  -1   1  977.55    9.32
   0   2   0 1208.16   10.55
   2   0   0 1187.88   12.00
  -2   0   0 1246.95   12.92
   0  -2   0 1195.05   11.28
   2   0   0 1140.39   11.73
   0   0   2 1206.38   11.70
   0   0  -2 1217.57   12.39
  -2   0   0 1230.26   12.88
   2   0   0 1161.73   12.28
   2   0   0 1198.46   12.19
   2   0   0 1196.83   10.96
   0  -2   0 1191.17    9.47
   0   0  -2 1178.83   11.08
   0   0   2 1239.77   11.17
   2   0   0 1173.60   13.03
  -2   0   0 1118.55   13.89
  -2   0   0 1141.46   12.10
   2   0   0 1234.81   11.48
   2   0   0 1174.29   13.23
  -2   0   0 1240.21   12.36
   0  -2   0 1169.04   11.86
   0   2   0 1237.89   11.17
   0   0   2 1231.57   12.20
   0   0  -2 1247.98   11.29
   0   0   2 1247.54   11.41
   2   0   0 1207.56   12.42
   2   0   0 1190.63    6.36
  -2   0   0 1192.62   13.23
   2   0   0 1152.19   11.27
   1   2   0 1231.10    8.56
   2   0   1 1257.15   12.95
   1  -2   0 1180.38    8.36
   1  -2   0 1203.81   10.90
   2   0   1 1155.85    9.02
  -2   0   1 1225.64   13.37
  -1   2   0 1191.72    8.61
  -2   0  -1 1240.22   13.23
   0  -1  -2 1257.07   12.74
   1   2   0 1212.23   10.91
  -1  -2   0 1205.36    8.76
  -1   2   0 1186.30    9.01
  -2   0   1 1185.55   13.07
  -2   0   1 1191.72    9.56
   0  -1   2 1256.65   12.05
   0   1  -2 1184.52   12.66
   2   0   1 1169.64   13.31
   2   0  -1 1237.29   10.26
  -1  -2   0 1216.74    9.43
   1   2   0 1202.33    8.69
   2   0   1 1126.17   12.08
   0   1   2 1235.32    9.46
   1  -2   0 1181.62    8.45
   2   0  -1 1203.92    9.65
   1  -2   0 1204.24    8.75
  -2   0  -1 1166.15   13.11
  -2   0   1 1230.31   13.91
   0  -1  -2 1223.59    8.88
   2   0  -1 1155.37   13.10
   1   2   0 1180.51    8.57
  -2   0   1 1190.58   10.12
   0  -1   2 1205.24   12.66
   0  -1   2 1263.60   12.88
   0  -1  -2 1194.66    9.79
   2   0  -1 1208.76    9.46
  -1   2   0 1196.14    8.61
   1   2   0 1191.93    9.83
   0   1  -2 1205.96   13.59
   0   1  -2 1225.71   12.12
  -1  -2   0 1162.35   11.17
  -2   0  -1 1257.24   14.89
   1   2   0 1219.05    9.33
  -2   0  -1 1263.92   15.30
   2   0   1 1229.11   14.08
   1   2   0 1180.54    8.07
   1  -2   0 1244.96    9.42
   1   2   0 1211.88   11.31
   1  -2   0 1232.44   12.56
   2   0  -1 1182.64   11.76
  -1   2   0 1139.37   11.41
   2   0  -1 1174.06    7.07
   2   0   1 1206.11    9.63
   0  -1   2 1230.00   12.68
   0   1  -2 1233.37   11.98
   0  -1   2 1232.69   12.61
   2   0  -1 1169.21    6.87
   0   1   2 1230.73   11.31
   2   0  -1 1167.31   11.72
   0   1   2 1242.58   13.28
   2   0  -1 1186.87   10.38
   2   0   1 1175.05   12.06
  -2   0  -1 1179.05   12.94
  -1   2   0 1218.57    9.25
  -1  -2   0 1216.08    9.40
  -2  -1   0 1707.18   10.56
   2   1   0 1763.74   10.31
   2   1   0 1727.75   14.34
   0   2   1 1678.14   13.07
  -2   1   0 1636.21   15.05
   0  -2  -1 1747.74   14.63
   0  -2   1 1720.65   13.57
   1   0  -2 1770.10   15.01
   1   0   2 1675.84   14.20
  -2   1   0 1631.23    7.93
   0   2  -1 1709.34   14.22
   2   1   0 1758.49   14.64
   2  -1   0 1662.19   14.67
  -2   1   0 1648.26   15.05
  -1   0   2 1777.34   14.48
   2   1   0 1666.20   13.64
  -1   0  -2 1717.29   14.30
   1   0   2 1624.12   15.13
   0  -2   1 1743.11   14.90
   1   0  -2 1733.74   12.86
   0   2  -1 1609.92   14.97
   1   0   2 1815.95   13.70
   2  -1   0 1655.53    8.98
  -2  -1   0 1664.29   16.69
  -2   1   0 1724.92   14.76
   2   1   0 1771.67   13.87
   2  -1   0 1685.33   15.66
   2   1   0 1647.95   14.06
  -1   0   2 1703.10   11.39
   2  -1   0 1607.25   13.22
   2   1   0 1765.15   15.10
   0  -2  -1 1775.69   15.33
   0   2  -1 1759.63   13.61
   0   2   1 1641.48   13.84
  -2  -1   0 1555.71   15.30
   2   1   0 1687.66    9.22
   1   0  -2 1710.31   15.68
   1   0   2 1731.28   13.56
   1   0   2 1745.99   15.13
   0  -2  -1 1662.40   14.53
   0   2   1 1652.99   15.82
  -1   0   2 1785.18   14.64
   1   0  -2 1750.25   13.15
   2  -1   0 1653.43    9.82
  -2  -1   0 1708.15   16.08
  -2   1   0 1749.07   10.46
  -2  -1   0 1634.69   15.87
   2   1   0 1652.98   14.77
  -1   0  -2 1717.43   12.99
  -2   1   0 1738.98   15.11
   2  -1   0 1732.01   14.97
   1   0  -2 1786.13   15.13
   2   1   1  633.99    9.21
   1  -2  -1  628.85    8.55
   2   1   1  684.93    7.89
  -1  -1  -2  628.56    9.45
  -1   1   2  616.71    7.89
  -1  -2  -1  591.09    9.04
  -1   2   1  609.36    7.59
   1   2   1  624.29    8.43
  -2   1  -1  619.98    9.36
  -2   1   1  630.96    5.37
   1  -2   1  636.58    7.24
   2  -1  -1  621.34    5.68
  -2   1   1  612.51    9.48
   1   1   2  641.65    8.78
   1   2   1  627.46    7.44
   1  -1  -2  613.80    8.56
  -2  -1  -1  591.92    7.77
   1  -2   1  637.08    7.75
   1  -2   1  625.91    7.28
   2  -1   1  631.96    8.07
  -1  -2   1  643.15    9.02
   1  -1   2  626.12    8.32
   1   1  -2  638.47    9.80
   2  -1   1  619.77    9.59
  -2   1  -1  601.11    8.24
   2   1  -1  608.53    8.87
   2  -1   1  604.04    5.94
   2  -1  -1  604.15    6.02
  -1   2  -1  620.91    7.62
  -1   2  -1  599.50    7.67
   1   2  -1  649.16    9.62
  -1  -2  -1  602.63    8.00
   1  -1   2  625.40    4.53
  -1  -1   2  633.15    9.07
  -2   1   1  601.22    5.61
   1   1  -2  609.43    7.05
  -1  -1   2  651.97    9.63
  -1   1   2  628.23    8.20
  -1  -1  -2  622.69    8.93
   1  -2   1  627.17    9.06
  -2  -1  -1  641.05   10.00
   2   1  -1  618.29    9.57
   2  -1  -1  618.33    7.00
   2   1  -1  616.82    6.98
  -2  -1   1  590.72    9.75
   1   2  -1  620.78    8.72
   1   1   2  648.73    8.30
   2   1   1  665.91    9.29
   1  -1   2  597.79    9.28
  -1   1   2  633.68    7.43
   1   2  -1  634.95    9.18
   1  -2   1  610.98    8.25
   1  -1   2  644.72    9.45
  -1   1  -2  557.37    9.63
   2  -1   1  640.80    8.11
   1   1   2  619.37    9.69
   1   1  -2  611.09   10.14
  -1   2  -1  624.53    7.88
  -2   1  -1  604.68    7.61
   1   1   2  621.90    6.53
   1   2  -1  624.66    9.44
   1  -1  -2  645.78    7.26
   1   1  -2  632.41    8.94
   1  -1   2  622.26    8.66
   1   2   1  626.25    7.20
  -2  -1  -1  623.07   11.05
   1   2  -1  623.36    5.66
  -1   1  -2  627.09    9.09
   2   1  -1  620.25    9.00
  -2  -1  -1  601.01   10.56
  -1  -2   1  636.17    5.88
   1  -2   1  628.04    7.75
   1  -1  -2  629.07    5.61
  -2   1   1  598.51    8.20
   2  -1   1  627.47    9.98
   2  -1   1  629.24    9.47
  -2   1   1  624.92    6.94
  -1  -1   2  617.46    5.79
   1  -1  -2  631.21    5.28
   1  -2   1  609.48    9.58
  -1  -2  -1  636.99    8.51
  -1   2  -1  622.11    8.84
   2  -1  -1  622.83    7.36
   1   1   2  626.95    6.79
   1   2  -1  617.24    7.60
   2   1  -1  614.65    9.10
  -1   1   2  635.99    7.01
   1  -2  -1  627.72    8.97
  -1  -2   1  563.83    7.64
   1   1  -2  621.96    8.45
  -2   1  -1  607.55    6.78
   1   1   2  625.02    7.21
   1   2   1  644.00    9.59
   1  -2  -1  646.74    9.19
   1  -1   2  613.73    9.22
   2   1   1  616.67    6.74
   1  -1  -2  613.27    9.53
   1   1  -2  615.13    9.84
  -1   1   2  645.75    8.95
   2   1  -1  595.70    8.08
  -1  -1  -2  608.77    7.49
  -2  -1   1  592.19    7.50
  -2   1   1  612.35    8.40
  -1   1   2  628.78   10.15
   1   2  -1  620.27    7.99
   1   1   2  623.02    9.11
  -1  -1  -2  611.21    7.27
   2   1   1  624.16    8.46
   2   1   1  613.80    9.26
   2  -1  -1  620.79    8.08
   1  -1  -2  648.46    9.44
  -1  -1  -2  610.32    8.33
  -2  -1   1  594.97    9.55
  -1   2   1  621.71    6.47
  -2   1  -1  609.49    9.83
   2  -1  -1  597.67    7.95
   1   1   2  626.05    7.07
   2   0   2   14.23    1.28
   2  -2   0   18.04    1.35
   2   2   0   17.74    1.37
   2   2   0   19.32    1.54
   0  -2  -2   17.32    1.68
   2  -2   0   21.14    1.56
  -2   2   0   19.66    1.61
  -2  -2   0   17.57    1.57
  -2  -2   0   19.68    1.53
  -2   2   0   18.80    0.77
   2   0   2   14.46    1.63
  -2   0  -2   14.44    1.68
   0  -2   2   17.52    1.53
   2   0  -2   11.67    1.25
  -2   0   2   12.83    1.22
  -2   0   2   14.35    1.51
   2   2   0   19.73    1.57
  -2   0   2   15.16    1.54
   2   0  -2   13.04    1.52
  -2   2   0   19.53    1.34
   2  -2   0   17.40    1.40
   2   2   0   19.29    1.58
   0  -2   2   17.60    1.73
   2   2   0   18.04    1.45
   0  -2  -2   16.47    0.98
   2  -2   0   15.92    1.44
  -2   0   2   14.59    0.97
  -2  -2   0   19.79    1.40
   2   0  -2   13.65    1.19
  -2   0   2   12.11    1.23
  -2   2   0   19.32    0.93
   2  -2   0   18.88    0.99
   0  -2   2   18.52    1.78
   2   0   2   12.95    1.51
   0   2  -2   17.18    1.84
   2   2   0   20.81    1.48
  -2  -2   0   20.56    1.87
  -2   2   0   18.39    1.53
   2  -2   0   19.87    1.61
   2   2   0   20.24    1.71
  -2  -2   0   17.02    1.46
   2   0   2   13.71    1.69
   2  -2   0   18.95    1.41
   2   2   0   19.08    1.69
   0   2  -2   18.55    1.49
   0  -2  -2   18.10    0.96
   2  -2   0   18.85    1.69
   0  -2   2   16.01    1.48
  -2   0   2   14.69    1.43
   2   0  -2   16.99    1.43
  -2  -2   0   17.72    1.79
  -2   0   2   12.12    1.13
   2   0  -2   14.05    1.54
  -2   2   0   18.34    1.54
   0   2  -2   16.12    1.58
   2   0   2   14.76    1.42
  -2   0  -2   13.77    1.25
   0  -2  -2   17.69    1.51
   2  -2   0   18.87    1.49
  -2  -2   0   17.65    0.94
   2   0  -2   13.45    1.14
   2   0   2   13.96    1.32
  -2   0  -2   12.51    0.95
  -2  -2   0   19.24    1.69
   0   2  -2   18.28    0.91
  -2   2   0   16.43    1.57
  -2   2   0   17.95    1.61
   0   2   2   18.25    1.81
   2   0  -2   15.87    1.51
  -2  -2   1   23.35    1.85
   2  -2   1   25.00    1.81
  -1  -2  -2   24.02    2.05
  -1   2   2   26.49    1.86
   2  -2  -1   25.25    1.64
   2   2   1   24.70    1.73
  -2   2   1   26.01    1.93
  -2   2   1   25.39    1.45
   2   2   1   24.36    1.80
   1  -2  -2   25.13    1.94
  -2  -2   1   23.74    1.67
   1   2   2   24.10    1.88
  -2   1   2   22.51    1.42
   2   1   2   22.66    1.70
   2  -2   1   23.51    1.24
   2   1  -2   20.57    1.82
   2  -1   2   22.79    1.43
  -1  -2  -2   24.71    2.08
   2  -1  -2   19.32    1.61
   2  -2   1   24.85    1.92
  -1  -2   2   24.12    1.93
  -2   2  -1   25.51    1.80
  -2   2  -1   26.75    1.35
   2  -1   2   21.03    1.98
   1  -2   2   21.71    1.72
   2   2  -1   25.42    2.11
  -2  -1  -2   20.95    2.08
   2  -1   2   19.40    1.48
   2   2   1   22.17    1.82
  -1   2  -2   25.36    2.05
   1   2  -2   24.15    2.12
  -1   2  -2   24.74    1.85
  -2   1   2   18.88    1.50
   2   1  -2   22.84    1.72
   2  -1  -2   22.61    0.98
  -2  -1   2   19.78    1.74
  -1  -2  -2   23.26    1.87
   2  -2   1   24.15    1.76
  -2  -2   1   24.19    1.97
  -2  -1   2   18.56    1.59
   2   1  -2   21.81    2.13
  -2  -2  -1   23.45    2.12
   2   2  -1   24.56    2.05
  -2   2   1   23.20    1.95
   1  -2  -2   21.05    1.61
   2   2   1   25.89    1.41
  -2  -1  -2   23.32    2.11
  -2  -2   1   22.31    1.76
   2   2  -1   26.22    1.79
   1  -2   2   25.03    2.08
  -2  -2   1   24.35    1.90
  -1   2  -2   23.93    1.82
  -2   1  -2   21.69    1.71
  -2   2  -1   26.54    1.59
  -1   2   2   22.99    1.46
   2  -1  -2   20.17    1.21
   2   1  -2   20.83    1.71
   2  -2   1   23.60    1.63
   2  -1   2   23.10    1.93
   1  -2   2   25.16    2.07
  -2   1   2   21.69    1.28
   1   2  -2   23.25    1.92
   1  -2   2   23.94    2.02
  -1  -2   2   25.41    2.17
   1   2  -2   22.99    2.18
   2   1   2   21.47    2.18
   1  -2   2   22.06    1.50
  -2  -2  -1   24.80    2.32
  -2  -2   1   23.41    1.77
  -2  -1  -2   21.38    2.27
   2  -1  -2   21.03    1.46
  -1   2  -2   23.67    1.65
   2   2  -1   25.48    1.81
   2   2   1   32.95    1.98
  -2  -2  -1   25.87    2.19
   2  -1   2   19.59    1.87
  -2   2  -1   21.77    2.02
   2  -2   1   25.52    2.06
   2  -2   1   23.44    2.09
  -2  -2   1   25.32    2.21
  -1   2   2   23.78    1.72
  -2  -2  -1   23.35    1.98
   2  -1  -2   21.11    1.50
  -2   1   2   20.14    1.21
   2  -2  -1   25.03    1.88
  -1  -2  -2   27.11    1.63
  -2   2  -1   19.10    1.70
  -1  -2   2   22.78    1.59
   2   2  -1   26.44    1.63
   2  -1  -2   20.70    1.28
  -1   2  -2   24.37    1.86
  -2   2   1   23.99    1.71
   1   2  -2   25.62    1.55
   2   2   1   24.63    1.91
   1   2   2   24.89    1.46
   1  -2  -2   23.23    1.83
  -2   1  -2   20.61    1.59
   2   1  -2   27.22    2.24
   2  -2  -1   26.10    1.85
  -2  -1   2   21.11    1.74
  -1  -2  -2   23.77    1.89
  -2   1   2   20.25    1.47
   2   2   1   24.57    1.86
   2   1   2   22.37    1.28
  -1  -2   2   21.36    1.84
   2  -1  -2   23.14    2.10
  -2  -2   1   23.84    1.56
  -2  -1  -2   22.09    1.53
   2  -1   2   20.43    1.71
   2   1  -2   21.18    1.55
  -1  -2  -2   23.66    1.46
  -2  -2   1   24.10    2.07
  -2  -1  -2   22.08    1.82
   2   2  -1   25.65    1.94
   2   1   2   22.35    1.85
   1   2   2   27.21    2.17
   2  -2   1   26.17    1.92
   2  -1  -2   21.06    1.79
   2   1   2   20.88    1.63
   2   2   1   21.43    1.80
   1   2   2   23.71    1.32
   2   1   2   20.13    1.52
  -2   1  -2   16.86    1.83
   1  -2  -2   22.95    1.95
  -2   2   1   25.10    1.96
  -1   2   2   21.39    2.08
  -2   1  -2   20.55    1.45
  -2   2   1   24.01    1.77
   2  -2  -1   27.26    1.72
   2  -2   2  575.90    9.63
  -2   2   2  595.74    8.10
   2   2   2  611.93   10.17
   2  -2  -2  578.22    8.82
   2   2   2  601.94   10.11
  -2   2  -2  561.83    8.46
  -2  -2  -2  553.21   11.06
  -2   2  -2  584.73    7.71
   2   2  -2  564.40   10.96
   2  -2   2  566.50   10.17
  -2   2   2  574.86    8.19
  -2   2  -2  576.84   10.92
   2  -2   2  564.90    8.07
  -2  -2   2  572.65   10.06
  -2  -2  -2  554.87   10.77
   2  -2   2  573.42   10.10
  -2   2   2  575.60    5.63
   2  -2   2  549.04    9.76
   2   2  -2  577.11   10.12
   2   2  -2  535.52   11.05
   2  -2   2  567.89   10.77
  -2   2  -2  579.21    9.16
  -2   2  -2  594.38   10.82
  -2  -2  -2  578.55   12.94
   2  -2   2  562.60    9.91
  -2   2   2  534.84    7.08
   2   2  -2  575.73    8.25
  -2  -2  -2  562.40    8.94
  -2  -2   2  572.34    7.01
   2   2   2  571.10    8.93
   2   2  -2  582.91    6.85
   2  -2  -2  569.00    8.98
   2  -2   2  550.77   10.73
  -2   2   2  570.89    8.24
  -2   2  -2  560.47    9.05
   2  -2  -2  546.17   10.94
   2   2  -2  541.41   10.24
  -2  -2  -2  569.74    5.68
  -2  -2   2  560.29    9.24
  -2  -2  -2  576.45    9.12
   2   2   2  544.65    9.34
  -2  -2   2  559.43    9.88
   2  -2  -2  573.53    9.94
   2  -2  -2  586.20    7.26
   2   2   2  548.68    8.19
   0  -3   0   66.39    3.31
  -3   0   0   71.50    3.77
   3   0   0   66.31    3.42
   0   0  -3   60.81    3.42
   3   0   0   69.15    3.32
   3   0   0   67.27    2.42
   0   0   3   61.19    3.19
   3   0   0   73.45    3.23
  -3   0   0   67.65    3.70
   3   0   0   68.01    3.50
   3   0   0   69.84    3.60
   0   0   3   61.41    3.00
   0  -3   0   67.96    2.70
   0   0  -3   64.14    3.09
   3   0   0   68.73    3.84
   3   0   0   67.86    3.28
  -3   0   0   69.38    3.63
   3   0   0   61.79    3.62
  -3   0   0   68.24    3.60
   0   3   0   64.23    3.08
   0  -3   0   65.62    3.40
   0   0  -3   65.10    3.09
   0   0   3   60.08    3.35
   0   3   0   67.51    3.64
   0   0   3   61.33    3.07
  -3   0   0   69.32    3.97
   3   0   0   62.02    3.14
   3   0   0   66.84    1.80
   3   0   0   64.34    3.50
   3   0   1    2.66    0.77
   1   3   0    1.77    0.54
  -1  -3   0    2.60    0.36
  -3   0   1    1.95    0.61
   1  -3   0    2.21    0.74
   3   0   1    2.34    0.41
  -1  -3   0    3.02    0.68
  -1   3   0    2.69    0.39
  -3   0  -1    2.42    0.70
   3   0   1    2.75    0.68
   3   0  -1    3.07    0.63
   0  -1   3    2.35    0.64
  -1   3   0    2.43    0.58
   0   1  -3    2.29    0.75
   0  -1   3    2.55    0.32
  -3   0   1    2.50    0.74
   3   0  -1    2.20    0.55
  -3   0   1    2.45    0.50
   3   0  -1    4.26    0.75
  -3   0  -1    1.45    0.55
   3   0   1    2.45    0.72
  -3   0   1    2.17    0.56
  -3   0   1    2.10    0.65
   3   0  -1    2.34    0.74
  -3   0   1    2.99    0.92
   0   1   3    1.74    0.35
   0   1  -3    2.23    0.50
   1   3   0    3.19    0.58
   0  -1   3    2.81    0.71
   0  -1   3    2.29    0.77
   0   1   3    3.53    0.68
   0  -1  -3    2.60    0.59
   0  -1  -3    1.91    0.51
  -1  -3   0    2.29    0.48
   1  -3   0    2.84    0.43
  -3   0  -1    2.21    0.59
   3   0   1    1.70    0.57
   3   0   1    3.56    0.79
  -3   0  -1    1.18    0.72
   1   3   0    2.76    0.43
   3   0  -1    2.81    0.72
  -3   0  -1    1.76    0.62
  -3   0   1    1.94    0.62
  -3   0  -1    2.56    0.68
   3   0   1    2.66    0.77
   3   0  -1    2.35    0.43
  -1   3   0    2.54    0.70
  -1   3   0    2.57    0.57
   0  -1   3    3.14    0.63
   1   3   0    2.55    0.47
   3   0  -1    4.21    0.85
   1  -3   0    3.11    0.77
   3   0   1    3.05    0.51
   3   0  -1    2.42    0.59
   0  -1   3    1.68    0.40
   0  -1   3    1.61    0.68
   3   0  -1    2.12    0.28
   0   1   3    3.16    0.69
   0   1   3    1.03    0.42
   0   1  -3    3.94    0.77
   3   0  -1    2.05    0.46
   0   1   3    2.15    0.78
   3   0   1    3.54    0.85
   0  -2  -3 9276.95   44.96
  -2  -3   0 9513.15   34.98
   2   3   0 9673.04   37.38
   2   3   0 9705.17   33.77
   3   0   2 9748.92   48.03
   0  -2  -3 9512.55   32.59
   2   3   0 9597.63   33.95
   3   0  -2 9536.47   48.48
   0   2  -3 9218.06   49.34
   0  -2   3 9598.00   44.07
   0  -2   3 9837.00   46.67
   2   3   0 9725.69   36.02
   0   2  -3 9673.67   42.65
  -3   0  -2 9691.71   53.87
   3   0  -2 9520.45   39.91
   2   3   0 9314.82   36.40
   3   0  -2 9328.28   40.15
  -2  -3   0 9587.38   46.99
   3   0   2 9419.07   37.45
   0  -2  -3 9815.46   42.60
   0  -2   3 9999.00   45.06
  -3   0   2 9751.82   39.74
   3   0  -2 9223.76   38.11
  -3   1   0  324.55    8.04
  -3  -1   0  333.22    5.06
   0  -3  -1  307.79    7.38
   3   1   0  306.25    7.42
   3   1   0  307.43    4.53
   1   0  -3  316.20    7.96
   1   0   3  316.49    7.43
   0  -3   1  317.28    6.76
   3   1   0  324.81    6.90
   3  -1   0  315.52    6.96
   1   0   3  322.53    6.61
   3   1   0  327.51    7.20
   3  -1   0  309.31    7.61
  -1   0   3  320.33    7.18
   0   3  -1  290.06    6.94
   3   1   0  316.56    7.61
   0   3  -1  284.48    6.54
   1   0   3  318.14    7.99
   0  -3  -1  319.49    4.80
   1   0   3  315.99    6.76
  -1   0  -3  320.85    7.29
  -1   0  -3  312.19    7.33
   0  -3   1  295.89    6.67
   1   0  -3  311.40    6.63
   0   3  -1  302.49    7.36
  -3   1   0  318.08    7.84
   3  -1   0  315.87    8.26
  -3  -1   0  287.95    7.59
   3  -1   0  315.62    8.20
   3   1   0  329.80    7.19
  -3  -1   0  319.29    8.98
   3   1   0  300.79    7.14
   3  -1   0  306.70    6.75
  -1   0   3  314.88    5.41
   0   3  -1  320.09    6.92
   0  -3  -1  302.00    7.70
   0   3   1  321.33    7.11
   3   1   0  317.61    7.65
   0   3   1  317.07    8.23
  -1   0   3  321.57    7.26
   3  -1   0  309.19    4.40
   3   1   0  323.51    5.29
   1   0  -3  312.80    6.80
   1   0   3  324.35    6.98
   0  -3  -1  309.69    7.40
   1   0   3  316.37    7.80
   1   0  -3  309.38    8.04
  -3   1   0  312.82    4.69
  -1   0  -3  343.16    7.05
  -3  -1   0  314.83    8.55
   3  -1   0  307.07    7.69
   1   0  -3  327.67    7.62
  -3  -1   0  305.21    8.30
  -3   1   0  317.34    7.89
  -3   1  -1   82.21    4.19
  -3  -1   1   79.33    2.32
  -3   1   1   82.40    4.14
   1   1   3   85.90    3.69
  -3  -1  -1   78.88    3.03
  -1   1   3   85.27    3.49
   1  -3   1   78.71    2.51
  -3   1   1   79.03    1.47
   1   3   1   85.19    2.65
  -1  -3  -1   83.94    3.92
   1   3   1   83.17    3.56
   3   1   1   80.97    3.86
  -1   3   1   83.07    3.34
   3   1   1   82.85    2.89
   1  -3  -1   85.61    3.80
  -3   1   1   79.14    2.15
   3   1  -1   78.79    3.48
  -1  -1   3   84.21    2.94
   1   1  -3   82.09    4.17
   3  -1   1   82.18    3.57
  -3   1   1   76.27    4.03
  -3  -1   1   80.29    3.33
   1  -1   3   85.80    3.74
  -1  -1   3   83.25    3.70
  -1   1   3   81.11    3.65
   3  -1  -1   79.32    2.27
  -1   3  -1   85.52    3.40
   1  -3   1   85.28    3.22
  -3   1   1   84.66    4.25
   3  -1  -1   83.17    3.23
  -1  -1  -3   81.42    3.57
  -1   1   3   83.01    3.46
   1  -1  -3   82.81    3.76
   3   1   1   80.53    3.73
  -1  -3  -1   82.07    1.86
   1   3  -1   86.67    3.83
  -3  -1  -1   80.62    4.25
  -1  -1   3   88.09    4.02
   3   1  -1   81.51    4.15
   1   1   3   82.26    3.21
  -1   3   1   81.50    2.71
   3   1  -1   80.06    2.54
  -3  -1   1   78.81    4.30
  -3  -1   1   79.67    3.65
  -1  -3   1   79.80    2.75
   3  -1   1   79.02    3.79
  -1   3  -1   73.06    3.48
  -1  -3   1   86.78    3.56
   1  -1   3   82.01    4.13
   1   3  -1   78.79    3.73
   1  -3   1   84.38    3.79
   1   1  -3   79.59    4.30
   1  -1  -3   81.43    3.27
  -1  -1  -3   79.95    3.17
   1   1  -3   83.83    3.76
  -1   3  -1   82.34    3.29
   1  -1   3   83.22    3.83
   1  -3   1   79.07    3.53
  -1   1   3   81.04    3.47
   1   1   3   84.44    3.10
   3  -1   1   87.68    3.44
  -1   1  -3   83.43    3.96
   3   1  -1   84.25    3.72
  -3   1  -1   80.55    3.96
   3  -1   1   87.02    4.39
  -1  -3   1   81.13    2.39
  -1  -3  -1   83.27    2.99
   3  -1   1   78.12    4.17
  -3  -1  -1   81.46    4.79
  -1   3  -1   80.76    2.86
  -3  -1  -1   81.13    4.69
  -3   1   1   79.76    3.75
   3   1  -1   77.21    3.90
   3   1  -1   85.85    3.96
   1  -3  -1   79.48    3.90
  -1  -1   3   82.40    2.58
  -1  -3   1   95.40    3.97
   3  -1  -1   82.25    2.16
   1   3   1   89.11    3.88
   1   3  -1   84.00    3.43
   1  -3   1   79.35    4.02
   3  -1   1   75.59    3.74
   3  -1  -1   76.22    3.01
  -1   3  -1   81.73    3.67
  -1  -3  -1   86.09    3.81
   1   1  -3   85.74    3.65
   3   1  -1   87.77    3.50
   1   3   1   85.38    4.29
   1   1   3   79.78    3.29
  -3   1   1   84.24    1.60
   1  -1   3   85.96    3.90
   1   1   3   82.67    4.09
  -3  -1   1   80.66    2.99
  -3   1  -1   81.78    1.74
  -1  -1   3   76.44    3.66
  -1   1   3   85.18    3.78
  -1  -1  -3   79.06    3.55
   1  -1   3   79.19    3.94
   1   1  -3   82.87    4.33
   3   1   1   79.27    2.34
  -3   1  -1   81.70    2.50
   1  -3  -1   82.20    3.76
   3  -1   1   83.12    3.90
  -1  -1  -3   85.96    3.67
  -3   1  -1   78.33    4.17
   3   1   1   80.21    3.62
  -1  -1  -3   82.57    3.06
   3   1   1   76.92    3.80
   3  -1  -1   80.93    3.03
  -3  -1   1   80.86    4.33
   1   1   3   83.07    3.98
   3  -1   1   80.77    4.07
   1  -1  -3   85.77    3.98
   3  -1  -1   83.89    3.57
  -1   1   3   89.16    4.47
  -3  -1   1   80.67    4.30
  -3   1   1   85.07    3.32
   2   3   1    9.92    1.12
  -2   3   1   11.54    1.27
  -3  -1  -2   14.93    1.56
   1   2   3   13.23    1.56
   3   1   2   13.42    1.36
  -2   3   1   11.22    1.17
   2   3   1   12.42    1.43
  -2  -3   1    9.74    1.24
  -1   2   3   13.67    1.49
   2  -3  -1   10.06    1.26
  -3   1   2   12.74    0.99
  -2  -3   1   10.09    1.19
   3   1   2   14.54    1.74
  -2  -3  -1   11.79    1.79
   2  -3   1   10.67    1.24
   1  -2  -3   11.14    1.54
  -1  -2  -3   14.43    1.79
  -3   1   2   14.99    1.25
   1   2  -3   11.33    1.66
   2   3  -1    9.83    1.55
   3  -1   2   14.50    1.35
  -3  -1   2   13.12    1.50
   3  -1  -2   12.58    1.30
   3   1  -2   12.88    1.60
  -2   3  -1   10.58    1.03
   1  -2   3   11.72    1.41
  -3   1   2   11.70    1.67
   2   3   1   10.99    1.27
   3   1  -2   13.60    1.61
   3  -1   2   13.23    1.40
   2  -3   1   10.43    1.23
  -1   2  -3   10.93    1.46
   2  -3   1   11.25    1.05
  -1  -2   3   14.52    1.67
   3  -1   2   12.12    1.60
   1   2  -3   11.97    0.99
  -2   3   1   10.50    1.28
   1  -2  -3   14.37    0.89
   1  -2  -3   10.42    1.28
   3   1  -2   13.62    1.85
   2   3  -1   10.32    1.30
  -2   3  -1   11.19    1.34
   3  -1   2   13.86    1.62
  -2   3   1   11.67    1.33
   1   2   3   12.87    0.97
  -2  -3   1   10.46    1.24
  -3  -1   2   12.40    1.24
  -2  -3   1   10.66    1.30
  -3  -1  -2   14.73    1.98
  -2  -3   1   11.03    1.29
  -1  -2  -3   13.13    1.50
  -3  -1   2   12.84    1.94
  -3  -1   2   13.14    1.40
   3  -1  -2   13.26    1.11
  -1  -2  -3   11.35    0.95
  -2   3   1   11.06    0.74
   1  -2   3   11.73    1.57
   1   2  -3   12.83    1.84
   2   3  -1   10.53    1.44
  -1  -2   3   11.12    1.63
   2   3   1    8.43    0.74
   1  -2   3   13.37    1.75
  -1   2   3   11.83    1.35
   1   2  -3   12.33    1.58
   3  -1   2   14.83    1.72
  -1   2  -3   13.68    2.00
   2  -3   1    9.88    1.20
  -1  -2   3   11.67    1.61
  -2   3  -1   12.86    1.19
   3   1  -2   12.75    1.42
   3  -1  -2   13.13    1.00
   3  -1   2   12.51    1.79
   2   3  -1   10.18    1.10
   2  -3  -1   11.25    1.12
   2  -3   1   10.68    1.42
  -1   2  -3   11.13    1.32
  -2   3  -1   10.65    1.20
  -2   3  -1   10.17    1.28
  -1  -2  -3   11.44    0.98
   3   1   2   11.91    1.84
   2   3   1    9.62    1.28
   2   3  -1   10.35    1.18
  -2  -3  -1   10.68    1.22
  -3  -1  -2   14.10    2.24
  -2  -3   1    9.33    1.16
  -3  -1  -2   14.54    2.15
  -2  -3  -1   12.02    1.53
   1   2  -3   14.27    1.22
  -2  -3   1   10.22    1.64
   2   3  -1   12.86    1.40
  -2   3   1   10.71    1.31
  -2   3  -1   13.41    1.59
   2  -3  -1   11.55    1.53
  -1   2   3   10.88    1.24
   3  -1  -2   15.26    1.18
  -3   1   2   13.71    1.03
   3   1  -2   11.90    0.62
   2  -3   1   11.38    1.67
   3  -1  -2   12.87    1.46
   3   1  -2   14.28    1.65
   3   1   2   15.47    1.70
   1  -2   3   10.23    1.37
  -1  -2   3   12.19    1.23
   1   2   3   11.56    0.92
  -2  -3  -1   12.20    1.66
  -3   1   2   14.44    1.12
   2   3   1    8.61    1.29
   3   1  -2   13.08    1.17
   2  -3  -1   11.35    1.41
  -3  -1   2   14.71    1.50
   2   3   1   11.12    1.55
   3   1  -2   12.95    1.60
  -3  -1  -2   12.94    1.05
  -3   1  -2   13.38    1.31
   3  -1  -2   14.28    1.82
   1   2  -3   11.27    1.37
   3  -1   2   10.54    1.28
   1   2   3   12.95    1.27
  -1  -2  -3   13.14    1.43
  -2  -3   1   11.61    1.23
   3   1   2   12.20    1.42
  -3   1  -2   12.79    1.47
   2   3  -1   10.60    1.35
  -2   3   1   11.89    1.62
   3   1   2   14.24    1.63
   2  -3   1    8.37    1.13
  -2   3   1   11.44    1.28
  -1   2   3   12.15    1.77
   3   1   2   12.99    1.09
  -1  -2   3   11.43    1.04
  -3   1  -2   13.39    1.79
  -3  -1  -2   13.25    1.69
  -3   1   2   13.86    1.67
   3  -1  -2   13.89    1.47
   3   1   2   13.12    1.60
   1   2   3   12.90    1.69
  -1  -2  -3   12.31    1.55
   3  -1  -2   12.45    1.36
   2   3   1   10.61    1.30
   1  -2  -3   13.55    1.69
   3   2   0  160.54    5.32
  -3  -2   0  167.86    5.85
   0  -3  -2  158.58    5.73
   3  -2   0  163.18    3.73
   3   2   0  155.91    4.19
  -3   2   0  164.62    5.74
   3  -2   0  166.07    5.48
  -3  -2   0  167.46    4.59
   2   0   3  171.99    5.30
  -2   0   3  163.72    5.14
   3   2   0  172.38    5.91
  -2   0   3  166.00    5.54
  -2   0  -3  170.02    6.94
   0  -3   2  155.84    5.12
   2   0  -3  174.45    5.90
   3   2   0  159.78    5.41
   3  -2   0  161.39    5.54
   0  -3  -2  152.64    2.90
   0  -3   2  154.49    5.89
   3   2   0  164.32    5.49
   0   3  -2  149.76    5.33
   3  -2   0  171.47    5.57
   3   2   0  156.24    5.14
  -3   2   0  158.82    3.56
   2   0   3  165.71    5.50
  -2   0   3  164.62    5.57
   2   0   3  168.31    6.30
  -2   0   3  167.32    5.24
   2   0  -3  160.06    4.81
   0  -3   2  152.82    5.37
   3  -2   0  159.60    3.02
   2   0   3  164.72    5.17
   0  -3   2  147.77    5.70
   0   3  -2  157.00    6.09
  -3  -2   0  163.67    6.48
   3   2   0  168.92    5.94
   3   2   0  167.58    5.62
   3   2   0  167.65    6.02
   3   2   0  164.18    5.05
   3  -2   0  164.96    5.88
   3  -2   0  166.59    5.09
   0  -3   2  154.92    5.35
   3  -2   0  166.01    5.69
  -2   0   3  166.77    2.32
   0   3  -2  152.99    4.89
  -2   0   3  168.16    4.85
  -3  -2   0  159.79    6.25
  -3   2   0  159.99    4.98
  -3  -2   0  161.45    2.93
   2   0  -3  166.51    4.79
  -2   0   3  160.57    5.08
   0  -3  -2  151.03    4.80
  -2   0  -3  174.47    5.34
   3  -2   0  166.70    4.25
   3   2   0  159.59    3.24
   2   0   3  169.79    5.94
   2   0  -3  162.59    6.28
   2   0   3  167.73    5.03
   0  -3  -2  141.14    5.30
   0   3   2  151.25    6.07
  -2   0  -3  171.17    5.73
  -2   0  -3  169.22    4.64
  -3   2   0  158.74    6.11
   2   0  -3  172.92    5.80
  -3   2   0  164.69    4.52
  -3   2   0  155.99    5.83
   2   0   3  158.95    4.47
  -3  -2   0  154.49    6.28
  -3  -2   0  162.57    6.16
  -1  -3  -2 4860.01   32.64
  -3  -2   1 5343.78   33.09
  -1   3   2 5043.22   28.23
   1  -3  -2 5122.64   32.24
   1   3   2 5062.23   29.59
  -3   2  -1 4983.84   32.41
   3   2   1 4788.23   29.57
  -3   2   1 5049.17   32.78
   2   1   3 4765.60   28.54
  -3  -2   1 5191.70   25.13
   3  -2   1 5196.08   31.01
  -2   1   3 5069.50   25.89
   2  -1   3 5237.21   21.35
  -3   2  -1 4950.83   30.92
  -1   3  -2 5092.13   29.75
   2   1  -3 5253.23   34.39
   3  -2   1 5113.25   15.54
   1  -3   2 5352.92   28.19
   3   2  -1 5272.36   33.23
  -1  -3   2 5135.52   31.68
  -2  -1   3 5097.47   29.41
  -1  -3  -2 4891.39   28.43
  -2   1   3 5049.53   28.05
  -3   2   1 5177.55   14.37
  -1   3  -2 5059.48   28.21
  -2  -1  -3 5116.21   37.93
  -3  -2  -1 4983.15   34.87
   1   3  -2 5231.20   31.09
   2  -1  -3 4853.67   33.06
  -3   2   1 5117.39   32.92
   1  -3   2 5181.93   34.34
  -3  -2   1 5363.30   33.43
  -3   2   1 5146.99   34.05
  -2  -1   3 5266.17   32.59
   3   2  -1 5103.02   26.21
  -3  -2   1 5096.11   34.71
   2   1   3 5091.41   29.63
  -3  -2   1 4879.74   28.93
   3  -2   1 5204.01   31.17
   3  -2   1 5084.26   24.93
  -2  -1  -3 4778.18   32.48
  -2  -1   3 5118.23   32.62
  -3   2  -1 5167.81   23.65
   2  -1   3 5188.87   31.97
   2   1  -3 5180.09   30.30
   2   1  -3 4980.04   36.07
   2   1   3 5128.58   25.75
   2  -1  -3 5242.67   24.75
   1  -3   2 5018.36   32.20
  -2   1   3 5171.34   26.16
   3  -2   1 5106.98   33.78
  -2   1  -3 5161.86   36.15
   2  -1  -3 5100.13   23.75
  -2  -1  -3 5103.15   39.86
  -3  -2  -1 5023.00   38.31
   1  -3   2 5226.92   22.93
  -3   2  -1 5159.87   36.32
  -3   2  -1 5038.60   31.45
   3   2   1 4850.62   32.67
   3  -2   1 5166.15   34.36
   3   2   1 5072.70   35.57
  -3  -2  -1 5082.90   36.21
  -3  -2  -1 4829.81   30.61
   3   2  -1 5030.82   29.46
   3   2  -1 4850.05   31.21
   2  -1   3 5123.54   33.41
   3  -2  -1 5132.59   29.98
  -3  -2  -1 4973.64   34.57
   2  -1  -3 5110.24   22.28
  -1  -3   2 5078.58   28.93
  -2   1   3 5205.43   20.42
  -1   3  -2 5076.92   30.24
   1  -3  -2 5047.57   32.35
  -1  -3  -2 4983.15   26.78
  -1   3   2 4998.78   29.49
   3   2  -1 4772.63   31.51
   3   2   1 5093.76   31.76
   1   3   2 5106.16   31.30
   3  -2   1 5031.03   33.14
  -2  -1   3 5149.97   12.51
   1   3  -2 5192.55   26.81
   3  -2  -1 5023.91   29.49
  -3   2   1 5181.08   26.55
  -2  -1   3 5167.32   30.91
  -3   2  -1 4824.80   22.44
   1  -3  -2 4934.05   31.90
   2  -1   3 5133.68   32.04
   2   1  -3 5237.81   28.41
  -1  -3   2 4788.44   29.85
   2  -1  -3 5023.67   35.18
   2   1   3 4887.44   32.08
   2   1  -3 4952.97   34.82
  -3   2  -1 4839.85   22.63
   2   1   3 5227.70   25.03
  -2   1  -3 5084.05   29.65
   3  -2  -1 4985.98   26.23
  -1  -3  -2 4867.19   23.26
  -2   1   3 4995.19   29.02
  -2   1   3 5120.77   31.07
   3  -2   1 5123.48   32.13
   3   2   1 5207.67   33.28
   1   3  -2 5069.83   25.34
  -3   2   1 4934.90   33.91
  -3   2   1 5054.26   29.33
   2   1   3 5094.88   29.25
  -3   2   1 5022.88   30.54
   2  -1  -3 5057.19   32.15
  -3   2  -1 4969.93   34.69
  -3  -2   1 5115.67   34.30
  -1   3   2 5068.51   16.45
   3  -2  -1 5101.33   28.17
   2   3   2  230.25    6.44
  -2   2   3  245.29    6.17
   3  -2   2  237.01    6.98
   3   2   2  243.63    7.23
  -3  -2  -2  230.81    6.75
  -2   3   2  220.85    5.59
   3  -2  -2  229.70    5.16
   2  -3   2  229.33    6.03
  -3   2   2  230.43    4.69
  -3  -2   2  228.41    7.41
   2  -3  -2  225.54    6.35
   2   3   2  234.54    6.29
   2   2   3  231.31    6.56
   2  -2  -3  232.10    6.56
   3   2   2  236.04    6.18
   2   2  -3  235.81    5.77
  -2  -2  -3  235.45    8.23
  -2   2   3  240.25    6.32
  -2   3  -2  226.87    5.85
   3   2  -2  239.76    7.63
  -3   2   2  207.73    4.68
   2   3  -2  224.65    7.64
  -2   2  -3  230.15    8.03
   3   2   2  224.01    7.22
   3   2  -2  236.98    6.74
  -2   2  -3  232.41    6.71
  -3   2  -2  230.25    6.24
  -3  -2   2  224.47    6.67
   2  -3   2  220.24    5.42
   2   2  -3  232.00    7.75
   3  -2   2  222.18    4.97
   3  -2   2  228.93    7.31
   2  -2   3  240.83    6.24
  -2  -2  -3  235.40    7.36
   3   2  -2  222.47    7.82
  -3  -2   2  225.30    6.88
   2  -2  -3  234.94    7.00
   3  -2  -2  226.75    4.93
  -3  -2   2  231.32    7.88
  -2  -2   3  240.55    7.21
  -2  -3   2  219.04    6.70
   2  -3   2  224.83    7.09
  -3  -2  -2  231.16    7.84
  -2  -3  -2  229.02    7.44
   3  -2   2  240.58    6.47
  -3   2   2  232.26    7.86
   2   3  -2  222.42    6.47
  -2   2   3  221.45    5.03
  -2   2  -3  231.31    6.79
  -2   3   2  221.09    3.89
   2  -3   2  208.91    6.47
   3  -2   2  225.44    6.54
  -3   2  -2  236.68    6.11
   3   2  -2  223.18    6.62
   2  -2   3  230.84    7.37
  -2   3  -2  221.94    6.01
   2   3  -2  214.32    7.41
   2   2  -3  230.56    8.25
   2   2   3  235.17    4.49
   2   2  -3  239.75    6.96
  -3  -2  -2  222.34    8.18
   2  -3   2  220.68    6.26
  -2  -3  -2  215.63    7.05
  -2  -2  -3  239.44    6.11
  -3   2  -2  223.08    8.06
   3  -2   2  229.96    7.40
   2   3  -2  215.47    4.59
   3   2  -2  226.16    6.48
  -3   2  -2  246.91    8.40
  -2   3  -2  226.39    7.15
  -2   2  -3  241.16    7.49
  -3   2   2  222.92    5.97
  -2  -2  -3  236.00    9.33
  -3  -2  -2  233.13    8.90
   2  -2   3  236.09    6.76
   2   3   2  217.81    5.43
  -2  -3  -2  218.23    8.46
  -3  -2  -2  228.22    6.95
  -2  -3   2  217.32    5.64
  -2   3   2  220.82    6.12
   2   3  -2  227.50    5.43
   3  -2  -2  226.48    5.80
   2  -2  -3  239.59    4.77
   3   2   2  240.56    6.78
  -2  -2   3  235.53    4.40
  -2   2   3  226.16    5.38
   2   2  -3  235.16    4.25
   3  -2   2  216.52    7.43
  -2  -3   2  176.66    7.14
   2  -3  -2  223.71    6.78
   2   2   3  237.38    5.66
  -2  -3  -2  215.15    6.51
  -3   2   2  232.04    5.50
   3   2  -2  222.47    4.21
   2  -3   2  212.95    7.46
  -2  -2   3  228.56    7.59
  -2   2   3  240.57    6.73
  -2  -2  -3  236.59    6.51
   2  -3  -2  232.01    6.94
  -3  -2  -2  231.94    5.57
   2   2   3  238.65    4.96
  -2  -3   2  219.55    6.24
   3   2  -2  218.79    6.75
  -3  -2   2  211.06    5.86
   2   3   2  228.83    7.27
   2   2  -3  231.35    7.85
   2   2  -3  233.60    6.51
  -2  -3  -2  220.46    3.84
   3  -2  -2  222.49    7.63
  -2  -2   3  224.23    6.75
  -2  -2  -3  225.26    5.24
  -2   3  -2  221.02    6.29
  -2  -3  -2  217.17    6.41
  -3   2  -2  223.94    5.64
  -2   2  -3  231.26    6.59
  -2   3   2  223.47    4.87
  -2  -2   3  235.00    6.33
  -2   2  -3  235.93    4.21
   2  -2  -3  241.64    7.15
   2   2   3  234.98    6.90
   3   2   2  218.80    6.11
   2   2   3  241.30    5.74
   2   3  -2  222.07    6.12
  -3   2  -2  230.16    7.94
  -3  -2   2  217.79    7.48
   3  -2  -2  236.30    6.58
   3   2   2  220.59    5.74
   3   2   2  222.17    7.09
  -3   2   2  233.53    7.30
   3  -2  -2  235.88    5.80
   2  -2  -3  235.72    4.46
   3  -3   0    5.60    1.05
   3  -3   0    5.12    0.83
  -3  -3   0    3.79    0.79
   0  -3  -3   11.10    1.66
  -3   3   0    5.91    1.09
   3   3   0    4.68    0.82
   3   3   0    5.71    1.16
  -3  -3   0    4.71    0.99
   3   3   0    5.14    1.02
   3   0  -3    7.78    1.32
  -3   0  -3    5.92    1.41
  -3   0   3    6.99    1.29
   3   3   0    6.12    1.35
  -3   3   0    5.02    0.42
   0  -3   3    6.92    1.18
   3   0   3    7.57    1.22
  -3   0   3    8.48    1.23
   3   3   0    4.55    0.96
  -3   0   3    7.63    0.85
   3  -3   0    5.04    0.96
   3   3   0    5.47    0.99
  -3   3   0    4.34    0.77
   0  -3   3    5.75    1.16
  -3   0   3    8.03    1.20
   3   3   0    5.13    0.95
   3   0   3    6.43    1.29
   3  -3   0    4.81    0.57
  -3   3   0    5.50    0.59
   0  -3  -3    5.91    0.71
   0   3  -3    6.94    1.44
   3   0  -3    7.77    1.15
  -3   3   0    3.86    1.02
   3  -3   0    5.45    1.18
   3   0  -3    5.80    1.10
   3   3   0    4.44    0.89
   3   3   0    2.99    0.75
  -3   0  -3    7.48    1.37
  -3  -3   0    4.19    1.08
   0   3  -3    5.97    0.99
   3   0  -3    6.25    1.00
  -3  -3   0    4.40    1.02
   3  -3   0    5.50    1.21
   0  -3  -3    5.42    0.63
   0   3   3    6.35    1.17
   0  -3   3    5.77    1.07
   0  -3   3    6.18    1.34
  -3   3   0    5.32    1.06
  -3  -3   0    4.72    0.56
   3   0   3    7.51    1.27
   3   0  -3    7.27    0.95
   3   0  -3    5.71    1.21
   0  -3  -3    6.30    1.08
   3   3   0    5.42    1.01
  -3   0   3    7.30    1.08
   0   3   3    5.48    1.37
   0   3  -3    5.92    0.61
   3   0  -3    7.80    1.28
  -3   3   0    5.65    1.02
  -3   3   0    3.77    0.95
  -3  -3   0    3.79    1.02
  -3   0  -3    7.69    0.93
   3  -3   1  204.15    6.12
  -3  -3  -1  197.40    6.44
  -3   1   3  208.34    5.03
  -3  -3   1  199.76    6.43
  -3  -3  -1  225.41    7.15
  -1   3   3  216.42    6.33
   3   3   1  202.50    6.07
  -3  -3   1  199.68    5.95
  -1  -3  -3  208.64    7.53
  -3   3   1  204.61    6.52
   3  -3  -1  204.96    5.44
   3   3   1  215.86    5.95
   1  -3  -3  215.31    7.29
  -3   3  -1  197.70    6.28
   3   1   3  201.68    5.96
   1  -3   3  214.04    6.41
   3  -1  -3  206.25    6.50
  -1   3  -3  214.13    7.16
  -3   3  -1  202.63    3.79
   3   1  -3  211.35    6.40
  -1   3  -3  222.46    7.15
   3   3   1  199.51    6.35
   3   1  -3  212.45    7.19
  -3   3  -1  206.05    6.63
  -3  -1   3  215.51    6.46
  -3   1   3  203.37    7.49
   3  -3   1  207.92    6.50
   3  -1   3  207.01    5.36
   3  -1   3  211.98    6.01
  -3  -1  -3  209.28    8.45
  -3   1   3  202.61    5.56
   3   3  -1  204.71    7.50
   3   3   1  212.55    5.30
  -3  -3   1  200.78    6.10
  -3  -1  -3  213.31    7.85
  -1  -3  -3  209.95    6.51
   3   3  -1  206.53    6.89
  -3   3   1  195.35    6.79
  -3   3   1  202.22    6.55
   1  -3  -3  205.05    5.40
  -3  -3   1  200.72    6.49
   1  -3   3  212.38    7.55
   3   3   1  210.09    6.22
   3  -3   1  203.27    6.10
   3   3  -1  219.42    6.24
  -3  -3  -1  195.32    7.41
   3   1  -3  200.59    7.89
  -3  -3   1  201.61    6.94
  -3  -1   3  200.12    5.94
   1  -3   3  202.00    7.22
   3  -1   3  204.38    7.38
  -1   3  -3  211.40    8.27
  -3   3  -1  209.28    4.98
   3   1  -3  206.67    6.17
   1   3  -3  213.09    8.14
  -1   3   3  212.09    5.87
  -1  -3   3  203.96    7.69
  -3   1  -3  214.25    6.59
   3  -1  -3  210.11    4.93
  -3   1   3  206.34    5.14
   3  -3   1  198.88    5.17
   3   1   3  200.12    7.54
   3  -1  -3  207.27    5.66
  -3   1  -3  211.96    8.34
  -3   3  -1  205.49    6.41
   3  -3  -1  204.72    5.75
  -3  -3   1  207.65    6.79
   3  -3   1  206.84    7.09
  -3  -1  -3  202.23    8.70
  -1   3  -3  208.52    5.03
   3   3  -1  207.16    6.27
   3  -1   3  209.82    7.47
   3   3   1  201.00    6.32
  -3  -3  -1  207.65    6.38
   3   3  -1  215.73    5.91
  -3  -3  -1  215.81    8.15
   3  -3  -1  206.21    6.78
  -1  -3  -3  211.05    4.92
  -3   1   3  210.77    3.82
   1  -3   3  211.93    7.18
   3   3  -1  207.95    5.61
   1   3  -3  204.53    5.49
  -1   3  -3  212.08    6.39
   3  -3   1  209.58    7.52
  -3  -3   1  206.95    8.00
  -3  -3  -1  201.11    7.48
  -1  -3   3  209.10    5.98
   3   3   1  206.05    6.69
  -1   3   3  214.70    6.32
   3  -1  -3  210.07    5.67
  -3  -1   3  207.15    7.09
  -3   3   1  210.21    6.16
   3  -1  -3  210.44    7.76
  -3  -3   1  203.63    5.04
  -3  -1  -3  216.04    5.27
   3   1  -3  210.87    5.63
  -3   3  -1  205.54    6.00
  -3   1  -3  205.78    5.95
   3   1   3  209.52    6.89
  -3  -1   3  209.54    6.54
   3   1   3  203.61    5.02
   3   1  -3  197.68    7.41
  -3   1   3  205.30    5.50
   3  -1   3  208.72    6.66
   3   3   1  207.67    6.71
  -1  -3  -3  206.51    5.69
   1  -3  -3  219.01    7.22
   3  -3  -1  199.30    5.92
  -1   3   3  218.03    8.08
   3   1   3  213.73    6.56
   3  -3   1  198.22    6.19
   3   3  -1  198.81    6.64
   3   1   3  209.41    6.32
  -3   3  -1  207.07    7.49
  -3   3   1  208.96    6.44
  -3   3   1  203.09    6.90
  -3   1  -3  198.95    5.67
   1   3   3  215.53    7.61
  -3  -3   1  202.71    6.85
  -3   3   1  205.26    6.73
   1   3   3  210.51    4.04
  -3  -1  -3  209.32    7.11
  -3   1  -3  217.38    4.93
   3   1   3  204.78    5.52
   3  -1  -3  214.00    6.70
   3   3   1  207.51    6.40
   3  -3   2  242.82    7.05
   3  -3  -2  236.75    6.25
  -3  -3   2  239.20    7.73
  -3   3   2  237.90    7.62
  -2   3   3  243.70    6.49
  -3   2   3  285.18    6.43
   2  -3  -3  249.72    7.41
  -3   3   2  242.12    5.57
  -3  -3  -2  233.54    7.56
  -3  -2  -3  252.83    8.16
   3   3   2  250.48    7.31
  -3  -2  -3  236.40    8.96
  -2   3  -3  236.85    4.55
  -2   3  -3  225.38    7.88
  -3   3  -2  234.37    5.52
  -2   3  -3  235.33    7.02
  -3   3  -2  246.93    6.66
   3   2  -3  259.04    8.53
   2   3  -3  230.61    8.31
   3   3  -2  230.04    8.30
   3   2  -3  247.24    6.95
  -2  -3  -3  226.97    7.94
  -3   2   3  249.71    6.15
   3  -3   2  250.58    7.64
  -3   3   2  237.06    5.20
   3   3   2  232.28    7.36
   2  -3   3  245.25    6.63
   3  -2   3  241.90    6.19
   3  -3   2  236.85    5.23
  -2  -3   3  237.11    7.97
   3  -3   2  235.41    7.19
   3   3  -2  237.34    6.74
  -3  -2   3  249.48    7.36
  -3   3   2  228.17    7.83
   3   3   2  246.94    4.81
   3  -2  -3  246.96    3.88
  -3  -2  -3  248.35    8.71
   3  -2  -3  241.22    8.08
  -3  -3  -2  237.51    8.52
  -2  -3  -3  241.52    7.97
   2  -3  -3  246.45    7.04
   2  -3   3  234.92    8.02
  -3  -3   2  235.06    7.92
  -2   3   3  231.43    5.16
   3   2  -3  241.69    9.06
   2   3  -3  241.68    8.85
  -3   2  -3  246.44    7.20
   3  -3   2  241.58    6.90
  -3   2   3  251.49    4.76
   3  -2   3  250.61    8.01
   3   3  -2  239.15    8.44
   2  -3   3  234.04    7.79
  -3   3  -2  248.71    6.43
   3  -2  -3  256.00    4.69
  -2  -3  -3  248.79    9.98
  -3  -2  -3  255.46   10.30
   3  -3   2  246.23    7.72
  -3   3   2  246.38    6.43
  -3  -3  -2  237.80    8.61
  -3   3  -2  240.26    8.39
  -3  -3  -2  236.55    9.44
  -3   2  -3  263.38    9.12
   3   3  -2  243.38    6.49
   2   3  -3  231.78    4.74
  -2   3  -3  235.67    7.00
   3  -2   3  272.06    8.29
  -3  -2  -3  256.72    7.63
   2  -3   3  230.44    6.47
   3  -3  -2  237.60    7.14
   3  -2  -3  251.43    6.24
  -2  -3   3  232.54    5.79
  -3  -2   3  250.78    8.54
   3  -2   3  244.85    8.43
  -3   2   3  252.73    5.63
  -2   3   3  242.11    6.46
   3   3  -2  242.14    5.48
   3   3   2  250.24    7.18
   3   2   3  253.19    6.83
   3  -2  -3  245.62    6.05
   2   3  -3  237.67    5.47
  -3  -3  -2  230.19    7.86
  -3   3   2  246.93    6.53
   2   3   3  233.90    5.83
   3   2  -3  250.24    3.62
   3  -3   2  239.62    8.48
   3   2  -3  247.09    8.35
   3   3   2  246.50    7.37
  -2  -3  -3  232.05    5.24
   3   2   3  247.47    4.52
  -3  -3   2  241.20    6.43
  -2  -3  -3  240.21    7.14
  -3  -2  -3  243.10    6.39
  -3   2  -3  250.02    6.88
  -3   3  -2  237.85    6.51
   2  -3  -3  234.80    7.17
   3  -2  -3  240.46    8.71
   3   2  -3  250.64    6.70
  -3   2   3  256.69    6.56
   2   3   3  225.63    7.55
  -3  -2   3  238.68    7.64
   3  -3   2  245.13    7.45
   3   3   2  229.63    6.44
  -3   2  -3  242.58    5.96
  -3   2  -3  236.61    8.73
   2   3   3  231.16    5.54
   3   2   3  241.74    6.67
   3   2   3  237.53    6.68
  -3   3  -2  228.22    8.49
   3  -2  -3  250.95    5.86
  -3   2   3  269.70    8.83
  -3   3   2  233.43    8.02
   3  -3  -3  281.32    7.60
  -3  -3  -3  279.08    9.02
  -3   3   3  271.96    6.55
  -3   3  -3  269.70    7.37
   3  -3   3  287.58    6.84
   3   3  -3  274.94    7.59
  -3   3   3  287.25    6.83
   3   3  -3  265.61    9.51
   3  -3   3  277.40    8.68
  -3  -3  -3  272.71    9.49
   3  -3  -3  280.83    8.69
   3  -3   3  269.09    8.52
  -3   3   3  278.47    4.22
   3   3   3  276.93    4.72
   3   3  -3  272.46    9.98
  -3  -3  -3  283.56   10.22
   3  -3   3  284.66    8.43
  -3  -3  -3  283.59   11.32
   3   3  -3  270.46    6.72
  -3   3  -3  279.60    9.97
  -3   3   3  279.66    6.98
   3  -3   3  265.58    9.42
   3   3   3  289.10    7.54
   3   3  -3  281.10    5.48
   3  -3  -3  275.04    7.71
  -3  -3  -3  289.97    7.58
   3  -3  -3  258.94    9.40
  -3  -3   3  268.17    8.36
   3   3   3  263.88    7.90
   3  -3  -3  283.66    5.90
   3   3   3  277.67    7.00
  -3   3   3  290.33    9.72
  -4   0   0 4767.98   35.99
   4   0   0 4589.02   32.62
   0  -4   0 4875.85   32.57
   0   0   4 4862.18   31.70
   4   0   0 4808.41   31.73
   4   0   0 4508.64   32.91
   4   0   0 4503.51   32.75
   0   0   4 4756.85   23.49
   0  -4   0 4713.46   25.74
   0   0  -4 4797.79   33.44
   0   0  -4 4716.99   30.61
   4   0   0 4578.04   35.82
   4   0   0 4829.35   31.31
  -4   0   0 4530.85   34.91
  -4   0   0 4553.03   34.72
   0  -4   0 4524.15   33.09
   0   4   0 4672.72   30.36
   0   4   0 4792.00   35.75
   0   0  -4 4849.87   30.91
   0   0   4 4813.45   31.31
  -4   0   0 4476.51   37.81
   0   0  -4 4544.76   31.23
  -1  -4   0   96.14    4.69
   4   0   1  110.91    2.94
  -4   0   1  106.48    5.50
  -4   0  -1  113.92    5.70
   1  -4   0  101.02    4.71
  -1   4   0  110.25    4.36
   4   0   1  115.24    4.91
   0   1  -4  106.27    5.32
   4   0  -1  110.82    3.81
   1  -4   0  104.40    2.19
   0  -1   4  107.40    2.67
  -4   0   1  105.22    5.79
   4   0  -1  111.11    4.28
   0   1   4  107.17    4.16
   0   1   4  109.43    3.27
  -4   0   1  107.57    5.58
  -4   0   1  109.33    4.79
   0  -1  -4  106.84    4.58
   0  -1   4  117.99    5.07
  -1  -4   0  101.61    3.60
  -1   4   0  103.14    3.76
   0   1   4  103.81    4.97
   0  -1  -4  111.33    4.61
   1   4   0  105.57    3.94
   1  -4   0  102.31    4.22
   0  -1   4   90.16    4.81
  -4   0  -1  104.22    5.29
  -4   0   1  105.02    5.12
  -4   0  -1  116.52    6.44
  -4   0  -1  110.48    5.52
   4   0  -1  106.70    3.65
   1   4   0  107.69    4.57
   1  -4   0  104.06    5.20
   4   0  -1  107.69    4.91
   4   0   1  112.90    3.15
   0   1   4  108.60    4.55
   1   4   0  110.27    5.50
   0  -1   4  104.34    5.22
   0  -1  -4  111.09    5.26
   4   0  -1  107.15    4.63
  -4   0   1  107.72    5.84
   4   0  -1  112.83    3.66
   4   0  -1  103.87    4.65
   0   1   4  112.17    5.52
  -2   4   0  332.19    6.21
  -4   0   2  341.16    4.37
   0  -2  -4  327.51    9.49
  -4   0   2  338.17   10.31
  -2  -4   0  335.69    6.23
   2  -4   0  338.37    8.41
   4   0   2  332.75    6.58
   2   4   0  355.95   10.10
   4   0   2  334.60    8.34
  -4   0   2  325.91    9.95
  -2   4   0  330.98    6.62
  -4   0   2  328.95    6.93
   4   0  -2  336.43    7.54
   4   0  -2  317.50    9.98
   0  -2  -4  320.33    6.34
   0   2   4  325.00    6.53
  -2  -4   0  341.25    6.59
  -4   0   2  331.06   10.57
  -4   0   2  334.60   10.36
  -4   0   2  328.39    4.96
  -4   0   2  312.95    7.55
   0   2  -4  289.89    9.78
   0  -2   4  300.70    9.25
   2   4   0  333.63    7.22
   4   0   2  322.19    9.00
   0  -2  -4  315.37    7.09
  -2   4   0  339.65    6.11
   4   0  -2  321.46    6.73
   0   2   4  328.97    8.86
  -4   0  -2  318.72   11.21
   0   2  -4  327.96    7.52
  -4   0  -2  328.18   11.32
  -2  -4   0  345.28    8.53
   2   4   0  339.80    6.66
   2  -4   0  336.21    6.70
   4   0  -2  336.82    8.67
   0  -2   4  320.63    7.71
  -2  -4   0  340.02    9.89
   4   0  -2  334.37    4.97
   2  -4   0  336.87    9.57
   4   0  -2  344.13    9.27
   4   0   2  337.09    7.17
  -2   4   0  346.56    9.68
   4   0  -2  330.98    4.76
   0  -2  -4  327.30    8.88
   0   2   4  336.32    7.98
   0   2   4  309.10    9.78
   0  -2  -4  324.78    4.29
   4   0  -2  335.17    7.59
  -4   0  -2  328.89    9.40
  -3  -4   0    3.90    0.90
   4   0   3    3.05    0.77
  -3  -4   0    5.03    1.01
   0  -3  -4    3.34    1.08
  -3   4   0    5.23    1.05
   3  -4   0    5.10    1.02
   3   4   0    5.44    1.34
  -3   4   0    4.69    0.63
  -4   0   3    3.69    0.95
   4   0  -3    3.19    0.86
  -4   0   3    3.96    0.69
  -4   0   3    3.63    0.85
   0  -3   4    4.18    1.10
  -4   0   3    2.73    1.08
   3  -4   0    3.53    0.85
  -3  -4   0    5.29    0.99
   3   4   0    4.59    0.95
  -4   0   3    3.04    0.62
   0  -3  -4    4.53    0.88
  -3   4   0    3.92    0.86
   3   4   0    4.99    0.98
   4   0   3    2.72    0.88
   4   0  -3    3.70    1.19
   0  -3  -4    3.99    0.72
   4   0  -3    3.01    0.76
  -3   4   0    4.08    0.61
   0   3  -4    2.86    0.92
   0   3   4    4.58    1.08
   3   4   0    4.46    1.05
  -4   0  -3    2.40    1.08
  -3  -4   0    4.76    1.22
   3  -4   0    4.54    0.98
  -4   0  -3    2.72    0.79
   0   3  -4    4.85    0.76
  -3  -4   0    4.10    1.15
   0  -3   4    4.43    1.23
   3  -4   0    4.32    1.13
   0  -3   4    3.75    0.87
  -3  -4   0    4.95    0.71
   0  -3  -4    3.64    0.95
   4   0   3    3.46    0.95
   4   0  -3    4.60    1.24
   4   0  -3    3.16    0.67
  -3   4   0    4.67    1.15
  -3   4   0    4.59    1.07
   0   3   4    6.47    1.57
  -4   0  -3    3.37    0.53
   4   1   0   43.21    1.76
  -4  -1   0   44.86    1.86
   0  -4   1   38.19    2.92
  -4   1   0   44.39    3.50
   0  -4  -1   42.19    3.10
   4   1   0   42.48    3.13
   4  -1   0   45.37    1.56
   4   1   0   43.01    2.75
   4  -1   0   47.77    3.22
   0  -4  -1   39.30    1.42
   1   0  -4   50.87    3.73
   0   4  -1   43.34    3.03
   4   1   0   43.81    2.95
   1   0   4   51.28    2.88
   4  -1   0   44.79    2.93
   4   1   0   41.70    3.11
   4  -1   0   41.21    3.17
  -1   0   4   50.03    3.19
   0  -4   1   39.45    2.67
   1   0  -4   50.21    3.04
   0  -4  -1   43.32    2.10
  -1   0  -4   47.30    3.31
   0   4  -1   39.44    2.75
  -1   0   4   50.64    3.39
   1   0  -4   49.75    3.57
   1   0   4   50.84    3.05
   1   0   4   47.99    3.54
   4   1   0   44.08    3.43
  -4   1   0   41.36    3.28
   4  -1   0   42.30    3.50
  -4  -1   0   43.66    3.92
  -4  -1   0   43.69    3.41
  -1   0   4   49.41    2.40
   4  -1   0   41.26    2.81
   0   4  -1   43.27    2.89
   0  -4  -1   39.49    3.20
   4   1   0   42.64    2.30
   4  -1   0   43.29    1.69
   1   0   4   50.20    3.14
   1   0  -4   46.62    3.63
   1   0   4   49.97    3.61
   0   4   1   39.40    3.40
   1   0  -4   48.11    3.03
  -4  -1   0   42.44    3.63
  -4  -1   0   42.57    3.55
  -1   0  -4   48.51    3.10
  -4   1   0   40.99    3.30
   4  -1   0   40.76    2.90
  -1   4   1    1.16    0.34
  -4  -1   1    1.06    0.25
  -4   1   1    0.37    0.34
  -1  -4   1    1.12    0.35
   1  -4   1    1.35    0.34
  -4   1  -1    1.36    0.59
  -1   1   4    1.44    0.74
   1  -4   1    1.36    0.58
  -1  -4  -1    0.75    0.42
   1  -4  -1    0.45    0.18
  -1   4   1    1.52    0.56
   1   4   1    1.58    0.35
   4   1   1    1.38    0.36
  -4   1   1    2.32    0.63
   1   1  -4    0.80    0.44
   4  -1  -1    0.98    0.30
   4   1  -1    1.17    0.52
  -1   1   4    1.52    0.62
   4  -1   1    1.14    0.55
  -1  -1   4    0.70    0.23
  -4  -1  -1    1.27    0.38
  -1   4  -1    1.63    0.59
  -1   4   1    0.82    0.20
   4   1  -1    1.44    0.38
  -1   4  -1    0.86    0.59
  -1  -4   1    1.24    0.31
   1   1   4    0.70    0.36
  -1   4   1    1.48    0.36
   4   1  -1   -0.65    0.59
  -1  -4   1    1.12    0.29
  -4  -1   1    1.21    0.26
   4  -1  -1    2.23    0.58
  -4  -1   1    0.20    0.47
  -4   1   1    0.50    0.48
   1  -1  -4    1.49    0.42
   1  -1  -4    0.94    0.40
   1  -1   4    1.70    0.66
   1  -1   4    1.19    0.66
   1   1   4    1.04    0.52
  -1   1   4    2.43    0.78
  -1  -1  -4    0.59    0.32
  -1  -4   1    1.65    0.50
   4  -1   1    1.96    0.66
  -1  -4  -1    1.36    0.34
  -1   1   4    1.32    0.45
   1  -4   1    1.36    0.69
   1   4  -1    1.58    0.56
  -1   4  -1    1.50    0.39
   4  -1  -1    2.13    0.66
  -4  -1  -1    1.10    0.79
   4   1  -1    2.35    0.95
  -4   1   1    0.70    0.78
  -1  -4  -1    1.20    0.30
  -4   1  -1    1.57    0.71
   1  -4  -1    1.01    0.23
  -4   1  -1    0.86    0.17
  -1   4  -1    0.43    0.24
  -1  -4   1    1.04    0.35
  -1  -4  -1    1.36    0.31
   4  -1  -1    1.47    0.47
  -1  -4   1    0.66    0.40
   1   4  -1    1.28    0.73
   4  -1   1    1.31    0.32
   1  -4   1    1.37    0.46
  -1   4  -1    1.03    0.47
  -1  -1   4    1.01    0.33
   1  -4  -1    1.37    0.55
   1  -1   4    0.80    0.36
  -1  -1  -4    1.04    0.55
   4   1  -1    0.83    0.45
   1   1   4    1.77    0.56
  -4   1  -1    1.07    0.30
   1   1  -4    1.37    0.71
   1   1   4    2.46    0.83
  -1   1   4    0.75    0.54
  -1  -1  -4    1.37    0.62
  -4  -1   1    1.57    0.41
  -4  -1   1    3.85    1.16
   1   4   1    2.01    0.63
   1   4   1    1.88    0.41
   1   1   4    0.77    0.35
   4   1   1    0.76    0.23
  -1  -1  -4    0.77    0.28
  -1  -4   1    1.05    0.33
   4  -1  -1    1.17    0.35
   1  -1   4    0.82    0.21
   1  -4   1    1.77    0.32
  -1   1   4    1.02    0.38
   2  -4  -1  381.09    9.26
   2  -4   1  375.03    9.15
   4   1   2  388.39    7.49
  -1  -2  -4  370.26   10.56
  -2   4   1  384.21    7.88
   2   4   1  384.22    6.89
  -4   1   2  400.00   11.27
   2  -4   1  384.38    6.91
  -2   4   1  387.73    7.24
  -2  -4   1  392.02    7.20
  -4   1   2  390.25    4.30
   4   1  -2  411.99    9.39
   2  -4   1  384.38    7.32
  -2   4  -1  383.15    7.60
  -4   1   2  393.06    6.66
   1   2  -4  402.61   11.05
   4  -1   2  387.15    7.10
  -4  -1   2  394.30    8.51
   4  -1  -2  385.84    7.26
   2   4   1  376.10    7.23
   2   4  -1  379.69   10.58
  -4   1   2  381.09   10.77
   4  -1   2  394.12    8.70
  -1   2  -4  397.86   10.39
  -4  -1  -2  390.69   11.38
   1   2   4  388.84    6.76
  -4  -1   2  402.94   11.72
  -1   2   4  392.65    8.04
  -4  -1   2  389.74    8.95
  -1  -2  -4  398.05    8.81
   4  -1  -2  396.89    7.31
  -2  -4   1  373.36    7.08
  -4   1   2  411.47   11.52
   4   1  -2  388.40   11.05
  -2   4  -1  384.95    8.64
   2   4   1  384.75    6.98
  -2   4   1  381.41    7.23
   2  -4   1  386.05    6.93
  -2  -4   1  375.12    8.26
   4   1  -2  399.52    8.55
  -2   4   1  376.10    5.83
  -2   4  -1  388.79    7.56
   4  -1   2  402.63    9.48
   4  -1  -2  383.51    5.99
  -1   2   4  399.90    9.08
   1  -2  -4  401.10    9.04
   1   2  -4  377.55   11.35
   1  -2   4  386.26   10.62
  -1  -2  -4  384.73    7.22
   2   4  -1  372.72    9.17
   2   4   1  394.36    5.82
   2   4  -1  379.62    6.47
  -1   2  -4  383.62    8.96
   4   1  -2  388.96   10.12
  -4  -1  -2  408.35   12.84
   2  -4  -1  374.59    6.27
  -2   4  -1  385.74    6.94
  -2  -4  -1  381.23    6.82
  -2  -4  -1  402.02   10.80
   1  -2  -4  395.57    4.32
  -4  -1  -2  388.16   12.24
  -2  -4   1  373.47    7.50
  -1   2   4  389.56    7.99
  -2  -4   1  364.17   10.71
  -2  -4   1  378.90    9.28
  -4  -1   2  345.89   10.29
   1   2   4  402.69    4.96
  -1  -2   4  392.72    7.44
   2  -4   1  389.28    8.30
   4  -1  -2  392.30    9.24
  -2  -4  -1  377.27   10.11
   2  -4   1  361.25   10.36
   2  -4  -1  378.04   10.27
   1  -2   4  396.33    9.65
   4  -1  -2  381.71    6.66
   2   4  -1  387.12    8.45
   4   1  -2  389.59    9.50
   4  -1   2  390.07    7.64
   1   2   4  414.84    8.29
  -4   1  -2  398.38    7.06
   4   1  -2  391.54    6.45
   4  -1  -2  388.22   10.40
  -4   1   2  384.17    4.78
   1  -2   4  389.91   10.67
  -2  -4   1  373.43    7.72
  -2   4  -1  394.90    9.94
  -1   2   4  389.68   10.08
  -4  -1   2  383.12    8.15
   4   1   2  385.02    8.29
   2   4   1  392.42   10.71
   1   2   4  374.42   10.39
  -1  -2  -4  400.96    9.25
   1  -2  -4  350.23    9.89
  -2   4   1  405.69   10.74
  -2   4   1  364.37    7.42
   2   4   1  375.12    7.11
  -4   1  -2  391.61    9.86
  -4   1  -2  384.62   10.94
  -2  -4   1  381.13    7.49
  -1  -2   4  379.49    6.17
   2   4  -1  382.81    9.18
   4  -1  -2  397.99    8.40
   4  -1  -2  399.55    8.97
  -2   4   1  385.87    8.24
   4   1   2  396.24    5.40
   2  -4   1  377.63    7.12
  -1  -2  -4  396.43    6.52
   1   2   4  388.66   10.49
  -1   2   4  398.40   11.48
   1  -3  -4  520.46   12.46
  -3  -4   1  481.89   10.92
  -3   4   1  497.62   10.05
   3  -4   1  477.42   10.15
   4   1   3  460.00    9.31
  -3  -4   1  483.66    9.90
  -1  -3  -4  508.88   13.00
   3  -4   1  486.38    9.41
  -4   1   3  497.36    7.14
   3   4   1  499.81    9.41
   3  -4  -1  488.32   10.04
  -3  -4  -1  520.57   11.85
   3  -4   1  484.00    9.87
  -4   1   3  478.42   12.72
   3   4  -1  494.30   12.84
  -1   3  -4  526.00   12.38
   1   3  -4  504.58    6.72
   4  -1   3  499.40    9.61
   4  -1   3  491.51    9.35
  -3   4  -1  486.53    7.39
   4  -1  -3  471.98    9.79
   4   1  -3  489.67   11.44
  -4   1   3  506.36    8.99
   3   4   1  477.10    9.68
   1  -3   4  498.54   12.78
   3  -4   1  489.11    9.65
  -4  -1   3  483.12    8.97
  -3  -4   1  491.90   10.05
  -3  -4   1  503.42    9.87
  -3   4  -1  504.39    9.67
   1   3   4  510.82    6.04
  -4  -1  -3  487.19   13.28
   3  -4   1  499.63    9.48
  -1  -3  -4  520.26   10.67
   1  -3  -4  497.91    9.58
  -4  -1   3  486.64    9.53
   4   1  -3  477.70   13.28
  -4  -1   3  480.89   13.68
   1  -3  -4  523.39    7.26
   3   4   1  488.76    9.43
   3   4   1  476.30    9.54
  -3   4   1  492.29   10.02
   1   3  -4  497.83   13.60
   4   1  -3  498.79    9.90
   1   3   4  515.10   12.55
  -1  -3   4  486.80   12.79
  -3   4   1  475.05    4.06
   3  -4   1  477.59    8.81
  -3   4  -1  491.62    8.23
   4   1   3  464.39   12.12
  -1   3  -4  505.51   14.03
   4  -1   3  481.53   11.79
   1  -3   4  493.61   12.58
  -1   3   4  522.47   10.56
   3   4  -1  486.76   11.19
   3   4   1  466.99    7.85
   4  -1  -3  481.52    7.63
  -1   3  -4  515.38    9.26
  -4  -1  -3  482.30   14.45
  -3  -4   1  497.73   10.46
   3  -4  -1  472.94    8.45
   3   4  -1  488.66    9.73
  -3   4  -1  495.85    9.78
  -3  -4  -1  478.10   12.85
  -3  -4  -1  492.52    9.57
  -4   1  -3  497.01   14.42
   3   4  -1  475.15    8.67
  -4  -1  -3  517.15   15.24
   3   4  -1  479.16   10.08
   3  -4   1  513.28   11.61
  -1  -3   4  499.50    9.66
  -3  -4  -1  506.26   12.69
   3  -4   1  508.23   12.90
   3  -4  -1  501.09   12.03
   1  -3   4  499.98   11.69
   4  -1  -3  503.87   10.19
  -3  -4   1  489.14   13.21
   3   4  -1  489.45    9.76
   4  -1  -3  494.70    6.44
  -4  -1   3  473.40   12.25
  -4  -1  -3  488.69    7.20
  -3  -4  -1  489.90    4.42
   4  -1   3  486.32   10.18
  -4   1  -3  493.74    9.21
  -1  -3  -4  491.84   10.30
   3   4   1  496.86   12.05
   1  -3  -4  492.80   12.04
   4  -1  -3  506.00   12.94
   4   1  -3  477.97   12.08
  -3   4  -1  484.67   10.95
   4   1   3  485.95    7.91
   4   1   3  468.64   10.68
  -3  -4   1  486.81    8.51
   4   1  -3  478.54    8.39
  -4   1   3  472.08    7.62
   4  -1  -3  496.55    9.98
  -4   1  -3  466.66   10.48
  -3  -4   1  481.54   10.41
   1   3   4  496.45   12.64
  -1   3   4  491.93   13.47
  -3   4   1  495.74   10.65
  -3   4   1  477.32   10.44
   4   1   3  492.00    7.66
  -3   4   1  507.78   12.10
  -4  -1  -3  486.08   12.36
  -3   4  -1  514.81   12.59
   3   4   1  481.60    9.55
  -4   1  -3  492.12    6.40
   3  -4   1  489.28    9.70
  -4   2   0  354.13    9.86
   0  -4  -2  378.73   10.42
   4  -2   0  347.09    5.10
  -4  -2   0  391.80    7.56
   4   2   0  336.56    6.21
  -4  -2   0  357.60    9.92
   4   2   0  345.69    8.93
   0  -4   2  342.80    8.38
   2   0  -4  353.51    9.83
  -2   0  -4  329.37   11.02
  -2   0   4  335.21    8.46
   4   2   0  353.75    9.26
   0   4  -2  348.53    9.28
   2   0   4  341.68    8.33
   4  -2   0  343.57    8.48
   4   2   0  349.08    9.08
   4   2   0  336.81    9.08
   4   2   0  340.27    9.00
   0   4  -2  353.09   10.15
   0  -4  -2  347.03    5.03
   2   0   4  345.14    8.28
   2   0   4  340.30   10.09
  -2   0   4  333.12    8.64
   4  -2   0  348.51    5.39
   0  -4   2  339.43    8.75
   2   0  -4  346.91    8.04
   4   2   0  332.60    9.57
   4  -2   0  342.50    9.72
  -2   0  -4  345.85   10.87
  -4  -2   0  347.83   10.98
   4   2   0  336.60    9.68
   0  -4   2  349.93    9.28
  -4  -2   0  331.05   10.36
  -2   0   4  325.67    7.05
   4  -2   0  347.92    8.96
  -4   2   0  340.09    4.57
   4   2   0  344.62    5.64
   2   0   4  337.93    8.24
   2   0  -4  346.35    7.97
   2   0  -4  343.20   10.28
   2   0   4  350.19    9.69
   4  -2   0  331.50    5.97
  -2   0   4  342.73    8.70
   0   4   2  358.42   10.63
  -4  -2   0  334.76   10.43
   2   0   4  331.09    6.80
  -4   2   0  344.98   10.34
  -2   0  -4  340.65    8.80
  -2   0  -4  353.14    7.93
  -4   2   0  347.93    9.81
  -4   2   0  350.18    6.61
  -4  -2   0  357.13   10.68
   1  -4  -2  311.19    9.37
  -1  -4  -2  307.15    9.28
   4  -2  -1  293.68    4.38
  -4  -2   1  288.07    5.99
  -4  -2  -1  302.46    9.22
  -4  -2  -1  298.34    7.02
  -4  -2   1  293.92    9.12
  -2   1   4  293.45    7.27
  -4   2  -1  302.72    9.22
   4   2   1  286.05    6.21
  -4   2   1  284.92    9.06
  -2   1   4  280.67    7.59
   4  -2   1  286.62    3.06
  -2  -1   4  289.08    7.31
  -1   4  -2  278.90    6.44
   4   2  -1  294.44    8.55
   1  -4   2  300.28    7.42
  -4   2  -1  296.73    8.71
   2   1  -4  291.24    9.25
  -1   4  -2  293.33    7.97
  -1  -4  -2  282.86    6.76
  -2  -1  -4  291.57   10.38
  -4  -2   1  293.93    8.70
   4   2  -1  300.21    6.32
  -4   2   1  292.22    9.22
   2   1   4  277.48    7.38
  -4  -2   1  305.50    9.36
   4   2  -1  290.08    8.90
   4  -2   1  285.72    5.75
   4  -2  -1  283.58    7.18
  -2   1   4  303.11    7.84
  -4  -2  -1  277.11    9.23
   2  -1  -4  302.32    9.03
  -4   2   1  282.36    4.02
  -1   4  -2  283.50    7.59
  -1  -4   2  284.33    7.95
   2   1   4  283.25    6.76
   2  -1  -4  284.90    6.90
   1  -4   2  290.37    8.53
   1   4  -2  282.72    9.05
   4  -2   1  292.06    6.55
   2  -1   4  275.59    9.01
  -2   1   4  276.55    7.24
   2   1   4  273.01    9.19
  -2  -1   4  285.13    8.67
  -4   2   1  303.07    8.73
   1   4   2  283.88    5.72
  -4  -2  -1  287.03   10.54
  -4  -2  -1  298.59    8.86
   1  -4   2  300.05    5.66
   4   2  -1  288.32    8.61
  -4   2  -1  286.95    8.76
  -2   1  -4  279.74    9.17
  -2   1   4  284.23    5.38
  -2  -1   4  286.18    7.64
  -2  -1   4  282.18    4.21
  -1  -4   2  298.54    8.26
  -4  -2   1  292.65    9.78
   1  -4  -2  282.90    8.84
  -1  -4  -2  290.20    7.51
   1   4  -2  296.73    7.35
   4  -2  -1  301.87    7.74
  -4   2   1  286.99    6.73
   4  -2   1  297.40    8.88
   2   1  -4  294.52    7.71
   2  -1  -4  281.25    9.26
   4   2   1  297.04    6.48
   2   1  -4  287.30    9.61
  -2  -1   4  281.05    8.15
   2   1   4  285.29    8.99
  -4  -2   1  293.55    6.00
   4   2  -1  297.17    6.88
   1   4   2  296.52    9.66
   2   1   4  272.86    6.86
   4  -2  -1  278.10    6.37
   2  -1   4  272.73    8.61
  -2   1   4  285.05    8.08
  -4   2  -1  290.76    5.32
   1   4  -2  293.28    6.94
  -4  -2   1  291.30    9.51
  -2  -1  -4  293.49    7.41
  -4   2   1  295.64    9.55
   4  -2  -1  298.20    7.82
  -4   2  -1  279.14    9.23
  -4   2   1  297.11    7.16
   2   1   4  284.96    8.17
  -2   1  -4  297.23    7.34
  -2  -1  -4  293.91    7.58
  -4   2  -1  296.88    5.23
  -4  -2   1  288.17    9.70
  -4   2   2   73.18    2.36
   4   2   2   72.43    3.43
  -2   2   4   73.68    3.74
   2  -4  -2   80.90    4.52
  -4  -2  -2   82.11    4.17
  -4  -2   2   74.59    4.79
   2   4   2   77.84    3.51
  -4   2   2   82.65    5.06
   4  -2  -2   72.39    2.62
   2  -4   2   77.42    3.45
  -4  -2   2   72.06    3.18
  -4   2   2   73.78    2.60
  -2   4  -2   75.14    3.76
  -2   2  -4   80.03    5.34
   2   4  -2   75.81    4.83
  -2   2  -4   78.51    4.63
   4  -2   2   69.40    2.69
  -2  -2  -4   74.66    5.32
   2   2  -4   74.71    4.83
   4   2  -2   69.93    4.48
  -4   2   2   72.71    4.91
   2  -4   2   79.87    3.59
   4  -2  -2   71.97    3.19
  -4  -2   2   73.90    4.86
   4  -2   2   68.75    3.46
   2   2   4   75.24    3.87
  -4  -2  -2   72.01    4.98
   2  -2  -4   75.59    4.32
  -4   2   2   77.68    5.11
  -2  -4   2   78.40    3.92
  -4  -2   2   75.28    4.29
  -2  -2   4   77.59    4.59
   4   2  -2   69.54    4.76
  -4  -2   2   72.12    5.01
  -4   2   2   74.94    4.85
  -2   4   2   79.11    3.86
  -2  -2  -4   78.61    4.62
   2  -2  -4   77.52    3.44
   2  -4   2   75.98    4.25
   2  -2   4   74.19    4.73
  -2   2   4   74.55    3.61
   2   2  -4   76.83    5.26
  -2   4  -2   78.65    3.86
   2   2   4   77.38    3.08
   4  -2   2   76.13    4.05
   2   4  -2   74.50    4.71
  -4  -2  -2   80.52    5.79
  -2  -2  -4   74.42    5.78
  -4   2  -2   73.59    4.62
  -4  -2  -2   78.15    5.46
  -2  -4  -2   79.40    5.40
  -4  -2  -2   76.54    4.68
  -4   2   2   71.92    4.05
  -2   2  -4   78.55    4.60
  -4  -2  -2   76.74    4.67
  -2   4  -2   77.22    4.03
   2  -4   2   75.20    3.74
   2  -2  -4   75.47    2.55
   2   4   2   80.16    3.57
  -2  -4  -2   75.25    4.00
  -4   2  -2   74.33    5.31
   4   2  -2   73.29    4.28
   4  -2  -2   74.68    3.54
   2   4  -2   82.97    3.81
  -2  -2   4   75.37    4.49
   4  -2   2   74.12    4.75
   2  -4  -2   75.90    4.63
   2  -4   2   75.72    4.85
  -4   2   2   73.09    3.19
  -2  -4   2   78.65    4.13
   2  -2  -4   77.32    2.27
  -2   2   4   76.07    3.34
   4   2  -2   72.75    2.57
   2   2   4   77.14    3.17
  -2  -2   4   74.35    2.69
  -2  -4  -2   80.11    4.40
   2   4   2   83.25    5.12
  -2   2   4   74.62    4.30
  -4   2  -2   72.82    3.25
   2   2   4   79.32    3.44
  -4   2   2   75.33    2.64
  -2  -4   2   83.16    4.09
   4   2  -2   70.59    4.08
   2   2   4   73.47    4.67
  -4  -2   2   79.08    3.68
   2  -2   4   74.05    4.66
  -2  -4  -2   78.02    2.73
   4  -2  -2   76.89    4.85
  -2  -2  -4   75.09    3.78
  -4   2  -2   73.75    2.64
   2   2  -4   77.66    5.09
  -4   2   2   81.61    4.39
  -2   4   2   80.90    3.20
  -2  -2  -4   73.36    3.54
   4  -2  -2   76.63    3.86
  -2  -2  -4   80.18    4.13
   2   4  -2   79.98    3.98
  -4   2  -2   65.38    4.74
  -4  -2   2   68.09    4.71
   2   2   4   71.16    4.29
   4   2   2   72.40    3.12
   4  -2  -2   76.47    3.82
  -2  -2   4   75.65    3.65
  -4  -2   3 1683.02   24.27
  -3   4   2 1574.81   19.51
   2  -3  -4 1608.29   21.10
  -3  -4   2 1619.68   19.57
  -3   4   2 1630.32   16.40
  -3  -4  -2 1689.13   22.10
   3  -4  -2 1624.12   18.96
   3  -4   2 1609.77   17.89
  -4  -2  -3 1726.21   21.35
  -4   2   3 1668.20   13.83
  -3  -4   2 1601.95   20.12
   3   4   2 1614.14   18.03
   4  -2   3 1630.18   15.95
   3  -4   2 1565.12   14.92
   2   3  -4 1590.89   15.28
  -3   4  -2 1548.65   15.62
   2   3  -4 1564.24   23.45
  -2   3  -4 1575.97   21.20
  -2  -3  -4 1607.12   24.02
  -4   2   3 1666.83   24.57
  -3   4  -2 1562.04   18.28
   3   4  -2 1595.67   23.74
   3  -4   2 1560.64   19.04
   4   2  -3 1654.48   22.54
  -2   3  -4 1602.34   23.88
  -4   2   3 1618.99   15.33
  -4  -2   3 1633.02   25.23
   4  -2  -3 1623.99   12.73
   2   3   4 1541.93   10.03
  -3  -4  -2 1618.24   23.49
  -3   4   2 1631.89   20.16
  -4  -2  -3 1618.63   24.75
  -2  -3  -4 1607.71   21.38
   4   2  -3 1593.99   24.91
  -2  -3   4 1649.37   22.77
  -3  -4   2 1614.39   19.80
   2  -3  -4 1586.13   19.51
   2  -3  -4 1637.89    9.10
   4  -2  -3 1685.23   23.88
  -3  -4   2 1661.85   20.66
   2  -3   4 1592.49   23.15
  -3   4   2 1578.25   19.78
  -4   2   3 1674.40   25.06
  -3   4  -2 1606.49   17.09
   3  -4   2 1590.29   18.98
   4  -2   3 1590.65   21.15
   2  -3   4 1517.40   22.49
   4  -2  -3 1618.03   10.79
  -2   3   4 1607.85   16.50
   2   3  -4 1533.19   24.70
   3   4  -2 1570.36   22.61
   3   4   2 1582.22   10.09
   4   2  -3 1617.10   20.22
  -3  -4  -2 1583.51   18.59
  -2  -3  -4 1582.69   15.34
  -3   4  -2 1589.75   18.66
  -4  -2  -3 1616.27   27.71
  -3   4  -2 1641.19   21.43
   3   4   2 1612.64   18.10
  -3  -4  -2 1598.85   21.44
   3  -4   2 1635.19   20.44
  -4   2  -3 1652.40   26.08
  -4   2  -3 1619.92   26.04
  -4  -2  -3 1663.68   21.99
  -3  -4  -2 1658.74   26.09
  -4  -2  -3 1591.04   26.13
  -2   3  -4 1612.60   19.75
   3   4  -2 1544.26   15.55
  -2  -3  -4 1662.30   28.07
   2   3   4 1610.69   14.61
  -4  -2   3 1585.11   23.63
  -2  -3   4 1599.77   15.36
   4  -2  -3 1650.40   18.44
  -3  -4   2 1586.85   24.84
   2  -3   4 1531.60   22.11
   3  -4   2 1581.50   23.54
   4   2  -3 1563.94    7.84
  -3  -4  -2 1546.77   21.36
   3  -4  -2 1575.09   21.32
   4  -2  -3 1595.97   15.62
  -4   2   3 1606.64   14.19
   2  -3  -4 1610.47   10.82
   4  -2   3 1618.60   23.42
  -2   3   4 1598.13   17.23
   2   3  -4 1605.52   14.26
   3   4  -2 1594.53   16.56
   4   2  -3 1557.16   21.85
  -2   3   4 1631.41   21.20
  -4  -2  -3 1589.91   15.17
  -4   2   3 1677.07   15.66
   3   4   2 1644.11   22.31
   4   2   3 1592.55   10.39
   4   2   3 1533.37   20.25
  -2  -3  -4 1598.57   16.89
  -4   2  -3 1609.33   17.34
  -3  -4   2 1553.27   17.39
   4  -2  -3 1634.14   24.25
   4   2  -3 1626.86   16.96
  -4   2   3 1625.07   22.23
   4   2   3 1545.58   16.12
  -4  -2   3 1598.16   22.79
   2   3   4 1498.99   21.51
   4  -2  -3 1598.86   17.40
  -4   2  -3 1636.77   18.85
  -3   4   2 1637.05   17.29
   3  -4   2 1626.82   18.86
  -3   4   2 1644.78   23.18
  -4   2  -3 1637.67   24.99
   3   4   2 1587.87   18.79
   4  -3   0 1647.33   14.69
  -4  -3   0 1640.97   21.34
   0  -4  -3 1721.89   22.69
  -4   3   0 1660.04   21.66
  -4  -3   0 1694.70   18.10
   3   0  -4 1686.15   21.79
  -3   0   4 1651.36   21.23
   0   4  -3 1707.40   22.28
  -4   3   0 1629.08   22.17
   4   3   0 1658.06   22.43
  -3   0  -4 1686.61   26.19
  -4   3   0 1640.56   13.78
   4   3   0 1649.34   19.83
   0  -4   3 1688.66   23.67
   0  -4  -3 1679.72   10.52
  -3   0   4 1669.51   11.07
   0  -4   3 1650.52   23.06
   0   4  -3 1659.23   24.52
  -3   0   4 1728.54   19.64
   4  -3   0 1657.02   10.29
   3   0  -4 1672.18   17.91
   3   0   4 1649.43   23.30
  -4  -3   0 1674.25   23.74
   4  -3   0 1534.40   20.33
  -3   0  -4 1651.58   25.87
   0  -4   3 1708.69   21.05
   0  -4  -3 1663.62   14.89
  -3   0   4 1668.23   18.77
   4  -3   0 1635.55   21.39
  -4  -3   0 1697.17   24.27
  -3   0   4 1650.97   18.59
   3   0   4 1649.27   18.44
   0  -4  -3 1671.34   19.51
   3   0  -4 1702.15   24.12
   3   0  -4 1687.29   17.24
   3   0   4 1630.93   21.66
  -4   3   0 1644.80   22.65
  -4   3   0 1632.11   22.11
   3   0   4 1628.89   16.79
  -4  -3   0 1640.86   22.76
  -3   0  -4 1656.51   16.21
  -4   3   0 1708.51   17.73
   0   4  -3 1700.59   13.51
  -3   0  -4 1646.91   21.87
   0   4   3 1666.73   24.11
  -1  -4  -3  232.63    8.55
  -3   1   4  241.71    6.39
  -4  -3   1  237.70    8.14
   1  -4  -3  235.78    8.32
  -4  -3  -1  231.39    8.03
  -4   3   1  241.72    8.35
  -4   3  -1  242.33    8.12
   4  -3  -1  250.24    5.74
  -4  -3   1  238.08    6.67
   4   3   1  237.69    6.39
  -4  -3  -1  252.09    7.51
  -1  -4  -3  230.37    7.53
  -3   1   4  234.81    8.46
   3   1  -4  249.56    8.79
  -4   3  -1  224.11    7.94
   3  -1   4  228.84    5.61
   4   3  -1  248.60    8.81
  -1   4  -3  230.40    7.31
  -1   4  -3  243.51    8.01
   3  -1  -4  248.33    8.18
  -3  -1  -4  235.80    9.79
  -3  -1   4  232.95    7.78
  -4   3   1  231.51    8.27
  -4  -3   1  230.90    8.07
  -4  -3  -1  230.97    8.99
  -4  -3   1  229.25    8.55
   3  -1  -4  238.48    8.74
   4   3   1  248.11    6.87
   1  -4  -3  231.44    5.72
   4   3  -1  249.14    6.77
   4   3  -1  243.18    8.40
   1  -4   3  242.44    8.94
   3   1   4  246.13    9.28
   4  -3   1  232.38    5.70
  -3  -1   4  228.62    7.94
   1   4  -3  240.67    9.25
   1  -4   3  241.70    8.52
   3   1  -4  228.83    9.31
   3   1   4  237.20    6.60
   3  -1   4  239.55    8.84
  -3   1   4  241.40    6.69
   3  -1  -4  245.70    6.24
  -4  -3  -1  238.22    9.75
  -4  -3   1  245.89    8.69
  -4  -3  -1  240.47    7.97
   3  -1  -4  243.78    6.36
   1  -4   3  240.14    4.68
  -4   3  -1  233.04    7.96
  -3   1  -4  246.32    9.60
   4   3  -1  237.98    7.82
  -1  -4   3  249.63    9.24
   4   3  -1  244.18    6.35
   1  -4   3  248.54    8.53
   4  -3  -1  243.58    7.85
   1   4  -3  242.69    6.72
  -1  -4   3  238.03    7.41
  -4  -3  -1  245.10    9.26
  -4  -3   1  228.85    9.25
  -3  -1   4  242.47    7.84
   3  -1  -4  247.53    6.01
   4  -3   1  241.34    8.72
  -3   1   4  245.41    4.24
  -1  -4  -3  239.98    6.25
   3   1   4  237.91    8.44
   3   1  -4  250.47    7.06
  -4   3  -1  236.01    5.70
   1  -4  -3  238.92    8.04
   3   1  -4  251.49    9.46
  -3   1   4  238.06    7.11
  -4   3  -1  241.01    6.35
   3  -1   4  239.76    8.15
   4  -3  -1  224.46    6.33
   3   1   4  232.86    6.22
   4   3   1  244.44    7.27
   3  -1  -4  238.59    9.15
  -4  -3   1  235.53    5.39
  -1  -4  -3  233.19    6.49
   3   1   4  254.74    7.36
   3   1   4  244.37    7.04
  -4   3   1  236.02    8.54
  -4   3  -1  238.15    8.91
  -3   1  -4  243.74    6.35
  -4   3   1  256.56    8.21
  -3  -1  -4  238.67    7.82
  -4   3   1  251.41    7.56
  -4  -3   1  236.16    8.60
  -1   4   3  241.01    9.24
  -3   1  -4  246.85    8.87
   1   4   3  232.53    8.88
   1   4   3  239.80    4.48
  -3  -1  -4  237.60    6.42
   1   4  -3  238.65    5.82
  -4  -3  -2   48.55    3.48
   2   4   3   51.64    3.25
  -4   3   2   48.35    3.83
  -4   3   2   45.14    2.27
  -4  -3   2   47.03    3.81
  -4  -3   2   44.91    2.93
   4  -3  -2   43.39    2.53
   2  -4  -3   51.45    3.76
   2  -4   3   50.02    3.09
  -3   2   4   49.46    2.96
   3   2  -4   52.01    4.15
  -4   3   2   41.86    1.92
   4  -3   2   46.33    2.12
  -3  -2  -4   48.20    4.39
  -3   2  -4   47.27    4.28
  -4   3  -2   44.32    3.31
   4   3  -2   47.00    3.97
  -2   4  -3   49.50    3.47
  -2  -4  -3   48.97    3.68
  -2   4  -3   51.83    2.54
   2   4  -3   50.23    4.19
  -2   4  -3   51.09    3.65
   2  -4   3   52.46    3.23
  -4  -3   2   42.83    3.84
  -3  -2   4   47.03    3.50
  -4   3   2   45.88    3.82
   4   3   2   46.45    2.73
  -4   3   2   45.61    3.88
   3  -2  -4   45.75    3.73
   4  -3   2   43.83    3.08
   4   3  -2   46.74    3.01
   4   3  -2   47.22    4.05
   2  -4   3   48.29    3.99
  -2  -4  -3   50.03    3.80
  -4  -3  -2   43.09    3.99
  -3  -2  -4   45.63    3.96
   2  -4  -3   48.47    3.20
  -4  -3   2   44.68    3.71
   3   2   4   43.36    2.51
   2   4  -3   49.97    4.28
  -4   3  -2   46.24    2.90
   2  -4   3   59.94    4.21
   3  -2   4   63.58    4.57
   4  -3   2   42.40    2.97
   3  -2  -4   46.64    2.56
  -2   4   3   50.72    2.59
  -3   2   4   46.24    2.65
   3   2   4   47.20    4.21
   3   2  -4   44.55    4.28
  -4   3  -2   41.09    4.01
  -4   3  -2   44.98    3.57
  -3   2  -4   48.13    4.06
   2  -4   3   51.52    2.99
   4   3  -2   42.97    3.19
  -2   4   3   49.80    1.81
  -4   3   2   46.59    3.28
  -4  -3  -2   44.56    4.38
  -3  -2  -4   49.80    3.50
  -2  -4  -3   53.86    4.96
  -3  -2  -4   48.07    4.73
  -4  -3  -2   45.97    4.18
  -4  -3  -2   44.02    3.57
  -3   2   4   45.78    2.42
  -3  -2   4   47.90    3.86
   2   4  -3   52.28    2.98
  -2  -4  -3   49.78    3.27
   3   2   4   45.90    2.92
   3  -2  -4   47.18    2.54
   4  -3  -2   43.02    3.17
   2  -4  -3   51.51    3.90
  -4   3   2   46.18    2.90
  -2  -4   3   48.02    3.17
  -3  -2   4   50.68    4.08
   4   3  -2   44.10    2.39
   4  -3   2   41.69    3.77
   4   3   2   43.62    3.05
   2  -4  -3   54.23    4.19
   3   2   4   43.98    2.46
  -4   3  -2   41.90    2.70
  -4  -3   2   43.76    2.79
   4   3  -2   42.88    3.15
   3   2  -4   51.00    4.31
  -4   3  -2   43.95    2.69
  -3  -2  -4   49.90    3.20
   3   2   4   50.64    3.95
  -2  -4  -3   50.03    2.54
   3  -2  -4   50.71    4.35
   3  -2   4   48.93    3.80
  -3   2   4   43.95    3.19
   2   4   3   51.70    2.68
   2   4   3   52.51    4.18
  -4  -3   2   44.11    4.02
  -4   3   2   43.71    3.52
  -3   2   4   49.67    4.17
  -3  -2   4   47.32    3.45
   4  -3  -2   46.32    2.97
  -4  -3   2   45.96    3.96
   3   2   4   48.83    3.43
   3  -2  -4   47.61    2.54
  -4   3  -2   47.43    4.17
  -4   3   3   10.45    1.88
  -4  -3  -3   10.44    1.83
  -3  -4  -3   11.64    1.97
   3  -4  -3   12.63    1.85
   4  -3  -3   10.78    1.49
  -4   3   3   10.21    1.24
  -4  -3   3   10.56    1.97
  -3  -3  -4    9.08    2.05
  -3  -4  -3   11.03    2.43
   3  -3   4    6.44    1.46
  -3  -3  -4    7.44    1.63
   3  -3  -4    7.59    1.39
   3   3  -4    5.68    1.15
  -3   4  -3   11.15    1.52
   4  -3   3   10.43    1.26
  -3   3  -4    6.61    1.28
  -3   4  -3   10.65    1.36
   3   3  -4    6.37    1.63
  -3   4   3    9.63    1.27
  -3  -3  -4    4.87    1.45
  -3   3  -4    6.34    1.55
  -4   3   3   10.15    1.18
   3  -4   3   12.48    1.54
   3   4  -3   13.31    2.37
   4   3  -3    9.58    1.93
   3  -3   4    7.00    1.54
  -4  -3  -3    9.58    1.93
  -4   3   3   10.47    2.06
  -3  -4   3   11.54    1.88
   4  -3  -3    9.31    1.81
  -3  -3  -4    6.25    1.40
  -3  -4  -3    9.34    1.81
   3  -4   3   10.75    1.87
  -3  -3   4    9.21    1.70
  -4  -3   3    8.64    1.85
  -3   4   3   10.27    1.81
   4  -3  -3   11.37    1.19
   4  -3   3   10.74    1.75
   4   3  -3   10.43    2.06
   4  -3   3   10.21    1.70
  -3   3   4    6.62    0.91
   3  -3  -4    6.93    1.50
   3  -3   4    7.09    1.58
  -3   4   3   12.36    0.87
   3   4  -3   10.67    2.11
   3   3  -4    5.64    1.50
   3  -4   3   11.84    1.88
   3   3   4    7.73    0.85
  -3  -4  -3   12.40    2.10
   3   3  -4    6.13    1.04
   3   4  -3   10.47    1.16
   4   3  -3    8.95    1.37
  -4   3  -3    9.56    2.15
  -3   4   3    9.89    1.17
  -4  -3  -3    9.91    2.03
  -3   4  -3   10.76    2.01
  -3   3  -4    7.64    1.61
  -4   3   3    9.51    1.44
  -4  -3  -3   12.94    2.43
  -3  -3  -4    8.22    1.43
  -4  -3  -3   10.22    1.80
   3  -4   3   12.14    1.74
   4   3  -3    9.64    1.02
   3  -4  -3   10.92    1.77
   3   4  -3   11.94    1.39
   3   3  -4    6.75    0.84
  -4   3   3    9.87    1.32
   4  -3  -3   11.48    1.61
   3   3   4    6.00    1.09
  -3  -3   4    6.68    1.61
   4  -3   3   11.35    2.10
   3  -4   3    8.75    1.78
  -4  -3   3    8.16    1.81
  -3   3   4    7.61    1.20
   3  -3  -4    6.99    0.99
  -3  -3   4    6.85    0.89
  -4   3   3   14.50    1.69
  -3  -4   3   10.68    1.42
   4  -3  -3   12.09    2.10
  -3   3   4    7.25    1.46
  -3  -4  -3   11.16    0.80
   4   3  -3   11.04    1.87
   3   4   3   11.54    1.56
  -4   3  -3   10.92    2.15
   3   3   4    8.19    1.26
  -4  -3   3    6.67    1.62
  -3   3   4    7.23    1.75
  -3   3  -4    8.46    0.95
   4   3   3    9.18    1.47
   3  -3  -4    7.80    0.95
   4  -3  -3   10.85    1.46
   3   3   4    6.04    1.35
   3   4   3   10.47    1.79
  -3   4   3   14.18    2.33
  -4   3   3   10.10    1.94
  -3  -3   4    7.45    1.45
  -4   4   0 1001.53   16.27
   4  -4   0  999.15   13.83
  -4   0   4  962.81   12.32
   0  -4  -4 1051.13   19.14
  -4  -4   0  979.58   16.15
  -4  -4   0  985.41   15.82
   0   4  -4 1010.60    7.55
   4   4   0  993.71   18.94
   4   0  -4  981.64   17.06
  -4   0   4  953.10   18.12
   0   4  -4 1033.63   18.95
   4   4   0  962.15   15.45
   0  -4  -4  983.38   13.97
  -4   0   4  985.69   10.79
  -4   4   0  960.28   12.57
   0  -4   4  954.56   19.29
   4   0   4  971.49   18.89
   0  -4   4  992.21   19.16
   4   0  -4  981.50   13.94
   0   4  -4 1013.98   20.77
   0   4   4  977.12   16.71
   0  -4  -4  975.30    9.35
  -4   0  -4  977.54   21.97
  -4  -4   0  980.40   18.59
   4  -4   0 1006.83   18.43
  -4  -4   0  961.72   19.59
   0  -4   4 1012.43   16.57
   0  -4  -4 1003.86    8.67
   4   0  -4  990.42   12.79
   4   0   4  990.30   14.43
   4   0   4  965.47   16.70
  -4  -4   0  988.75    8.01
  -4   0   4  941.02   13.49
   0  -4  -4  986.36   16.37
   4   0  -4  960.63   19.14
  -4   0  -4  988.22   18.77
   0   4   4 1008.31   19.95
  -4   0  -4  975.53   11.23
  -4   4   0  981.78   18.14
  -4   4   0  978.99   15.85
   4  -4  -1   62.01    3.44
  -4  -4   1   57.34    3.98
  -4   1   4   63.08    3.07
  -4   4  -1   58.56    3.93
  -4   4   1   60.99    4.11
  -4  -4   1   60.94    3.87
  -1  -4  -4   59.98    4.65
   4  -4   1   59.50    3.51
  -4  -4  -1   58.80    4.13
   1  -4  -4   57.20    4.40
  -1   4  -4   57.64    4.33
   4   1  -4   57.37    4.36
  -4   4   1   55.14    1.52
  -4   4  -1   59.67    4.29
  -1  -4  -4   56.76    4.27
  -4   1   4   62.47    4.75
  -1   4  -4   56.16    4.16
   1   4  -4   55.13    2.49
   4  -1  -4   58.13    4.11
  -4   4   1   54.28    1.50
   4   4  -1   60.62    4.74
   4  -1   4   60.67    3.33
  -1  -4  -4   60.16    3.90
   4   1  -4   62.20    5.24
  -4  -1   4   58.27    3.56
   4   4   1   60.37    3.33
   1  -4   4   54.05    4.48
   4  -1  -4   51.07    4.39
   1  -4  -4   54.58    3.03
  -4   4   1   60.75    4.09
  -4  -1   4   59.22    3.17
  -4  -4  -1   60.24    4.87
   4   1   4   66.95    5.09
   4  -1   4   62.56    4.73
  -4   4  -1   61.96    2.85
  -1   4   4   54.96    3.58
   4   4  -1   59.44    4.23
   4  -1  -4   66.99    3.25
   4  -4   1   60.81    3.07
   1   4  -4   55.58    4.86
   1  -4   4   56.18    4.56
  -1  -4   4   58.63    4.74
   4   4  -1   61.04    3.93
  -4   1  -4   65.83    5.58
  -4   4  -1   56.76    3.89
  -4  -4  -1   59.87    4.88
  -4  -1  -4   62.17    5.61
  -4  -4   1   64.00    4.35
  -4  -4  -1   59.90    3.93
   4  -4   1   61.83    4.75
   1  -4  -4   57.82    2.00
   4  -4  -1   57.37    4.24
   1  -4   4   57.43    4.28
  -4  -4   1   62.70    5.16
   4  -1  -4   64.51    3.57
  -4  -4  -1   61.79    4.85
  -4  -1   4   62.19    4.43
  -1  -4   4   55.01    3.66
  -1  -4  -4   55.95    3.55
   4  -1  -4   63.73    4.98
   4  -1   4   57.33    4.08
   1  -4  -4   55.19    4.17
  -4   4  -1   57.95    3.71
   4   1   4   60.00    3.17
   4   1   4   62.17    4.43
   4   1  -4   62.65    4.92
   4   1  -4   61.58    3.43
  -4  -1  -4   69.05    3.22
  -4  -4   1   58.97    2.82
   4   4   1   61.38    4.32
  -4   1   4   58.63    3.32
  -4  -1  -4   64.46    4.61
  -4   4   1   56.65    4.02
  -4   4  -1   60.33    4.67
  -4   1  -4   61.09    2.86
   1   4   4   51.66    4.48
  -4   4   1   64.54    4.46
  -1   4   4   50.38    4.62
  -4   4   1   62.92    4.19
  -4  -4   1   60.68    4.33
  -4   1  -4   58.21    4.72
   2  -4  -4   10.40    1.75
  -2  -4  -4   13.48    2.68
  -4  -4   2   10.29    1.83
  -4  -4   2   13.63    1.93
  -4  -4  -2   11.98    1.87
  -4   2   4    9.49    1.26
  -4   4   2   10.63    1.80
   4  -4  -2   13.85    1.64
  -4   2   4    9.16    1.88
  -4   4   2   11.71    1.09
   2   4  -4   11.61    1.39
   2   4  -4   11.21    2.09
  -2   4  -4   10.78    1.87
  -2  -4  -4   11.99    2.13
  -4   4  -2   10.80    1.66
   4   4  -2   10.50    2.07
   4  -4   2   10.51    1.09
   4   2  -4    8.73    1.75
  -2   4  -4   11.58    1.97
  -4   4   2   12.92    1.98
  -4   4   2   10.86    1.84
  -4  -4   2   12.09    1.90
   2  -4  -4   11.51    1.53
  -2  -4   4   11.91    2.13
  -2  -4  -4   11.60    1.98
   4   4   2   12.07    1.30
  -4  -2   4    6.57    1.31
  -4  -2  -4    8.57    1.90
  -4  -4  -2   10.84    2.11
  -4  -4   2   13.10    2.08
   2  -4   4   11.06    2.15
  -2   4   4   11.16    1.41
  -4   4  -2   12.04    1.57
   4  -2  -4   10.03    1.99
   4   4  -2   11.45    2.06
   4  -4   2   10.08    1.47
   2   4  -4   11.54    2.20
   4   2  -4    8.60    1.78
   4   2   4   10.92    1.47
   4  -2  -4    9.91    1.14
  -4   2   4    9.51    1.12
   4  -2   4    7.42    1.60
   2  -4   4   12.74    2.16
   4   2   4    8.66    1.82
  -4   4  -2   11.64    1.83
   4   4  -2   12.55    1.64
  -4  -2  -4    8.82    1.62
  -4   2  -4    8.55    1.81
  -4   2  -4   13.07    2.62
  -4  -2  -4    6.96    2.00
  -4   4  -2   12.60    2.17
  -4  -4  -2   11.96    2.26
  -4  -4  -2   11.38    2.42
  -4  -2  -4   10.19    2.33
  -4  -4  -2   11.10    1.75
   2   4  -4   11.56    1.43
   4  -4  -2   10.80    1.81
   4   4  -2   10.53    1.32
  -4   2   4    9.18    1.04
   4  -2  -4   10.13    1.38
  -4  -2   4    9.42    1.88
   4  -4   2   12.68    2.21
   2  -4   4    9.98    1.95
   4  -2   4    8.17    1.71
  -4  -4   2   10.86    2.13
  -2  -4   4   11.08    1.50
  -4  -4  -2   10.16    1.91
   4   2   4   10.23    1.84
   4  -2  -4   10.51    2.01
  -4   2   4   10.63    1.47
   2  -4  -4   11.34    2.04
  -4  -2  -4    9.86    1.40
   4  -2   4    9.04    1.73
  -2  -4  -4   10.72    1.41
  -4   4  -2   12.46    1.75
  -4  -4   2   12.13    1.47
   4   4   2   11.19    1.86
   4   2   4    8.82    1.03
   4   2  -4    8.32    1.80
  -4   4  -2    9.52    1.93
   2   4   4    9.40    1.85
  -4   4   2   10.07    1.83
  -4   2   4   10.96    2.01
   2   4   4   10.14    1.11
  -4   4   2   10.40    1.90
  -4  -2   4    9.42    1.76
   4  -2  -4   10.16    1.38
   4   2   4    8.79    1.33
  -4   4   2   13.07    1.83
  -4   2  -4    8.88    1.31
  -4  -4   2   10.87    1.89
  -3  -4  -4  303.54   10.91
   3  -4  -4  325.35    9.90
  -4  -4   3  316.17   10.41
  -4  -4   3  313.16    9.27
  -4  -4  -3  325.26   10.61
   4  -4  -3  327.35    8.63
  -4  -3  -4  330.88   10.94
  -4   4   3  313.71   10.47
  -3   4  -4  310.60    9.54
  -4   4   3  320.52    6.99
   4   4  -3  308.24   11.71
   4  -4   3  317.36    7.06
  -4   4  -3  311.17    8.43
   3   4  -4  318.62   11.80
   4   3  -4  306.50   11.35
  -3  -4  -4  307.13   10.99
  -4   4   3  321.48   10.87
   3  -4   4  336.42   11.25
   3  -4  -4  307.16    9.75
   4   4   3  320.13    5.44
  -4  -4   3  338.79   10.93
   4  -3  -4  326.32   11.10
  -4  -3   4  316.41   11.79
   4  -3  -4  308.80    4.15
  -4   3   4  310.70   11.64
  -4  -4  -3  324.23   11.86
  -4  -4   3  311.02   10.93
   4  -3   4  312.41   10.15
   4  -4   3  322.41   10.09
  -4  -3  -4  335.32   11.99
  -3  -4  -4  323.44   11.15
  -4   4   3  314.41   10.63
   3  -4   4  314.16   10.60
   4   4  -3  307.66   11.57
  -3   4   4  324.80    6.18
   3   4  -4  318.10   12.23
  -4   3   4  303.30    4.98
   4  -4   3  298.94    9.43
   4   3  -4  317.97   12.25
   4   3   4  312.48    6.50
   4  -3   4  313.91   10.50
  -4   4   3  307.15    7.91
  -4  -3  -4  329.48   12.77
  -4  -4  -3  319.31   11.63
  -3  -4  -4  309.88   13.31
   3  -4   4  319.23    9.09
  -4  -3  -4  310.51   13.51
  -4  -3  -4  313.24    9.77
  -4   4  -3  306.45   11.25
   3   4  -4  302.49    6.10
   4   4  -3  308.33    7.90
  -4   3  -4  301.13   12.11
   4   3  -4  302.88    8.50
  -4  -4  -3  321.09   13.30
  -4   3  -4  323.99   11.66
  -3  -4   4  324.58    7.56
  -4   3   4  321.25    7.42
   4  -4  -3  316.98    9.68
   4   4  -3  321.67    6.90
   4  -3   4  297.33   11.18
   4  -3  -4  320.55    7.82
   3   4  -4  315.69    6.81
  -4  -3   4  307.89   11.49
  -3  -4   4  326.64   11.94
   4  -4   3  322.00   11.86
   4   3  -4  305.10    4.43
   4   3  -4  307.40   11.02
  -3  -4  -4  311.99    6.20
   4  -3  -4  315.54   11.90
   4   3   4  311.43   10.49
  -4   3   4  313.71    8.47
   4  -4  -3  311.64   11.60
  -4   3  -4  303.86    7.40
  -4   3   4  328.80   11.64
  -4   4  -3  303.44   11.80
   3   4   4  319.57    7.68
  -3   4   4  332.12   12.15
  -4   4   3  325.07   11.27
   4   4   3  308.01    9.56
  -4   3  -4  328.19   12.30
  -4  -3   4  312.03   10.20
   3   4   4  317.42   10.42
   4  -3  -4  333.60    7.33
   4   3   4  299.77    8.85
  -4  -4  -4  367.85   12.30
   4  -4  -4  371.61   10.21
   4   4  -4  386.14   13.52
   4  -4  -4  360.54    6.14
  -4  -4   4  377.85   12.84
   4  -4   4  365.35   11.77
   4  -4  -4  358.79   11.70
  -4  -4  -4  373.81   13.13
  -4   4   4  375.03   12.71
   4   4   4  372.16    4.75
   4   4   4  357.35    4.65
   4  -4   4  357.76   11.54
   4   4  -4  369.83   13.79
  -4   4  -4  363.11   13.15
  -4  -4  -4  354.42   12.97
  -4  -4  -4  361.31   15.01
   4   4  -4  361.95    8.42
   4  -4   4  343.29   12.68
   4   4  -4  382.98    6.89
   4  -4  -4  368.89   10.38
  -4  -4   4  371.99   13.49
  -4   4   4  377.28   10.26
   4   4   4  351.84   10.71
  -4   4   4  383.60   13.25
  -4   4  -4  369.32    8.14
  -4   4  -4  367.07   13.87
   0  -5   0   68.29    4.44
  -5   0   0   70.47    5.00
   5   0   0   62.18    2.96
   0   5   0   71.44    4.42
   0   0   5   64.12    3.02
  -5   0   0   66.20    4.54
   0   0  -5   68.38    4.51
   0  -5   0   69.00    3.43
  -5   0   0   66.48    4.79
   0   5   0   68.36    4.86
  -5   0   0   68.68    5.28
   5   0   0   62.48    1.90
  -5   0   1  262.42    9.70
  -5   0  -1  263.74    9.79
   1  -5   0  263.59    8.62
  -1  -5   0  265.53    8.87
   5   0   1  277.06    4.68
  -1   5   0  252.42    7.58
   0  -1   5  255.16    4.78
   0   1  -5  242.93    9.31
   1   5   0  234.59    8.45
   5   0  -1  265.31    6.45
   0   1   5  254.69    5.41
  -5   0   1  263.05    8.63
   0   1   5  253.53    7.24
  -5   0   1  268.72    9.86
  -1   5   0  256.31    6.76
   0  -1  -5  241.95    7.86
   0   1  -5  252.44    9.48
   0   1   5  238.35    8.48
   1  -5   0  249.58    7.09
  -1  -5   0  245.89    6.12
  -5   0  -1  274.04   11.20
  -5   0  -1  264.08    9.50
  -5   0  -1  260.19    9.69
  -5   0   1  250.47    9.05
   5   0  -1  264.00    6.58
   1  -5   0  257.10    9.17
   0  -1   5  229.37    8.69
   1   5   0  255.10    9.47
   5   0  -1  275.52    8.13
   0  -1  -5  253.87    9.01
   5   0   1  259.82    4.72
  -5   0   1  258.49   10.29
   5   0  -1  257.42    5.79
  -5   0  -1  224.26    8.82
  -5   0   2   87.61    5.77
   2  -5   0   86.37    4.91
   5   0   2   83.70    3.30
   2   5   0   84.15    2.95
   5   0  -2   79.86    3.89
   2  -5   0   83.71    3.00
  -2   5   0   86.29    3.98
  -5   0   2   84.90    3.72
  -5   0   2   85.88    6.11
   5   0  -2   80.72    5.64
   0   2   5   86.85    3.86
  -5   0   2   81.84    5.65
  -5   0   2   85.98    4.57
  -2  -5   0   80.88    3.48
   0  -2  -5   86.45    4.32
   2   5   0   85.49    3.98
   0   2   5   80.32    5.01
   5   0   2   76.90    4.64
   0  -2   5   81.77    5.34
   5   0  -2   81.95    3.64
  -2   5   0   85.20    3.56
  -5   0  -2   86.88    6.45
  -5   0  -2   84.82    6.30
  -2  -5   0   81.93    4.50
   0   2  -5   92.40    4.72
  -5   0  -2   79.16    5.32
   2  -5   0   85.23    5.39
   5   0  -2   83.62    3.08
  -2  -5   0   83.25    5.38
   0  -2   5   83.03    4.32
   5   0   2   85.67    3.62
   5   0  -2   84.36    4.96
   0  -2  -5   87.46    5.30
  -2   5   0   84.54    5.45
   2   5   0   83.79    5.50
   0  -2   5   79.92    5.33
  -5   0  -2   76.88    5.11
   5   0  -2   78.75    3.76
  -5   0   2   79.36    5.85
   0   2   5   94.67    5.97
   0  -2  -5   84.10    2.78
  -3   5   0  146.77    5.08
  -5   0   3  168.16    8.51
   3  -5   0  156.45    6.45
   5   0   3  175.04    5.65
  -3  -5   0  155.74    6.98
  -5   0   3  164.45    3.65
  -3  -5   0  145.41    5.08
   0  -3  -5  175.88    8.12
   5   0  -3  162.74    6.28
  -5   0   3  149.76    7.69
   3   5   0  150.18    5.13
  -3   5   0  152.52    4.61
   3   5   0  153.98    7.77
  -5   0   3  158.43    5.57
  -5   0   3  157.51    4.23
   0  -3  -5  173.52    5.40
  -5   0   3  156.47    8.66
  -5   0   3  166.55    8.56
   0  -3   5  164.92    8.00
  -3  -5   0  156.08    5.03
   5   0  -3  159.80    8.18
  -5   0   3  163.14    5.83
   3   5   0  150.93    5.59
   0   3   5  173.74    7.40
   5   0  -3  156.45    5.27
  -3   5   0  158.41    4.31
   0   3  -5  171.54    8.72
   5   0   3  169.41    7.62
   0  -3  -5  169.97    5.43
   0  -3   5  165.58    8.00
  -3  -5   0  152.94    6.66
   0   3  -5  167.29    5.34
  -5   0  -3  157.34    8.95
   3  -5   0  153.20    7.49
  -3  -5   0  151.09    7.81
   0  -3   5  168.94    6.55
   0  -3  -5  161.74    7.17
   5   0   3  157.44    5.88
   5   0  -3  162.80    7.65
   3   5   0  149.13    7.43
  -3   5   0  162.62    7.45
  -3  -5   0  154.61    4.50
   0   3   5  183.59    8.63
  -5   0  -3  157.01    7.29
  -3   5   0  152.19    6.85
  -4  -5   0   44.07    3.76
  -5   0   4   37.76    2.25
  -4  -5   0   47.70    3.49
   4  -5   0   45.87    3.48
  -4   5   0   43.35    3.33
   0  -4  -5   44.93    4.29
  -4   5   0   43.05    1.77
  -5   0   4   34.20    3.80
   4   5   0   46.58    4.46
   5   0  -4   35.31    3.29
   0   4  -5   46.47    4.39
  -5   0   4   37.67    4.48
   0  -4  -5   48.21    3.16
   0  -4   5   45.78    4.48
  -5   0   4   35.99    2.51
  -5   0   4   36.25    2.51
   5   0  -4   27.06    3.58
   0  -4  -5   45.32    2.41
   0   4   5   50.65    4.07
   4   5   0   41.76    3.22
   0   4  -5   45.93    4.82
   0  -4   5   48.62    4.62
   5   0   4   35.12    3.76
  -4   5   0   45.23    1.93
  -4  -5   0   42.47    3.94
  -5   0  -4   37.07    4.64
   4  -5   0   43.39    3.30
   0   4  -5   45.04    1.77
  -4  -5   0   38.92    4.25
   0  -4   5   43.09    3.61
   4  -5   0   43.30    4.20
   0  -4  -5   47.02    3.94
   4   5   0   43.89    4.05
   5   0   4   31.61    3.05
   5   0  -4   35.19    3.87
  -5   0  -4   37.62    1.82
  -4  -5   0   46.01    2.02
  -4   5   0   46.27    3.90
  -5   0  -4   39.56    4.08
  -4   5   0   43.81    3.88
   0   4   5   46.91    4.63
  -5  -1   0    8.28    0.79
  -1   0  -5    8.05    1.84
   0  -5   1    7.79    1.54
   0  -5  -1    6.35    1.39
  -5   1   0    7.20    1.51
   0   5  -1    7.94    1.44
   5   1   0    8.91    1.36
   1   0  -5    6.60    1.52
   5  -1   0    9.88    0.87
  -5  -1   0    8.68    1.74
   1   0   5    5.52    1.07
  -1   0   5    6.78    0.83
  -1   0  -5    7.39    1.47
   0  -5  -1    6.91    0.95
  -1   0   5    4.68    1.13
   0  -5   1    7.64    1.25
   1   0  -5    7.42    1.63
  -5  -1   0    6.16    1.59
  -5   1   0    7.07    1.60
  -1   0   5    5.28    0.83
   0  -5  -1    7.33    1.52
   5  -1   0    7.78    1.29
   5  -1   0    7.95    0.73
   5   1   0    7.20    1.07
   1   0   5    7.09    1.58
  -5  -1   0    5.70    1.48
   0   5   1    8.36    1.77
  -5  -1   0    7.51    1.68
  -1  -5   1 1612.33    8.08
  -1   5   1 1562.28    8.66
  -5  -1   1 1633.17    9.51
  -1  -5   1 1502.80   21.19
   1  -5   1 1581.25   21.64
  -5   1  -1 1618.71   24.45
   5   1   1 1625.32   12.76
   5  -1   1 1641.62   11.21
  -5   1   1 1603.51   24.07
   1  -5  -1 1624.23   21.63
   1   5   1 1577.18    8.71
  -1  -5  -1 1574.40   21.87
   1   1  -5 1642.69   24.22
   5  -1  -1 1589.91   12.28
   5   1  -1 1632.24   18.76
   1   5  -1 1371.36   20.95
  -1   5  -1 1578.34   19.52
  -1  -1   5 1622.12   15.00
  -5   1   1 1529.56   23.59
  -5  -1   1 1562.91   21.79
   1   5   1 1579.14    8.81
   5  -1   1 1620.12   10.94
   5  -1  -1 1632.60   18.10
   1   1   5 1595.37   16.30
   1   5   1 1533.33    8.37
   5   1  -1 1659.16   23.81
  -5   1   1 1642.14   24.50
   1  -5   1 1555.86    8.62
  -1  -5   1 1614.91   17.95
   1  -5  -1 1605.11   16.80
   1  -1   5 1552.60   23.31
   1   1   5 1601.66   17.76
   1  -1  -5 1596.39   21.49
  -1   1   5 1557.20   20.95
  -1  -1  -5 1617.47   19.70
   5  -1   1 1575.69   18.02
  -1  -5  -1 1601.97   12.58
  -1   5  -1 1580.26   17.85
   1   5  -1 1552.45   19.92
  -1   1  -5 1576.80   23.30
   1   5  -1 1573.15    8.91
  -1   1  -5 1671.67   23.30
  -1  -5   1 1592.33   14.22
  -5   1  -1 1573.46   23.14
  -5   1   1 1629.25   23.03
   1  -5  -1 1532.69    9.03
  -5  -1  -1 1612.94   27.24
   5  -1  -1 1565.07   17.31
   5  -1   1 1609.14   21.20
  -1  -1   5 1593.12   15.63
   1  -5  -1 1664.75   23.73
  -1  -5   1 1589.27   22.19
  -1  -1  -5 1626.14   21.99
   5   1   1 1589.68   14.24
   5   1  -1 1555.72   18.06
   5   1   1 1524.39    8.24
   1   1  -5 1581.22   24.53
   5   1   1 1548.55   13.98
   1   5   1 1659.30   24.86
   5  -1  -1 1575.57   20.90
  -1   1   5 1582.38   22.90
   1   1   5 1639.92   23.69
   1  -1   5 1619.84   23.18
  -5  -1   1 1522.62   25.18
  -5  -1   1 1601.03   24.78
   1  -1   5 1619.06   10.43
  -5   1  -1 1640.48   24.17
   5  -1  -1 1558.75   14.10
  -1   5   1 1584.13    9.52
  -1  -1  -5 1589.60   17.06
   5   1   2 1187.87   13.52
  -2  -5   1 1076.55   11.29
   2  -5   1 1093.66   17.68
  -2   5   1 1065.81   11.45
   2  -5  -1 1048.15   17.67
   5  -1   2 1148.65   12.47
  -5  -1   2 1097.46    8.91
   2   5   1 1080.91   11.11
  -5   1   2 1088.17   20.63
   2  -5   1 1079.81   10.90
  -1   2  -5 1077.88   19.59
  -5   1   2 1074.74   11.58
   5  -1  -2 1059.90   12.40
  -2   5  -1 1096.74   14.72
   1   2  -5 1128.42   20.74
  -5   1   2 1098.74   20.39
   5   1  -2 1081.41   16.45
  -5   1   2 1085.26   20.78
   5  -1  -2 1054.85   13.56
   5  -1  -2 1158.50   20.77
   2   5   1 1093.73   11.26
   2  -5   1 1075.53   11.20
   2  -5   1 1084.52   10.96
   1   2   5 1116.41   13.32
  -5  -1   2 1102.11   21.89
   2   5   1 1085.17   11.24
  -2  -5  -1 1110.77    9.82
   5   1  -2 1084.36   20.28
  -1   2   5 1138.04   15.03
  -5  -1   2 1054.85   16.94
  -2  -5   1 1072.77   14.57
  -5  -1  -2 1081.65   21.13
  -2   5  -1 1069.03   13.88
   1   2   5 1105.26   19.46
  -1   2   5 1107.18   17.22
  -1  -2  -5 1110.40   14.55
   1  -2  -5 1069.05   16.76
   5  -1  -2 1085.96   11.13
   1  -2   5 1090.40   19.99
   2   5  -1 1072.13   16.61
   5  -1   2 1059.64   16.77
  -2   5   1 1079.91   11.85
   2   5  -1 1093.90   10.39
  -5  -1  -2 1112.24   23.55
  -1   2  -5 1119.06   17.27
   2  -5  -1 1026.50   11.38
   2   5  -1 1081.33   11.83
   2  -5  -1 1045.89    9.73
  -5   1  -2 1061.66   19.50
  -2   5  -1 1076.15   11.02
  -5  -1  -2 1079.48   22.80
  -2  -5  -1 1064.35   18.88
  -2  -5   1 1070.53   13.33
   1   2   5 1098.01    7.18
   5  -1   2 1099.54   18.87
   2  -5  -1 1060.67   19.30
   5  -1  -2 1109.24   12.73
  -2  -5   1 1131.50   20.78
  -2  -5   1 1062.21   17.93
  -1  -2   5 1096.40   13.66
  -2  -5  -1 1090.11   18.60
   1  -2   5 1087.63   17.30
   2  -5   1 1102.02   19.64
  -1   2   5 1124.16   14.72
   5   1  -2 1083.81   10.51
   5   1  -2 1105.94   10.23
   1   2   5 1092.00   19.64
   5  -1   2 1125.83   12.94
  -2   5   1 1094.18   20.09
   1  -2  -5 1105.24   19.46
   5  -1  -2 1079.90   18.76
  -1   2   5 1138.17   19.43
   1  -2   5 1129.65   19.91
  -2   5  -1 1111.09   19.16
   5   1  -2 1059.98   16.78
   2   5   1 1125.82   20.36
  -1  -2  -5 1108.84   17.93
   5   1   2 1089.43   14.04
  -1   2   5 1142.80   21.26
  -5   1  -2 1087.05   20.49
   5   1  -2 1106.49   14.48
  -5  -1   2 1134.01   21.81
  -1  -2  -5 1125.30   12.34
   1   2   5 1128.93   19.94
  -1  -2   5 1134.46   10.76
  -5   1  -2 1092.83   18.69
  -2   5   1 1056.75   12.16
  -2  -5   1 1092.47   12.10
   5  -1  -2 1111.61   14.27
  -5  -1  -2 1104.38   20.06
  -5   1   3   28.63    1.41
  -1  -3  -5   21.47    2.94
  -3  -5   1   23.33    2.13
  -3  -5  -1   27.89    3.03
   3  -5   1   27.08    2.71
  -3  -5   1   30.37    3.08
   3  -5  -1   28.56    2.80
   1  -3  -5   23.57    2.89
   3   5   1   28.08    2.27
   3  -5   1   26.44    2.14
  -5   1   3   30.36    3.61
   5  -1   3   28.09    2.27
  -3   5   1   27.13    2.32
   3  -5   1   31.93    2.48
   5  -1  -3   25.67    2.30
  -3   5  -1   26.38    2.05
  -5   1   3   29.86    2.24
   3   5  -1   28.18    3.38
   5   1  -3   26.62    2.78
   3   5   1   27.55    2.29
  -5   1   3   26.40    3.20
   5  -1   3   28.66    2.33
  -3   5   1   27.87    2.03
  -1   3  -5   22.45    2.90
  -5  -1   3   30.27    3.91
  -5  -1  -3   30.05    3.62
   3  -5   1   26.68    2.22
  -1  -3  -5   22.52    2.36
   3  -5   1   28.72    2.26
   3   5   1   26.60    2.19
   1   3   5   22.78    1.64
  -5   1   3   31.21    3.68
  -5  -1   3   32.77    2.82
   1  -3  -5   22.83    1.39
   1  -3   5   20.59    2.91
   3   5   1   26.15    2.22
   5   1  -3   28.08    3.43
  -3   5   1   26.62    1.46
   1  -3   5   22.80    2.98
  -3   5  -1   25.47    2.04
   5  -1  -3   27.33    1.92
   5  -1   3   30.08    3.09
   5   1   3   28.89    3.24
  -1   3   5   22.75    2.51
   3   5  -1   25.28    2.67
   1  -3  -5   23.74    2.32
   1   3   5   23.12    2.89
  -1   3  -5   20.12    2.97
  -1  -3  -5   22.81    1.78
  -1  -3   5   20.23    2.89
   3   5   1   29.68    1.96
   1   3  -5   23.35    3.23
  -3  -5  -1   27.12    3.11
  -5  -1  -3   28.80    3.91
  -1   3  -5   24.12    2.28
  -5  -1  -3   27.55    3.76
   3  -5  -1   25.92    2.25
  -5  -1  -3   25.83    3.12
   3   5  -1   25.83    2.01
  -5   1  -3   27.47    3.73
  -1  -3  -5   24.03    1.36
   3  -5  -1   25.68    1.92
   3   5  -1   25.29    2.28
  -3  -5   1   26.65    2.48
  -3  -5  -1   26.03    3.15
   1  -3   5   23.48    2.67
   5  -1  -3   28.15    1.66
   3  -5  -1   26.94    3.15
  -1  -3   5   22.51    2.19
   3  -5   1   30.36    3.43
  -3  -5   1   33.46    3.74
  -3  -5   1   26.33    2.17
   5   1  -3   29.75    2.01
   5  -1   3   28.46    2.48
   5  -1  -3   28.49    3.28
  -3   5  -1   28.90    3.09
   3   5   1   29.75    3.37
   5   1  -3   26.96    3.00
   5   1   3   26.92    2.57
   1   3   5   21.84    2.84
   1  -3  -5   23.82    2.94
  -1  -3  -5   23.22    2.59
  -1   3   5   23.04    2.92
  -3   5   1   27.24    2.46
  -3  -5   1   27.69    2.41
  -3   5   1   29.92    2.77
  -3   5   1   29.84    3.24
   1   3   5   23.88    3.08
  -1   3   5   24.18    3.37
  -5   1  -3   32.13    3.18
  -4   5   1  172.84    6.83
  -4  -5   1  181.24    7.47
  -4  -5  -1  188.54    8.32
  -1  -4  -5  176.01    8.71
   4  -5   1  164.57    6.71
  -5   1   4  180.82    9.29
   4  -5  -1  172.47    6.62
   1  -4  -5  166.68    8.17
  -4  -5   1  175.67    6.87
  -5   1   4  181.67    4.74
   5  -1  -4  171.90    6.98
  -5   1   4  169.06    8.64
  -1   4  -5  177.27    8.41
  -4   5  -1  169.42    4.08
  -4   5   1  169.14    3.84
   4   5  -1  176.25    8.73
   5   1  -4  178.68    7.85
  -1   4  -5  173.72    8.39
   5   1  -4  166.75    9.12
   1  -4   5  170.05    8.61
  -1  -4  -5  175.90    6.88
  -5  -1   4  171.32    6.12
  -5  -1   4  165.26    9.29
  -5  -1   4  168.31    5.92
  -4  -5  -1  174.88    9.00
   1  -4  -5  170.47    4.93
  -1   4   5  173.10    6.99
   1   4  -5  166.20    9.21
   1   4   5  172.26    8.29
  -4   5  -1  178.89    5.06
   5   1   4  166.07    8.45
   4   5   1  171.75    5.54
  -1  -4   5  167.08    8.67
   5  -1   4  183.02    8.36
   5  -1  -4  180.62    5.37
  -1   4  -5  174.27    9.57
   1  -4   5  165.78    8.46
   4   5  -1  174.59    7.46
   1  -4  -5  170.20    5.83
  -5  -1  -4  180.34   10.17
  -4  -5  -1  164.65    8.33
  -4  -5   1  174.95    7.21
  -1   4  -5  163.82    4.92
  -5   1  -4  165.62    9.55
   4  -5   1  182.69    8.80
  -1  -4   5  164.54    6.55
   4  -5  -1  175.13    8.16
   1  -4   5  170.53    7.71
  -4  -5   1  174.56    9.12
  -4  -5  -1  170.11    8.62
   5   1  -4  176.27    8.50
   5  -1   4  167.08    7.01
   5  -1  -4  169.86    8.71
   5   1  -4  175.49    5.55
  -4  -5   1  169.48    5.05
   1  -4  -5  164.59    7.88
   4   5   1  179.90    8.23
  -5   1   4  171.58    5.25
   5   1   4  178.05    5.46
   5   1   4  170.68    7.36
  -1  -4  -5  167.13    6.90
  -5  -1  -4  176.02    4.48
  -1   4   5  168.54    8.09
  -4   5  -1  176.37    7.47
  -4   5   1  181.17    8.00
  -4  -5   1  174.61    7.19
  -4   5   1  170.12    7.20
  -5   1  -4  182.17    4.01
  -4   5   1  182.66    7.42
   1   4   5  172.81    8.67
  -5  -1  -4  180.69    8.59
  -4   5  -1  172.13    8.30
  -1   4   5  175.97    9.21
  -5   2   0  450.07   12.61
  -5  -2   0  442.18   12.37
   5  -2   0  458.63    4.94
  -5  -2   0  464.72    7.89
   0  -5  -2  483.79   13.21
   5   2   0  454.13   11.19
  -2   0  -5  460.05   14.48
   2   0  -5  474.30   13.07
   0   5  -2  452.15    6.87
   0   5  -2  459.30   11.67
  -5   2   0  432.02   12.51
   0  -5  -2  448.21    7.34
  -2   0   5  466.20   10.58
   5   2   0  459.16   11.81
  -2   0   5  474.69   11.63
   2   0  -5  450.91   12.87
   5  -2   0  446.96    7.17
   2   0   5  483.98   13.19
   0  -5  -2  451.96    6.43
  -2   0  -5  490.28   14.26
  -5  -2   0  461.93   14.10
   5  -2   0  451.46   11.08
   0  -5   2  450.36   11.93
  -2   0   5  469.73    8.75
  -2   0   5  465.60   11.67
   0   5   2  461.71   13.53
   2   0  -5  498.21   13.80
   2   0   5  476.46   12.71
   5   2   0  460.75    7.48
  -5  -2   0  432.98   13.16
  -5  -2   0  453.11   13.53
   2   0   5  456.38    8.35
  -2   0  -5  467.46   11.36
  -5   2   0  464.79    7.41
  -5   2   0  446.89   13.35
  -5   2   0  455.80   12.67
  -1  -5  -2   14.76    2.31
  -5  -2  -1   16.74    1.69
  -5   2  -1   16.36    2.38
   1   5   2   14.08    1.24
  -5  -2   1   14.77    1.38
  -5  -2   1   13.05    2.19
   1  -5   2   12.67    1.14
   1  -5  -2   15.30    2.30
   5   2   1   14.53    1.43
  -5   2   1   13.06    2.17
  -5  -2  -1   13.18    2.15
  -1   5  -2   10.20    1.60
   5   2  -1   16.18    2.08
   2   1  -5   12.75    2.18
  -2  -1   5   12.61    1.55
  -2  -1  -5   14.63    2.44
  -5   2  -1   13.43    2.17
  -1  -5   2   12.90    1.31
   5   2  -1   15.08    2.26
   5   2  -1   15.13    1.42
  -5  -2   1   14.44    2.26
  -5  -2   1   13.95    2.18
  -1   5   2   13.68    1.27
  -5   2   1   13.85    2.24
   5  -2   1   15.69    1.67
   1   5  -2   14.19    2.16
   5  -2  -1   15.30    0.96
   2  -1  -5   13.76    2.14
  -2  -1   5   15.14    2.25
  -2   1   5   14.10    1.83
   2   1   5   13.06    2.28
   2   1   5   14.65    1.72
   5  -2  -1   14.74    0.95
   2  -1   5   15.56    2.42
  -5  -2  -1   14.52    2.58
   1  -5   2   13.61    1.30
  -5  -2  -1   13.95    2.19
  -2   1  -5   15.75    2.45
  -1   5  -2   12.43    1.34
  -5   2  -1   13.81    2.10
  -1  -5  -2   12.03    1.31
  -5   2   1   15.43    2.29
  -2  -1   5   14.36    1.80
  -1  -5  -2   13.84    1.88
  -2  -1   5   14.67    1.20
  -2   1   5   14.26    1.37
   5  -2  -1   14.72    1.90
   5  -2   1   15.60    2.20
  -1  -5   2   13.05    1.98
   1  -5  -2   14.29    2.26
   5  -2  -1   14.45    1.41
   2   1   5   14.12    2.23
   5   2   1   15.55    1.46
  -2  -1   5   12.40    1.91
   1   5   2   13.22    2.29
  -5   2  -1   15.94    1.16
   2   1  -5   11.95    2.26
  -2   1   5   14.54    2.09
   5   2  -1   13.64    1.60
   5   2   1   15.54    1.02
   2  -1   5   13.48    2.14
  -5   2   1   14.36    1.58
  -5   2  -1   16.28    2.45
  -5  -2   1   15.79    2.46
  -5   2   1   16.25    2.50
  -5  -2   1   16.89    2.61
  -2  -1  -5   13.00    1.72
  -5   2  -1   15.93    1.03
   5   2   2  174.01    5.36
  -5  -2   2  169.48    8.02
   2  -5   2  169.06    4.95
  -5  -2   2  167.06    4.68
  -2  -5   2  168.86    5.29
  -2  -5   2  143.18    6.77
  -5   2   2  164.13    7.94
  -5  -2  -2  170.48    6.22
  -2   5   2  174.05    5.43
   2   5   2  172.73    5.08
   2  -5  -2  191.85    7.93
  -5   2   2  168.92    8.21
   2   2  -5  160.34    8.02
   5   2  -2  171.62    7.16
  -2   2  -5  163.85    8.53
   5  -2   2  161.85    3.94
  -2   5  -2  165.51    6.19
  -5   2   2  167.59    3.73
  -2  -2  -5  161.53    8.50
  -2  -5   2  166.74    5.31
  -2   5   2  175.12    5.55
  -5  -2   2  168.84    8.53
   2  -2  -5  162.52    7.08
   5  -2   2  168.96    5.30
  -5  -2   2  160.65    6.95
   5  -2  -2  166.02    5.44
  -2   5   2  176.19    5.53
  -5   2   2  172.33    8.45
  -2  -5   2  175.49    5.62
  -5  -2   2  174.42    8.20
  -5   2   2  165.17    8.05
  -2  -2   5  160.74    7.29
   5   2  -2  163.00    7.99
  -2  -2  -5  154.62    6.81
  -5  -2  -2  163.14    8.29
  -2  -2   5  157.47    7.54
   5  -2  -2  158.66    2.35
   5  -2   2  167.30    6.30
   2  -5   2  165.07    6.77
   2  -2   5  157.47    7.73
   2   2   5  163.28    5.11
   2  -2  -5  166.35    5.82
   2   5  -2  161.51    7.33
   2   2  -5  162.21    8.31
  -2   2   5  163.38    6.26
  -5  -2  -2  168.70    7.74
  -2   5  -2  167.78    5.79
  -5   2   2  172.68    7.20
  -5  -2  -2  164.07    8.79
  -2  -5  -2  166.65    5.01
  -5   2  -2  174.69    9.02
  -5   2  -2  171.50    7.76
  -5  -2  -2  176.42    9.52
  -2   2  -5  161.40    7.15
  -2  -5  -2  173.06    5.90
   2  -2  -5  161.31    3.99
  -2  -5  -2  172.81    8.41
   2  -5   2  177.06    5.85
   2   5   2  175.82    5.67
  -5  -2  -2  166.02    7.82
  -2  -5  -2  172.27    7.06
  -2  -2   5  159.45    6.95
  -2  -5   2  174.46    7.05
   2   2   5  162.71    4.47
   2  -2   5  163.50    7.26
  -2  -2   5  152.64    4.29
   2  -5  -2  171.86    7.75
   5  -2  -2  165.15    5.66
   5  -2   2  172.33    7.77
   5   2  -2  173.29    4.39
  -2   2   5  164.53    5.20
   5   2   2  151.62    2.35
  -5  -2   2  167.96    5.59
   2   2   5  156.12    7.52
   5  -2  -2  163.26    7.60
   2   2   5  166.34    5.68
  -2  -2  -5  159.57    6.37
  -2  -5  -2  163.80    4.66
   2  -2   5  162.12    7.70
  -2   2   5  168.31    7.27
  -5   2  -2  167.94    4.77
   2   2  -5  157.18    8.07
  -5   2   2  164.29    2.67
   2   5   2  189.43    8.61
   5   2  -2  167.00    4.93
   5   2   2  158.98    2.42
   5   2  -2  166.06    6.49
  -5  -2   2  162.41    8.28
  -2   2   5  147.48    7.84
  -5   2   2  168.78    6.45
  -2  -2  -5  167.33    5.71
  -2  -2   5  172.12    5.57
  -5   2   2  163.88    8.22
  -5   2  -2  169.91    2.82
   5  -2  -2  168.51    5.76
  -5   2  -2  165.72    8.32
  -2   5   2  173.53    5.29
   2   5   2  165.57    5.17
  -5  -2   2  162.50    8.11
   2   2   5  170.56    7.49
   2  -5   2  171.43    5.22
   5   2   2  163.99    4.39
  -5   2   3    8.76    1.96
  -3   5   2    8.12    1.35
  -2  -3  -5   13.04    2.82
  -5  -2   3    9.72    2.05
   3   5   2    8.69    1.29
  -3  -5   2    8.31    1.36
  -3  -5   2    8.72    1.68
  -5   2   3    9.56    0.91
  -3  -5  -2    9.35    1.87
   3  -5   2    7.08    1.14
   3  -5  -2    9.81    1.76
  -5   2   3    7.17    1.00
  -2   3  -5   10.82    1.98
  -2  -3  -5    9.92    2.25
   5   2  -3    8.78    1.64
  -5   2   3    9.11    1.99
  -3   5  -2    8.26    1.29
   5  -2   3    7.08    1.10
   3   5  -2    5.99    1.62
  -2   3  -5   10.07    2.21
   2   3  -5   11.10    2.12
  -3  -5   2    6.89    1.20
  -2  -3   5   10.14    1.92
   2   3   5    9.30    1.03
  -5  -2   3    8.83    1.88
   5  -2  -3    9.53    1.15
  -5  -2  -3    8.84    1.92
   3   5   2   11.39    1.53
  -2  -3  -5    8.86    1.72
  -3  -5  -2    6.16    1.47
  -3   5   2    9.08    1.52
   3  -5   2    7.74    1.25
  -5   2   3    8.98    1.90
   2  -3   5   10.45    2.04
  -5   2   3   11.28    2.35
   5  -2   3    9.06    1.47
  -5  -2   3    8.07    1.49
  -3   5   2    9.73    1.53
  -3  -5   2    7.24    1.35
  -5  -2   3    8.41    2.10
   5  -2  -3    8.25    0.73
  -2   3   5    8.33    1.43
   2  -3   5    9.26    1.85
  -3   5   2    9.26    0.77
   3   5  -2    8.19    1.58
   2  -3  -5    8.33    1.48
   2   3  -5    9.52    2.11
   5   2  -3    8.37    1.84
  -3   5   2    8.26    0.70
   2   3   5   10.35    2.04
   5  -2   3    8.86    1.70
  -5   2  -3    8.24    1.89
  -3  -5  -2    8.25    1.36
  -3  -5  -2    9.67    1.98
  -5   2  -3   10.30    2.32
   3  -5  -2    9.23    1.32
  -3  -5  -2    7.66    1.51
  -3   5   2    8.30    1.29
  -5  -2  -3   10.70    2.43
  -5   2  -3    9.27    2.12
  -5  -2  -3    9.41    2.02
  -2   3  -5   11.64    1.87
  -5  -2  -3   11.01    2.09
  -3   5  -2    7.26    1.40
   3   5  -2    9.71    1.31
  -5   2  -3    8.09    1.94
  -5  -2  -3   10.35    2.03
   3  -5   2    7.15    1.32
  -3   5  -2    9.64    1.42
  -2  -3  -5   10.19    1.30
  -2  -3   5   10.83    1.33
   5   2  -3    9.09    0.65
   3  -5   2    8.45    1.94
   3  -5   2    8.03    1.45
   5  -2  -3   10.11    1.32
  -3  -5   2    7.31    1.94
   2  -3   5    8.65    1.70
  -3  -5  -2    7.36    1.66
  -5  -2   3   10.27    2.10
  -2  -3   5    8.55    1.77
   5  -2   3   12.67    2.22
   3  -5  -2    7.60    1.63
  -3  -5  -2    8.68    0.75
  -5   2  -3    9.99    1.33
  -5   2   3    8.90    0.98
  -3   5  -2    7.37    1.59
   5   2   3    8.45    0.70
   5   2  -3    7.74    1.57
   5  -2  -3    7.77    1.72
  -2  -3  -5    9.27    1.49
   2   3   5    9.07    1.34
   5   2   3    9.34    1.58
   2  -3  -5    8.66    1.85
   5   2  -3    9.14    1.29
  -2   3   5   10.19    1.91
  -5   2  -3    8.66    0.83
   2   3   5   10.37    2.01
  -5   2  -3    6.76    1.39
  -3  -5   2    8.36    1.37
  -2  -3   5    8.50    1.18
   2   3   5   10.95    2.02
  -3   5   2    8.28    1.47
  -5  -2   3    9.97    2.00
   5   2   3    8.92    1.11
   3   5   2    7.72    1.83
   3  -5   2    8.59    1.27
   3   5   2    8.86    1.29
  -5   2  -3    9.06    0.83
  -3   5   2    8.23    1.73
   4  -5  -2  536.89   11.96
  -5   2   4  519.60   15.57
  -5  -2   4  495.79   15.29
  -4  -5   2  494.55   12.53
  -4   5   2  475.08   11.86
  -4  -5  -2  500.10   13.52
  -5   2   4  521.13    8.29
   2  -4  -5  491.68   13.71
  -4  -5   2  495.53   12.07
  -2  -4  -5  431.15   14.01
  -4   5  -2  492.45   12.24
  -2   4  -5  485.91   13.62
   4   5  -2  499.88   15.25
   2   4  -5  504.82    8.55
   2   4  -5  501.62   15.33
  -4   5   2  509.08    8.09
  -2  -4  -5  506.20   14.87
  -5   2   4  512.77   15.40
  -4   5  -2  491.61    8.59
   5   2  -4  520.93   14.28
  -2   4  -5  498.21   14.62
  -2  -4  -5  499.71   13.13
   2  -4  -5  513.95    6.05
   5   2  -4  510.26   16.12
   5  -2  -4  516.00   15.26
  -5  -2  -4  499.75   15.81
  -5   2   4  511.69   16.07
  -4   5   2  489.37   12.11
  -5  -2   4  511.12   16.22
   2  -4   5  498.76   14.80
  -2  -4   5  495.66   14.49
  -4  -5   2  500.87   12.19
   2  -4  -5  508.05   11.60
  -5  -2   4  488.02   11.43
  -4  -5  -2  497.70   15.28
   5   2   4  499.31   14.93
  -2  -4   5  425.06   14.11
   2  -4   5  486.46   14.49
   5  -2  -4  509.14    7.49
   2   4   5  499.86   14.84
   2   4  -5  480.87   15.92
   4   5   2  490.53    7.01
   4   5  -2  502.89   13.97
  -2   4   5  487.88   10.69
   5  -2   4  508.41   13.97
   4  -5   2  502.88   11.02
  -5   2  -4  524.12   16.75
  -4  -5  -2  492.99   15.77
  -4   5  -2  505.51   11.78
  -5   2  -4  520.96   17.19
  -5  -2  -4  527.99   17.38
  -5  -2  -4  510.12   14.18
   2   4  -5  459.77    5.54
  -5  -2  -4  521.10   18.11
  -4  -5  -2  501.88   11.72
  -2  -4  -5  504.24   17.66
  -2   4  -5  473.61   10.53
   4  -5   2  497.60   15.13
  -4  -5  -2  484.24   14.23
  -2  -4   5  500.71   10.29
  -5   2   4  511.12    7.50
   2  -4   5  480.97   13.84
  -5  -2   4  488.06   14.55
   5  -2   4  503.94   15.14
   4  -5  -2  499.85   13.57
  -4  -5   2  500.21   15.73
  -5  -2  -4  508.50    8.86
   5  -2  -4  530.74   15.66
  -4   5  -2  507.38   12.39
   5   2  -4  493.55   14.34
   4   5   2  505.43   14.29
   5   2   4  477.20    7.04
  -2   4   5  520.64   14.04
  -2  -4  -5  502.32   10.99
   5   2   4  492.23   12.98
  -5   2   4  498.35    9.23
   2  -4  -5  496.55   14.59
  -5   2  -4  490.85   11.62
  -4   5  -2  488.97   14.92
  -5   2  -4  523.46    7.86
   5   2   4  507.67    9.80
  -5  -2   4  490.90   14.26
  -4   5   2  479.49   12.47
  -4   5   2  502.72   14.18
  -4   5   2  510.22   11.51
   2   4   5  471.69   14.04
  -4  -5   2  507.00   12.74
   5  -3   0  224.89    5.09
  -5  -3   0  225.01    8.82
  -5  -3   0  238.86    7.02
  -5   3   0  230.04    8.94
   0  -5  -3  247.99    9.49
   5   3   0  230.74    8.73
   3   0  -5  221.19    9.05
  -3   0   5  222.85    8.21
   0   5  -3  232.51    8.91
  -3   0  -5  211.12   10.23
  -5   3   0  228.41    9.25
   5   3   0  227.51    8.19
  -3   0   5  221.33    3.26
   0  -5  -3  234.98    3.66
   5  -3   0  228.66    4.07
   3   0  -5  216.85    9.49
   3   0   5  224.58    9.53
   0  -5  -3  233.25    3.66
  -3   0   5  226.26    8.05
   0   5  -3  239.28    9.92
  -5  -3   0  229.19    9.88
   0   5   3  234.47    3.84
  -3   0  -5  233.44   10.44
  -5  -3   0  232.51   10.10
  -3   0   5  215.11    6.86
   0  -5   3  234.58    8.68
   5  -3   0  229.01    8.57
  -3   0   5  229.22    7.89
  -5   3   0  230.03    4.57
   3   0  -5  227.94    9.64
   3   0   5  230.32    8.95
   0  -5  -3  237.26    7.85
   0   5   3  247.45   10.28
  -5   3   0  234.68    6.49
  -5   3   0  243.22    9.36
   3   0   5  214.71    6.26
  -3   0  -5  227.88    6.94
  -5   3   0  229.17    9.49
  -3   0  -5  236.67    8.72
   5  -3   1   18.00    1.61
  -1  -5  -3   21.50    2.82
  -5  -3  -1   15.83    1.90
   1  -5  -3   16.73    2.39
  -5  -3  -1   16.80    2.48
  -5  -3   1   16.27    1.72
  -5  -3   1   17.17    2.52
  -5   3  -1   17.03    2.44
   5  -3  -1   17.10    1.35
  -5   3   1   18.95    2.52
  -3   1   5   19.35    2.53
  -1   5  -3   21.49    2.56
  -3  -1  -5   20.68    3.02
   3  -1   5   18.73    1.53
   5   3  -1   17.58    2.46
  -1  -5  -3   16.79    2.00
  -1   5  -3   17.65    1.91
  -3  -1   5   20.90    2.40
   3   1  -5   19.05    2.77
  -5   3  -1   16.03    2.33
  -5  -3   1   15.70    2.29
  -5  -3  -1   15.12    2.51
   1  -5  -3   17.13    1.63
   3  -1  -5   19.91    2.71
  -5   3   1   15.25    1.17
  -5  -3   1   17.07    2.48
   5   3   1   17.62    2.10
   5   3  -1   17.13    2.40
  -5   3   1   21.70    2.88
   5   3  -1   18.12    1.79
  -3  -1   5   21.32    2.71
   5  -3   1   16.78    1.61
   1   5  -3   19.17    2.74
   3   1   5   20.23    2.91
  -3   1   5   20.64    2.31
   3  -1   5   24.21    3.11
   1  -5   3   17.20    2.42
  -5  -3  -1   18.62    2.54
  -3   1  -5   20.16    2.93
   1   5   3   16.73    1.34
  -5   3  -1   20.28    2.58
  -5  -3  -1   17.73    2.79
   3  -1  -5   20.65    1.91
   1  -5   3   17.91    1.08
  -1  -5   3   16.89    2.26
  -3   1   5   19.82    1.29
   5  -3   1   18.23    2.48
   5   3  -1   25.43    2.08
  -3  -1   5   21.09    2.42
  -5  -3   1   17.27    2.72
   1  -5   3   20.98    2.78
  -1  -5  -3   33.63    2.67
   5  -3  -1   17.17    2.26
   5   3  -1   17.38    1.71
   3  -1  -5   17.16    2.65
  -5   3  -1   17.37    1.50
   1  -5  -3   18.37    2.40
   5   3   1   18.44    1.97
  -1  -5  -3   19.05    2.03
   3  -1   5   23.26    2.85
   5  -3  -1   19.77    1.89
   3   1   5   20.02    2.67
  -3   1   5   17.70    2.22
   3   1  -5   23.51    3.13
  -3  -1  -5   20.17    2.45
  -5  -3   1   17.40    2.71
  -5   3   1   18.11    2.04
  -5   3  -1   21.54    1.76
  -5   3  -1   20.97    2.81
  -5   3   1   19.86    2.82
  -1   5   3   18.66    0.94
  -1   5   3   19.82    2.92
  -3   1  -5   20.42    2.72
  -5  -3   1   16.17    2.62
   1   5  -3   17.73    1.86
  -5   3   1   19.32    2.50
   1   5   3   17.47    2.64
  -5  -3  -2 5028.10   36.23
   5  -3  -2 5062.89   24.07
   2  -5  -3 5005.41   40.41
  -5  -3   2 5098.32   31.25
  -5   3   2 4946.18   43.72
   2  -5   3 5070.68   30.60
  -5  -3   2 4946.82   43.86
   2   5   3 4917.25   30.81
   3   2  -5 5285.24   46.54
   5   3  -2 5127.95   43.28
  -3  -2  -5 4922.44   49.05
  -2   5  -3 4870.06   37.07
  -5   3   2 5011.15   15.15
   5  -3   2 4999.83   18.18
  -3   2  -5 5080.76   49.52
   3  -2  -5 5029.94   43.15
  -3  -2  -5 4874.91   42.48
   5  -3  -2 4977.81   31.58
   5   3   2 4932.97   33.22
  -5   3   2 4963.14   45.80
  -2  -5  -3 5185.04   42.76
  -5  -3   2 5230.60   47.08
  -5  -3  -2 4913.08   46.94
  -3  -2   5 5126.29   40.78
  -5   3   2 5084.32   44.27
   5   3  -2 4811.37   43.98
  -5  -3   2 5040.63   43.86
  -5  -3   2 4724.62   40.53
   3   2   5 5114.22   29.87
  -2   5   3 4961.75   28.21
  -3  -2   5 5133.29   43.80
   3  -2   5 4626.23   43.36
   2   5  -3 4652.63   43.14
  -3   2   5 5078.73   33.02
   3  -2  -5 5047.66   30.47
   3   2  -5 5041.05   48.70
   3   2   5 4548.86   44.46
   2  -5   3 5150.00   41.36
   2  -5   3 5125.44   29.14
  -5  -3  -2 5005.87   51.69
  -3   2  -5 5197.53   45.27
  -2   5  -3 5022.79   37.14
  -2  -5  -3 4661.89   35.77
  -5  -3  -2 4853.79   41.54
  -5   3  -2 5054.48   41.90
  -5   3   2 5120.83   39.45
  -2  -5  -3 5101.85   50.18
  -2  -5   3 4882.19   36.56
   5  -3  -2 5022.01   35.46
  -2  -5  -3 5005.41   36.08
   5  -3   2 5073.27   44.90
  -3  -2   5 5082.08   40.79
   2  -5  -3 5177.64   43.28
   3   2   5 5132.29   30.35
  -3   2   5 5071.52   26.21
   5   3  -2 5148.56   26.74
   2  -5  -3 5010.24   43.08
   3   2   5 4807.78   42.79
   3  -2   5 5063.08   43.20
   3  -2  -5 4785.21   45.67
  -2  -5  -3 5080.85   28.17
  -5   3   2 4990.93   23.07
   3   2   5 5120.16   29.96
   5  -3  -2 5000.56   44.66
  -3   2   5 5065.79   38.52
   3   2  -5 4995.22   47.33
  -5   3  -2 4766.92   27.74
  -5  -3   2 5009.03   46.15
  -3  -2   5 5123.42   36.19
   5   3   2 4691.01   30.80
   3  -2  -5 5151.57   26.70
  -3  -2  -5 4800.93   35.31
  -5  -3   2 4887.07   45.21
  -5   3  -2 4844.95   46.37
   3   2   5 5000.07   38.58
  -5   3   2 5014.31   45.66
   2   5   3 4905.30   44.94
  -5   3   2 5035.62   37.98
   2   5   3 4979.74   27.70
  -2   5   3 5125.65   20.79
  -3   2  -5 4970.77   45.52
  -3  -3  -5    7.51    1.92
  -3  -5   3    6.56    1.54
  -5   3   3   13.67    2.45
  -3   5   3    7.55    1.48
  -5  -3   3   10.27    2.12
  -3  -5  -3    6.14    1.82
  -5   3   3   10.73    1.12
  -5  -3   3    9.81    1.51
  -3  -5  -3    8.10    1.82
  -3  -5   3    6.63    1.49
   3  -5  -3    7.08    1.50
  -5   3   3    9.86    2.20
   3   5  -3    6.87    1.87
  -3  -3  -5    8.27    1.99
  -3   3  -5    9.68    1.82
   5  -3   3   10.70    1.23
   3   3  -5   10.53    2.17
  -5  -3  -3    8.62    1.69
  -3   5  -3    8.39    1.32
  -5   3   3    9.03    1.10
   5   3  -3    9.57    1.87
  -3   5  -3    8.57    1.50
  -5  -3   3    8.37    1.91
  -3  -5  -3   12.43    2.28
  -3  -3  -5    8.51    1.81
   5  -3   3    9.77    1.63
   5  -3  -3    8.88    1.91
  -3  -5   3    8.51    1.75
  -5  -3   3    9.47    1.83
  -3  -3   5    8.68    1.81
  -5   3   3   10.91    2.30
  -5   3   3   12.04    2.44
  -5  -3  -3   12.77    2.50
   5  -3  -3   10.37    1.29
   3  -3   5    8.89    1.85
  -5  -3   3   10.48    2.18
  -3   5   3    9.06    1.61
   5  -3   3   10.46    1.82
   3  -3  -5    9.16    1.78
   3   3   5    9.83    1.17
   3   5  -3    8.44    1.82
   5   3  -3   10.25    2.12
   3  -3   5    7.57    1.67
  -3   3   5    8.20    1.27
  -3   5   3    7.94    0.80
   3   3  -5   11.33    2.57
  -3   5  -3    7.48    1.65
  -5   3  -3    9.24    1.91
  -5   3  -3    9.68    2.22
  -5  -3  -3    9.82    2.23
  -5   3   3   11.51    1.85
   3  -5   3    9.98    1.54
  -5   3  -3   11.80    2.47
  -3   3  -5    9.94    1.93
  -5  -3  -3    8.59    2.47
  -3  -3  -5   10.20    1.53
  -3  -5  -3    8.71    1.76
  -5  -3  -3   10.50    2.01
  -5  -3  -3   11.16    2.12
  -3   5   3    7.45    1.05
   3   3   5    9.21    1.32
   3  -3   5    8.96    1.99
   5  -3  -3   11.33    1.59
  -3  -3   5    7.80    1.84
  -3  -3   5    8.32    0.92
   3  -3  -5    8.36    0.88
   3  -5   3    8.01    1.56
   3  -5  -3    7.97    1.78
  -3  -3   5    8.92    1.96
   5  -3   3   12.38    2.24
   5   3  -3   10.00    1.02
  -3  -5  -3   11.13    1.87
  -5  -3   3   11.94    2.29
   5  -3  -3   11.11    2.21
  -3  -5   3    7.05    1.43
  -3  -5  -3    7.19    0.73
  -5   3  -3    9.21    1.16
   5   3  -3   11.95    1.98
  -5   3   3   12.03    1.32
   3   3   5    9.44    1.97
   3  -5  -3    6.12    1.56
  -3   3   5    9.16    1.68
   3   3   5   10.79    1.36
   3   3   5    8.44    1.70
   3  -3  -5    9.82    0.96
  -3   5   3    6.40    1.71
  -3  -3   5    9.18    1.55
   3   5   3    7.14    1.75
  -5   3   3   10.55    2.03
   5   3   3    8.96    1.35
  -5  -3   3   11.83    2.30
  -4  -5  -3 1196.65   22.32
   4  -5  -3 1263.26   18.99
  -5   3   4 1238.08   13.67
   3  -4  -5 1217.81   20.69
  -5  -3   4 1224.46   23.96
  -5   3   4 1224.75   23.96
  -4  -5   3 1189.26   20.18
  -4  -5   3 1253.55   20.66
  -4   5   3 1176.23   20.22
  -5  -3  -4 1212.75   21.50
   4  -5   3 1232.76   14.83
  -4   5  -3 1218.03   16.14
   5   3  -4 1205.60   23.05
  -3   4  -5 1226.64   23.92
  -4   5  -3 1245.17   17.74
   3   4  -5 1218.55   24.84
  -5   3   4 1183.23   14.87
   5  -3   4 1245.52   15.41
   4   5  -3 1238.98   24.84
  -4   5   3 1256.91   14.73
  -3   4  -5 1186.99   20.84
  -5   3   4 1243.99   25.41
  -3  -4  -5 1176.54   23.85
  -3  -4   5 1226.85   22.99
  -5  -3   4 1274.62   20.51
   3  -4   5 1216.62   23.19
  -4   5   3 1248.07   21.18
  -4  -5  -3 1247.18   24.46
  -5   3   4 1222.90   24.87
   5  -3   4 1225.60   20.03
   5  -3  -4 1238.92   23.79
  -5  -3   4 1226.42   25.16
  -4   5   3 1199.61   20.65
  -3  -4  -5 1239.97   22.64
   5  -3  -4 1247.87   10.77
  -5  -3  -4 1241.66   25.17
  -4  -5   3 1260.06   21.46
   3  -4  -5 1199.89   20.00
  -4  -5   3 1197.46   20.57
   5   3  -4 1195.93   25.35
   3  -4   5 1209.95   22.86
   5  -3   4 1200.84   20.98
   4  -5   3 1220.48   19.73
   4   5  -3 1200.97   23.73
   3   4  -5 1192.75   25.77
   5   3   4 1264.17   15.32
  -3   4   5 1213.56   14.65
  -5  -3  -4 1248.15   21.77
  -5   3  -4 1285.06   25.61
  -3  -4  -5 1225.58   28.46
  -4   5   3 1273.32   16.08
  -4   5  -3 1211.19   19.46
  -4  -5  -3 1268.03   19.65
   3   4  -5 1186.98   12.53
  -4   5  -3 1211.94   22.08
  -3   4  -5 1252.95   20.02
   4   5  -3 1267.05   14.71
  -4  -5  -3 1226.26   26.87
  -5   3  -4 1207.45   26.17
  -4  -5  -3 1234.16   22.41
  -5  -3  -4 1193.10   26.07
  -5  -3  -4 1260.70   29.02
   5  -3   4 1250.82   24.28
   3  -4  -5 1213.01   10.78
  -3  -4   5 1180.98   23.95
  -3  -4   5 1213.06   14.18
  -5   3   4 1253.03   14.42
   4  -5  -3 1227.85   21.39
   3  -4   5 1223.83   23.66
  -5  -3   4 1239.10   24.51
   5  -3  -4 1253.33   16.38
   4  -5   3 1225.92   24.59
   5  -3  -4 1255.85   25.26
   5   3   4 1192.17   21.27
  -4   5  -3 1260.63   20.05
  -5   3   4 1247.34   15.83
   5   3  -4 1208.16   22.35
  -3   4   5 1237.95   21.16
   3  -4  -5 1146.63   23.66
   5   3   4 1176.06   16.95
  -5   3  -4 1246.25   17.87
  -5  -3   4 1209.94   22.58
  -5   3  -4 1223.40   25.39
  -4   5   3 1281.35   24.12
  -4   5  -3 1229.51   24.90
  -4  -5   3 1233.74   21.29
   4   5   3 1273.71   22.24
   3   4   5 1170.67   21.36
  -5   3   4 1246.71   22.88
  -5  -4   0  117.41    6.33
  -5   4   0  123.17    6.48
  -5  -4   0  122.33    5.71
   0  -5  -4  113.85    6.83
   5  -4   0  119.28    4.53
   0   5  -4  109.67    6.51
   5   4   0  115.74    6.84
  -4   0  -5  111.31    7.84
   4   0  -5  121.59    6.74
  -4   0   5  115.90    6.48
  -5   4   0  115.91    6.85
  -4   0   5  115.73    2.94
   0  -5   4  108.92    6.92
   5   4   0  124.32    6.08
   0   5  -4  115.41    7.44
   0  -5   4  110.67    6.89
   4   0   5  119.60    7.23
  -4   0   5  115.55    5.74
   0  -5  -4  106.51    2.16
  -4   0  -5  120.26    8.16
  -5  -4   0  115.53    7.06
   5  -4   0  118.75    6.67
  -5  -4   0  117.95    7.47
   0  -5  -4  109.90    3.89
   0  -5   4  105.30    5.96
  -4   0   5  115.58    5.46
   0  -5  -4  110.14    5.81
   4   0   5  116.66    6.49
   4   0  -5  118.17    7.34
   0   5  -4  110.63    3.43
   0   5   4  112.92    7.31
  -4   0  -5  119.34    4.65
  -4   0  -5  121.73    6.79
  -5   4   0  114.03    5.30
  -5   4   0  122.61    6.82
   5  -4  -1  128.95    4.80
  -1  -5  -4  114.04    6.88
  -5  -4  -1  109.83    6.22
  -5  -4   1  111.93    5.27
  -5  -4   1  110.04    6.17
  -5   4  -1  111.73    6.22
   1  -5  -4  114.45    6.69
  -5  -4  -1  114.60    5.77
  -5   4   1  118.61    6.39
   5  -4   1  114.55    4.80
  -4   1   5   98.88    6.25
   5   4  -1  114.70    6.80
  -4  -1  -5  101.67    7.38
  -1   5  -4  110.70    6.39
   4   1  -5  108.20    6.59
  -5   4  -1  108.39    6.31
  -1   5  -4  117.00    5.92
  -5   4   1  107.14    7.01
  -1  -5  -4  117.31    6.06
   4  -1   5  108.74    4.32
  -5   4   1  116.21    4.00
  -4  -1   5  102.38    5.34
  -1  -5  -4  110.42    5.83
   5   4  -1  115.63    6.39
   1  -5   4  115.87    7.10
  -5  -4  -1  113.72    7.29
   5   4   1  113.13    5.32
   1  -5  -4  110.66    4.14
  -5  -4   1  112.62    6.90
  -4  -1   5  108.67    4.11
   4  -1  -5  108.04    6.84
  -4   1   5  106.52    5.02
   5  -4   1  111.91    4.05
   4  -1   5  112.34    6.92
   1  -5   4  114.37    6.85
  -1   5   4  115.11    5.38
   1   5  -4  113.66    7.30
   4   1   5  111.35    7.08
  -5   4  -1  118.49    6.22
  -5  -4   1  119.80    6.76
  -4   1  -5  108.50    7.44
  -5  -4  -1  111.38    7.38
   1  -5   4  114.24    6.51
  -1  -5   4  104.09    5.67
  -4  -1   5  101.91    5.78
  -1  -5  -4  111.55    4.34
  -5  -4  -1  120.59    7.56
   5  -4   1  114.78    6.83
  -4  -1   5  103.48    5.93
  -5  -4   1  117.13    7.50
   5  -4  -1  112.75    6.21
   4   1   5  108.50    4.70
  -4   1   5  104.46    5.12
  -5   4  -1  112.36    4.33
   4  -1  -5  117.21    7.37
   4  -1   5  107.02    6.28
   4   1  -5  115.11    7.31
   5   4   1  119.90    5.93
   4   1   5  109.58    6.40
  -1  -5  -4  107.75    5.19
  -5  -4   1  110.66    3.72
   1  -5  -4  114.63    6.36
  -4   1  -5  109.61    4.49
  -5   4   1  109.51    5.64
  -4  -1  -5  106.58    6.17
  -1   5   4  113.22    7.45
  -1   5  -4  116.08    3.09
  -4   1  -5  111.70    6.90
  -5  -4   1  116.29    6.89
   1   5   4  109.64    6.98
  -4  -1  -5  110.23    4.62
  -5   4  -1  111.46    4.97
  -5   4  -1  116.14    7.09
  -5   4   1  111.21    6.70
  -5   4   1  110.12    6.20
  -5  -4   2    4.22    1.37
   2  -5  -4    1.84    0.71
  -5   4   2    7.18    1.74
   5  -4  -2    4.27    0.93
  -5  -4   2    4.93    1.20
  -2  -5  -4    4.29    1.74
  -5  -4  -2    3.37    1.09
  -2   5  -4    1.70    0.36
   4   2  -5    3.95    1.34
  -4   2   5    3.54    1.63
  -4  -2  -5    3.97    1.25
  -2   5  -4    2.20    0.98
  -4   2  -5    3.93    1.53
  -2   5  -4    2.82    0.55
   5   4  -2    2.81    0.96
  -5   4  -2    3.20    1.05
  -2  -5  -4    1.32    0.63
  -4  -2  -5    4.98    1.51
  -5  -4   2    5.91    1.61
   2  -5   4    2.38    1.15
  -5   4   2    4.23    1.34
  -5  -4   2    4.12    1.20
  -4  -2   5    3.77    0.93
  -5  -4  -2    4.07    1.53
  -2  -5  -4    1.01    0.71
   4   2  -5    4.15    1.35
   2   5  -4    2.18    1.22
   4   2   5    3.51    0.81
   2  -5  -4    3.18    0.86
   4  -2   5    4.45    1.34
  -2   5   4    1.78    0.57
   5   4  -2    5.77    1.69
   5  -4   2    4.35    0.95
   4   2   5    4.50    1.63
   4  -2  -5    4.06    1.33
   5   4   2    5.61    1.10
   4  -2  -5    3.74    0.81
  -4  -2  -5    3.36    1.17
  -4   2  -5    4.68    1.60
  -5  -4  -2    4.04    1.80
   4  -2  -5    4.42    0.91
  -5   4   2    6.35    1.40
  -5  -4  -2    3.27    1.01
  -5   4  -2    4.50    1.58
  -5   4  -2    3.96    1.13
  -4  -2  -5    5.71    1.42
   2   5   4    2.68    0.56
  -5  -4   2    7.30    2.02
  -4   2   5    5.27    1.05
   5  -4   2    4.93    1.46
  -4   2   5    4.31    0.66
   2  -5   4    3.73    1.40
   5   4  -2    4.58    1.00
   4  -2  -5    4.78    0.93
  -2  -5   4    2.88    0.82
   2  -5   4    2.34    0.85
  -2  -5  -4    2.06    0.68
   5  -4  -2    4.48    1.25
  -4  -2   5    4.47    1.34
   4   2  -5    3.99    1.18
  -5  -4   2    4.33    0.92
   4  -2   5    5.88    1.50
  -4   2   5    4.72    1.21
   4   2   5    4.06    1.32
  -2  -5  -4    1.97    0.60
   4  -2  -5    5.24    1.70
   2  -5  -4    3.46    1.28
   4   2   5    4.45    0.83
  -4   2  -5    5.73    1.17
  -4   2  -5    3.12    1.18
  -5   4   2    5.47    1.56
   4   2   5    5.87    1.31
  -5   4   2    4.20    1.25
   2   5   4    2.27    1.21
  -4  -2   5    4.93    1.27
  -5  -4   2    3.63    1.39
   5   4   2    5.87    1.39
  -5   4  -2    4.67    0.91
  -5   4   3  125.62    4.32
   5  -4  -3  129.64    5.19
  -5  -4   3  127.43    5.89
  -5  -4  -3  130.35    6.86
  -5   4   3  126.20    7.24
   3  -5  -4  134.43    6.82
  -5  -4   3  127.81    7.27
  -3   5  -4  136.99    4.29
   5  -4   3  129.09    4.12
  -3   5  -4  129.83    6.43
  -5   4   3  126.69    3.80
   3   5  -4  128.19    8.01
   4   3  -5  142.90    8.26
   5   4  -3  138.53    7.98
  -5  -4  -3  119.64    7.83
  -5  -4   3  128.06    7.75
   5  -4  -3  135.61    4.99
  -5   4   3  123.25    7.41
   3  -5  -4  130.49    6.33
  -5   4   3  123.04    7.28
  -5  -4   3  131.18    7.40
  -3  -5   4  133.89    6.96
  -4  -3   5  137.41    6.99
   4  -3  -5  147.04    7.89
  -4  -3  -5  145.04    8.23
   5  -4   3  134.42    6.41
  -3  -5  -4  131.67    7.44
   4  -3   5  138.53    7.57
  -3   5   4  133.59    6.90
   5   4   3  125.25    4.52
   3  -5   4  141.10    7.88
   4   3   5  128.99    8.29
  -3   5   4  132.78    3.99
   4   3   5  138.55    4.54
   5   4  -3  132.43    8.10
   4  -3   5  140.81    7.79
  -4   3   5  134.59    4.51
   3  -5   4  130.51    7.16
   5  -4   3  127.43    6.19
   4   3  -5  136.30    8.69
   3   5  -4  129.50    8.04
  -5  -4  -3  126.14    8.86
  -4   3  -5  141.29    7.90
  -3  -5  -4  128.24    7.23
  -4   3  -5  143.60    9.02
  -3  -5  -4  137.16    9.16
  -5   4  -3  129.30    8.02
  -5   4   3  125.46    5.88
  -4  -3  -5  145.51    6.72
  -3   5  -4  132.98    7.34
  -5  -4  -3  129.80    8.04
  -4  -3  -5  138.80    8.91
  -5  -4  -3  129.47    7.07
   3  -5   4  134.53    5.70
  -4  -3  -5  148.48    9.87
  -5   4  -3  134.02    7.14
  -3  -5   4  130.14    5.64
  -4  -3   5  144.95    8.19
  -4   3   5  138.59    4.84
   5  -4  -3  129.07    6.22
   5   4  -3  125.93    4.32
   4  -3  -5  136.31    4.72
   5  -4   3  136.61    8.13
  -3  -5  -4  133.36    4.03
   4   3   5  132.03    4.04
   4   3  -5  140.37    8.24
   4  -3  -5  135.51    8.33
  -4   3   5  145.55    6.56
  -5   4   3  122.30    4.97
   4   3   5  131.62    7.45
   3  -5  -4  130.16    7.82
   5  -4  -3  121.59    7.75
  -5   4  -3  124.30    5.23
  -5  -4   3  126.37    7.61
  -4   3   5  147.03    8.41
  -3   5   4  141.85    8.48
   3   5   4  133.81    5.01
   4  -3  -5  142.10    4.65
  -5   4   3  125.65    7.59
   4   3   5  134.38    6.46
  -5   4   3  134.09    7.27
   3   5   4  132.48    7.47
  -4  -3   5  141.99    6.91
  -5   4  -3  140.90    8.51
   5   4   3  125.49    5.95
  -5   4   4   89.96    6.46
  -4  -5  -4   94.70    6.56
   4  -5  -4   90.70    5.41
  -4   5   4   91.13    5.93
  -5  -4   4   87.80    5.10
  -4  -5   4   88.70    5.70
  -4  -5   4   88.26    5.83
  -4  -4  -5   91.71    6.54
  -5  -4  -4   94.06    6.26
  -5  -4   4   91.10    6.43
   4   4  -5   90.51    6.86
  -4   5  -4   90.06    5.07
  -5   4   4   90.92    3.95
   4   5  -4   96.90    7.29
   5   4  -4   87.71    6.69
   4  -5  -4   92.70    5.96
   4  -4   5   94.14    6.47
   4   4   5   84.99    2.12
  -4   5   4   94.30    6.25
   5  -4  -4   88.88    6.44
   4   4   5   80.94    2.05
  -5  -4   4   96.08    6.96
  -5   4   4   90.57    6.53
  -5  -4   4   91.51    6.52
   4  -5   4   89.68    6.14
  -5   4   4   85.76    6.54
  -5  -4  -4   90.04    7.04
   4  -4  -5   83.79    5.90
  -4  -5   4   90.51    6.19
  -4  -5  -4   96.12    6.87
  -4  -4   5   91.48    6.80
  -4  -4  -5   94.33    6.77
  -4   4   5   93.81    6.77
   5   4   4   88.34    3.46
   5  -4   4   85.93    5.63
   5  -4   4   95.08    5.94
   4  -4   5   91.04    6.40
   4  -5   4   92.51    6.06
   4   5  -4   90.88    7.02
   5   4  -4   81.52    6.76
  -4   4   5   90.78    3.13
   4   4  -5   90.96    7.29
   4   4  -5   85.25    4.11
  -4  -5  -4   92.32    7.71
  -5   4  -4   84.43    6.90
  -4  -5  -4   92.23    6.59
  -4   4  -5   92.90    7.16
  -4  -4  -5   85.81    6.80
  -5  -4  -4   96.48    7.24
  -5  -4  -4   90.14    7.95
  -4   5  -4   88.78    6.38
  -4  -4  -5   92.39    8.09
   4   5  -4   93.72    3.61
  -4  -5   4   88.44    7.02
   5  -4   4   93.34    7.05
   4  -5  -4   96.24    5.93
  -4  -4   5   86.74    6.69
   5  -4  -4   92.46    5.20
  -5  -4   4   85.28    6.87
   4   4   5   84.19    6.29
   5  -4  -4   89.45    7.02
  -4   4   5   90.42    5.46
  -5   4   4   91.85    4.67
  -5   4  -4   94.95    7.40
  -4   5  -4   84.62    7.07
  -5   4  -4   90.11    4.77
   4   5   4   93.87    6.18
   4   4   5   83.85    5.53
  -4   4   5  101.40    7.39
  -4   4  -5   86.81    7.09
  -4   5   4   93.72    6.95
   5   4   4   85.81    5.12
  -5   4   4   98.10    6.81
   5  -5   0   15.15    1.96
  -5  -5   0   15.04    2.26
   0  -5  -5   12.17    2.34
  -5   5   0   13.60    2.17
  -5  -5   0   13.49    2.13
  -5   5   0   17.37    2.76
   5   5   0   16.51    2.76
   5   0  -5   17.74    2.51
   0   5  -5   12.34    2.43
  -5   0   5   14.32    2.56
   0  -5  -5   10.40    1.63
  -5   0   5   15.17    2.81
   0  -5   5   10.70    2.29
   5   0   5   15.96    2.71
   0   5   5   10.37    1.94
   5   5   0   17.90    2.37
   0  -5  -5   12.15    0.89
   0   5  -5   12.21    2.75
  -5   0  -5   16.47    3.27
  -5   0  -5   17.97    3.50
  -5  -5   0   17.04    2.77
   0  -5   5   12.08    2.15
  -5  -5   0   15.16    2.80
   0  -5   5   11.19    2.45
   5  -5   0   16.51    2.68
   5   0  -5   16.10    2.84
   5   5   0   15.44    2.49
   0  -5  -5   12.36    2.11
   5   0   5   15.69    2.31
   0   5   5    8.95    2.10
  -5   5   0   15.66    2.52
  -5   5   0   17.01    2.27
  -5   0  -5   16.89    1.59
  -5   0  -5   16.36    2.65
  -5  -5   1 2298.33   26.92
  -5   1   5 2334.95   20.04
  -1  -5  -5 2323.60   33.80
  -5   5   1 2257.96   27.66
   5  -5   1 2217.71   24.04
  -5  -5  -1 2164.55   27.47
  -5  -5   1 2186.04   27.35
   1  -5  -5 2283.42   32.22
   5  -5  -1 2377.80   23.92
   5  -1  -5 2258.71   28.21
   5   5  -1 2324.08   33.39
  -5   5  -1 2319.72   30.20
   5   1  -5 2326.94   30.91
  -1   5  -5 2291.42   31.39
   1   5  -5 2316.46   14.83
   5   5   1 2279.13   33.18
  -5   1   5 2260.36   32.42
  -1   5  -5 2293.84   30.04
  -1  -5  -5 2341.24   30.63
   5  -1  -5 2275.47   33.97
  -5  -1   5 2255.40   36.18
  -5  -1   5 2240.83   24.31
  -1  -5  -5 2312.68   26.76
  -5  -5  -1 2239.75   34.25
   1  -5  -5 2313.22   20.94
  -5  -1   5 2213.00   20.73
   5   1  -5 2180.26   35.18
   1  -5   5 2321.62   33.88
   1   5  -5 2230.12   35.10
   1  -5  -5 2269.68   19.63
   5   5  -1 2215.91   28.78
  -1  -5   5 2317.77   34.04
   1  -5   5 2283.02   32.80
   5  -1   5 2237.38   32.25
   5   5   1 2309.10   23.14
  -1   5   5 2287.81   26.15
   5   1   5 2157.12   32.62
   1   5   5 2309.20   31.03
  -5   1  -5 2313.30   37.06
  -5  -1  -5 2302.62   38.66
  -5  -5  -1 2230.71   33.47
  -5  -5   1 2252.13   29.61
  -1  -5   5 2218.66   26.26
   5  -5  -1 2271.77   30.43
   5  -5   1 2270.30   32.82
  -5  -5  -1 2287.57   33.72
   1  -5   5 2253.96   30.10
  -5  -5   1 2254.30   35.07
   5   1  -5 2263.30   33.65
  -1  -5  -5 2282.59   26.11
   5  -1   5 2278.57   28.39
   5  -1  -5 2298.98   34.46
  -5   1   5 2259.66   22.50
  -5  -1  -5 2295.83   19.46
   5   1   5 2282.42   29.63
   5   5   1 2319.88   29.30
  -5  -5   1 2269.31   17.00
   1  -5  -5 2301.23   30.37
  -5   5  -1 2215.44   25.71
  -5   5   1 2198.55   29.11
  -5   1  -5 2275.78   18.06
   1   5   5 2279.77   33.71
  -5   5  -1 2334.29   32.60
  -5   1  -5 2327.12   33.79
  -5  -5   1 2288.25   29.43
  -5  -1  -5 2229.74   30.88
  -1   5   5 2316.13   35.52
  -5   5   1 2298.29   29.01
  -5   5   1 2262.81   28.43
  -5  -5  -2  135.38    7.09
   2  -5  -5  131.60    7.51
  -5  -5   2  121.92    6.64
   5  -5   2  125.57    5.97
   5  -5  -2  131.63    5.58
  -5  -5   2  115.36    6.05
  -2  -5  -5  124.88    7.86
  -5   5   2  120.40    6.59
  -2   5  -5  124.23    7.11
  -2  -5  -5  119.94    7.13
  -2   5  -5  122.57    7.10
  -5   2   5  130.43    8.13
  -5   5  -2  118.46    6.50
   5   5  -2  129.99    8.09
   2   5  -5  124.18    4.48
   5   2  -5  137.93    7.89
  -5   2   5  136.62    8.76
  -5  -2   5  132.59    8.75
  -2  -5  -5  131.23    6.98
   2  -5  -5  127.57    4.26
  -5  -5  -2  121.36    8.07
   2  -5  -5  122.75    5.58
  -5   5   2  123.79    6.70
   2  -5   5  124.79    7.90
  -5  -2   5  126.37    6.29
  -5  -5   2  126.93    6.81
   5  -2  -5  133.90    8.11
  -5  -2   5  129.03    5.68
   2  -5   5  127.20    7.77
   5   5  -2  121.09    7.42
   5   5   2  124.00    4.58
  -2   5   5  125.65    5.49
   2   5   5  129.40    7.85
  -5   5  -2  122.38    4.81
   2   5  -5  125.30    8.40
   5   2  -5  139.41    8.92
   5  -2   5  134.69    7.84
   5  -5   2  123.93    5.36
   5   2   5  130.20    8.18
   5  -2  -5  131.14    4.58
  -2  -5  -5  127.46    9.30
  -5   2  -5  133.42    8.74
  -5  -5  -2  117.14    8.29
  -5  -2  -5  134.73    9.66
  -5  -2  -5  137.02    9.42
  -5   5  -2  121.39    6.51
  -5  -5  -2  126.33    6.61
  -5  -2  -5  132.58    7.38
  -5   2  -5  125.33    8.98
  -5  -5  -2  123.94    7.79
  -5   2   5  132.15    3.39
   5  -5   2  123.23    7.92
   2  -5   5  120.60    7.34
  -5  -2   5  145.95    8.04
   2  -5  -5  124.23    2.63
   5  -2   5  128.59    8.14
  -5  -5   2  127.21    8.50
   5  -5  -2  123.69    6.91
  -2  -5   5  119.54    5.78
  -5   5  -2  130.37    6.16
   2  -5  -5  126.85    7.58
   5  -2   5  124.63    6.90
   5   2   5  129.34    7.30
   5  -2  -5  133.01    8.46
   5   5   2  125.63    6.91
  -5  -2  -5  132.96    5.07
   5   2   5  120.57    4.30
  -5   2   5  125.82    5.44
   5   2  -5  131.78    8.08
  -2  -5  -5  125.87    5.54
  -5  -2   5  122.42    7.21
  -5   5   2  124.54    7.17
  -5  -5   2  130.38    7.24
  -5   5  -2  132.27    8.17
  -5   5   2  120.51    6.93
  -5   2  -5  137.65    4.74
   2   5   5  131.17    7.92
  -5   5   2  127.63    6.43
  -5   2  -5  126.32    8.22
  -5  -5  -3  187.71    8.82
   5  -5  -3  183.43    6.92
  -5  -5   3  187.05    7.95
   3  -5  -5  198.82    8.92
  -5  -5   3  192.48    8.79
  -5   5   3  191.17    8.72
   5   5  -3  186.67   10.14
  -3   5  -5  198.45    8.81
  -5   5   3  183.93    4.64
   3   5  -5  200.01   10.49
   5   3  -5  182.93    9.61
  -5   5  -3  187.13    7.61
  -5   3   5  182.67   10.19
  -3  -5  -5  187.42    9.22
  -5  -3  -5  183.19   10.09
  -5  -3   5  177.05   10.02
  -5   3   5  186.62   10.32
   3  -5  -5  195.36    4.36
  -5  -3   5  190.33    7.75
  -5   5   3  178.67    8.78
  -5  -5   3  187.62    9.17
   5  -3   5  184.49    8.60
  -5  -5   3  179.31    8.58
  -5   5   3  186.67    8.70
  -5  -5  -3  186.80   10.16
   3  -5   5  180.79    9.49
   3  -5  -5  190.68    7.87
   5  -3  -5  176.99    9.30
  -3  -5  -5  203.54    9.50
   5  -5   3  180.59    7.49
  -3   5   5  195.66    5.77
   3  -5   5  194.40    9.54
   5  -3   5  189.46    9.21
   5   5  -3  185.17    9.78
   5   5   3  177.15    4.15
   5   3  -5  175.39   10.32
   5   3   5  168.49    9.66
   3   5  -5  186.49   10.53
   3   5   5  198.14   10.18
  -5   5  -3  192.02    8.44
  -5  -3  -5  184.27   10.86
  -5   5   3  190.83    7.22
  -5   3  -5  181.36    9.89
  -5  -3  -5  180.27    8.37
  -5  -3  -5  188.73   11.98
  -5  -5  -3  182.00   10.91
  -5   3  -5  178.86   10.71
  -3  -5  -5  200.98   11.99
  -5  -5  -3  192.54    8.42
  -3  -5   5  190.83   10.21
   3  -5   5  195.80    9.91
  -5   3   5  186.86    5.34
  -5  -3   5  177.86    9.61
   5  -5   3  191.78   10.25
   5  -3   5  187.26    9.99
   5  -5  -3  186.43    8.32
  -3  -5   5  195.42    6.74
  -5   5  -3  186.02    7.30
   5   3  -5  179.11    9.49
   5  -5  -3  187.50   10.05
  -3   5   5  197.01    8.93
   5  -3  -5  172.40   10.02
   5   3   5  179.57    8.84
   3  -5  -5  195.67   10.10
  -5   3   5  172.06    6.75
  -3  -5  -5  190.50    5.77
  -5  -5   3  188.90    9.13
   5   3   5  180.02    7.27
  -5  -3   5  179.11    8.70
  -5   3   5  181.94    9.45
   5   5   3  186.39    8.31
  -5   5  -3  186.22   10.26
  -5   5   3  187.47    9.23
  -5   5   3  190.44    9.21
  -3   5   5  186.45   10.41
   3   5   5  190.56    9.43
  -5   5   4   -0.10    0.46
  -5  -5   4   -0.20    0.36
  -5  -4   5   -0.11    0.47
  -5  -5  -4    1.85    1.04
  -5   4   5    0.57    0.34
  -5  -5   4    0.16    0.66
  -4  -5  -5    0.45    0.53
   4   5  -5    1.63    1.39
   5   4  -5   -0.24    1.33
   5  -5  -4    0.65    0.47
  -5   5   4   -0.19    0.24
  -5  -4  -5   -0.42    0.66
   5   5  -4    0.25    0.52
   4  -5  -5   -0.81    0.85
   5  -4   5   -0.28    0.59
  -5   5   4   -0.21    0.44
  -5  -5   4    0.70    0.76
  -5  -4  -5    2.10    1.24
  -4  -5   5    1.16    1.34
   5   4   5    0.44    0.22
  -5   5   4    0.91    0.71
  -4   5   5    0.73    1.03
  -5   4   5    0.24    0.67
  -5  -5  -4    0.37    0.37
   5  -5  -4    1.22    1.21
  -4  -5  -5    0.11    0.58
  -5  -4   5    1.95    1.36
   4  -5   5   -0.11    0.74
  -5  -5   4    0.11    0.50
   5   5  -4   -0.13    0.38
   5  -4   5    0.49    1.25
   4  -5  -5    0.96    1.12
   4   5  -5    0.13    0.69
   5   4  -5   -0.41    0.77
   5  -4  -5    1.38    1.33
   5   4   5   -0.25    0.59
  -4  -5  -5   -0.97    2.18
  -5  -5  -4    0.44    0.32
  -5  -5  -4    1.10    1.61
  -4  -5  -5    1.40    1.12
   5   5  -4    0.09    0.28
   4   5  -5    0.19    0.30
  -5  -5  -4   -0.82    1.66
  -5   4  -5   -0.27    0.80
  -5   5  -4    0.47    0.89
  -5  -4  -5    1.49    0.49
  -5   5  -4   -0.09    0.65
  -5  -4  -5    0.67    0.61
  -4   5  -5    1.17    1.01
  -5  -5   4    0.67    0.93
   5  -5   4    1.00    0.95
   5  -5   4    0.12    0.58
  -4   5   5    0.16    0.16
   4  -5   5    1.01    1.06
  -5  -4   5    0.75    0.37
   5  -4   5   -0.24    0.45
  -4  -5   5    0.88    0.75
  -5   5   4    0.70    0.42
  -4   5   5    0.89    0.64
   5  -5  -4   -0.38    0.46
   5  -5  -4    0.63    0.41
   5   4   5    0.92    0.99
  -5   4   5    0.76    0.63
   5  -4  -5    0.91    0.47
  -5   5  -4    0.81    0.76
   4   5   5    0.57    0.63
   5   4   5    0.30    0.44
  -5   5   4    1.47    1.01
  -4   5   5    1.78    0.66
  -5   4  -5    0.17    0.32
  -4   5  -5    0.11    0.08
   5   5   4    0.08    0.39
  -5   4   5    0.12    0.74
  -5   4  -5    0.40    0.49
  -5   5  -4    0.93    0.88
  -5   5   5 2618.09   36.45
  -5  -5  -5 2494.96   36.59
  -5  -5   5 2605.77   31.76
  -5  -5   5 2564.60   35.99
   5   5  -5 2572.94   39.85
  -5  -5   5 2614.78   36.63
  -5   5   5 2538.26   37.28
  -5  -5  -5 2659.51   39.65
   5  -5   5 2625.59   35.30
   5  -5  -5 2606.90   35.34
  -5  -5   5 2563.71   37.62
   5  -5   5 2608.60   34.37
   5   5  -5 2518.98   41.18
  -5  -5  -5 2575.22   45.55
  -5   5  -5 2511.25   39.10
  -5  -5  -5 2469.80   38.85
  -5  -5   5 2560.23   40.56
  -5   5   5 2661.83   29.68
  -5   5  -5 2655.71   21.83
  -5   5  -5 2563.83   41.63
   5   5   5 2562.65   32.59
  -5   5   5 2674.59   39.78
  -6   0   0 4819.64   45.74
   0  -6   0 4922.35   41.83
   0   6   0 4944.04   40.07
   6   0   0 4662.19   27.68
  -6   0   0 4760.74   42.88
   0   0   6 4970.17   28.36
   0   0  -6 5050.43   43.25
   0  -6   0 5045.79   31.91
   0   0   6 4968.09   43.24
  -6   0   0 4886.80   45.94
   6   0   0 4802.71   35.80
   6   0   0 4711.38   33.53
   0   6   0 5145.39   46.81
   0   0  -6 5089.63   46.20
  -6   0   0 4783.07   48.62
  -6   0  -1  242.02   10.30
  -1  -6   0  218.64    9.01
   1  -6   0  234.34    9.03
  -6   0   1  239.03   10.30
   6   0   1  236.93    3.97
   0  -1   6  225.12    4.89
   0   1  -6  230.92   10.10
   1   6   0  234.33    9.25
   6   0   1  242.10    6.62
  -1   6   0  231.14    8.10
   6   0  -1  232.67    6.46
   0   1   6  224.11    5.44
  -6   0   1  246.29    9.21
  -6   0   1  234.84   10.23
  -1  -6   0  228.58    6.34
   0   1   6  224.08    9.14
   0  -1  -6  226.95    8.58
   0   1  -6  224.92    9.80
  -6   0  -1  230.15    9.86
  -6   0  -1  231.01   10.13
  -6   0   1  226.88    9.70
  -1  -6   0  225.51    7.64
   6   0  -1  238.95    7.02
   1  -6   0  230.33    9.60
   0   1   6  224.69    3.43
   1   6   0  238.36   10.10
   0  -1  -6  235.69    9.71
   6   0   1  234.59    4.10
   6   0  -1  237.68    8.23
  -6   0   1  224.86   10.66
  -6   0  -1  232.66    9.95
   6   0  -1  239.59    5.52
   2  -6   0  183.53    7.91
   6   0   2  207.77    5.23
  -6   0  -2  180.38    9.19
  -6   0   2  190.78    9.40
  -2   6   0  179.08    6.50
   6   0  -2  196.17    6.43
  -2  -6   0  186.62    5.60
  -6   0   2  196.22    7.77
   6   0  -2  188.00    9.37
  -6   0   2  199.93   10.17
  -6   0   2  191.06    9.52
   0  -2  -6  178.04    7.03
   0   2   6  188.37    8.40
   6   0  -2  191.82    6.02
  -2   6   0  180.85    5.74
   2   6   0  189.96    6.42
   6   0   2  205.17    8.05
   0  -2   6  151.91    8.03
  -6   0  -2  206.42   11.01
  -2  -6   0  186.25    7.02
  -6   0  -2  195.40    9.16
   0   2  -6  182.69    7.53
   6   0  -2  194.12    5.37
   2  -6   0  189.89    8.97
  -2  -6   0  185.03    8.82
   0  -2   6  186.31    6.90
   6   0   2  193.29    5.36
   0  -2   6  175.04    8.59
  -2   6   0  194.28    9.03
   6   0  -2  192.45    8.16
   0  -2  -6  181.99    8.48
   2   6   0  189.93    9.22
   0   2   6  187.16    9.13
   0  -2  -6  191.48    4.84
  -6   0   2  202.50   10.13
  -6   0  -2  209.24    9.36
   6   0  -2  197.83    6.11
   3  -6   0    7.60    1.53
  -3  -6   0   10.01    2.01
  -6   0   3    4.60    1.59
   6   0  -3    3.75    0.99
   3   6   0    4.75    1.63
   3  -6   0    6.32    1.00
   3   6   0    7.38    1.09
  -3   6   0    6.92    1.13
  -6   0   3    4.44    1.06
   0   3   6    3.44    0.83
   0  -3   6    4.76    1.44
  -6   0   3    4.94    1.73
  -6   0   3    5.91    1.98
  -3  -6   0    6.69    1.16
   3   6   0    6.74    1.25
   6   0  -3    4.54    1.61
   6   0   3    5.63    1.63
   0  -3  -6    4.24    1.04
   0   3   6    3.11    1.07
  -3   6   0    7.22    1.08
  -6   0  -3    1.29    0.47
   0   3  -6    3.57    1.03
  -6   0  -3    3.79    1.71
  -3  -6   0    5.66    1.33
   0  -3   6    3.70    1.08
   0  -3   6    2.62    1.04
   6   0  -3    5.35    0.61
   3  -6   0    6.78    1.85
  -3  -6   0    8.09    1.99
   6   0  -3    4.72    1.42
  -3  -6   0    7.30    1.13
   0  -3  -6    4.57    1.50
   6   0   3    6.62    1.24
  -6   0  -3    6.15    1.59
   0   3   6    3.78    1.34
  -3   6   0    6.98    1.63
  -3   6   0    5.38    1.36
  -6   0   3    4.16    1.54
   3   6   0    9.69    2.09
   0  -4  -6 1517.24   27.04
   4  -6   0 1492.23   21.76
  -6   0   4 1536.43   29.13
  -4  -6   0 1504.69   24.39
  -6   0   4 1538.82   12.10
   0   4  -6 1496.27   27.35
   6   0  -4 1531.61   22.12
   4  -6   0 1447.08   18.07
  -4   6   0 1453.09   13.53
   4   6   0 1477.65   27.21
   4   6   0 1489.13   18.40
   0  -4  -6 1491.56   17.36
  -6   0   4 1509.47   30.16
   0  -4   6 1467.41   27.13
  -6   0   4 1558.50   29.64
  -6   0   4 1511.32   14.89
   6   0  -4 1471.31   28.68
  -4   6   0 1533.43   12.67
   0  -4  -6 1495.36   16.09
   0  -4   6 1446.41   27.26
   4   6   0 1456.58   19.04
   6   0   4 1473.02   25.75
   0   4  -6 1538.55   29.87
   0   4   6 1485.30   24.24
  -4  -6   0 1482.91   23.62
  -6   0  -4 1523.36   31.61
   0   4  -6 1450.03   14.26
   4  -6   0 1478.24   26.44
  -4  -6   0 1495.69   27.95
   0  -4   6 1448.03   21.89
   6   0   4 1478.95   20.71
  -4   6   0 1451.10   24.39
   0  -4  -6 1476.91   24.25
   6   0  -4 1464.18   26.50
  -4  -6   0 1491.27   13.02
   4   6   0 1480.82   25.62
  -6   0  -4 1539.55   27.62
  -4   6   0 1453.18   23.91
   0   4   6 1457.42   27.84
  -5   6   0  121.79    6.11
  -5  -6   0  123.65    6.16
   5  -6   0  125.01    6.10
   0  -5  -6  140.69    8.74
  -6   0   5  137.67    9.11
  -6   0   5  148.40    4.68
  -5  -6   0  126.68    7.10
   6   0  -5  145.48    7.62
   5   6   0  125.47    8.31
   0   5  -6  144.39    8.71
  -6   0   5  139.31    9.54
   0  -5   6  141.76    8.89
  -6   0   5  138.46    5.40
  -5  -6   0  117.23    8.17
   0  -5  -6  143.75    5.89
   6   0   5  141.60    8.52
   0  -5   6  134.33    8.73
   5   6   0  125.21    6.09
   0  -5  -6  138.28    3.69
   0   5  -6  138.72    9.54
   0   5   6  147.15    7.76
  -5  -6   0  123.57    7.41
  -6   0  -5  146.53   10.35
  -6   0  -5  144.52   10.20
   5  -6   0  116.17    7.66
   0  -5   6  137.12    7.25
  -5  -6   0  124.54    8.50
   5   6   0  126.41    7.53
   0  -5  -6  140.33    7.49
  -6   0  -5  143.46    3.27
   6   0   5  136.00    7.07
   6   0  -5  141.38    8.75
  -6   0  -5  137.90    8.62
  -5   6   0  127.87    7.05
  -5   6   0  125.64    7.47
   0   5   6  135.46    9.06
   0  -6   1   16.94    2.49
   0  -6  -1   16.60    2.49
  -6   1   0   22.61    3.25
   0   6  -1   13.34    2.03
   6   1   0   19.57    2.20
   6  -1   0   20.97    1.35
  -1   0   6   17.94    1.43
   6   1   0   18.85    1.18
  -6  -1   0   21.89    2.98
  -1   0   6   19.89    2.72
   1   0  -6   20.86    2.80
   0  -6  -1   16.19    1.61
  -1   0  -6   18.58    2.59
  -6  -1   0   19.17    2.95
  -6   1   0   18.50    2.83
  -1   0  -6   20.57    3.39
   0  -6  -1   17.82    2.71
   6  -1   0   19.69    2.31
  -1   0   6   17.59    1.61
  -1   0   6   17.32    2.52
   6   1   0   18.04    1.93
   6   1   0   21.38    1.28
   1   0   6   19.74    2.87
   0   6   1   16.20    2.67
  -6  -1   0   19.37    2.93
  -6  -1   0   23.38    3.48
   6   1   0   21.21    1.42
   1  -6   1    2.15    0.92
  -6   1  -1    0.10    0.57
   6  -1   1    0.68    0.23
   1  -6  -1    0.55    0.40
  -1  -6   1    1.03    0.78
  -1  -6  -1    1.82    0.92
  -1   1  -6    0.86    0.92
  -6   1   1   -0.10    0.64
   6   1   1    0.49    0.31
   6   1   1   -0.54    0.84
   6  -1  -1    0.41    0.22
   6  -1   1    0.94    0.35
   1   6  -1    1.87    1.12
  -1   6   1    0.70    0.42
   6   1  -1    0.74    0.33
  -1  -1   6    0.07    0.16
  -1   6  -1    1.07    0.56
   1   1  -6    0.49    0.61
   1   1   6    0.87    0.45
  -6  -1   1    0.56    0.61
   6   1  -1    1.08    0.63
  -6   1   1    0.78    0.21
  -1  -1  -6    1.91    0.86
   1  -6  -1    0.72    0.22
  -1   1  -6    0.98    0.79
   1  -1  -6    0.84    0.85
   1   1  -6    0.38    0.39
   6  -1   1    1.21    0.64
  -1   1   6    0.75    0.55
   1  -1   6    0.82    0.64
  -1  -1   6   -0.34    0.67
  -1  -6  -1    1.17    0.36
  -6  -1  -1    1.68    0.87
  -6   1  -1    0.64    0.47
  -6   1  -1    0.19    0.40
  -1  -6   1    0.81    0.10
  -6   1   1    0.62    0.59
   1  -6  -1    0.63    0.63
   6  -1   1   -0.36    0.52
  -1  -1   6    0.29    0.12
  -1  -6   1    1.15    0.85
   6  -1  -1    0.15    0.26
   6   1   1    0.71    0.37
   6   1  -1    0.59    0.41
   1  -1   6    0.71    0.69
   6  -1  -1    0.97    0.62
   1  -1  -6    0.75    0.20
   6   1  -1    1.46    0.31
  -1  -1  -6    0.57    0.48
   1   1   6    0.81    0.93
  -1   1   6   -0.08    0.58
   6   1   1    0.21    0.28
   1   1  -6    0.50    0.51
  -6  -1   1    2.12    1.18
   6   1  -1    1.63    0.59
  -1  -1  -6    1.00    0.62
   6  -1  -1    1.69    0.55
   1  -1   6    0.57    0.30
   1   6   1    2.76    1.10
  -6  -1   1    1.85    0.76
   6   1   2  124.98    4.23
  -6   1  -2  122.53    7.50
  -6  -1   2  118.22    1.92
   2  -6   1  119.54    6.52
  -2   6   1  122.15    3.16
  -2  -6   1  118.11    3.02
   6  -1   2  121.57    3.92
  -6   1   2  125.76    7.69
   2  -6  -1  121.38    6.58
  -2   6   1  123.45    5.50
  -1   2  -6  125.31    7.45
   1   2  -6  134.31    7.94
   6  -1  -2  124.36    4.38
   6   1  -2  122.24    5.77
  -6   1   2  125.82    7.68
  -2   6  -1  122.38    5.50
   2   6  -1  113.16    3.02
  -6  -1   2  127.69    6.55
   6  -1  -2  127.24    7.68
  -2  -6  -1  121.58    3.53
  -6   1   2  123.58    7.68
   1   2   6  121.72    4.96
   6   1  -2  127.50    7.63
  -1   2   6  123.70    6.56
   1   2   6  132.48    7.46
   1  -2  -6  129.60    6.35
  -1  -2  -6  131.67    5.79
   6  -1   2  120.49    5.97
   6  -1  -2  124.15    4.09
  -1   2  -6  137.08    8.01
  -2   6   1  121.67    4.51
   1  -2   6  127.89    7.58
   2   6  -1  126.78    6.11
  -6  -1  -2  115.68    8.23
  -1   2  -6  130.60    6.59
  -2  -6   1  119.89    4.65
  -6   1  -2  125.83    7.34
  -2  -6  -1  122.32    6.64
  -2  -6   1  120.53    7.42
   2  -6   1  120.82    7.24
   6  -1   2  128.60    6.99
   1  -2   6  132.63    6.44
  -1  -2   6  128.61    5.14
  -2  -6   1  126.14    6.80
   6  -1  -2  127.52    4.78
  -2  -6  -1  121.97    6.84
   2  -6  -1  125.40    7.33
   6   1  -2  127.15    4.14
   1  -2   6  126.41    7.39
  -2   6   1  126.09    7.50
   1  -2  -6  131.01    7.42
   6  -1  -2  125.07    6.83
  -1   2   6  139.10    7.47
   1   2   6  125.60    7.26
   6   1   2  126.23    4.82
  -2   6  -1  126.45    7.25
   6   1  -2  129.84    3.06
   6   1  -2  122.13    6.13
   2   6   1  127.70    7.61
  -1  -2  -6  124.87    6.73
   6   1  -2  132.20    5.15
   6  -1  -2  127.37    4.85
  -1   2   6  123.69    7.59
  -1  -2   6  127.71    3.60
  -6   1  -2  130.70    7.23
  -1  -2  -6  128.20    4.59
  -6  -1   2  128.14    7.79
  -6  -1  -2  124.59    7.43
  -6  -1   2  124.85    8.09
   1   2   6  135.62    7.50
  -6   1  -2  124.98    7.65
  -3  -6   1  173.35    5.37
  -6  -1   3  188.94    3.92
  -3  -6   1  196.25    8.58
  -3   6   1  175.07    5.49
  -6   1   3  195.48    9.91
   3  -6  -1  182.99    7.87
  -3  -6  -1  179.71    8.47
   3  -6   1  181.09    7.90
   6  -1   3  192.03    6.09
   6  -1  -3  188.55    6.33
  -6   1   3  191.40    9.73
  -3   6  -1  184.46    6.13
  -6   1   3  192.56    5.69
   3   6  -1  177.72    9.07
   6   1  -3  181.28    7.51
  -1   3  -6  183.11    9.22
  -3   6   1  177.59    5.92
   3   6   1  182.19    5.32
  -6  -1   3  193.70   10.41
   6  -1  -3  175.12    9.42
  -6  -1  -3  185.24    9.98
  -6   1   3  197.38   10.15
   1   3   6  178.48    5.29
   6   1  -3  189.95    9.78
   3  -6   1  180.56    5.33
  -6  -1   3  189.32    7.64
   6  -1   3  193.52    8.25
   3   6   1  187.76    5.03
   1   3   6  174.60    8.69
  -1  -3  -6  183.86    5.97
  -3   6   1  179.06    4.54
   6   1   3  180.62    8.57
   1  -3  -6  184.84    7.14
   1  -3   6  175.76    9.08
   1   3  -6  171.09    9.55
   3   6  -1  182.01    7.45
   6  -1  -3  189.09    5.19
  -3   6  -1  180.55    5.80
  -1   3   6  185.85    7.85
   3  -6  -1  171.76    5.50
  -3  -6  -1  179.01    8.41
  -1   3  -6  179.67    7.05
  -6  -1  -3  180.53   10.44
  -6  -1  -3  186.03   10.80
   3   6  -1  177.20    5.63
  -6  -1  -3  201.94    9.66
  -6   1  -3  192.07    9.35
  -6   1  -3  171.01   10.27
   1   3  -6  187.12    6.44
  -1  -3  -6  193.00    4.15
  -3  -6   1  184.54    6.57
   3  -6   1  175.99    8.94
   6  -1   3  185.01    8.92
  -3  -6  -1  181.38    8.73
   1  -3   6  178.88    7.82
   6  -1  -3  188.80    4.78
   3  -6  -1  181.54    8.92
  -1  -3   6  182.38    6.54
  -3  -6   1  184.79    9.53
  -3   6  -1  183.77    8.60
   1   3   6  182.94    8.90
  -3  -6   1  180.91    6.06
   1  -3  -6  182.32    8.83
   6   1   3  191.28    6.90
   6   1  -3  191.90    4.62
  -1   3   6  193.29    9.06
   6  -1  -3  189.70    8.95
   6   1  -3  180.09    8.16
   6  -1   3  195.66    6.41
   3   6   1  178.58    9.06
  -1  -3  -6  184.99    8.06
  -3   6   1  184.75    7.24
   1   3   6  182.18    9.20
  -1   3   6  189.62    9.79
  -6  -1   3  188.21   10.19
  -3   6   1  189.57    9.13
  -6   1  -3  189.68    8.55
  -6   1   4    1.20    1.15
  -4  -6  -1    0.10    0.73
  -4  -6   1    0.50    0.67
  -6   1   4    0.34    0.27
   4  -6  -1    0.14    0.25
  -4   6   1    1.39    0.69
  -4  -6   1    0.78    0.43
   4  -6   1    0.72    0.60
   4   6   1   -0.11    0.33
   4   6  -1    0.33    0.86
  -4   6   1    0.35    0.27
  -6  -1   4    1.36    0.50
   6  -1  -4    0.06    0.39
  -1   4  -6    0.73    0.82
  -4   6  -1    0.88    0.39
  -1  -4  -6   -0.54    0.23
  -6   1   4   -0.22    0.41
   4  -6   1    0.52    0.19
   6   1  -4    0.24    0.29
  -1  -4  -6    0.49    0.40
  -6   1   4    0.45    0.27
  -6  -1   4    0.90    1.04
  -6  -1   4    2.71    0.93
  -6   1   4    0.12    0.36
   1  -4   6    0.55    0.65
   6   1   4    1.11    0.67
   1   4   6    1.35    1.01
   4   6   1    0.85    0.50
   4   6  -1    0.07    0.30
   1   4  -6    1.26    0.37
   6  -1  -4    1.64    0.56
  -4   6  -1    0.84    0.45
   6  -1   4    1.19    0.84
  -1   4  -6    1.67    1.24
  -1   4   6    0.15    0.67
   6   1  -4    1.09    0.92
   1  -4  -6    1.30    0.76
  -6  -1  -4    1.04    0.99
  -4   6   1    0.58    0.15
  -6   1  -4    0.87    0.60
  -6  -1  -4   -0.29    0.43
  -1   4  -6    1.88    0.65
   1   4  -6    1.60    0.44
  -4  -6   1   -0.13    0.19
  -4  -6  -1    0.59    0.29
   4  -6  -1    1.19    0.64
  -6  -1  -4    0.42    0.44
  -6   1  -4    0.14    1.85
  -4  -6   1    1.16    0.73
   1  -4   6    0.66    0.30
   4  -6  -1    0.50    0.29
   1  -4   6    0.33    1.24
   6  -1   4    1.36    0.22
  -4  -6  -1    1.37    0.86
  -1  -4   6    0.18    0.48
   4  -6   1   -0.11    0.59
  -1  -4   6   -0.11    0.47
   1  -4  -6    2.95    1.16
  -4  -6   1    0.26    0.46
   6   1  -4    0.29    0.45
  -1  -4  -6    0.69    0.39
   6  -1   4    0.55    0.36
   6   1   4    2.11    0.70
   1   4   6   -0.82    0.68
   6   1  -4    1.25    0.48
   6  -1  -4    0.11    0.32
   6   1   4   -0.41    0.40
  -1   4   6    0.29    0.65
  -1   4   6    0.72    0.62
   1   4   6    0.43    0.32
  -4   6  -1    1.44    1.00
  -4   6   1    0.47    0.71
   4   6   1    0.10    1.26
  -4   6  -1   -0.09    0.36
  -5  -6   1    4.04    1.29
  -6   1   5    6.25    1.90
  -5  -6  -1    3.37    1.24
   5  -6   1    5.99    1.47
  -5   6   1    6.16    1.35
   5  -6  -1    5.49    1.28
  -6   1   5    6.91    1.03
  -5  -6   1    5.44    1.25
  -1  -5  -6    9.04    2.32
   6   1  -5    4.59    1.60
  -1   5  -6    9.30    2.19
  -1   5  -6    6.59    2.05
  -5   6  -1    5.73    1.67
   5   6  -1    5.20    2.00
   6  -1  -5    4.49    1.23
   5   6   1    2.84    1.11
   1   5  -6    6.33    1.98
  -1  -5  -6    6.42    2.04
  -6   1   5    5.19    1.89
   1  -5  -6    7.27    1.91
  -1  -5  -6    7.74    1.60
   1  -5  -6    7.66    1.17
  -6  -1   5    5.42    1.21
  -6   1   5    4.44    0.98
  -6  -1   5    5.72    2.03
   1  -5   6    6.24    1.98
  -6  -1   5    4.52    1.06
  -5  -6  -1    3.68    1.12
   1  -5  -6    7.23    1.22
   5   6  -1    5.76    1.48
   1   5   6    8.75    2.17
   1   5  -6    7.43    2.42
  -1   5   6    8.00    1.58
   6  -1   5    7.95    2.24
   6   1  -5    2.70    1.10
  -5   6  -1    6.01    0.85
   5   6   1    6.26    1.20
   6   1   5    4.10    1.51
  -5  -6  -1    4.94    1.72
  -6  -1  -5    2.68    1.75
  -6   1  -5    6.24    2.09
  -5   6  -1    5.99    1.74
  -5   6   1    5.80    1.50
  -6   1  -5    5.55    1.93
  -6  -1  -5    4.78    1.78
  -5  -6   1    4.18    1.18
  -5  -6  -1    2.98    1.23
   5  -6  -1    4.70    1.31
   5  -6   1    4.74    1.57
   1  -5   6    6.81    1.67
  -1  -5   6    7.30    1.60
   1  -5   6    8.42    2.27
  -1  -5   6    7.42    2.06
  -5  -6   1    6.27    2.03
   6  -1  -5    6.70    1.83
   6  -1   5    6.48    1.52
  -1  -5  -6    7.15    1.59
   6   1  -5    6.08    1.96
  -1   5   6    7.98    1.87
  -5  -6   1    5.76    0.91
   6   1   5    5.57    1.40
   1  -5  -6    7.67    1.94
  -1   5   6    6.98    2.19
   1   5   6    8.43    2.23
  -6   1  -5    5.15    0.63
  -5   6  -1    3.76    1.25
   5   6   1    5.24    1.63
  -5   6   1    6.51    1.78
  -6  -2   0   64.96    2.93
  -6  -2   0   64.98    5.23
   0  -6   2   52.78    4.47
   0   6   2   53.94    1.80
   0  -6   2   49.97    1.52
  -6   2   0   65.77    5.35
   0  -6  -2   59.67    4.95
   6   2   0   63.65    4.38
   0   6  -2   52.83    4.38
   2   0  -6   75.01    5.81
  -2   0  -6   72.40    6.29
  -6   2   0   63.27    5.35
  -2   0   6   69.17    4.28
  -6  -2   0   68.35    5.39
   6   2   0   61.77    4.84
  -2   0   6   66.96    2.10
   0   6   2   53.97    1.76
   0  -6   2   51.68    1.77
  -2   0   6   72.23    5.04
   6  -2   0   66.88    3.13
   2   0   6   66.88    5.52
   0  -6  -2   57.75    2.49
   2   0  -6   70.65    5.56
  -2   0  -6   74.48    6.03
   0   6  -2   51.04    1.85
   0  -6  -2   51.99    1.89
  -6   2   0   64.65    5.30
  -2   0   6   68.14    3.43
   0  -6   2   56.93    4.68
   6  -2   0   66.36    4.58
  -2   0   6   73.43    5.16
   0   6   2   57.32    5.18
   6   2   0   62.34    3.06
   2   0   6   70.79    5.42
   2   0  -6   66.95    5.61
   2   0   6   70.98    3.45
  -6  -2   0   73.88    6.00
  -6   2   0   65.14    5.71
  -6  -2   0   65.79    5.75
  -2   0  -6   70.36    4.72
   6  -2   1  266.99    4.72
  -1  -6  -2  286.49   11.16
  -6  -2  -1  273.82   10.88
  -6   2  -1  256.39   10.67
  -6  -2   1  265.45    5.58
  -1  -6   2  250.70    4.36
   1  -6   2  258.21    9.86
   1   6   2  259.40    4.63
  -1  -6   2  220.31    9.26
   6   2   1  263.70    6.00
  -1   6   2  254.53    4.70
  -6  -2   1  270.03   10.83
  -6   2   1  264.78   10.84
  -6  -2  -1  281.61    6.96
   1  -6   2  256.35    4.28
   1  -6  -2  282.22   10.56
   1   6  -2  266.71   10.34
   6   2   1  272.64    9.40
   2   1  -6  254.56   10.90
  -2  -1  -6  271.85   12.12
  -1   6  -2  257.73    9.08
   6   2  -1  268.06    9.08
  -2  -1   6  264.17    7.64
   1  -6   2  253.81    4.29
  -1  -6   2  257.88    4.85
  -1   6   2  255.90    4.78
   6   2  -1  276.71   10.70
  -6  -2   1  263.77   10.23
  -1   6   2  253.30    4.77
   6   2   1  284.92    9.72
   6   2  -1  266.97    5.77
  -1  -6   2  249.57    4.39
   6  -2  -1  273.29    5.02
   1   6  -2  258.29    9.70
   2  -1  -6  263.18   10.21
  -2   1   6  252.47    9.06
   2   1  -6  266.65   11.14
   6  -2  -1  265.01    4.76
   1  -6  -2  259.05    6.57
  -2  -1   6  251.97    9.92
   2  -1   6  260.11   10.66
   6  -2   1  263.76    7.33
   1  -6  -2  245.87    3.86
  -6   2  -1  271.85   10.76
   1   6  -2  252.89    4.32
  -1   6  -2  262.46    5.07
  -6  -2  -1  270.86   10.71
  -2  -1  -6  255.58   11.89
  -2   1  -6  246.82   10.34
  -6   2   1  280.90   10.75
   1  -6   2  265.82    5.86
  -1   6  -2  259.57    4.52
  -1  -6  -2  251.89    4.16
  -6  -2  -1  261.36   12.14
  -1  -6  -2  251.86    4.96
  -2  -1   6  255.12    7.85
  -2  -1   6  248.22    5.56
   6  -2   1  280.52   10.09
  -1  -6   2  274.29   10.07
   1  -6  -2  266.03   10.70
   6  -2  -1  264.44    8.47
  -2   1   6  266.99    6.32
  -1  -6  -2  247.33    8.79
   2   1  -6  260.28   11.22
   1   6   2  266.92   11.38
   6   2   1  265.38    5.60
  -2   1   6  249.71    9.56
   6  -2  -1  268.25    6.22
   6   2   1  264.11    5.08
   2   1   6  246.44   10.37
   6   2  -1  268.38    7.55
  -2  -1   6  260.88    9.90
   2  -1   6  255.00   10.34
   1  -6   2  257.31    4.48
  -2  -1  -6  253.19    8.17
  -6   2  -1  269.61   11.17
  -1  -6   2  255.07    4.48
  -6  -2   1  267.65   11.49
   1   6   2  256.61    4.87
  -6   2   1  265.58   11.48
  -6  -2   1  254.97   11.13
   6  -2   2  118.25    4.09
  -6  -2   2  121.78    7.52
  -2   6   2  115.54    4.03
  -6  -2   2  119.90    3.79
   2  -6   2  114.27    6.49
   2   6   2  115.69    3.89
   2  -6  -2  125.88    7.00
   2  -6   2  117.08    3.78
  -2  -6   2  114.42    3.94
  -6   2   2  119.40    7.42
   6   2  -2  119.04    6.38
   2   2  -6  123.98    7.71
   6  -2   2  125.37    3.31
  -2   6  -2  118.67    5.75
  -6   2   2  121.98    7.69
  -2  -2  -6  131.16    8.52
  -2   2  -6  133.02    8.54
  -6   2   2  116.22    7.37
   6   2  -2  126.49    7.61
  -6  -2   2  121.21    7.50
  -2   6   2  114.19    4.07
   2  -6   2  115.28    3.76
   6  -2   2  124.71    4.30
   2   6   2  119.45    3.97
  -2  -6   2  112.13    3.95
  -6  -2   2  123.02    6.68
  -6  -2  -2  121.02    7.94
   6  -2  -2  128.17    2.73
  -2  -2   6  128.46    7.43
   2  -2   6  127.66    7.70
  -2   2   6  129.05    6.34
   6  -2  -2  120.31    2.62
   2   2   6  128.47    5.05
  -2   6   2  114.14    4.27
   6  -2   2  120.81    5.72
   2  -2  -6  125.35    6.83
   2   6  -2  114.71    6.52
   2   6  -2  110.77    3.57
  -6   2  -2  123.52    7.35
  -6  -2  -2  129.61    7.46
  -2  -6  -2  110.06    3.67
  -6  -2  -2  128.51    7.65
   2  -6   2  117.66    4.90
  -6  -2  -2  125.49    8.66
   2  -6  -2  109.61    3.32
   2  -2  -6  131.51    3.86
  -2  -6  -2  117.53    7.34
  -6   2   2  126.44    6.94
  -2   6  -2  118.16    3.92
  -2   2  -6  133.25    7.11
   2   2   6  132.05    3.89
   6  -2   2  122.59    7.09
   2  -6  -2  118.09    7.10
   2  -2   6  131.53    6.99
  -2   2   6  131.34    4.92
  -2  -6   2  117.68    6.48
   6   2  -2  127.84    4.15
  -2  -6  -2  116.41    6.35
  -2  -2   6  130.05    4.26
   6  -2  -2  121.16    5.25
  -2  -2   6  128.28    6.41
   6   2   2  118.92    2.69
   6   2   2  124.86    5.36
   2   6   2  116.51    7.49
  -2   6  -2  118.66    7.03
   6   2  -2  123.96    4.07
   6  -2  -2  121.47    7.04
   2   2  -6  128.14    8.05
  -2   2   6  133.50    7.16
   6   2  -2  121.20    5.81
   2   2   6  122.29    7.41
   2  -2   6  122.92    7.32
  -2  -6   2  113.21    4.06
  -2   6   2  108.13    7.09
   2   2   6  134.30    7.20
  -2  -2  -6  125.35    5.24
  -6   2  -2  124.58    7.71
  -6  -2   2  117.17    7.64
  -2   6   2  114.81    4.66
   2  -6   2  113.95    3.88
  -2   6   2  114.07    4.33
  -6   2   2  122.98    8.02
   6   2   2  119.71    3.27
  -6  -2   2  121.72    7.89
   2   6   2  117.26    4.02
  -3   6   2 1930.66   20.06
  -6  -2   3 1964.71   31.17
   3  -6   2 1925.76   26.72
  -6   2   3 1952.37   31.55
  -6  -2   3 1992.27   16.69
  -3  -6   2 1966.64   27.50
   3  -6  -2 2159.63   29.01
  -3  -6  -2 2033.45   29.78
  -3  -6   2 1937.91   19.82
   3   6   2 1888.47   18.75
   3  -6   2 1947.53   18.46
  -2   3  -6 1986.26   29.62
  -6   2   3 1978.71   16.18
  -2   3  -6 2071.23   33.33
   3   6  -2 1915.17   30.62
   2   3  -6 2038.96   31.94
   6  -2   3 1949.02   16.98
  -6   2   3 1890.50   31.29
   6   2  -3 1901.36   26.86
  -3   6  -2 1923.05   21.42
  -2  -3  -6 2034.10   33.07
   6   2  -3 1946.56   31.54
  -2  -3  -6 1990.55   25.71
  -6  -2   3 1940.89   32.89
  -6   2   3 2014.58   33.01
   3   6   2 1893.61   18.84
   3  -6   2 1925.60   19.21
   2   3   6 1934.48   16.86
   6  -2   3 1995.10   21.16
  -3  -6   2 1944.00   19.95
  -2  -3   6 2001.63   29.53
  -6   2   3 1974.45   31.79
   3  -6   2 1946.03   18.64
  -3   6   2 1925.87   20.10
   6  -2  -3 1991.32   18.87
  -6  -2  -3 1899.14   32.46
  -6  -2   3 1904.56   25.43
   3   6   2 1897.57   19.00
  -6  -2   3 1936.37   31.17
   2  -3   6 1949.89   30.70
   6  -2  -3 1923.37   10.76
   3   6  -2 1864.09   26.60
  -3   6   2 1971.56   13.57
  -2   3   6 1950.64   24.04
   6  -2   3 1894.85   25.40
   2   3   6 1998.21   30.79
   2   3  -6 1931.20   32.52
   2  -3  -6 1996.48   25.82
  -6  -2  -3 2020.22   30.26
  -6   2  -3 1934.88   29.72
  -6  -2  -3 2022.82   36.44
  -2   3  -6 1988.56   25.93
  -2  -3  -6 1796.66   34.52
   3   6  -2 1873.30   19.82
  -6   2  -3 1947.50   34.07
  -6  -2  -3 1908.50   34.14
  -3   6  -2 2000.67   19.64
  -6  -2  -3 1970.38   29.99
   3  -6  -2 1812.68   19.15
  -2  -3  -6 1998.40   18.23
   3   6  -2 1935.33   17.56
  -3  -6  -2 1879.80   18.81
  -3  -6  -2 1956.28   30.37
   3  -6  -2 1852.17   16.36
   6   2  -3 1929.89   10.08
   6   2  -3 1919.16   10.38
   6  -2  -3 2036.52   19.08
   2  -3   6 1975.43   28.17
  -2  -3   6 2020.36   28.36
  -3  -6   2 1924.18   31.49
  -3  -6  -2 1944.42   27.71
  -2  -3   6 1999.65   18.68
   3  -6   2 1926.21   30.53
   6  -2   3 1969.48   29.70
   3  -6  -2 1950.71   29.50
  -3   6  -2 2023.77   28.29
   2  -3  -6 1965.66   30.36
  -2   3   6 2047.90   29.11
   6  -2  -3 1952.41   29.99
   6   2  -3 1852.07   25.80
   3   6   2 2007.70   31.21
  -2  -3  -6 1926.89   24.73
   2   3   6 1918.24   29.35
   6   2   3 1841.19   10.28
  -6   2  -3 1971.23   18.57
  -3  -6  -2 1961.88   14.21
   6   2   3 1987.32   23.78
   6   2  -3 1944.09   17.66
  -3  -6   2 1968.49   20.89
   3   6   2 1930.69   19.09
  -2   3   6 2018.83   32.98
  -6  -2   3 1934.10   31.22
  -6   2   3 1917.42   32.38
  -6  -2   3 2014.21   33.11
   3  -6   2 1977.08   19.27
  -3   6   2 1948.38   21.26
   6   2   3 2030.42   14.30
  -3   6   2 1973.95   21.18
  -6   2  -3 1958.26   26.89
  -6   2  -3 1902.00   31.77
   2   3   6 1914.66   28.44
  -3   6   2 2013.97   30.60
  -6   2   4    1.55    0.42
  -6  -2   4    2.14    1.09
  -4  -6   2    0.88    0.51
  -6   2   4    0.24    0.80
  -6  -2   4    2.09    0.62
  -2  -4  -6    1.69    0.91
  -4   6   2    0.42    0.49
  -4  -6  -2    0.38    0.72
  -4  -6   2    0.50    0.25
   4  -6   2    0.54    0.67
   2   4  -6    3.44    0.70
   4  -6  -2    0.67    0.79
  -4   6  -2    0.30    0.52
  -2  -4  -6    1.49    0.72
  -4   6  -2    1.15    0.68
   2   4  -6    1.63    0.85
  -4   6   2    1.20    0.55
  -6   2   4    2.34    1.37
  -2  -4  -6    2.91    1.41
  -2   4  -6    4.01    1.47
  -2   4  -6    1.69    0.71
   6   2  -4    1.00    0.33
   4   6  -2    0.46    0.68
   6  -2   4    1.42    0.72
  -6  -2   4    1.65    0.87
  -6  -2  -4    0.63    0.46
  -6  -2   4    0.51    0.54
  -2  -4   6    3.49    1.49
  -6   2   4    1.27    1.16
  -6   2   4    0.86    0.77
  -6  -2   4    1.83    1.14
  -2  -4  -6    1.01    0.75
   2  -4   6    2.75    1.35
  -4  -6  -2    1.57    1.00
   2   4   6    3.23    1.15
   6   2   4    0.21    0.92
  -2   4   6    2.44    0.80
   2   4  -6    1.55    1.27
   4   6  -2    0.53    0.67
   6  -2  -4    1.64    0.85
   6   2  -4    1.13    0.79
   6  -2   4    0.71    0.64
   2  -4  -6    3.01    1.06
  -4  -6  -2    1.10    0.45
  -6  -2  -4    4.32    1.54
  -4  -6  -2    1.14    0.63
  -6   2  -4    0.28    1.87
  -4   6  -2    1.30    0.82
  -6  -2  -4    0.92    0.53
  -4   6   2    1.50    0.89
  -6  -2  -4    0.47    1.22
  -6   2  -4    2.49    1.31
  -6  -2  -4    1.29    0.52
  -6   2  -4    1.23    1.15
  -2   4  -6    0.30    0.39
  -4  -6   2    0.37    0.36
   2  -4   6    0.47    0.40
   4  -6  -2    0.48    0.64
  -4  -6  -2    0.79    0.83
   2  -4   6    2.85    1.22
   6  -2   4   -0.11    0.69
  -2  -4   6    2.82    1.39
  -2  -4   6    1.34    0.48
   4  -6   2    0.45    1.00
  -2   4   6    0.95    0.87
   2  -4  -6    0.96    0.45
   6   2   4    0.68    0.65
   6   2   4    1.14    0.41
   6  -2  -4    0.34    0.59
   6   2  -4    0.10    0.28
  -2  -4  -6    3.40    1.18
  -6   2   4    1.33    0.41
   2   4   6    2.63    1.36
   6  -2  -4    0.42    0.34
  -6  -2   4    1.08    0.60
   2   4   6    2.75    1.35
  -2   4   6    1.76    1.27
  -4   6  -2    0.11    0.64
  -4   6   2    1.32    0.74
   4   6   2    0.92    0.61
  -4   6   2    0.95    0.72
  -6   2  -4    0.91    0.48
  -4  -6   2    1.84    0.98
  -4   6  -2    1.26    0.77
  -5  -6   2    1.42    0.91
  -5  -6  -2    2.76    1.18
  -5   6   2    1.20    0.84
   5  -6  -2    1.07    0.58
  -6   2   5    3.40    1.55
   5  -6   2    2.09    1.03
  -6   2   5    1.47    0.35
  -2  -5  -6    2.33    1.48
  -5  -6   2    0.67    0.66
  -6  -2   5    1.68    1.15
   2  -5  -6    0.31    0.54
   6   2  -5    2.27    1.35
  -2   5  -6    1.84    1.56
  -2   5  -6    1.15    0.96
  -2  -5  -6   -0.12    1.40
  -5   6   2    0.97    0.27
   5   6  -2    2.71    1.24
  -5   6   2    1.15    0.35
  -6   2   5    3.24    1.55
  -5   6  -2    1.27    0.64
  -2  -5  -6    2.23    1.32
  -6  -2   5    2.20    0.89
  -2  -5  -6    0.93    0.87
   2  -5   6    1.08    0.84
   2  -5  -6    0.82    0.29
  -6   2   5    3.47    1.70
  -6  -2   5    2.93    1.28
  -5  -6  -2    1.01    0.75
  -2  -5   6   -0.12    0.70
   6  -2   5    0.52    0.54
  -2   5   6    1.13    0.72
   2   5   6    0.23    0.80
   5   6   2    2.54    0.71
   6  -2  -5    0.75    0.98
   2   5  -6    1.12    0.72
   6   2   5    3.23    1.48
   6   2  -5    1.67    0.83
   5   6  -2    1.48    1.26
   2  -5  -6    0.97    0.66
  -6   2  -5    3.12    1.43
  -5   6   2    0.94    0.57
  -6  -2  -5   -0.34    1.13
  -6  -2  -5    4.28    1.28
  -6  -2  -5    5.36    2.36
  -6   2  -5    1.43    0.52
  -5  -6  -2    1.16    0.54
  -2  -5   6    0.96    0.40
   2  -5   6    1.66    0.98
   2  -5   6   -0.71    1.14
  -5  -6  -2    0.69    1.00
   5  -6  -2    1.51    0.90
   5  -6   2    0.49    0.51
  -5  -6   2    0.55    1.07
   6  -2   5    2.76    1.28
  -2  -5   6   -0.25    0.38
  -2  -5  -6    1.84    0.89
   6   2  -5    1.60    1.20
   6   2   5    1.62    0.94
  -6   2   5    1.99    0.53
   2   5   6    2.55    1.09
   2  -5  -6    1.11    0.74
   6  -2  -5    1.79    1.26
  -2   5   6   -0.10    0.44
  -6  -2   5    2.64    1.20
  -5   6  -2    0.35    0.70
   2   5   6    0.92    0.90
  -2   5   6    0.96    1.54
  -5   6   2    1.53    0.96
  -6   2  -5    2.10    0.46
  -5   6   2    0.69    0.51
  -5   6  -2    0.80    0.50
   5   6   2    1.31    0.79
  -5  -6   2    1.35    0.95
   0  -6  -3  400.11   13.25
  -6   3   0  370.99   12.61
  -6  -3   0  378.36    8.57
  -6  -3   0  373.95   12.68
   6  -3   0  393.03    5.68
   3   0  -6  387.05   13.47
  -6   3   0  371.20   13.02
   6   3   0  376.89   11.81
   0   6  -3  355.93    7.63
   0  -6  -3  367.84    8.21
   0   6  -3  381.82   12.21
  -3   0   6  405.15   11.31
  -3   0  -6  420.88   15.51
   0  -6  -3  365.07    4.25
   6   3   0  369.10   11.70
  -6  -3   0  372.23   13.06
   3   0   6  405.20   13.95
   3   0  -6  401.59   13.77
  -3   0   6  394.22   11.72
   0  -6  -3  369.90    4.29
   6  -3   0  366.71    5.57
  -6  -3   0  376.27   13.99
  -3   0  -6  396.07   14.62
   0   6   3  388.90    6.15
  -3   0   6  389.42    4.52
  -3   0   6  393.99    4.60
   0  -6   3  385.41   12.11
  -3   0   6  402.49    9.47
   6  -3   0  380.31   11.68
   3   0  -6  407.49   14.34
   0  -6  -3  364.23   10.46
  -6   3   0  358.72    4.05
  -3   0   6  389.32   11.79
   3   0   6  377.97   12.64
  -3   0  -6  393.04   11.93
   0   6   3  385.04   13.91
  -6   3   0  385.20    7.94
   3   0   6  393.18    8.57
  -6   3   0  387.30   13.09
  -6  -3   1   10.21    2.03
  -1  -6  -3   15.42    2.67
  -6   3  -1   13.42    2.45
   6  -3   1   13.02    1.30
  -6  -3  -1   13.28    1.70
  -6  -3   1   12.08    1.54
   1  -6  -3   12.95    2.25
   6  -3  -1   13.39    0.80
  -6   3   1   14.00    2.55
   1   6   3   13.00    1.41
   1  -6   3   12.55    1.35
  -6  -3  -1   14.98    2.46
   3  -1   6   13.65    1.24
  -6   3  -1   15.81    2.65
  -3  -1  -6   13.13    2.64
  -1  -6  -3    9.87    1.46
  -3   1   6   13.40    2.21
   6   3   1   13.00    2.22
  -1   6  -3   11.36    1.99
   3   1  -6    9.99    2.13
  -3  -1   6   11.76    1.76
   1   6  -3   13.73    2.42
   6   3  -1   13.02    2.11
  -6  -3   1   12.01    2.31
   1  -6  -3   12.82    1.43
   6   3   1   13.72    2.20
   6   3  -1   13.70    1.62
   6  -3   1   11.26    1.31
  -3   1   6   15.06    2.22
   6   3  -1   11.39    2.24
   1   6  -3   13.00    2.51
   3  -1  -6   15.41    2.68
   3  -1   6   16.37    2.75
   3   1   6   16.55    2.79
   3  -1  -6   13.44    1.59
  -6   3   1   13.37    2.31
  -6   3  -1   14.11    2.40
  -3  -1  -6   13.61    2.84
  -6  -3  -1   13.44    2.41
  -6   3  -1   13.54    2.50
   1   6   3   13.82    1.35
  -1   6  -3   13.01    1.59
  -3   1  -6   13.92    2.60
  -6  -3  -1   11.40    2.51
  -3  -1   6   11.52    2.06
   6  -3   1   14.14    2.40
   1  -6   3   12.41    2.28
  -1  -6   3   12.40    2.14
  -1  -6  -3   12.80    1.83
  -3  -1   6   12.24    1.86
  -3   1   6   11.59    1.10
   6  -3  -1   12.76    2.04
   6   3  -1   11.87    1.49
   3  -1  -6   13.18    2.56
   3   1  -6   12.49    2.49
   3  -1   6   14.11    2.52
  -6   3  -1   13.49    1.14
  -3  -1   6   12.67    2.19
  -1  -6  -3   11.15    1.72
   3   1   6   14.66    2.69
   6   3   1   12.36    1.60
   6  -3  -1   11.91    1.54
   1  -6  -3   15.37    2.31
  -3   1   6   12.22    2.02
  -1   6   3   13.95    1.11
  -6  -3   1   13.62    2.60
  -6   3  -1   12.98    1.21
  -1   6   3   11.64    2.25
   1   6   3   13.97    2.69
  -6   3   1   10.50    2.32
  -3  -1  -6   12.40    2.10
  -6   3   1   12.52    1.69
  -3   1  -6    9.63    2.02
  -6  -3   1   12.62    2.62
  -2  -6   3    0.70    0.54
  -6  -3   2    1.20    0.60
  -2   6   3    0.54    0.47
  -6  -3   2    1.40    0.94
  -2  -6  -3    2.34    1.23
  -2  -6   3    0.70    0.41
   2   6   3    0.77    0.49
  -6   3   2    0.40    0.56
   2  -6  -3   -0.09    0.18
  -6  -3  -2    2.39    0.94
   2  -6   3    1.83    0.73
  -3  -2  -6   -0.12    0.64
   3   2  -6    1.18    0.90
  -2   6  -3    1.11    0.70
   6   3  -2    1.21    0.87
  -3   2  -6    0.86    0.45
  -6  -3   2    1.34    0.92
  -6  -3  -2    2.60    1.58
  -3  -2   6   -0.17    0.31
  -2  -6   3    1.77    0.79
  -6  -3   2    0.10    0.73
  -6   3   2    1.22    0.80
   6   3   2    1.14    0.66
  -2   6   3    0.76    0.33
   6   3  -2    1.84    0.94
   2   6  -3    1.44    0.64
   6  -3   2    1.67    0.81
   3  -2   6   -0.21    0.58
   3  -2  -6    0.64    0.72
  -6  -3  -2    1.07    0.48
  -6   3  -2    2.41    1.36
  -6  -3  -2    1.79    0.79
  -6   3  -2    1.98    1.08
   2   6   3    1.78    0.71
  -3   2  -6    0.88    0.97
  -3  -2  -6    1.77    0.89
  -2   6   3    0.77    0.39
   2  -6   3    1.24    0.47
  -6   3   2    3.42    1.22
   3  -2  -6    0.52    0.29
  -2   6  -3    1.56    0.78
  -2  -6  -3    1.02    0.67
  -3  -2   6   -0.91    0.53
   3  -2   6    0.46    0.55
  -3   2   6   -0.61    0.61
  -2  -6  -3    1.16    0.69
   3   2   6    0.96    0.42
   6  -3  -2    1.21    0.40
  -2  -6   3    1.05    0.89
  -3   2   6    0.84    0.57
   6  -3   2    2.13    1.22
  -3  -2   6    0.75    0.56
   2  -6   3    1.74    0.97
   6   3  -2    0.89    0.37
  -3  -2   6    0.71    0.23
   3  -2   6    1.71    0.96
   3   2   6    0.59    0.79
   6   3  -2    1.61    0.64
   3   2  -6   -0.23    0.42
  -3   2   6    0.71    0.64
   6  -3  -2    0.88    0.71
  -6   3  -2    1.56    0.51
  -2  -6  -3    0.94    0.47
   2  -6  -3    1.34    0.90
  -3   2  -6    0.80    0.84
   2   6   3    2.27    1.26
  -6   3  -2    1.23    0.37
   3   2   6    1.01    0.67
  -6   3   2    1.74    0.78
   2  -6   3    0.95    0.54
  -6   3   2    2.88    1.16
  -6  -3   2    1.34    1.17
  -6  -3   2    1.10    0.95
   6   3   2    1.35    0.61
   3  -6  -3    6.95    1.72
  -6   3   3    6.25    1.93
  -3  -6  -3    5.25    1.58
  -3  -6   3    7.50    1.40
  -3   6   3    6.61    1.41
  -3  -6  -3    5.51    1.71
  -6  -3   3    6.10    1.68
  -3  -3  -6    7.07    2.34
  -3  -6   3    7.09    1.68
  -6  -3   3    7.15    1.26
  -3   3  -6    7.50    2.22
   3   6  -3    7.64    2.12
  -3  -3  -6    6.05    1.92
  -3   6  -3    7.83    1.54
   6   3  -3    5.05    1.72
  -6   3   3    8.79    2.25
  -6   3   3    5.78    0.79
   3   3  -6    7.61    1.82
   6  -3   3    6.26    0.86
  -6  -3  -3    7.08    1.50
  -6  -3   3    7.00    1.75
  -6   3   3    6.16    1.82
   6  -3  -3    8.81    1.25
  -3  -6  -3    4.44    1.44
  -6  -3  -3    7.40    2.10
  -3  -3  -6    6.67    1.60
   6  -3  -3    7.59    2.04
  -6  -3   3    6.44    1.74
  -3  -6   3    5.93    1.28
  -3   6   3    6.94    1.40
  -3  -3   6    7.19    1.90
  -3  -6   3    9.02    1.61
  -3   6   3    7.04    1.31
   6  -3   3    6.93    1.35
  -6  -3   3    6.29    1.78
  -6   3   3    6.66    1.73
   6  -3   3    8.58    1.71
   3  -3   6    8.93    2.13
   3   6  -3    5.86    1.67
   6   3  -3    5.55    1.57
   3   3   6    5.75    0.96
   3  -3  -6    6.55    1.68
  -3   6   3    6.98    0.84
  -3   6   3    6.68    0.80
  -3   3   6    8.18    1.48
   3   3  -6    5.84    1.77
  -6  -3  -3    6.53    2.05
  -3   6  -3    7.52    1.41
  -3  -6  -3    6.13    1.24
  -6  -3  -3    5.79    1.58
  -6   3  -3    8.19    2.16
   3  -6   3    7.36    1.35
  -6   3  -3    8.70    2.28
  -3  -3  -6    6.43    1.29
  -6  -3  -3    7.22    2.19
  -3   6   3    6.53    1.01
  -3  -6  -3    7.13    1.51
  -3   3  -6    6.39    1.59
  -3   6  -3    5.87    1.31
  -6   3  -3    5.48    1.55
  -6  -3   3    7.59    2.16
  -3  -6  -3    7.52    1.59
   3  -6  -3    6.20    1.63
   6  -3  -3    8.02    1.45
   6  -3   3    7.76    1.96
  -3  -3   6    6.97    0.82
  -3  -3   6    6.02    1.72
   6   3  -3    6.90    0.89
   3  -6   3    7.94    1.69
   3  -3   6    7.27    1.81
  -3  -3   6    7.89    1.91
  -3  -6   3    7.03    2.00
   3   3   6    7.21    1.11
   6   3   3    9.19    1.84
   3   3   6    7.37    1.91
  -6   3   3    5.93    0.73
  -3   3   6    5.81    1.50
   6   3  -3    6.47    1.47
  -3  -6   3    5.70    1.44
  -3  -6  -3    7.06    0.85
   6  -3  -3    7.69    1.96
  -3   6   3    6.48    1.96
   6   3   3    6.88    1.16
  -6   3  -3    7.64    0.77
   3   3   6    7.65    1.70
   3   6   3    5.32    1.43
  -6   3   3    6.85    1.62
   3  -3  -6    8.05    0.80
  -6   3  -3    7.56    1.84
  -3  -6   3    6.11    1.32
  -6  -3   3    7.59    1.97
  -6   3   3    6.25    2.00
  -6  -3   3    5.45    1.90
  -3  -3   6    8.25    1.44
  -4  -6   3   52.43    4.61
  -6  -3   4   47.66    5.15
  -6  -3   4   47.64    3.31
  -6   3   4   51.75    2.42
   4  -6  -3   50.83    4.19
  -4  -6  -3   54.00    5.02
  -4   6   3   50.02    3.98
  -4  -6   3   52.69    4.09
  -6   3   4   57.65    5.66
  -4   6  -3   53.94    3.93
   4   6  -3   52.64    5.48
  -6   3   4   47.08    2.80
  -4   6  -3   51.89    3.53
  -3  -4  -6   52.43    5.35
   3   4  -6   56.89    5.65
  -3   4  -6   53.90    5.43
  -6   3   4   48.89    5.31
   6   3  -4   51.29    4.92
   3  -4  -6   59.80    4.71
  -6   3   4   55.15    5.60
   3  -4   6   51.79    5.14
  -6  -3   4   48.15    5.50
  -4  -6   3   53.00    4.29
   6  -3  -4   51.61    5.28
  -6  -3   4   49.37    5.31
  -6  -3  -4   47.80    5.29
  -3  -4   6   53.12    5.10
   6  -3   4   47.96    3.93
  -4  -6   3   48.61    3.99
  -6   3   4   53.73    5.77
  -3  -4  -6   53.79    4.86
  -4   6   3   45.92    3.92
  -4  -6  -3   50.47    5.16
  -6  -3   4   52.35    4.39
  -4   6   3   54.33    4.32
   3  -4   6   56.19    5.43
   6  -3   4   49.38    4.38
   4  -6   3   51.82    4.17
  -3   4   6   53.45    3.57
   3   4   6   44.79    5.01
   4   6  -3   48.51    4.83
   6   3  -4   51.88    5.62
   3   4  -6   51.49    5.70
  -6  -3  -4   58.58    6.40
  -6   3  -4   53.37    5.19
  -6   3  -4   47.50    5.70
  -6  -3  -4   52.21    5.96
  -3  -4  -6   54.30    6.44
  -4   6   3   56.78    3.46
  -4  -6  -3   55.80    5.83
  -6  -3  -4   51.50    4.88
  -3   4  -6   54.70    4.38
  -4   6  -3   50.85    3.90
   3   4  -6   51.22    2.83
  -6  -3  -4   49.69    5.02
  -4  -6  -3   52.06    3.93
  -4  -6   3   48.83    5.39
  -6  -3   4   46.05    5.15
   4  -6  -3   56.73    5.03
   6  -3   4   48.21    5.07
  -3  -4   6   53.43    5.18
   3  -4   6   48.91    4.92
   6  -3  -4   52.78    3.35
  -3  -4   6   52.25    2.87
   4  -6   3   55.19    5.60
  -4  -6  -3   54.96    4.78
   6  -3  -4   51.87    5.37
   6   3  -4   47.87    4.60
   6   3   4   47.17    4.23
  -4   6  -3   52.99    4.56
  -6   3  -4   51.76    2.43
   3  -4  -6   50.81    5.26
  -3   4   6   54.27    4.79
   3   4   6   51.78    5.08
  -6   3   4   50.95    2.73
  -6   3  -4   52.26    2.31
  -6   3  -4   51.24    4.12
  -6  -3   4   49.75    5.11
  -4   6   3   53.17    4.33
  -4  -6   3   48.73    4.09
   4   6   3   58.66    5.27
  -6   3  -4   45.01    5.39
  -4   6   3   57.30    5.50
   3   4   6   52.97    4.83
  -4   6  -3   48.36    5.22
   6   3   4   51.74    3.26
  -6  -3   5   39.19    4.83
  -6   3   5   39.10    4.86
  -5  -6   3   43.04    4.06
   5  -6   3   39.09    3.82
  -5  -6  -3   42.46    4.51
  -5  -6   3   45.54    4.30
   5  -6  -3   41.55    3.66
  -5   6   3   42.60    4.04
   5   6  -3   41.22    5.00
   3   5  -6   39.51    4.95
  -3   5  -6   43.17    4.55
  -6   3   5   48.00    5.45
   6   3  -5   39.60    4.57
  -5   6  -3   41.78    3.76
  -3   5  -6   43.30    4.78
  -3  -5  -6   41.47    4.69
  -6   3   5   39.56    5.00
  -6  -3  -5   46.18    5.40
  -6  -3   5   40.25    5.15
   6  -3  -5   41.54    4.89
   3  -5  -6   38.10    3.71
  -6  -3   5   44.12    5.19
   6  -3   5   40.72    4.01
   3  -5   6   38.36    4.60
  -6  -3   5   45.02    3.96
  -5  -6  -3   43.75    5.14
  -5   6   3   43.02    4.03
  -6   3   5   44.20    5.32
  -3  -5  -6   39.00    4.22
  -5  -6   3   39.50    3.92
   6   3  -5   40.86    5.22
  -3   5   6   41.38    3.06
   3  -5   6   38.27    4.60
   3   5   6   47.23    5.28
   3   5  -6   43.10    5.30
   6   3   5   41.12    4.91
   5  -6   3   36.83    3.46
   5   6  -3   42.03    4.66
   6  -3   5   41.81    4.42
  -5   6  -3   39.03    3.74
  -5  -6  -3   43.61    3.92
  -6  -3  -5   43.85    6.07
  -3  -5  -6   44.15    5.87
  -5  -6  -3   39.40    5.15
  -6   3  -5   43.69    5.58
  -6  -3  -5   39.90    5.25
  -5   6   3   41.33    3.37
  -6  -3  -5   45.24    4.60
  -6   3  -5   43.82    5.29
   3  -5   6   43.76    4.83
   6  -3   5   39.84    4.82
  -3  -5   6   38.96    2.92
  -5  -6   3   41.72    5.37
   5  -6   3   39.89    4.89
   5  -6  -3   42.78    4.37
  -3  -5   6   43.53    4.99
  -6  -3   5   43.21    4.90
   6  -3  -5   45.47    5.41
   6   3  -5   41.38    4.72
  -3  -5  -6   44.22    3.23
   3  -5  -6   42.74    4.87
   6   3   5   42.69    4.38
  -5   6  -3   41.45    3.90
  -3   5   6   36.00    4.02
  -6   3   5   47.31    3.12
   3   5   6   38.44    4.61
   5   6   3   44.22    4.52
   6   3   5   47.32    3.38
  -6  -3   5   43.30    4.71
  -5   6  -3   42.94    5.13
  -5   6   3   41.33    4.24
  -5   6   3   43.81    4.79
  -5  -6   3   39.36    4.09
   3   5   6   46.55    4.77
   0  -6  -4 1071.41   22.65
  -6  -4   0 1157.23   17.42
  -6   4   0 1069.65   21.22
  -6  -4   0 1091.39   21.18
   6  -4   0 1070.93   12.53
  -6   4   0 1081.21   22.57
   0   6  -4 1027.43   21.31
   4   0  -6 1141.33   22.80
   0   6  -4 1049.16   16.49
  -4   0   6 1144.91   21.11
   0  -6  -4 1080.35   17.27
  -4   0  -6 1144.11   26.83
   6   4   0 1073.29   21.69
   6   4   0 1098.26   19.90
   0   6  -4 1054.59   24.07
  -4   0   6 1104.13   19.54
   4   0  -6 1104.06   24.25
   4   0   6 1139.22   24.21
  -4   0  -6 1167.21   26.70
  -6  -4   0 1065.69   23.55
   0  -6   4 1083.80   20.46
   0  -6  -4 1049.67   14.40
   6  -4   0 1093.36   21.38
   4   0   6 1090.59   21.96
   6   4   0 1050.15   17.95
   0  -6  -4 1070.10   18.95
   4   0  -6 1134.33   25.01
  -6   4   0 1084.01   10.88
  -4   0   6 1102.61   18.93
   0   6  -4 1106.67   12.91
  -4   0  -6 1125.21   21.70
   0   6   4 1080.34   24.44
  -6   4   0 1123.51   22.55
  -6   4   0 1099.57   15.89
   6  -4  -1   15.83    1.46
   6  -4   1   15.35    1.67
  -6   4  -1   18.18    2.83
  -6  -4  -1   15.06    2.49
   1  -6  -4   14.95    2.68
  -6  -4  -1   14.58    2.06
  -1  -6  -4   17.16    2.82
  -6  -4   1   17.27    2.71
  -6   4   1   15.37    2.58
  -6  -4   1   15.38    1.95
   6   4  -1   16.38    2.67
   1   6  -4   14.84    2.59
   4   1  -6   12.87    2.40
  -1   6  -4   12.37    2.19
  -1   6  -4   12.79    1.81
  -6   4   1   15.81    2.80
   4  -1   6   18.81    1.69
  -1  -6  -4   12.88    1.92
  -4   1   6   14.78    2.48
  -4  -1  -6   15.80    3.27
   6   4   1   17.12    2.75
  -6   4  -1   15.32    2.54
   6   4  -1   15.02    2.52
  -6  -4   1   17.72    3.03
  -1  -6  -4   13.29    2.20
  -4  -1   6   14.19    1.38
   6   4   1   16.61    2.23
   1  -6  -4   12.64    1.34
   1   6  -4   16.48    2.92
   6  -4   1   16.52    1.58
   4  -1   6   15.11    2.67
  -1   6   4   12.97    1.92
   4   1   6   14.51    2.79
  -4   1   6   15.50    2.20
   4  -1  -6   12.76    2.48
  -4   1  -6   13.80    2.55
  -4  -1  -6   13.18    2.99
  -6  -4  -1   14.52    2.98
  -4   1  -6   14.75    2.83
  -6  -4   1   13.96    2.83
  -4  -1   6   16.36    2.33
   6  -4   1   13.78    2.44
   6  -4  -1   17.46    2.52
   1  -6   4   11.88    2.36
  -1  -6  -4   13.75    1.80
  -4  -1   6   14.08    2.28
  -1  -6   4   14.85    2.28
   1  -6   4   13.30    2.44
  -1  -6  -4   13.72    1.95
   4  -1   6   16.17    2.60
  -6   4  -1   15.04    1.46
  -4   1   6   14.35    2.07
   1  -6  -4   15.60    2.49
   4   1   6   18.06    2.83
   6   4   1   15.59    2.16
   4  -1  -6   15.99    2.95
   4   1  -6   16.63    3.01
  -1   6   4   12.12    2.71
  -6   4   1   14.67    2.43
  -4  -1  -6   13.96    2.34
   1   6  -4   13.94    1.65
   1   6   4   13.19    0.92
  -6   4  -1   16.87    2.88
  -6   4  -1   16.08    1.72
  -6  -4   1   16.46    2.92
  -6   4   1   14.23    2.00
  -6   4   1   16.06    2.81
   1   6   4   15.24    2.84
  -2  -6  -4   37.92    4.38
  -6   4   2   41.66    4.29
  -6  -4   2   42.14    3.25
   6  -4  -2   40.21    2.35
  -6  -4   2   35.12    4.07
   2  -6  -4   36.43    3.91
  -6  -4  -2   39.17    3.62
  -4   2   6   38.41    4.39
   6   4  -2   39.33    4.31
   4   2  -6   36.12    4.33
  -2   6  -4   37.57    3.78
  -2   6  -4   35.73    2.27
  -4   2  -6   34.48    4.67
  -6   4  -2   42.54    4.16
  -4  -2  -6   35.90    4.65
  -6  -4   2   38.26    4.30
  -6   4   2   34.16    2.06
  -4  -2   6   33.76    3.46
   2  -6  -4   38.89    2.97
  -6   4   2   39.99    4.17
   4  -2  -6   34.31    4.05
   6   4   2   39.29    3.23
  -6  -4  -2   37.85    4.61
  -6  -4   2   39.13    4.26
   6   4  -2   40.67    4.46
  -2  -6  -4   39.86    4.03
   2  -6   4   39.11    4.15
   4  -2   6   33.98    4.20
   4   2   6   35.59    4.38
   4   2  -6   35.92    4.70
   6  -4   2   40.80    3.00
  -4   2   6   32.94    2.90
   2   6  -4   39.01    4.46
  -2   6   4   40.52    2.96
  -6   4  -2   39.73    4.11
  -6  -4  -2   43.49    4.34
  -6  -4  -2   42.83    5.15
  -2   6  -4   38.33    3.57
  -4   2  -6   34.74    4.32
  -6   4   2   45.31    4.17
  -2  -6  -4   34.57    4.76
  -2  -6  -4   34.07    3.35
  -4  -2   6   34.34    3.93
  -2  -6  -4   40.40    3.30
  -4   2   6   34.33    1.93
   4  -2   6   31.94    3.94
   6  -4   2   40.10    4.46
   2  -6   4   39.68    4.34
  -6  -4   2   34.39    4.42
  -4  -2   6   34.66    3.72
   6  -4  -2   37.50    3.55
  -2  -6   4   36.77    3.55
   4   2  -6   37.27    4.55
  -6   4   2   42.09    2.23
  -2  -6  -4   35.80    2.78
   4  -2  -6   34.76    4.37
   4   2   6   38.78    4.28
   2  -6  -4   39.00    4.17
   4  -2   6   38.10    4.18
  -4   2   6   36.33    3.47
  -4   2  -6   39.91    4.55
  -4  -2   6   37.25    3.54
   4  -2  -6   37.47    2.63
  -6   4  -2   40.51    4.64
  -6   4   2   40.51    4.46
  -6  -4   2   39.57    4.48
  -6   4  -2   39.16    2.62
   6   4   2   40.66    3.34
   2   6   4   34.06    4.24
  -4  -2  -6   33.84    3.46
  -6   4   2   44.08    3.89
  -6  -4   3  194.36    9.67
  -6  -4  -3  196.74    8.52
  -3  -6   4  189.42    7.77
  -3  -6   4  198.70    9.26
  -6  -4   3  195.49    7.13
  -3   6   4  193.14    7.89
   3  -6  -4  196.73    8.92
  -6   4   3  189.48    9.60
  -4  -3  -6  190.29   10.94
  -6   4   3  184.15   10.41
  -3   6  -4  190.84    8.14
   4   3  -6  197.33   10.48
  -3   6  -4  197.56    5.78
  -6   4   3  179.84    3.00
  -4   3  -6  191.39   10.91
   3   6  -4  185.76   10.27
   6   4  -3  191.84    9.90
  -3  -6   4  191.75    8.13
  -3   6   4  189.86    8.06
  -4  -3  -6  204.99   10.05
   3  -6  -4  197.09    7.81
  -6  -4   3  192.64   10.29
  -6   4   3  195.30   10.18
   4  -3   6  191.77    9.64
   6   4   3  197.76    6.70
  -6  -4   3  190.26    9.26
  -3  -6  -4  198.64    9.71
  -6  -4   3  187.41    9.55
  -6   4   3  200.92    9.96
   4  -3  -6  198.99    9.54
  -6  -4  -3  200.34   11.01
  -4  -3   6  201.49    9.11
   6  -4   3  189.74    7.62
   3  -6   4  190.11    9.00
   4  -3   6  186.04    9.83
  -4   3   6  189.85    6.42
   6   4  -3  196.23   10.47
  -3   6   4  197.19    5.05
   3   6  -4  185.18    9.98
   4   3  -6  194.40   11.09
  -6  -4  -3  187.39   11.50
  -4   3  -6  197.41    9.78
  -6   4   3  190.79    8.10
  -4  -3  -6  188.54   12.02
  -4  -3  -6  201.06    7.95
  -3   6  -4  190.46    8.55
  -3  -6  -4  192.44    8.54
  -3  -6  -4  189.62   11.23
  -6  -4  -3  202.73    9.52
  -6   4  -3  198.90    9.38
   6  -4   3  185.64   10.01
  -3  -6  -4  192.71    7.93
   4  -3   6  188.31    9.80
  -4  -3   6  198.67    9.68
  -4   3   6  197.40    5.78
  -3  -6   4  195.86    7.75
   6  -4  -3  190.94    7.73
  -6   4   3  199.44    5.43
   6  -4  -3  203.19   10.47
  -6   4  -3  194.52    5.82
  -3  -6  -4  198.27    5.05
  -4   3   6  205.70    8.54
   4   3   6  187.79    9.70
   3  -6  -4  185.21    9.78
   4   3   6  199.56    8.58
  -4   3  -6  200.10   10.77
  -4  -3   6  196.77    8.10
   4  -3  -6  200.72    5.27
  -4   3   6  203.22   10.68
  -6   4   3  196.37   10.24
  -6  -4   3  189.64   10.26
   3   6   4  198.56   10.06
   6   4   3  192.53    7.06
  -6   4  -3  194.73   10.69
  -3   6   4  198.35   10.67
  -6   4   3  205.43    9.04
   4  -6  -4  193.47    8.60
  -6   4   4  200.76   10.39
  -6  -4   4  205.17    7.62
  -4  -6   4  197.08    9.23
  -4   6   4  197.26    8.56
  -4  -6  -4  202.13   10.13
  -6  -4  -4  206.46    9.36
  -6  -4   4  201.42   10.29
  -4  -6   4  201.36    8.53
  -6   4   4  202.99   11.39
  -4   6  -4  189.25    7.63
   4   4  -6  192.95   10.83
  -4  -4  -6  198.36   10.91
   6   4  -4  205.05   10.52
  -4   6  -4  205.63    6.64
   4   6  -4  198.56   10.89
  -6  -4   4  201.04    9.34
  -4  -4  -6  203.94   10.32
   6   4   4  205.43    6.43
  -4  -6   4  204.11    9.04
  -4   6   4  201.63    8.88
   4  -6  -4  204.25    8.90
  -6  -4   4  204.01   10.92
   4  -4   6  199.88   10.12
  -6  -4  -4  219.41   11.67
   6  -4  -4  209.48   10.73
   4  -4  -6  207.64    9.68
  -4  -4   6  201.45    9.75
  -6  -4   4  204.23   10.58
  -6   4   4  206.12   10.57
  -4   6   4  199.55    8.71
  -4  -6   4  199.14    8.65
  -6   4   4  204.93   10.88
  -4  -6  -4  207.40   10.69
   6  -4   4  199.62    8.34
   6   4  -4  203.28   11.24
   4  -6   4  197.01    8.97
   4   4  -6  205.25   11.76
  -4   4   6  206.10    6.01
   4  -4   6  198.47   10.22
   6  -4   4  201.35    8.71
   4   6  -4  198.75   10.57
  -6  -4  -4  209.14   12.64
  -6   4  -4  198.54   11.19
  -6  -4  -4  199.85   11.27
  -4  -6  -4  198.26    9.35
  -4  -6  -4  203.67   11.93
  -4   6  -4  196.08    9.36
  -4   4  -6  206.59    9.49
  -4  -6  -4  206.28    8.31
  -4   4  -6  215.20   11.86
  -4  -4  -6  180.40   12.08
  -6  -4  -4  207.81    9.98
  -4   6  -4  196.80    8.22
  -6   4  -4  209.03   10.08
   6  -4  -4  211.88    7.83
   4  -4   6  200.47   10.43
   6  -4   4  209.03   11.04
   4  -6  -4  198.29    9.41
  -4  -4   6  195.59   10.27
  -6  -4   4  203.56   11.11
   4  -6  -4  199.38   10.67
  -4   4   6  199.96    8.81
  -6   4  -4  206.66    6.20
   4   4   6  193.96   10.02
   6  -4  -4  204.33   11.07
   6   4   4  196.96    9.24
  -6   4   4  201.86    6.22
  -4   4   6  219.92   11.58
  -6   4   4  206.52    9.74
  -6   4  -4  196.72    7.95
  -6  -4   4  204.21   10.30
  -6   4   4  213.21   11.10
  -6  -4   4  203.43   10.82
   4   6   4  202.40    9.99
   4   4   6  194.77    9.00
  -6   4  -4  195.56   11.17
   6   4   4  203.24    7.53
  -4   6   4  217.36   11.27
  -4  -5  -6  129.68    8.73
  -5  -6   4  115.12    6.92
  -6  -4   5  119.84    8.29
  -6  -4   5  124.24    6.23
  -5  -6   4  119.33    7.19
   5  -6  -4  127.29    6.62
  -5  -6  -4  130.01    8.25
  -5   6   4  125.13    7.30
  -6   4   5  125.94    8.62
   5   6  -4  123.67    8.88
   6   4  -5  127.55    8.65
   4   5  -6  128.88    9.03
  -6   4   5  127.30    9.25
  -4   5   6  134.04    8.59
   6  -4  -5  120.58    8.28
  -5   6   4  117.75    7.11
  -5  -6   4  116.84    7.15
  -4  -5   6  128.49    8.44
  -6  -4   5  130.41    9.09
  -4  -5  -6  137.51    8.61
   5  -6  -4  123.64    7.61
   4  -5  -6  128.52    7.45
  -5  -6   4  123.42    7.68
  -5   6   4  123.92    7.58
  -6  -4   5  132.72    8.89
  -6   4   5  127.65    8.90
   6  -4   5  123.46    7.18
   4  -5   6  135.60    8.60
  -6   4   5  133.12    8.92
  -6  -4   5  122.16    7.16
   6   4   5  123.94    4.70
  -6  -4  -5  119.04    8.84
  -5  -6  -4  131.51    9.12
   5  -6   4  122.99    7.03
   4  -5   6  122.74    8.09
  -4   5   6  130.33    4.15
   4   5   6  132.07    9.19
   6   4   5  120.39    8.76
   5   6  -4  122.41    8.67
   6  -4   5  128.25    7.75
   6   4  -5  122.06    9.19
   4   5  -6  120.42    9.14
  -5  -6  -4  119.88    6.83
  -4  -5  -6  124.22   10.15
  -5   6  -4  115.00    7.72
  -5  -6  -4  124.12    7.90
  -6   4  -5  125.61    9.23
  -6  -4  -5  129.50    9.44
  -5  -6  -4  120.57    9.43
  -4   5  -6  129.96    8.94
  -4  -5  -6  134.99    9.17
  -6  -4  -5  121.09   10.08
  -6   4  -5  122.73    8.11
  -6  -4  -5  127.58    8.15
  -5   6  -4  120.35    6.92
  -4  -5   6  124.23    8.67
   6  -4   5  128.54    8.95
   5  -6   4  121.72    8.81
   5  -6  -4  119.89    7.26
  -6  -4   5  124.32    8.87
   4  -5   6  130.85    8.89
  -5   6  -4  120.27    6.76
  -6   4   5  125.18    5.49
   4   5   6  123.68    8.43
  -6   4  -5  127.22    5.24
   6   4   5  123.75    7.70
  -4   5   6  134.47    7.53
   6  -4  -5  126.05    9.24
   4  -5  -6  125.58    8.94
   5   6   4  121.72    7.51
  -6   4   5  125.58    8.22
  -5   6  -4  126.92    9.16
   6   4   5  128.41    6.30
  -6   4  -5  120.99    5.86
  -6  -4   5  117.45    7.69
  -5   6   4  114.28    7.38
  -5  -6   4  121.37    7.57
   4   5   6  130.97    7.84
  -6   4  -5  124.70    9.41
  -5   6   4  130.49    8.68
  -4   5   6  139.06    9.62
  -6  -5   0    0.44    0.48
  -6  -5   0    0.07    0.92
   0  -6  -5   -0.56    0.82
   6  -5   0    0.41    0.24
  -6   5   0    1.51    0.83
   0   6  -5    1.94    1.06
   6   5   0    0.55    0.57
   5   0  -6    2.83    1.27
   0   6  -5    1.32    0.32
   0   6  -5    1.38    0.95
  -5   0   6    1.42    0.77
  -6   5   0    1.53    0.83
   0  -6  -5    1.35    0.38
   0   6  -5    0.53    0.69
   5   0   6    0.48    0.61
   6   5   0    2.03    1.11
   5   0  -6    2.82    1.74
   0   6   5    1.02    0.75
  -6   5   0    1.14    0.78
  -5   0  -6    1.04    0.88
  -5   0  -6    0.60    1.41
  -5   0  -6   -1.42    1.05
  -6  -5   0    0.79    0.53
   0  -6   5    7.02    1.58
   0  -6  -5    0.97    0.32
  -6  -5   0    1.05    0.39
   6  -5   0    0.93    0.61
   0  -6   5    1.17    0.89
   5   0  -6    0.76    0.60
   5   0   6    6.52    1.84
  -6   5   0    1.34    0.39
   0  -6  -5    1.96    0.89
   0   6   5    0.13    0.72
  -6   5   0    1.31    0.65
   6   5   0    2.01    0.94
  -1  -6  -5   99.13    7.27
   6  -5  -1  106.30    4.63
  -6   5   1   94.65    6.22
   1  -6  -5   92.52    6.83
  -6  -5  -1   97.22    5.89
  -6  -5   1   97.43    5.64
  -6  -5   1   89.32    6.05
   6  -5   1   93.28    4.64
   1   6  -5   96.52    3.50
  -5   1   6   87.85    6.70
  -1  -6  -5   91.82    5.96
   6   5  -1  107.39    7.49
  -1   6  -5   97.86    6.73
  -6   5   1   93.88    7.17
   6   5   1   98.54    7.17
   1   6  -5   94.71    7.07
   5   1  -6   96.27    6.85
  -1   6  -5   88.30    5.59
  -6   5  -1   97.68    6.78
   1  -6  -5   97.24    4.90
  -1  -6  -5   92.94    5.73
  -5  -1   6   93.59    3.75
  -6   5   1   88.85    3.89
   5  -1  -6   95.68    7.34
  -5  -1   6   88.41    5.35
  -6  -5  -1   90.75    7.30
   6   5   1   88.99    5.09
  -6  -5   1   95.21    7.21
   1   6  -5   91.09    7.46
   6   5  -1   93.75    6.29
   1  -6  -5   94.74    3.56
   1  -6   5   98.04    7.25
   1   6   5   96.07    6.56
  -1   6   5   98.73    5.64
   5   1   6   90.46    7.18
   5  -1   6   86.47    6.93
  -6  -5  -1   98.18    7.53
  -5  -1  -6  102.42    8.69
  -5  -1  -6   92.87    8.23
  -5   1  -6   94.63    7.84
  -6  -5   1   99.36    7.91
  -1  -6   5   90.01    5.76
   6  -5  -1   94.68    6.44
   6  -5   1   97.14    7.09
   1  -6   5   95.82    6.65
   1  -6  -5   96.38    2.97
   6   5   1   99.35    5.98
  -5   1   6   91.70    5.24
   1  -6  -5   94.81    6.43
   5  -1  -6   96.07    7.58
  -1  -6  -5   95.72    5.53
   5  -1   6   85.99    6.20
   5   1   6   91.42    6.46
   5   1  -6   90.09    7.30
  -5  -1  -6   91.87    6.47
  -6   5   1  103.62    6.99
  -1   6   5   99.50    7.87
  -6   5   1  102.75    6.65
  -6   5  -1   98.03    5.13
  -5   1  -6   92.65    7.10
  -6   5   1   94.44    5.72
  -6   5  -1   98.76    7.19
   1   6   5   96.31    7.48
  -2  -6  -5  129.97    8.48
   2  -6  -5  123.08    7.74
   6  -5   2  111.52    5.46
  -6  -5  -2  123.04    6.83
  -6  -5   2  115.66    6.09
  -6  -5   2  119.61    7.16
   6  -5  -2  116.82    4.99
  -6   5   2  114.26    7.08
  -5   2   6  113.83    7.92
   6   5  -2  120.86    8.14
   5   2  -6  123.36    8.07
  -2   6  -5  120.81    7.23
   2   6  -5  128.76    4.89
  -2  -6  -5  115.51    6.80
  -6   5   2  114.32    8.17
  -6   5  -2  114.16    7.02
  -2   6  -5  120.23    6.76
  -5  -2   6  121.33    6.63
  -6  -5   2  117.85    7.93
   5  -2  -6  129.58    8.44
  -6   5   2  107.84    4.31
   2  -6  -5  122.49    5.39
  -5  -2   6  126.94    5.35
  -2  -6  -5  121.13    7.07
  -6  -5  -2  114.24    8.23
   6   5   2  120.02    5.32
   5  -2   6  123.45    8.07
   6   5  -2  115.74    7.61
   2  -6   5  125.54    8.00
   5   2  -6  122.21    8.85
  -2   6   5  120.58    5.57
   5   2   6  114.95    8.32
   6  -5   2  114.57    5.01
   2   6  -5  119.95    8.55
  -6  -5  -2  111.27    6.83
  -5   2  -6  126.63    8.81
  -6   5  -2  120.82    7.09
  -5  -2  -6  127.75    9.69
  -6  -5  -2  114.61    8.68
  -6   5   2  119.72    6.83
  -5  -2  -6  117.63    7.01
  -5   2  -6  121.08    9.44
  -2  -6  -5  132.95    9.94
   2  -6   5  128.08    8.06
  -2  -6   5  120.54    6.33
   6  -5  -2  117.16    6.92
  -5  -2   6  126.82    7.53
  -6  -5   2  113.08    8.59
   6  -5   2  126.00    8.34
   5  -2   6  124.03    7.44
   5  -2  -6  124.24    8.75
   2  -6  -5  125.58    7.89
   5   2   6  119.46    7.57
  -2  -6  -5  123.55    5.60
   6   5   2  124.93    6.64
   5   2  -6  120.01    8.45
  -5   2   6  118.26    6.00
  -5  -2   6  125.37    7.31
  -6  -5   2  113.18    7.54
  -6   5  -2  125.21    5.66
  -5   2  -6  123.69    8.53
  -6   5   2  119.03    6.87
  -6   5  -2  111.61    8.00
   2   6   5  119.58    8.23
  -6   5   2  117.71    7.64
  -6  -5   3  406.04   11.39
  -6  -5  -3  394.78   12.98
   3  -6  -5  381.59   13.08
   6  -5  -3  417.60    9.60
  -6   5   3  409.03   13.81
  -6  -5   3  390.27   13.56
   6   5  -3  423.79   15.54
   5   3  -6  378.57   14.72
  -5   3   6  395.85   15.34
  -3   6  -5  384.04   12.47
   3   6  -5  355.11   14.65
  -3   6   5  380.75   12.46
  -5  -3   6  399.17   15.99
  -5   3   6  385.62   15.73
  -6  -5   3  379.08   13.52
   6   5   3  385.96    8.26
   5  -3  -6  387.58   14.39
  -3  -6   5  361.71   12.25
  -6   5   3  395.43   13.64
  -6  -5   3  396.25   14.33
  -5  -3   6  398.51   12.73
  -5  -3   6  396.89   11.03
   3  -6  -5  378.66   10.84
  -3  -6  -5  374.54   13.45
   5  -3   6  386.26   13.49
  -6  -5  -3  391.94   15.79
   6  -5   3  384.02   10.74
   5  -3   6  396.59   14.57
   6   5  -3  388.62   14.82
   5   3   6  379.46   15.22
   3  -6   5  387.20   13.81
   5   3  -6  389.22   16.27
   3   6  -5  373.21   15.36
  -3   6   5  384.97    7.95
  -6   5  -3  379.45   12.98
  -6  -5  -3  405.39   13.27
  -3  -6  -5  386.49   13.18
  -3  -6  -5  369.90   16.63
  -5  -3  -6  413.39   18.34
  -3   6  -5  372.66   13.09
  -5   3  -6  383.55   16.56
  -5  -3  -6  413.11   12.65
  -6  -5  -3  388.55   16.77
  -6   5   3  404.86   11.73
  -5  -3  -6  388.55   16.78
  -5   3  -6  394.03   15.08
   3  -6   5  382.60   14.54
  -3  -6   5  366.44   14.99
  -5  -3   6  400.70   14.32
   6  -5  -3  389.80   12.27
   6  -5   3  389.35   15.25
  -3  -6   5  372.91   10.59
   5   3  -6  386.28   15.06
   6  -5  -3  384.15   15.13
   5   3   6  385.51   13.90
   3  -6  -5  380.72   14.61
  -6   5  -3  399.19   10.01
  -5   3   6  401.33   11.36
  -6   5   3  401.32    9.05
   5  -3  -6  399.01   15.92
  -3  -6  -5  375.66    7.92
   5   3   6  387.49   11.31
  -5   3  -6  390.20   15.69
  -5  -3   6  398.18   12.84
   3   6   5  376.05   14.33
  -3   6   5  389.24   15.84
  -6  -5   3  383.70   14.29
  -6   5  -3  391.60   15.81
  -6   5   3  376.79   14.12
  -6   5   3  417.32   13.75
   6   5   3  410.25   11.88
  -4   6   5   24.39    3.19
   4  -6  -5   25.30    3.31
  -4  -6   5   23.02    3.23
  -4  -6  -5   22.76    3.57
  -6  -5  -4   29.85    3.79
  -4  -6   5   23.44    3.14
  -6  -5   4   22.26    2.76
  -6   5   4   24.74    3.61
  -6  -5   4   25.26    3.67
  -5   4   6   18.57    3.44
  -6   5   4   27.48    4.41
   6   5  -4   23.46    3.72
   5   4  -6   19.80    3.57
   4   6  -5   29.61    4.25
  -4   6  -5   25.50    3.09
  -5   4   6   23.67    3.93
   5  -4  -6   18.65    3.13
  -5  -4  -6   23.08    3.69
  -4  -6   5   24.82    3.41
  -4   6   5   25.99    3.50
   6  -5  -4   26.06    3.72
  -6   5   4   26.38    3.79
  -6  -5   4   26.87    3.99
  -6   5   4   19.48    3.32
   4  -6  -5   26.42    3.21
  -5  -4   6   19.47    3.25
  -6  -5   4   26.47    3.68
   5  -4   6   21.82    3.44
  -6  -5   4   23.82    3.41
  -4  -6  -5   25.58    3.64
  -6  -5  -4   25.07    4.10
   6  -5   4   26.32    3.17
   5  -4   6   22.22    3.48
   5   4   6   20.37    3.60
   6   5  -4   25.75    3.93
   4   6  -5   22.85    3.70
   5   4  -6   25.37    4.25
   4  -6   5   22.76    3.27
  -6   5  -4   25.76    3.81
  -5   4  -6   22.90    3.77
  -4   6  -5   20.93    3.33
  -4  -6  -5   22.19    3.43
  -5  -4  -6   23.58    3.98
  -6  -5  -4   26.40    3.54
  -4  -6  -5   20.40    3.76
  -6  -5  -4   21.27    3.54
  -6  -5  -4   24.65    4.51
  -6   5  -4   25.47    3.46
  -5  -4  -6   26.46    4.90
   6  -5  -4   26.04    3.10
  -4  -6   5   22.30    3.77
   6  -5   4   32.30    4.51
  -5  -4   6   21.92    3.59
  -6  -5   4   27.36    4.33
   5   4   6   20.93    3.26
  -6   5   4   21.81    2.28
   6  -5  -4   25.89    4.03
  -6   5  -4   24.58    2.57
  -4   6   5   27.87    3.37
  -5   4   6   20.30    2.64
   4  -6  -5   27.11    4.03
   5  -4  -6   20.70    3.68
  -6   5  -4   25.48    2.89
  -5   4   6   21.74    3.72
  -4   6  -5   25.08    1.63
   4   6   5   25.16    3.59
  -6   5   4   24.60    3.83
  -6  -5   4   28.07    4.06
  -6   5  -4   27.07    4.33
   6   5   4   27.24    3.08
  -6   5   4   26.99    3.73
  -4   6   5   24.83    4.02
   5   4   6   24.72    3.13
  -6  -5   5   10.08    2.34
  -5  -6  -5   11.49    2.49
  -5   6   5   12.87    2.64
  -5  -5   6    7.87    2.03
  -5   5   6    6.71    2.09
  -6  -5   5   15.56    2.37
  -5  -6   5    9.11    2.03
  -5  -6   5   11.51    2.37
  -6   5   5   13.48    2.72
  -6   5   5   11.15    2.82
   5   5  -6   10.08    2.67
   6   5  -5   13.93    3.04
   5  -6  -5    9.20    1.97
   5   6  -5   13.34    3.17
  -6  -5  -5   15.29    2.89
   5  -5   6    8.15    2.22
  -6  -5   5   12.34    2.82
   6  -5   5   13.43    2.38
  -5  -6  -5   13.23    2.79
  -5  -5   6    9.56    2.56
  -6  -5  -5   13.43    3.13
  -5  -5  -6    7.41    2.08
  -5   6   5   12.56    2.60
  -5  -6   5   12.56    2.52
  -6   5   5   15.20    3.03
  -5   5   6    5.59    1.87
  -5  -6   5   13.16    2.77
  -5   6   5   12.64    2.69
  -6  -5   5    8.94    2.27
  -6   5   5   10.61    2.46
  -6  -5   5   17.68    2.93
   6  -5  -5   10.73    2.50
   5   5  -6    7.59    2.35
   5  -5  -6    6.98    1.97
   5  -6  -5    8.53    2.03
   5   6  -5   11.39    2.92
   6   5  -5   14.05    3.23
   6   5   5   11.98    3.06
  -6  -5  -5   12.99    2.63
  -5  -5  -6    7.86    2.61
  -5   6  -5   10.53    2.10
  -6   5  -5   14.96    2.91
  -6  -5  -5   16.33    3.89
  -5   6  -5   10.12    2.46
  -6   5  -5   10.17    2.63
  -6   5  -5   11.94    2.99
  -5  -5  -6    6.49    2.15
  -5   5  -6    5.47    1.96
  -6  -5  -5   13.27    3.00
  -5  -6  -5   10.11    2.12
  -5  -6  -5   10.15    2.48
  -5  -6  -5    9.23    2.63
  -5  -6   5   10.59    2.68
  -5  -5   6    6.18    2.16
   5  -6   5   10.56    2.31
  -6  -5   5   11.87    3.07
   5  -5   6    8.00    2.13
   6  -5   5   14.71    2.62
   6  -5   5   14.29    3.14
  -6   5  -5   12.55    1.88
  -5   5   6    7.63    1.81
   6  -5  -5   12.59    2.92
   5   5   6    6.46    2.08
  -5   6  -5   10.71    2.09
  -6   5   5   12.93    1.96
   6   5   5   13.34    2.70
  -5   6   5   12.89    2.32
   5   6   5   10.44    2.47
  -5   6  -5   11.11    1.39
   6   5   5   12.87    2.23
  -5   5   6    5.60    1.73
   5   5   6    8.91    1.95
  -6   5  -5   14.06    2.00
  -5   6   5   10.58    2.58
  -5   5  -6    6.57    2.52
  -6   5   5   15.98    3.08
  -5   6  -5   10.41    2.77
  -6  -6   0 1215.24   22.97
   0  -6  -6 1178.08   26.38
   6  -6   0 1138.85   17.60
  -6   6   0 1140.07   21.13
  -6  -6   0 1097.88   20.56
   6   0  -6 1109.36   22.85
   0   6  -6 1139.42   25.34
  -6   6   0 1147.01   24.98
   6   6   0 1124.47   25.54
   0   6  -6 1131.58   22.40
  -6   0   6 1099.16   28.33
   0  -6   6 1145.41   26.81
  -6   0   6 1101.00   17.39
   0  -6  -6 1126.56   18.03
   0  -6   6 1126.96   26.05
   6   6   0 1190.27   20.16
   0   6   6 1183.24   22.54
   0   6  -6 1175.26   28.71
   6   0   6 1069.27   24.94
  -6   0  -6 1137.84   29.78
  -6   0  -6 1123.33   30.14
  -6  -6   0 1135.27   24.41
   0  -6   6 1144.04   21.82
   6  -6   0 1108.91   24.65
  -6  -6   0 1110.13   26.80
   6   0   6 1109.84   21.74
   6   6   0 1130.29   22.58
   0  -6  -6 1140.63   22.02
   6   0  -6 1109.75   26.29
   0   6   6 1160.10   27.58
  -6   0  -6 1155.47   25.21
  -6   6   0 1171.59   20.84
  -6   6   0 1160.64   23.93
  -6  -6   1   15.27    2.36
   6  -6  -1   16.66    2.19
  -6  -6  -1   14.87    2.53
  -1  -6  -6   17.84    3.21
   1  -6  -6   16.42    3.07
  -6   6   1   14.42    2.34
   6  -6   1   15.50    2.11
  -6  -6   1   15.45    2.44
  -6   6  -1   16.92    2.91
  -1  -6  -6   16.37    2.70
   6   6  -1   13.62    2.80
  -6   6   1   17.90    3.19
   6   1  -6   16.33    2.86
   6   6   1   16.83    3.17
   1   6  -6   18.86    3.46
  -6   1   6   14.65    2.81
  -1   6  -6   15.45    2.98
  -1   6  -6   20.16    3.08
  -6  -1   6   16.86    1.80
  -6  -6  -1   12.41    2.73
   1  -6  -6   17.38    1.96
  -6  -6   1   15.59    2.96
  -6  -1   6   15.61    3.52
  -6  -1   6   14.88    2.09
  -1  -6  -6   18.34    2.55
   1  -6   6   14.65    2.99
   6   6  -1   17.44    2.71
   6  -1   6   16.49    3.05
   6   1   6   12.61    2.91
   1  -6  -6   15.33    1.42
   1   6  -6   15.75    3.27
   6   6   1   16.01    2.14
  -1   6   6   16.36    2.39
   6  -1  -6   13.18    2.81
   1   6   6   14.24    2.54
  -6  -1  -6   14.85    3.75
  -6   1  -6   17.79    3.21
  -6   6  -1   16.27    3.12
  -6  -1  -6   16.28    2.96
  -6  -6  -1   15.23    3.01
  -6  -1  -6   16.30    3.85
  -6   1  -6   14.35    3.24
  -6  -6   1    9.29    2.60
   6  -6  -1   16.33    2.86
  -1  -6   6   17.44    2.49
   6  -1   6   14.97    3.06
  -6  -6  -1   19.52    3.55
   1  -6   6   13.83    2.70
   1  -6   6   14.13    2.92
   6  -6   1   15.40    3.00
   6   1  -6   15.44    2.94
   6  -1   6   15.79    2.63
   1  -6  -6   17.87    2.88
   6  -1  -6   19.59    3.62
  -1  -6  -6   15.94    2.38
   6   1   6   16.03    2.63
   6   6  -1   15.42    2.66
   6   6   1   15.66    2.68
   1   6   6   17.11    3.23
  -1   6   6   15.53    3.38
  -6   6  -1   16.92    2.37
  -6   6   1   14.76    2.52
  -6   6   1   17.25    2.81
  -2  -6  -6    4.63    2.51
  -6   6   2    2.74    1.23
  -2  -6  -6   -0.13    0.84
  -6  -6   2    0.83    0.78
   6  -6  -2    0.35    0.53
  -6  -6  -2    0.10    0.41
  -6  -2   6    1.41    0.93
  -6   2   6    0.43    1.44
  -6  -6   2    2.55    0.99
   6  -6   2    0.77    0.21
  -2   6  -6    2.36    0.96
  -2  -6  -6    1.37    0.86
  -6   6   2    2.08    1.16
  -6   6  -2    0.88    0.98
  -6   2   6    1.18    0.68
   2  -6  -6   -0.35    0.24
  -2   6  -6    1.11    0.84
   6   6  -2   -0.26    0.87
   6   6   2    0.65    0.39
   6   2  -6    2.24    1.38
  -6  -2   6    0.62    0.39
  -2  -6  -6    0.73    0.27
  -6  -6  -2    2.55    0.94
  -6  -2   6   -0.15    1.29
  -6   2   6   -0.15    0.45
  -6  -6   2    0.51    0.71
  -6  -2   6    0.81    0.66
   2  -6   6    0.13    0.62
   6   2   6    0.13    0.92
   6   6   2    1.97    0.76
   2   6  -6    0.45    0.99
   6  -2   6    1.45    1.35
   2  -6  -6    1.69    0.78
   6   2  -6    0.15    0.79
  -2   6   6    1.59    0.94
   6  -2  -6    0.96    0.76
   6   6  -2    1.42    1.05
   2   6   6    1.83    0.96
  -6   6  -2   -0.13    0.62
  -6   2  -6   -1.38    1.23
  -6  -2  -6    0.32    0.45
  -6   2  -6    0.30    0.90
  -6  -2  -6    1.38    0.89
  -6   2  -6    3.26    2.33
  -6   6   2    1.47    0.96
  -6  -6  -2   -1.30    0.96
  -6  -6   2   -0.30    0.55
   6  -6  -2    0.10    0.22
   6  -6   2    1.06    1.08
   2  -6   6    2.39    1.02
  -2  -6   6    0.94    0.40
   2  -6   6    2.41    1.02
   6  -2   6   -0.79    0.87
  -2   6   6    0.81    0.48
   6  -2  -6    1.58    1.13
  -2  -6  -6    1.12    0.94
   6   2  -6    1.47    1.05
  -6   2   6    1.62    0.69
   6   2   6    1.16    0.31
   2  -6  -6    4.47    1.73
  -6   6   2    0.83    0.90
   2   6   6    1.97    1.14
  -6  -2   6    1.23    0.23
  -2   6   6    1.05    1.34
   6   6   2    0.58    0.54
  -6  -6   2    1.86    0.97
  -6   6  -2    0.80    0.68
  -6   6   2    2.32    1.18
  -6  -6  -3   50.72    4.91
  -6   6   3   53.25    4.93
  -6  -3   6   61.11    6.37
   6  -6  -3   55.17    3.99
   3  -6  -6   49.45    5.02
   6  -6   3   52.80    4.34
  -6  -6   3   49.77    4.45
  -6  -6   3   57.15    5.04
  -6   3   6   67.14    6.58
   6   6  -3   48.17    5.60
  -3   6  -6   52.15    4.97
   6   3  -6   58.66    5.77
   3   6  -6   46.87    5.51
  -6   6  -3   50.38    4.45
  -6   3   6   62.19    6.41
   3  -6   6   44.72    5.26
   6  -3  -6   66.28    6.42
  -6  -6   3   55.71    5.03
  -6   3   6   66.23    6.83
   3  -6  -6   49.15    4.13
  -6  -6  -3   52.30    6.10
   6  -3   6   59.89    5.30
  -6  -3   6   61.98    6.69
  -3  -6  -6   50.06    5.03
  -6  -6   3   52.21    5.47
  -6  -3   6   61.67    4.53
  -6   6   3   52.31    4.78
   3  -6   6   44.26    5.04
   3   6   6   50.63    5.58
   3   6  -6   52.73    6.18
   6  -3   6   61.85    5.76
   6   6  -3   56.09    5.67
   6  -6   3   54.38    4.08
  -3   6   6   49.60    3.22
   6   3  -6   69.76    7.15
   6   3   6   58.49    6.16
  -6   6  -3   55.90    4.98
  -6  -6  -3   50.47    4.63
  -6  -6  -3   47.46    5.80
  -3  -6  -6   48.83    6.26
  -6   3  -6   60.31    6.91
  -6  -3  -6   62.66    7.15
  -6  -3  -6   66.13    5.57
  -3  -6  -6   52.00    5.32
  -6  -3  -6   63.49    7.67
  -6   6   3   51.80    4.13
  -3   6  -6   47.60    5.18
  -6   3  -6   55.29    6.02
  -6  -6   3   43.72    5.67
   6  -3   6   60.93    6.21
  -3  -6   6   49.23    3.73
   3  -6   6   48.11    5.30
  -3  -6   6   52.06    5.83
   6  -6  -3   49.46    4.75
   6  -6   3   54.33    5.96
  -6  -3   6   54.71    5.62
  -6   3   6   58.93    3.99
  -3  -6  -6   45.80    3.12
   6   3  -6   56.97    5.85
   6  -3  -6   67.65    6.87
  -6   6  -3   53.20    4.20
  -3   6   6   51.66    5.15
   6  -6  -3   48.01    5.61
   3  -6  -6   54.06    5.71
   6   3   6   62.01    5.67
   3   6   6   50.51    5.47
  -6  -3   6   55.03    5.28
  -6   6   3   47.35    5.00
  -6   6  -3   47.94    5.53
  -6   6   3   54.25    5.29
   6   6   3   50.88    4.66
  -6   3  -6   60.50    6.53
  -6  -6   3   51.68    5.17
  -6  -4   6  303.77   13.84
   4  -6  -6  308.66   11.90
  -4  -6  -6  304.56   13.93
  -6  -6  -4  312.10   12.90
   6  -6  -4  319.34    9.92
  -6  -6   4  290.63   10.88
  -6   4   6  290.83   13.67
  -6  -6   4  311.73   12.28
  -6   6   4  284.68   11.95
   6   4  -6  303.11   14.10
  -6   6   4  265.37   14.07
  -6   4   6  303.17   14.79
   4   6  -6  302.91   14.50
   6   6  -4  295.35   14.18
  -6   4   6  299.33   14.39
   6  -6  -4  307.32   13.01
  -4   6   6  315.49   12.93
  -6  -4  -6  297.80   14.45
  -4  -6  -6  305.55   13.15
  -6  -4   6  296.12   14.47
   4  -6   6  299.51   13.44
   4  -6  -6  307.51   11.32
  -6  -6   4  289.39   12.10
  -6   6   4  274.06   11.88
  -4  -6   6  290.39   12.49
  -6  -4   6  320.37   11.34
  -6  -6  -4  312.03   14.68
   6  -4   6  288.54   12.03
   6  -4  -6  294.19   13.30
   4  -6   6  300.06   13.01
   6  -4   6  319.94   13.13
   6   4  -6  301.03   15.24
   6   6  -4  302.36   14.18
   4   6   6  301.03   14.34
   6   4   6  294.09   14.27
   4   6  -6  295.78   14.81
   6  -6   4  290.98   10.59
  -6  -6  -4  300.56   15.78
  -6  -4  -6  292.90   16.69
  -4   6  -6  295.13   13.36
  -6   6  -4  287.35   11.60
  -6  -6  -4  297.38   11.65
  -6  -4  -6  306.49   15.31
  -4  -6  -6  291.43   13.10
  -4  -6  -6  295.83   15.94
  -6   4  -6  300.06   15.35
   4  -6   6  293.83   13.76
   6  -6  -4  297.48   11.52
  -4  -6   6  293.14   14.11
  -6  -4   6  308.54   14.12
   6  -6   4  288.61   14.24
  -6   4   6  307.46    9.48
   4   6   6  290.63   13.59
   6   4   6  316.05   13.15
  -6   6   4  304.99    9.36
   4  -6  -6  312.74   14.55
   6  -6  -4  281.06   13.87
   6  -4  -6  296.85   14.60
  -4   6   6  312.42   12.03
  -6   6  -4  296.74   10.04
   6   4   6  320.62   10.52
  -6  -4   6  299.54   12.11
  -6   6  -4  278.13   14.27
  -6  -6   4  301.27   12.84
   6   6   4  297.86   11.44
  -4   6   6  322.90   15.22
   4   6   6  307.54   13.02
  -6   6   4  315.10   13.47
  -6   6   4  301.43   12.78
  -5   6   6   20.98    3.39
  -6   5   6   25.99    4.06
  -6  -5   6   19.88    3.44
  -5  -6   6   19.00    3.20
  -6  -6  -5   26.28    3.91
  -5  -6   6   18.16    2.88
  -6  -5   6   21.10    2.96
  -6  -6   5   23.61    3.17
  -6   6   5   25.05    3.65
  -6  -6   5   21.56    3.39
   5   6  -6   23.01    4.23
  -5  -6  -6   17.58    3.44
   6   5  -6   19.91    3.80
   6   6  -5   20.38    3.78
  -6   5   6   24.38    4.38
  -6   6   5   25.85    4.69
  -6   5   6   23.12    4.03
  -6  -6   5   25.38    3.86
  -5   6   6   19.32    3.28
  -6   6   5   22.10    3.81
  -6  -5  -6   21.53    3.94
  -6  -6   5   18.77    3.18
  -6   5   6   27.07    4.07
   6  -6  -5   21.43    3.42
   6  -5  -6   22.73    3.60
  -6   6   5   20.61    3.34
  -6  -5   6   22.31    3.82
  -5  -6   6   20.90    3.45
  -5   6   6   22.45    3.46
  -6  -5   6   23.42    4.02
  -6  -5   6   23.07    3.32
   6  -5   6   23.42    3.56
  -5  -6   6   19.00    3.36
  -6  -6  -5   23.98    4.08
  -5  -6  -6   22.65    3.89
   5  -6  -6   18.99    3.17
   6   5  -6   23.20    4.18
   6   6  -5   21.70    4.09
   5  -6   6   19.98    3.35
   5   6  -6   19.90    3.81
   6   5   6   17.98    3.89
   5   6   6   19.40    3.88
   6  -5   6   23.23    3.53
   6  -6   5   23.54    3.30
  -5  -6  -6   23.65    3.84
  -5  -6  -6   19.09    4.26
  -5   6  -6   21.27    3.67
  -6  -6  -5   19.73    4.36
  -6  -5  -6   22.58    4.09
  -6   6  -5   21.51    3.81
  -6  -6  -5   20.20    3.67
  -6   6  -5   20.69    4.09
  -6  -6  -5   22.54    3.30
  -6   5  -6   19.20    3.94
  -6   5  -6   23.50    3.80
  -6  -5  -6   22.90    3.68
  -6   6  -5   24.53    3.55
  -6  -5  -6   21.47    4.59
  -6  -6   5   19.56    3.96
  -5  -6   6   19.01    3.85
  -6  -5   6   24.10    4.27
   5  -6   6   18.97    3.40
   6  -6   5   20.36    3.86
   6   5   6   22.39    3.73
  -6   6  -5   22.93    2.82
  -6   5  -6   23.82    2.68
   6  -5  -6   20.59    4.06
   5  -6  -6   26.04    4.45
  -6   5   6   22.46    2.76
   5   6   6   16.32    3.21
  -6   6   5   21.67    2.69
  -5   6   6   22.43    3.12
  -6   5   6   27.82    4.40
  -6   6  -5   21.09    2.21
  -5   6   6   18.58    3.78
  -6   5  -6   24.28    4.60
  -6   6   5   24.52    3.79
  -6  -6   5   25.36    3.73
   6   5   6   23.10    3.02
   5   6   6   21.19    3.34
   6   6   5   21.15    3.11
  -5   6  -6   21.46    4.06
  -6   6   5   23.77    4.05
  -6  -6   6  258.68   10.92
  -6  -6   6  247.44   12.06
  -6   6   6  264.59   12.62
   6   6  -6  265.96   14.25
  -6   6   6  276.33   15.01
  -6  -6   6  258.61   12.98
  -6  -6  -6  266.31   13.99
  -6   6   6  256.98   12.96
  -6  -6   6  267.36   12.61
  -6   6   6  263.16   12.62
   6  -6  -6  277.10   12.70
   6  -6   6  263.62   12.07
   6   6  -6  268.93   14.78
  -6  -6  -6  264.75   16.12
  -6   6  -6  244.41   13.36
  -6  -6  -6  251.08   13.28
  -6   6  -6  274.32   12.29
  -6  -6  -6  251.93   11.69
  -6  -6   6  265.64   14.45
  -6   6   6  268.48    9.96
  -6   6  -6  268.07    9.86
   6   6   6  270.14   13.31
   6   6   6  265.27   11.36
  -6   6  -6  287.50   15.35
  -6  -6   6  265.73   13.04
  -6   6   6  270.06   13.76
   7   0   0  322.53    7.72
   0   7   0  325.35   11.36
   0   0   7  309.18    7.33
   0   0   7  313.30   11.92
   0   0  -7  310.90   11.82
  -7   0   0  335.54   13.22
   7   0   0  344.40   10.20
   0   7   0  329.46   13.18
   7   0   0  329.17    9.69
   0   0  -7  310.81   12.46
   0  -7   0  328.58   11.97
  -7   0   0  327.75   13.13
   1  -7   0   67.09    5.32
  -1  -7   0   63.98    5.30
  -7   0   1   62.60    5.78
  -7   0  -1   65.71    5.89
   0  -1   7   71.80    2.89
   7   0   1   64.09    3.56
  -1   7   0   65.30    4.75
   7   0  -1   64.00    3.55
   1   7   0   61.48    5.21
   7   0  -1   67.08    5.83
   0   1   7   71.31    3.18
  -1  -7   0   68.77    3.70
   0   1   7   68.14    5.59
   0  -1  -7   69.95    5.18
   0   1  -7   67.76    5.76
  -7   0  -1   64.09    5.71
  -1  -7   0   68.69    4.44
  -7   0  -1   69.10    6.04
   7   0   1   68.13    4.93
   0  -1   7   75.97    4.65
   7   0  -1   64.77    3.95
   1  -7   0   62.59    5.60
   0  -1  -7   65.27    5.64
   1   7   0   68.37    6.01
   7   0  -1   64.49    4.59
  -7   0   1   63.39    6.28
   7   0  -1   67.71    2.83
  -7   0  -1   65.74    5.82
  -7   0   1   61.96    5.84
   7   0   2 2076.19   15.40
  -7   0   2 2134.08   34.53
   2  -7   0 2108.60   29.69
  -7   0  -2 2110.06   33.83
   2   7   0 2192.42   32.18
   7   0  -2 2070.38   21.71
  -2   7   0 2012.84   24.17
   7   0  -2 2085.99   33.65
  -7   0   2 2099.17   34.47
  -2  -7   0 2134.89   19.81
   7   0   2 2035.01   27.10
   0  -2  -7 2143.33   26.57
   0   2  -7 2089.54   33.90
   0   2   7 2112.96   30.50
  -7   0  -2 2078.67   32.88
   0   2  -7 2151.99   28.62
  -2  -7   0 2074.80   24.51
  -7   0  -2 2175.69   38.58
   0  -2   7 2153.14   25.11
   7   0  -2 2108.11   19.49
  -2  -7   0 2147.64   32.24
   2  -7   0 2093.70   32.56
   0  -2  -7 2169.34   31.85
   2   7   0 2117.72   33.65
   7   0  -2 2014.24   27.89
   7   0   2 2124.51   16.56
  -2   7   0 2117.35   33.02
  -7   0  -2 2134.38   32.76
   0  -2  -7 2175.80   17.88
  -7   0   2 2120.55   36.03
   7   0  -2 2053.51   19.66
  -7   0   3   -0.13    0.65
   3  -7   0    0.26    0.82
  -3  -7   0    1.18    0.55
  -3   7   0    0.36    0.31
   7   0  -3    0.18    0.39
  -7   0   3    0.97    0.29
  -3  -7   0    0.55    0.25
  -7   0   3   -0.13    1.44
   0  -3   7    0.35    0.48
   0  -3  -7    0.49    0.31
   7   0  -3    0.63    0.88
   3   7   0    0.11    0.16
   7   0   3    1.01    0.74
  -3   7   0    0.69    0.37
   0   3   7    0.29    0.40
  -7   0  -3    0.12    0.34
  -3  -7   0    1.08    0.79
   0   3  -7    0.06    0.45
   0  -3   7    0.84    0.62
   7   0  -3   -0.26    0.23
   0  -3   7    0.59    0.61
  -3  -7   0   -0.45    0.47
   3  -7   0    1.14    1.10
   7   0  -3    0.76    0.69
   7   0   3    0.22    0.42
   0  -3  -7    1.32    1.13
  -3  -7   0    0.25    0.38
  -3   7   0    0.42    0.50
   0   3   7    0.47    1.33
   3   7   0    2.31    1.49
  -3   7   0    1.09    0.72
  -7   0   3    0.56    0.71
  -7   0  -3    0.11    0.71
  -4  -7   0  660.08   17.52
   4  -7   0  649.97   16.11
  -7   0   4  658.02   20.32
   0   4  -7  634.45   19.18
   7   0  -4  667.77   14.94
  -4   7   0  666.68   10.64
   4   7   0  674.06   19.55
   4   7   0  671.99   11.44
  -7   0   4  681.73   21.81
   0  -4   7  640.28   19.07
  -7   0   4  638.88   20.50
   7   0  -4  666.61   20.55
   0   4  -7  535.64   18.98
  -4   7   0  679.23    9.34
   0   4   7  640.76   16.89
   0  -4   7  618.07   19.20
   7   0   4  668.78   17.87
   0  -4  -7  648.04   11.94
   4   7   0  662.69   13.06
  -4  -7   0  650.12   15.87
  -7   0  -4  696.48   20.11
  -7   0  -4  658.62   22.32
   0   4  -7  630.20   11.17
  -7   0  -4  664.97   19.60
   4  -7   0  670.75   19.19
  -4  -7   0  655.03   19.61
   0  -4   7  620.83   14.88
   4   7   0  647.63   18.77
   7   0   4  672.96   13.66
   0  -4  -7  656.68   17.40
  -4   7   0  688.75   18.25
   7   0  -4  655.16   18.19
  -4  -7   0  672.40    9.66
  -4   7   0  652.42   16.48
  -7   0   4  673.68   21.44
   0   4   7  630.75   19.67
  -5  -7   0  174.80    9.19
   5  -7   0  162.76    7.70
  -7   0   5  148.53   10.05
   0   5  -7  177.34   10.38
   5   7   0  159.99    9.91
   7   0  -5  158.52    8.00
   0  -5  -7  173.73    6.12
  -7   0   5  150.10   10.60
   7   0  -5  140.23    9.87
   0  -5   7  164.41   10.23
  -7   0   5  156.06   10.41
  -5  -7   0  150.44    9.80
   0  -5  -7  168.04    4.73
   5   7   0  153.64    6.72
   0   5  -7  178.12   11.39
   0  -5   7  164.35   10.16
   7   0   5  151.43    9.08
   0   5   7  164.43    8.69
  -7   0  -5  159.83   11.52
  -5  -7   0  155.05    8.33
  -7   0  -5  152.30    9.71
  -7   0  -5  151.32   11.22
   5  -7   0  158.25    9.60
   0  -5   7  166.74    8.24
  -5  -7   0  160.10   10.12
   7   0   5  152.28    7.38
   5   7   0  166.16    9.43
   0   5   7  167.04    9.77
   0  -5  -7  168.22    8.81
   7   0  -5  151.99    9.38
  -7   0  -5  157.09    9.77
   0   5   7  168.47   10.56
  -5   7   0  167.05    8.88
  -5   7   0  161.89    8.73
  -7   0   6  209.05   12.44
   0  -6  -7  205.26   11.56
  -6  -7   0  223.21   10.76
   6  -7   0  215.35    8.52
  -6   7   0  209.98   11.09
   6   7   0  210.35   11.71
   7   0  -6  219.41   10.13
   0   6  -7  196.64   11.20
   0   6  -7  207.55   10.59
  -7   0   6  205.63   12.70
  -7   0   6  204.02    6.88
   0  -6   7  209.16   11.99
  -7   0   6  204.96   12.62
   0  -6  -7  213.23    7.43
   0   6  -7  230.33   13.52
   0   6   7  211.38   10.00
   7   0   6  203.64   11.22
   6   7   0  225.90    8.57
   0  -6   7  207.80   11.82
  -7   0  -6  210.50   13.58
  -7   0  -6  200.79   13.58
  -6  -7   0  213.32   10.48
   6  -7   0  214.22   11.48
   0  -6   7  199.73    9.40
  -6  -7   0  219.44   12.57
   7   0   6  209.84    9.45
   6   7   0  212.51   10.54
   0   6   7  208.45   11.36
   0  -6  -7  199.33    9.85
   7   0  -6  220.02   12.04
  -7   0  -6  219.75   11.73
  -6   7   0  212.20    9.76
   0   6   7  198.52   11.96
  -6   7   0  210.83   10.50
   0  -7   1  117.55    7.19
  -7   1   0  118.99    7.90
   0  -7  -1  112.29    7.12
   0   7  -1  107.12    6.54
   7   1   0  117.66    5.57
   0   7   1  117.40    6.84
   7  -1   0  120.25    3.40
  -7  -1   0  115.33    7.42
   7   1   0  111.26    7.18
  -1   0   7  135.91    4.08
  -1   0  -7  141.72    7.79
  -1   0   7  133.21    7.61
   7  -1   0  124.29    5.33
   0  -7  -1  116.42    4.55
   1   0  -7  128.95    7.63
  -7   1   0  115.17    7.74
  -1   0  -7  137.87    8.61
   7  -1   0  117.56    6.17
  -1   0   7  138.45    4.56
   0  -7  -1  117.49    7.68
   1   0   7  129.34    7.96
   0   7   1  111.56    7.76
  -1   0   7  135.44    7.82
   7   1   0  124.79    2.99
   7   1   0  117.36    5.25
   7   1   0  111.28    2.78
   1  -7  -1   20.03    2.93
   7   1   1   19.62    1.24
   1  -7   1   16.87    2.64
  -7   1   1   20.80    3.33
  -1  -7   1   21.87    3.09
  -7   1  -1   21.95    3.46
  -1  -7  -1   19.73    2.99
   1   1  -7   21.36    3.46
  -1  -1   7   19.58    1.82
   7   1   1   19.33    2.27
   7  -1  -1   21.10    1.53
  -1   7   1   20.66    2.69
   7  -1   1   21.44    1.56
  -1   7  -1   21.35    2.76
   7   1  -1   19.70    2.31
   1   7  -1   18.53    2.88
   1   7   1   19.72    2.98
  -7  -1   1   21.82    3.14
  -7  -1  -1   20.96    3.42
   7   1  -1   21.32    3.19
  -1  -7  -1   18.73    1.62
  -1  -1  -7   20.76    2.75
   7  -1   1   21.49    2.48
  -1   1   7   21.79    3.01
  -1   1  -7   17.07    2.82
   1  -1  -7   19.68    2.82
   1   1  -7   19.29    3.18
  -1  -1   7   18.85    2.97
   1   1   7   21.39    3.23
  -7  -1  -1   20.40    3.38
  -7   1  -1   25.54    3.55
  -7   1   1   21.09    3.24
  -1   1  -7   20.22    2.99
  -7   1  -1   22.63    3.45
  -1  -7   1   19.37    1.81
   7   1  -1   23.08    2.40
  -1  -1   7   18.22    2.03
   7  -1   1   21.09    2.87
   1  -7  -1   18.74    3.09
  -1  -7   1   21.42    3.09
   7  -1  -1   20.94    2.36
  -1  -1   7   20.00    2.19
   1  -1  -7   19.07    3.11
  -1   7  -1   21.94    3.35
   1  -1   7   18.34    3.05
   7  -1  -1   19.29    1.56
  -1  -1   7   20.49    3.04
   7   1   1   22.35    2.12
   7   1  -1   23.03    2.54
   7   1   1   20.92    1.46
   7  -1  -1   20.41    2.72
   1   1   7   19.29    3.08
   1   7   1   20.74    3.36
   1   7  -1   20.94    3.31
  -1   1   7   19.05    2.99
  -7   1  -1   21.80    3.31
  -1  -1  -7   18.27    2.20
  -7  -1   1   24.20    3.68
   1  -1   7   18.95    1.25
  -7  -1   1   20.22    3.66
   7   1  -1   21.38    1.77
   7  -1   2   17.38    1.37
   7   1   2   18.65    1.57
  -7   1  -2   16.64    2.89
   2  -7   1   15.79    2.72
  -7   1   2   16.62    3.18
   2  -7  -1   16.51    2.63
  -2   7  -1   20.95    2.48
  -2   7   1   17.61    2.24
   7  -1   2   16.63    1.51
   7  -1  -2   18.42    1.67
   2   7   1   18.00    3.01
   1   2  -7   12.80    2.74
   2   7  -1   17.20    2.99
   7   1  -2   17.98    2.37
  -7  -1   2   16.88    2.50
   7  -1  -2   16.78    3.14
  -7   1   2   20.47    3.42
  -2  -7  -1   18.92    1.52
   7  -1   2   18.11    1.41
   7   1  -2   21.92    3.44
   2   7  -1   17.16    2.38
   7  -1   2   17.51    2.40
   1  -2  -7   13.55    2.21
   1   2  -7   15.59    2.88
  -1   2  -7   14.29    2.74
   1  -2   7   14.69    2.76
  -1   2   7   12.22    2.18
   7  -1  -2   16.60    1.51
   1   2   7   14.57    2.60
  -1  -2  -7   12.53    2.10
  -1   2  -7   13.31    2.31
  -7   1  -2   17.79    3.03
  -2  -7  -1   17.72    2.57
  -2  -7   1   20.07    1.96
  -7  -1  -2   19.43    3.74
  -7   1  -2   18.09    3.24
   2  -7  -1   17.70    3.16
   7  -1   2   19.92    2.90
   7   1  -2   17.84    1.74
  -1  -2   7   11.92    1.78
   1  -2   7   13.10    2.09
   7  -1  -2   15.92    1.79
  -2  -7   1   20.63    3.35
  -2  -7  -1   18.31    2.86
   2  -7   1   16.75    3.19
  -2   7   1   17.72    3.07
   2   7  -1   17.21    3.11
  -2   7  -1   21.93    3.29
  -1  -2  -7   13.48    2.43
  -2  -7   1   16.42    2.68
   1  -2   7   13.53    2.69
   2   7   1   23.72    3.57
   7   1   2   17.94    1.73
   7  -1  -2   18.00    2.73
  -1   2   7   13.21    2.48
   1   2   7   15.93    2.84
   7   1  -2   17.44    2.38
   7   1   2   19.19    1.87
   1  -2  -7   15.68    2.89
  -7  -1   2   16.97    3.21
  -1  -2   7   12.74    1.09
  -7   1  -2   16.03    2.94
  -1  -2  -7   14.08    1.66
  -7  -1  -2   17.65    3.15
  -7  -1   2   21.43    3.72
   7  -1  -2   16.26    1.71
  -3  -7  -1  132.42    8.06
  -7   1   3  131.10    8.80
   3  -7   1  128.81    7.29
   3  -7  -1  130.97    7.34
  -3  -7   1  126.06    7.57
   3   7  -1  127.63    3.79
  -1   3  -7  138.46    8.67
   7  -1  -3  131.86    5.27
  -3   7   1  129.72    5.60
   7   1  -3  137.63    6.72
  -3   7  -1  133.32    5.79
  -7  -1   3  130.09    6.90
  -7  -1   3  122.60    9.03
   7  -1  -3  127.11    8.74
  -7   1   3  127.54    8.80
   7   1  -3  136.62    8.98
  -1   3   7  138.60    7.45
  -1   3  -7  123.13    8.66
  -1  -3  -7  141.78    6.01
   7   1   3  123.90    7.51
   1  -3  -7  135.71    6.65
   1   3   7  135.20    8.20
  -3   7   1  128.26    4.35
   7  -1   3  128.67    7.15
   1  -3   7  138.89    8.79
   3   7  -1  126.27    6.42
  -3  -7   1  133.75    5.60
  -3  -7  -1  130.29    7.43
   1   3  -7  135.72    6.24
  -1   3  -7  132.54    6.66
  -1  -3  -7  135.00    3.65
  -7  -1  -3  129.20    9.65
  -7  -1  -3  127.01    8.41
  -7   1  -3  124.63    8.19
  -3  -7  -1  131.42    7.99
   7  -1  -3  132.61    4.33
   7  -1   3  129.11    7.95
   3  -7   1  135.97    8.58
  -1  -3   7  133.03    5.92
   1  -3   7  136.81    7.14
   3  -7  -1  134.92    8.34
   7   1  -3  126.37    2.84
  -3  -7   1  124.55    8.37
  -1  -3  -7  136.17    7.59
   1   3   7  128.27    8.31
   7   1   3  130.54    5.56
  -1   3   7  142.04    8.36
   3   7  -1  136.71    8.75
   3   7   1  136.78    8.67
  -3   7  -1  131.65    7.98
   7   1  -3  130.60    7.32
   1  -3  -7  143.48    8.52
   7  -1  -3  132.45    7.94
  -7  -1   3  120.44    8.36
  -1   3   7  137.98    8.96
  -3   7   1  129.32    6.42
  -7   1  -3  134.62    7.89
  -7  -1   3  124.38    9.00
   1   3   7  142.76    8.66
  -3   7   1  139.28    8.54
  -4  -7  -1  142.50    8.69
   4  -7  -1  129.57    7.14
  -7  -1   4  132.12    3.12
  -7  -1   4  128.75    3.06
   4  -7   1  128.82    7.18
  -7   1   4  124.35    8.91
  -4  -7   1  125.22    5.02
  -4   7   1  125.93    5.08
  -4  -7   1  132.50    7.80
  -4   7  -1  127.02    4.87
   7  -1  -4  136.95    6.19
  -1   4  -7  131.15    8.71
  -4   7   1  127.20    4.71
   7   1  -4  138.66    7.29
   4   7   1  134.21    8.74
  -7   1   4  126.31    8.82
   4   7  -1  127.13    8.63
   4   7  -1  126.60    5.00
  -7  -1   4  134.35    6.59
   7   1  -4  137.61    9.35
  -7  -1   4  128.61    9.47
  -7   1   4  132.45    9.31
   1  -4   7  127.72    8.69
   7  -1   4  137.15    7.91
  -1  -4   7  120.18    8.42
   1  -4   7  122.81    8.58
   7   1   4  124.81    8.01
  -4   7   1  130.35    2.90
   1   4   7  133.36    8.28
   1  -4  -7  127.36    6.01
   1   4  -7  130.11    9.30
   4   7   1  133.88    4.55
   4   7  -1  126.42    6.62
  -1   4   7  128.61    7.12
  -7  -1  -4  130.77   10.08
  -1   4  -7  122.76    5.56
  -7  -1  -4  131.72    8.67
  -4  -7  -1  132.43    7.89
  -7  -1  -4  134.48   10.21
   1   4  -7  127.60    4.61
  -7   1  -4  125.24    9.65
  -7   1  -4  130.13    8.66
  -4  -7   1  130.87    6.25
   4  -7   1  131.20    8.67
   7  -1   4  120.87    8.07
   1  -4   7  122.77    7.20
  -4  -7   1  121.26    8.62
  -1  -4   7  127.44    6.12
   4  -7  -1  127.62    8.36
  -4  -7  -1  124.29    8.23
   4   7   1  133.66    8.58
  -4   7  -1  127.32    7.69
   7  -1   4  131.69    6.00
   7  -1  -4  130.01    8.38
   4   7  -1  123.32    8.28
   7   1   4  133.83    6.37
  -4  -7  -1  126.86    3.04
   1  -4  -7  131.80    8.18
   7   1  -4  133.98    8.00
  -1   4   7  127.81    8.15
  -1  -4  -7  130.83    7.38
  -1   4   7  128.87    9.02
  -7  -1   4  127.62    8.72
  -4   7   1  129.41    8.11
  -4   7  -1  128.01    7.89
   1   4   7  126.39    8.45
  -7  -1   4  132.14    9.50
  -4   7   1  131.83    6.90
   5  -7   1   12.23    2.15
  -5  -7  -1   15.80    2.82
  -5  -7   1   12.63    1.90
  -7   1   5    0.15    3.11
  -5  -7   1   14.34    2.49
  -5   7   1   13.51    2.03
   5  -7  -1   15.45    2.35
  -1   5  -7   16.17    2.88
  -5   7  -1   13.89    0.94
  -5   7   1   12.27    0.83
  -1   5  -7   16.54    3.15
   5   7  -1   12.33    2.89
  -5   7  -1   13.74    2.52
   5   7   1   12.08    2.55
   1   5  -7   12.22    2.67
  -7   1   5   13.60    2.87
   7   1  -5   15.71    2.59
  -1  -5  -7   18.11    3.37
  -7  -1   5   13.66    1.88
  -1  -5  -7   18.48    2.34
  -7   1   5   14.08    1.36
  -7   1   5   12.59    2.97
  -7  -1   5   12.78    3.07
   1  -5   7   14.80    3.16
  -5  -7  -1   13.20    2.86
   1   5   7   15.69    2.82
   1   5  -7   14.73    3.26
   7   1   5   18.08    3.29
   7  -1   5   12.68    2.52
   7   1  -5   15.23    3.23
   1  -5  -7   15.76    1.84
   5   7  -1   13.08    2.32
  -1   5   7   16.61    2.59
   5   7   1   12.97    1.58
  -7   1  -5   11.92    2.94
  -7   1  -5   16.78    3.38
  -7  -1  -5   12.45    3.41
  -5  -7  -1   11.97    2.61
  -7   1  -5   13.67    3.53
  -5   7  -1   13.55    2.85
  -7  -1  -5   12.22    2.65
  -5  -7   1   16.25    2.45
  -1  -5   7   19.27    2.56
  -5  -7  -1   13.09    2.87
   5  -7   1   21.34    3.57
   1  -5   7   17.59    3.24
   5  -7  -1   15.39    2.96
   1  -5   7   14.29    2.52
   7  -1   5   11.84    2.66
  -1  -5   7   14.05    3.10
  -5  -7   1    9.62    2.56
   7  -1  -5   13.45    2.90
   1  -5  -7   14.05    2.71
   7  -1   5   13.40    2.11
   7   1  -5    9.78    2.42
   5   7  -1   16.32    2.94
   7   1   5   14.04    2.36
  -1  -5  -7   15.58    2.65
  -1   5   7   14.05    2.78
   5   7   1   14.37    2.83
  -1   5   7   15.93    3.42
  -5   7  -1   15.44    2.62
  -5   7   1   15.21    2.51
   1   5   7   14.22    2.89
  -5   7   1   10.36    2.33
  -7   1   6   47.57    5.92
   1  -6  -7   48.31    5.43
  -6  -7  -1   46.49    4.78
   6  -7   1   41.35    3.80
  -6   7   1   49.02    4.27
  -1  -6  -7   52.11    5.82
   6  -7  -1   54.72    4.45
  -6  -7   1   49.60    4.81
  -6  -7   1   43.09    4.00
  -7   1   6   46.79    5.58
   6   7   1   44.33    5.34
   7   1  -6   43.56    4.73
  -1   6  -7   42.53    5.14
   1   6  -7   43.96    5.45
  -6   7  -1   44.77    4.89
  -6   7   1   46.62    5.58
   6   7  -1   43.57    5.27
  -1   6  -7   50.78    5.19
  -1  -6  -7   48.41    5.21
  -7  -1   6   47.66    6.18
  -7   1   6   48.78    3.16
   7   1  -6   49.21    6.18
  -7   1   6   55.39    6.49
   7  -1  -6   49.08    5.92
   1  -6   7   49.37    5.84
  -6  -7  -1   48.17    5.75
  -1  -6  -7   50.75    4.14
   1   6  -7   44.16    5.75
   7   1   6   48.55    5.54
   1  -6  -7   52.41    2.71
  -1   6   7   49.87    4.52
   1   6   7   49.55    5.22
   6   7  -1   48.89    4.48
   1  -6   7   50.95    5.80
   7  -1   6   49.62    5.39
  -7   1  -6   47.18    6.22
  -6  -7  -1   49.19    5.40
  -7  -1  -6   48.16    6.50
  -7  -1  -6   56.22    7.09
  -7  -1  -6   51.77    5.49
   6  -7   1   45.09    5.41
  -1  -6   7   52.27    4.53
   7  -1   6   51.46    5.66
  -1  -6   7   44.86    5.56
   1  -6   7   51.23    5.07
   6  -7  -1   41.83    4.89
  -6  -7   1   43.80    5.64
  -6  -7  -1   45.60    5.58
  -1   6   7   49.57    5.50
   6   7  -1   44.53    4.98
   7  -1   6   50.60    4.57
  -1  -6  -7   49.92    4.65
   1  -6  -7   53.64    5.39
   7  -1  -6   47.07    5.73
   6   7   1   51.53    5.21
   7   1  -6   52.78    5.94
   7   1   6   50.12    4.68
  -6   7  -1   46.68    5.20
  -1   6   7   47.07    6.10
  -7   1  -6   54.15    6.01
  -6   7  -1   43.75    4.28
  -6   7   1   43.25    4.62
   1   6   7   46.73    5.72
  -6   7   1   48.26    4.76
   0  -7  -2   40.52    4.43
  -7   2   0   36.25    4.29
   0  -7   2   36.14    4.04
  -7  -2   0   37.20    4.35
   0   7  -2   37.90    3.99
  -2   0   7   46.91    3.65
   7   2   0   39.26    3.63
  -2   0  -7   48.93    5.71
   7   2   0   39.51    4.26
  -2   0   7   46.70    1.61
   7   2   0   40.64    2.19
  -7  -2   0   37.99    4.43
   0  -7  -2   39.04    2.19
   2   0  -7   40.34    4.50
   7  -2   0   42.04    2.69
  -2   0   7   48.88    4.56
  -2   0  -7   50.09    5.42
  -7   2   0   42.72    4.69
   7  -2   0   42.38    3.92
   0  -7   2   40.45    4.28
  -2   0   7   48.46    2.89
  -2   0   7   46.54    4.52
   2   0   7   49.94    4.96
   0   7   2   35.07    4.50
   7   2   0   39.33    2.62
   7   2   0   42.64    2.55
  -2   0  -7   46.27    4.00
   2   0   7   45.52    2.84
  -7  -2   0   43.17    4.99
  -1  -7  -2 1414.18   27.14
  -7  -2   1 1246.03   10.17
  -7  -2  -1 1290.63   25.73
  -7   2  -1 1291.17   25.98
   1  -7   2 1288.61   24.04
  -1  -7   2 1227.42   23.55
   7   2   1 1282.35   12.72
  -7  -2   1 1260.54   25.83
  -7   2   1 1285.10   26.17
   1  -7  -2 1332.49   25.12
  -1   7  -2 1253.77   21.65
   2   1  -7 1246.97   26.58
   1   7  -2 1309.40   24.57
   7   2  -1 1263.61   20.46
   7   2   1 1311.44   21.12
  -2  -1   7 1278.41   17.31
  -2  -1  -7 1257.96   28.54
   7   2   1 1295.85   22.91
  -7  -2  -1 1194.16   25.47
   7   2  -1 1297.46   25.06
  -7  -2   1 1300.69   24.77
   2  -1   7 1226.70   25.27
  -2  -1   7 1238.97   23.91
   7  -2  -1 1303.46   12.24
   7  -2  -1 1273.78   11.55
   7  -2   1 1271.41   17.03
   2  -1  -7 1277.33   24.37
  -2   1   7 1255.21   22.34
   2   1  -7 1282.47   26.31
   1  -7  -2 1278.86   15.34
   1  -7   2 1325.77   13.18
  -7   2   1 1285.63   25.05
  -2  -1  -7 1283.62   28.49
  -7   2  -1 1278.72   26.22
  -2   1  -7 1231.02   24.93
  -7  -2  -1 1300.26   29.31
  -1  -7   2 1266.12   23.82
  -2  -1   7 1257.62   17.88
   7  -2  -1 1231.33   19.64
  -2  -1   7 1263.04   13.84
   1  -7   2 1089.95   22.94
   7  -2   1 1312.52   23.22
  -2   1   7 1309.07   15.03
  -1  -7  -2 1250.96   21.99
   1  -7  -2 1304.13   25.92
   7  -2  -1 1274.53   22.91
   1   7   2 1292.90   27.25
   7  -2  -1 1228.21   13.11
   2   1  -7 1257.66   27.00
   2  -1   7 1245.96   24.92
  -2  -1   7 1229.07   23.63
  -1   7  -2 1317.88   26.32
   2   1   7 1249.11   25.27
   7   2   1 1293.30   12.54
   7   2   1 1288.15   14.88
   7   2  -1 1262.06   17.37
  -2   1   7 1263.63   23.59
   7   2  -1 1277.64   15.06
  -7  -2   1 1260.56   26.79
   7   2   1 1263.42    9.45
  -7  -2   1 1267.80   27.91
  -2  -1  -7 1258.10   19.39
  -7   2   1 1242.91   27.32
   2  -7  -2  123.38    7.66
  -7   2   2  111.86    7.80
  -7  -2   2  115.93    2.99
   2  -7   2  114.42    7.06
  -2  -7   2  110.79    2.71
  -7  -2   2  111.60    7.84
  -2   7   2  113.03    3.04
  -7   2   2  112.04    8.00
   2   2  -7  116.76    8.23
   7  -2   2  103.91    2.68
  -2   7  -2  111.41    6.08
   7  -2   2   98.52    2.63
   7   2  -2  108.19    6.25
  -2   2  -7  113.28    8.51
  -2  -2  -7  129.96    9.15
   2   7  -2  107.75    7.49
   2   7   2  113.81    2.87
   2  -7   2  109.52    2.90
  -7  -2   2  117.88    8.09
  -7   2   2  114.44    7.92
   7   2  -2  114.56    7.82
  -7  -2   2  108.06    6.83
   2   7  -2  115.04    6.78
   2  -2   7  118.79    8.05
  -2   2   7  120.76    6.72
   7  -2  -2  114.69    2.89
   2  -2  -7  111.70    6.87
  -2  -2   7  122.85    7.84
   2   2   7  116.79    7.85
   7  -2   2  107.08    5.63
  -7   2  -2  107.83    7.42
  -7  -2  -2  113.39    7.64
  -2  -2  -7  122.07    9.19
   2  -7  -2  113.60    3.15
   2   7  -2  109.01    3.01
  -2  -7  -2  118.88    7.55
  -2   2  -7  119.64    7.30
   2  -2  -7  119.41    3.89
  -7   2   2  117.12    7.40
  -7  -2  -2  112.53    7.78
  -7  -2  -2  109.50    8.76
   7  -2  -2  111.58    5.37
   2  -2   7  121.88    7.12
   7  -2   2  115.20    7.29
   2  -7  -2  119.86    7.81
  -2  -7   2  116.02    7.04
  -2  -2   7  120.31    4.42
  -2  -2   7  123.84    6.44
  -2  -7  -2  107.86    6.65
   2   2   7  122.27    3.35
   2   2   7  114.97    7.74
   7   2   2  114.15    4.99
  -2   7  -2  107.27    7.39
   2  -2   7  121.68    7.99
   7  -2  -2  111.18    7.16
   2   7   2  120.98    8.33
   7   2  -2  113.06    5.96
   2  -2  -7  115.13    7.89
   7   2   2  111.78    2.91
  -2   2   7  123.72    7.53
  -2  -2   7  115.69    4.61
  -7   2  -2  109.42    7.24
  -2   7   2  113.82    5.03
  -7  -2   2  107.76    7.97
  -2   7   2  115.18    7.96
  -7  -2   2  107.82    8.18
  -7   2   2  117.14    8.56
  -7   2  -2  111.96    7.89
  -2  -2  -7  122.57    5.47
   3  -7   2  241.10    5.79
  -3  -7   2  251.75   10.73
  -3  -7  -2  254.78   11.42
   3  -7   2  236.60   10.23
  -7  -2   3  240.89    4.99
   3  -7  -2  273.48   11.37
  -3  -7   2  244.24    6.18
  -3   7   2  247.86    6.43
  -7  -2   3  250.37   12.15
  -7   2   3  242.21   11.96
  -3   7   2  240.87    8.10
   2   3  -7  230.29   11.81
   7   2  -3  244.36    9.74
  -7   2   3  243.16   12.09
  -3   7  -2  241.33    8.17
  -2   3  -7  238.97   12.39
  -2  -3  -7  237.64   12.38
   7   2  -3  249.08   12.26
  -7  -2  -3  235.43   12.35
   3   7   2  250.08    6.15
  -2  -3   7  237.87   11.10
  -7  -2   3  246.18   12.15
  -7   2   3  263.28   12.56
   7  -2   3  246.80    7.05
  -7  -2   3  249.61   10.04
  -2   3   7  234.24    9.16
  -2  -3   7  243.47   11.50
   2   3   7  241.30   11.44
  -3   7   2  246.24    5.55
   7  -2   3  241.48    9.41
   2  -3   7  231.66   11.45
   2  -3  -7  241.13    9.65
   3   7  -2  246.22    9.99
  -7   2  -3  243.37   11.53
  -7  -2  -3  253.71   11.70
  -7  -2  -3  243.56   13.55
  -2   3  -7  237.31    9.72
  -2  -3  -7  237.21    6.44
   3   7  -2  241.84    6.44
  -7  -2  -3  230.93   11.39
  -3  -7  -2  258.22   11.37
   3  -7   2  239.67   11.47
   3  -7  -2  247.02   11.44
   7  -2  -3  251.75    7.09
   7  -2   3  247.54   11.26
  -3  -7   2  237.51   11.82
   2  -3   7  243.53   10.33
   7   2  -3  235.56    4.05
  -2  -3   7  230.95    9.81
  -3  -7  -2  253.76   10.83
  -2  -3   7  234.21    6.71
  -2  -3  -7  240.96    9.58
  -3   7  -2  251.75   10.97
  -2   3   7  244.59   10.93
   3   7   2  257.54   12.06
   7   2   3  221.59    3.50
   7  -2  -3  244.87   11.35
   2   3   7  213.29   10.76
  -3  -7  -2  239.32    5.79
   2  -3  -7  233.98   11.30
   7   2   3  242.84    8.24
   7   2  -3  248.80    9.82
   2   3   7  241.27   10.78
  -2   3   7  228.82   11.91
  -7  -2   3  243.61   11.95
  -7   2  -3  256.65   10.81
  -3   7   2  261.24    7.02
  -7   2   3  237.19   12.48
  -7  -2   3  247.08   12.79
  -3   7   2  259.70    8.08
  -3   7   2  244.01   11.64
  -7   2  -3  258.81   12.46
   4  -7   2    0.55    0.85
  -7  -2   4    0.80    0.97
  -7   2   4    1.63    1.11
   4  -7  -2    1.61    0.88
  -7  -2   4    0.51    0.42
  -4  -7   2    9.82    1.61
   2   4  -7    1.87    0.65
  -4  -7   2   -0.10    1.29
  -4  -7  -2    3.44    1.85
  -2  -4  -7    1.04    1.45
  -4   7   2    0.68    0.44
  -2   4  -7    1.07    1.77
  -2  -4  -7    2.03    2.09
  -7   2   4   -0.68    1.10
   7   2  -4    1.43    0.72
  -2   4  -7    2.02    1.32
   4   7  -2    1.55    1.05
   2   4  -7    0.53    0.69
  -4   7  -2    1.33    0.61
  -4   7   2    0.97    0.52
  -7  -2   4    7.82    1.79
  -7   2   4    2.20    1.45
  -7  -2  -4    0.57    0.85
  -7  -2   4    1.09    0.70
  -7   2   4    2.48    1.47
   7  -2   4   -0.12    0.38
   2  -4   7    0.50    0.64
  -2  -4   7    1.68    1.35
  -7  -2   4    1.04    0.62
  -4  -7  -2    5.65    1.99
   7   2   4    1.17    0.77
  -2   4   7    5.11    1.35
   4   7  -2    1.21    0.65
   2   4  -7    1.62    1.52
   2   4   7    0.61    0.51
   2  -4  -7    0.68    0.60
   7  -2   4    0.75    0.81
   7   2  -4    0.28    0.42
  -7   2  -4    2.34    1.32
  -7   2  -4    2.09    1.75
  -7  -2  -4    0.17    1.22
  -7  -2  -4    1.68    1.26
  -7  -2  -4    0.65    1.68
  -4   7   2    1.41    0.63
  -4  -7  -2   11.99    2.87
  -7  -2  -4    0.86    1.13
  -2   4  -7    1.03    0.20
   2  -4   7    1.03    0.68
   4  -7   2    2.54    1.64
   4  -7  -2    0.35    0.87
  -2  -4   7    2.18    0.82
  -4  -7  -2    5.54    1.92
   7  -2  -4    0.18    0.22
   2  -4   7    0.25    0.38
   7  -2   4    1.34    0.77
  -4  -7   2   -0.55    1.38
  -2  -4   7    0.53    0.77
   2   4   7    0.12    0.67
  -2   4   7    1.33    0.66
   2  -4  -7    3.12    1.10
   7   2  -4    0.10    0.30
   7   2   4    0.60    0.50
  -2  -4  -7    2.09    1.06
   7  -2  -4    0.75    0.83
  -4   7   2    1.39    0.61
  -7   2   4    0.59    0.44
  -4   7  -2    0.59    0.35
   2   4   7    2.32    1.44
  -2   4   7    0.28    1.54
  -7  -2   4    2.56    1.34
  -4   7  -2    0.82    0.74
  -7  -2   4    3.84    1.64
   4   7   2    2.42    1.59
  -7   2  -4    0.28    1.21
  -4   7   2    1.30    1.08
  -5  -7   2 1493.70   21.64
   5  -7  -2 1630.04   24.45
  -7  -2   5 1535.08   16.68
  -5  -7  -2 1517.01   27.91
   5  -7   2 1528.05   24.65
  -5  -7   2 1579.70   27.00
  -5   7   2 1545.44   21.93
  -7  -2   5 1549.80   32.06
  -7   2   5 1483.64   31.90
  -5   7  -2 1565.80   25.74
  -2   5  -7 1548.25   30.52
  -5   7  -2 1512.15   13.88
  -2   5  -7 1551.60   29.62
   5   7   2 1528.61   30.92
   5   7  -2 1503.78   31.37
   7   2  -5 1540.66   27.45
  -7   2   5 1524.00   31.55
  -2  -5  -7 1543.77   30.67
  -2  -5  -7 1599.43   25.05
  -7  -2   5 1584.26   34.00
  -7   2   5 1534.86   33.54
   7  -2   5 1555.39   23.38
  -7   2   5 1501.86   13.31
   2  -5   7 1553.78   30.98
  -7  -2   5 1498.46   31.91
  -7   2   5 1484.20   32.28
  -2  -5   7 1536.93   30.43
  -5  -7  -2 1536.57   31.50
   7   2  -5 1518.40   33.08
   7  -2  -5 1535.75   31.78
  -7  -2   5 1498.84   22.28
  -2   5   7 1544.66   22.91
   2  -5   7 1505.94   31.03
   7   2   5 1421.66   29.27
   2   5   7 1534.34   30.07
   2  -5  -7 1536.18   21.83
   5   7  -2 1530.19   26.37
   2   5  -7 1457.68   33.02
   7  -2   5 1492.43   27.31
  -7  -2  -5 1513.44   36.40
  -5  -7  -2 1455.94   29.98
  -7   2  -5 1553.70   35.22
  -7  -2  -5 1545.42   35.33
  -7   2  -5 1512.95   30.82
  -7  -2  -5 1407.07   28.82
  -2  -5  -7 1550.22   36.55
  -7  -2  -5 1518.37   30.55
  -7   2  -5 1561.58   34.40
  -5  -7   2 1523.83   32.54
   5  -7   2 1495.31   30.98
   2  -5   7 1569.14   28.25
   7  -2   5 1513.43   30.51
  -2  -5   7 1567.11   20.85
  -2  -5   7 1542.72   29.42
  -5  -7  -2 1493.62   29.43
   5  -7  -2 1533.78   28.77
  -2  -5  -7 1559.42   23.59
   7   2  -5 1477.22   28.56
  -5   7  -2 1553.92   26.32
   5   7   2 1547.45   29.17
   2   5   7 1464.12   29.62
  -2   5   7 1581.68   29.31
   7  -2  -5 1509.09   31.12
   7   2   5 1580.01   25.48
   2  -5  -7 1538.55   29.62
  -7  -2   5 1496.10   29.76
  -5   7   2 1506.61   28.57
  -5   7  -2 1516.32   29.81
   2   5   7 1507.49   29.84
  -2   5   7 1531.29   33.26
  -5   7   2 1557.23   23.08
   6  -7  -2    2.10    1.16
  -6   7   2    3.11    1.13
  -7  -2   6    0.16    0.93
  -7   2   6    2.99    1.87
  -6  -7   2    1.60    0.78
  -2  -6  -7    1.38    1.61
  -6  -7  -2    2.01    0.66
  -6  -7   2    2.33    1.05
   6  -7   2    3.04    1.02
   6   7  -2    2.48    1.84
  -2   6  -7   -0.61    0.57
  -2  -6  -7    1.51    0.87
  -6   7   2    3.13    1.74
  -7   2   6   -0.89    0.54
  -2  -6  -7    1.91    1.20
  -2   6  -7    2.16    1.00
   7   2  -6   -0.48    0.25
   6   7   2    1.16    1.05
  -6   7  -2    2.07    0.75
  -6  -7  -2    0.31    0.65
  -7  -2   6    4.64    2.18
  -7  -2   6    0.17    0.36
  -7  -2   6    1.26    0.55
  -2  -6  -7    2.04    1.43
  -7   2   6    0.68    1.18
  -7   2   6    2.10    1.70
  -7   2   6    0.90    0.45
  -6  -7   2    1.00    0.30
   2  -6   7    3.36    1.84
  -2   6   7    1.61    0.96
   2   6   7    0.79    0.62
   6   7  -2    3.37    1.21
   7   2   6    2.82    1.70
   7  -2  -6    1.23    0.65
   7  -2   6    3.54    1.38
   2   6  -7    1.85    1.28
   7   2  -6    0.68    0.50
   2  -6  -7    0.28    0.20
  -6  -7  -2    1.17    1.15
  -7   2  -6   -0.17    0.95
  -7   2  -6   -0.31    0.85
  -7  -2  -6   -1.70    0.69
  -6   7   2    1.22    0.45
  -7   2  -6    1.89    1.73
  -6   7  -2    0.84    0.66
  -7  -2  -6    0.75    0.79
   6  -7   2    1.31    1.50
  -2  -6   7    1.87    0.87
   7  -2   6    2.31    1.25
   2  -6   7    1.85    1.47
  -6  -7   2    4.75    2.04
   2  -6   7    2.79    1.42
   6  -7  -2    2.42    1.48
  -2  -6   7    2.82    1.59
   7  -2  -6    3.86    1.80
   2   6   7    1.13    1.26
  -2  -6  -7   -0.08    0.23
   7   2  -6    2.50    1.43
   2  -6  -7    1.17    0.94
   7   2   6    0.73    0.38
  -2   6   7    1.15    1.34
  -6   7   2    3.70    1.63
   2   6   7   -0.14    0.79
  -2   6   7    2.00    1.44
  -7  -2   6    1.44    0.99
   6   7   2    3.46    1.26
  -6   7  -2    1.61    0.84
   0  -7  -3   29.49    3.85
   0  -7   3   21.67    3.25
  -7   3   0   21.51    3.29
   0  -7   3   24.33    1.38
  -7  -3   0   22.58    3.37
  -7  -3   0   22.51    2.06
   7   3   0   19.95    2.83
  -3   0   7   26.70    3.07
  -7   3   0   22.28    3.49
   0   7  -3   24.40    3.31
  -3   0  -7   24.81    4.21
  -7  -3   0   24.04    3.56
   7   3   0   23.15    3.23
   7  -3   0   19.66    1.34
  -3   0   7   27.38    3.33
   3   0  -7   24.38    3.72
   3   0   7   22.76    3.60
   0   7  -3   25.17    1.67
   0  -7  -3   22.77    1.65
  -7   3   0   17.09    3.09
  -3   0  -7   26.46    4.04
  -3   0   7   24.92    1.38
   0  -7   3   24.27    3.35
   7  -3   0   22.72    3.07
   0  -7  -3   24.19    2.73
  -3   0   7   24.98    1.35
  -3   0   7   24.60    3.24
   7   3   0   21.06    1.50
   0  -7  -3   24.52    2.89
   7   3   0   24.26    2.27
   3   0  -7   25.15    3.87
   3   0   7   26.27    3.64
   0   7   3   24.83    3.81
  -3   0  -7   22.21    3.07
   1  -7   3  278.71    5.26
   7  -3   1  280.30    4.97
  -7  -3   1  280.78   12.18
   1  -7  -3  293.33   12.03
  -7   3   1  269.36   11.86
  -1  -7  -3  293.12   12.30
   1  -7   3  270.81   11.32
  -7  -3   1  289.60    6.86
  -7  -3  -1  291.79    8.07
  -1   7   3  271.69    5.78
  -7   3  -1  260.38   11.64
  -7  -3  -1  272.08   11.78
  -1  -7   3  267.58    5.43
   3   1  -7  269.72   12.34
  -1   7  -3  284.60   10.70
   7   3   1  282.29   10.79
   7   3  -1  263.55   10.37
   1   7  -3  275.01    5.57
  -3  -1  -7  259.16   13.14
  -3   1   7  263.52   10.13
  -3  -1   7  267.45    9.00
   1  -7  -3  277.78    6.38
   1   7  -3  281.08   11.76
  -7   3   1  269.07   12.47
   1  -7  -3  272.88    6.52
  -1  -7   3  282.82    5.95
  -1   7   3  281.85    5.90
   7   3   1  282.34   10.53
  -1   7   3  276.44    5.92
  -1  -7   3  271.13    5.53
   7   3  -1  276.38   11.51
  -7  -3   1  282.50   11.94
  -3  -1   7  261.95   10.96
   1   7  -3  281.47   11.86
  -3   1   7  256.90    9.93
   3  -1   7  249.27   11.80
   3  -1  -7  277.30   11.80
   3   1  -7  248.55   12.01
   3   1   7  245.69   11.79
   1  -7  -3  280.42    6.38
   7  -3   1  269.72    6.94
  -7   3   1  289.28   11.94
  -1   7  -3  276.64    6.24
  -1  -7  -3  270.52    6.22
  -3   1  -7  259.10   12.02
  -3  -1  -7  263.97   13.37
  -1  -7  -3  276.59    5.25
  -7  -3  -1  280.24   13.43
  -1  -7   3  285.81   11.23
   1  -7   3  274.33   11.64
  -3   1   7  265.05    5.55
   7  -3   1  277.19   11.24
  -1  -7  -3  282.21    9.65
   7  -3  -1  295.72   10.16
  -3  -1   7  251.40    8.61
   7   3  -1  267.13    7.25
  -3   1   7  255.73   10.39
   3   1  -7  275.56   13.02
   3  -1   7  259.14   11.63
   3  -1  -7  241.86   11.96
   7   3   1  277.99    7.15
  -1  -7  -3  272.55    8.73
  -3  -1   7  262.46   10.73
   3   1   7  249.36   11.42
  -1   7   3  282.18    5.81
  -3   1  -7  274.47   11.14
   1   7   3  279.84    5.86
  -7   3   1  269.40   12.87
   1   7   3  292.70   13.21
  -7  -3   1  268.32   12.67
  -3  -1  -7  254.16    9.47
  -7   3  -1  279.62   12.44
  -1   7   3  272.76   12.80
  -7  -3   1  283.81   13.05
  -7  -3  -2  294.98    8.89
   2  -7  -3  293.01   11.83
   2  -7   3  279.55   11.34
  -2  -7  -3  228.97   11.10
  -2   7   3  271.01    6.69
  -7  -3   2  268.08   12.18
  -7   3   2  276.85   12.43
   2  -7   3  279.68    6.20
  -2  -7   3  267.06    6.45
  -7  -3   2  305.64    7.15
   2   7  -3  277.18   12.33
   7   3  -2  277.00   11.01
  -2   7  -3  279.15   10.10
   3   2  -7  263.20   12.60
  -3   2  -7  280.56   13.69
  -3  -2  -7  285.95   13.86
   7   3  -2  290.34   12.45
   7   3   2  281.40   10.11
  -2  -7   3  278.93    7.03
  -2   7   3  284.80    7.02
  -3  -2   7  289.39   11.56
  -7  -3   2  263.64   12.13
  -7   3   2  263.62   12.16
   2  -7   3  276.18    6.24
  -2  -7   3  269.84    6.51
  -2   7   3  273.96    6.80
  -7  -3   2  272.68   11.39
  -7  -3  -2  244.50   12.29
   2   7  -3  282.15   11.59
   7  -3   2  273.58    8.35
   3  -2   7  291.39   12.85
   3  -2  -7  288.43   11.69
  -3  -2   7  288.79   12.08
  -3   2   7  288.59   10.00
   2  -7  -3  266.98    5.61
  -3  -2  -7  291.38   14.59
  -7  -3  -2  283.78   12.16
  -7   3   2  278.28   11.37
  -7   3  -2  268.35   11.67
  -3   2  -7  294.18   12.30
  -2  -7  -3  270.16    7.24
  -2  -7  -3  269.85   12.55
  -7  -3  -2  283.71   14.08
   3  -2  -7  291.34    6.66
  -2   7  -3  283.14    6.60
  -2  -7  -3  275.86    6.31
   2  -7   3  245.15   11.33
   3  -2   7  290.33   11.69
  -3  -2   7  266.02    3.66
  -2  -7   3  272.48   10.59
   7  -3   2  282.08   11.92
  -3   2   7  291.40    6.83
  -3  -2   7  282.70   10.14
  -2  -7  -3  276.40   10.04
   3   2   7  276.77    6.74
   7  -3  -2  275.63    9.16
   7   3  -2  269.08    8.69
   3   2  -7  288.93   13.49
  -2  -7  -3  273.44    7.76
   3  -2   7  278.57   12.02
   2  -7  -3  269.92   11.91
   7  -3  -2  278.02   11.88
   3   2   7  283.88   12.31
  -3   2   7  287.03   11.16
  -3  -2   7  285.58    8.72
  -3   2  -7  290.47   12.28
  -7  -3   2  274.99   12.84
  -7   3   2  276.80   13.07
  -2   7   3  282.78    7.19
  -2  -7   3  278.75    6.81
   2   7   3  285.73   13.08
   2   7   3  279.07    6.65
  -7  -3   2  297.46   13.52
   7   3   2  274.20    6.18
  -7   3  -2  283.89   12.91
  -2   7   3  276.10    6.13
  -3  -2  -7  293.12    9.34
  -7  -3   3  245.01    6.55
  -3   7   3  219.78    7.03
   3  -7   3  222.77   10.23
   3  -7  -3  244.76   10.40
  -3  -7   3  232.50   10.49
  -7  -3   3  229.50   11.69
  -3  -7   3  225.18    6.98
  -7   3   3  240.65   11.87
  -7   3   3  240.45   12.20
   3   3  -7  257.35   12.60
  -3   7  -3  222.26    8.45
   7   3  -3  235.02   10.37
  -3   3  -7  238.74   12.70
  -3  -3  -7  253.94   13.06
  -7  -3  -3  245.69   12.61
  -7  -3   3  232.87   10.25
   7   3  -3  241.12   12.12
   7   3   3  239.53    8.93
   7  -3  -3  226.27   11.73
  -3  -7   3  224.92    7.03
  -3  -3   7  258.89   11.33
  -3   7   3  227.66    7.16
  -7  -3   3  243.89   12.12
  -7   3   3  252.53   12.22
  -3  -7  -3  224.28   10.93
   3  -3  -7  250.81   10.55
  -3   3   7  250.43    8.91
   7  -3   3  240.60    8.88
  -3   7   3  235.22    5.61
   3  -3   7  244.87   11.96
   3   3   7  245.17   12.04
  -3   7   3  231.07    5.20
   3   3  -7  235.78   12.55
   3   7  -3  226.49   10.58
  -3  -3   7  242.95   11.56
  -3   7  -3  238.47    7.07
  -3  -7  -3  232.52   11.79
  -7   3  -3  235.90   11.26
  -3  -7  -3  233.99    6.81
  -7  -3  -3  232.44   13.39
  -3   3  -7  252.66   10.78
  -3  -3  -7  259.24    8.03
  -7  -3  -3  238.73   11.37
   3  -3   7  248.25   11.15
   7  -3   3  241.39   11.46
   7  -3  -3  238.26    8.00
  -3  -7   3  219.53   11.79
  -3  -3   7  249.58    4.86
  -3  -3   7  258.95   10.55
   3   3   7  253.98    5.82
   3  -7  -3  222.10   10.85
  -3  -7  -3  230.31    9.79
   7   3  -3  237.77    9.32
   3   3   7  240.89   11.48
   7   3   3  251.46    9.06
   7  -3  -3  238.08   11.52
  -3  -7  -3  228.45    5.44
  -3   3   7  258.13   10.91
  -3   7  -3  225.21   10.60
   3  -3  -7  233.08   11.71
  -7   3  -3  244.13   10.39
  -7   3  -3  241.70   12.29
  -3  -7   3  225.23    7.26
  -7  -3   3  245.58   12.18
  -3  -3   7  247.86    7.56
   3  -3  -7  222.46    3.58
   3   7   3  225.63   11.44
  -3   7   3  226.23    7.52
  -3   7   3  233.39   11.76
  -7   3   3  241.40   12.51
  -3   7   3  238.38    6.44
   7   3   3  244.82    5.75
   3   3   7  240.42   10.41
  -7  -3   3  228.88   12.25
  -7  -3   4    1.21    0.60
  -4  -7   3    1.89    0.64
  -4   7   3    2.48    1.01
   4  -7  -3    1.79    0.97
  -7  -3   4    0.80    0.92
  -7   3   4    0.80    0.89
  -4  -7  -3    0.70    1.01
  -3  -4  -7    0.36    0.75
   4  -7   3    1.28    0.99
  -4  -7   3   -0.52    0.58
  -3  -4  -7    3.70    1.79
  -7   3   4    1.42    1.11
   4   7  -3    0.82    1.07
  -4   7  -3    1.09    0.69
  -3   4  -7    3.50    1.79
   7   3  -4    0.86    0.81
  -4   7  -3    2.72    1.10
   3   4  -7    1.10    1.12
  -4  -7  -3    1.27    0.96
   7  -3  -4    0.14    0.40
  -7  -3   4    0.28    0.75
  -4  -7   3    1.41    0.62
  -7  -3  -4    1.63    1.24
  -7   3   4    1.91    1.37
  -7   3   4    0.75    0.16
  -7   3   4    0.15    0.31
  -7  -3   4    0.81    0.80
   3  -4   7    1.51    0.95
   7  -3   4    0.78    0.49
  -3  -4   7    1.41    0.92
  -7  -3   4    0.29    1.81
  -4   7   3    1.00    0.35
   3   4   7    1.19    0.79
  -3   4   7    1.54    0.54
   3   4  -7    2.44    1.73
   4   7  -3   -1.01    0.91
   3  -4  -7    1.17    0.83
   7  -3   4    0.35    0.56
   7   3  -4   -0.14    0.30
   7   3   4    1.01    0.92
  -7   3  -4    0.95    0.33
  -7   3  -4    1.71    1.28
  -7  -3  -4    1.58    1.25
  -7  -3  -4    0.54    1.26
  -4   7  -3    0.59    0.37
  -4  -7  -3    1.48    0.62
  -4  -7  -3   -0.28    0.72
  -7  -3  -4    2.26    1.59
  -7   3  -4    1.29    1.32
  -3   4  -7    0.60    0.56
  -4   7   3    1.71    0.88
  -7  -3  -4    0.71    0.55
   3  -4   7   -0.12    0.49
   4  -7   3    1.99    0.92
   3  -4   7    0.65    0.54
   7  -3   4    2.82    1.08
  -3  -4   7    0.49    0.41
  -3  -4   7    3.02    1.33
  -4  -7  -3    1.86    1.15
  -4  -7   3    0.14    0.96
  -3  -4   7    1.84    1.24
   4  -7  -3    0.80    0.24
   7  -3  -4    1.66    0.54
   7   3   4    0.92    0.93
   3  -4  -7    0.93    0.39
  -3   4   7    2.12    1.11
   7   3  -4    0.88    0.74
   7  -3  -4    0.53    0.74
   3   4   7    0.86    0.45
  -4   7   3    0.13    0.47
   3   4   7    2.08    1.15
   7   3   4    2.99    0.66
  -7  -3   4    2.21    1.35
  -4   7  -3   -1.32    0.96
  -4   7  -3    1.74    0.94
   4   7   3    1.61    1.16
  -7   3   4    1.91    1.27
  -7   3  -4    1.42    0.79
  -7  -3   4    0.91    1.45
  -4  -7   3   -0.54    0.20
  -4   7   3    2.25    0.78
  -5  -7  -3   62.62    5.85
  -5   7   3   63.97    4.73
  -5  -7   3   62.14    5.41
   5  -7   3   64.06    5.29
  -7  -3   5   61.78    3.83
  -7  -3   5   61.61    6.46
   5  -7  -3   68.64    5.09
  -5  -7   3   60.44    4.62
  -7   3   5   62.97    6.58
  -5   7  -3   62.70    4.78
   3   5  -7   47.12    5.72
  -3  -5  -7   44.03    5.44
   7   3  -5   58.55    5.68
  -7   3   5   63.81    6.68
   5   7  -3   68.40    6.89
  -5   7   3   63.74    3.15
  -3   5  -7   46.61    5.35
  -7  -3  -5   56.58    6.38
  -3  -5  -7   49.33    4.90
  -7  -3   5   61.32    6.64
  -7   3   5   55.35    6.42
  -3  -5   7   47.83    5.34
   7  -3   5   54.67    4.43
   3  -5   7   46.30    5.37
  -7  -3   5   57.66    6.20
  -7   3   5   65.43    6.65
   7  -3  -5   62.13    6.48
  -5  -7  -3   61.74    6.27
  -7  -3   5   58.72    4.84
   7   3   5   55.49    5.94
   7  -3   5   59.44    5.42
   3  -5   7   51.31    5.64
  -3   5   7   44.35    3.54
   7   3  -5   56.09    6.37
   3  -5  -7   48.80    4.40
   3   5   7   50.88    5.65
   5   7  -3   62.25    5.86
   3   5  -7   49.73    6.19
  -5   7  -3   66.53    4.69
  -5  -7  -3   61.13    4.43
  -7  -3  -5   59.21    7.34
  -7   3  -5   63.75    6.30
  -3  -5  -7   44.95    6.44
  -5  -7  -3   62.86    6.59
  -7   3  -5   62.18    7.04
  -7  -3  -5   56.21    6.87
  -5   7   3   63.31    4.08
  -7  -3  -5   65.38    5.95
  -7  -3  -5   61.47    6.15
  -3  -5   7   51.97    3.27
   5  -7  -3   63.04    5.90
   3  -5   7   51.64    5.48
   5  -7   3   55.89    6.19
   7  -3   5   63.00    6.32
  -5  -7   3   65.10    6.79
  -3  -5   7   45.44    5.13
   7   3  -5   59.73    5.74
   3   5   7   49.02    5.52
   7   3   5   60.50    5.24
   3  -5  -7   52.80    5.75
  -5   7  -3   67.46    5.46
   7  -3  -5   61.59    6.45
  -3   5   7   53.93    5.22
  -5   7  -3   59.74    6.25
  -7  -3   5   60.17    6.04
  -7  -3   5   64.74    6.83
  -5  -7   3   60.49    4.91
   5   7   3   68.55    6.18
  -5   7   3   68.15    5.19
  -5   7   3   65.59    6.29
   3   5   7   48.70    5.25
  -6   7   3    9.42    1.99
   6  -7  -3    9.66    1.95
  -7  -3   6    6.79    2.31
  -7   3   6    9.24    2.35
  -7  -3   6    9.30    1.63
  -6  -7   3    5.47    1.62
   6  -7   3    9.85    2.12
  -3  -6  -7    8.86    3.08
  -6  -7   3   11.26    2.11
  -6  -7  -3    6.83    1.95
   3   6  -7   10.15    2.82
  -7   3   6    7.86    2.24
   6   7  -3   10.80    2.96
  -3   6  -7   10.40    2.50
  -6   7  -3    8.92    1.96
   7   3  -6    9.48    2.34
  -3   6  -7    7.52    2.02
  -3  -6  -7    9.16    2.32
  -6  -7  -3   12.80    2.97
  -7  -3   6    9.31    1.93
  -3  -6  -7   11.07    2.29
  -7   3   6   10.76    2.92
  -7  -3   6   12.03    3.50
  -7  -3   6    6.18    2.23
  -7   3   6    9.46    2.48
   7  -3   6    6.39    1.57
   3  -6   7   16.33    3.33
   3   6   7    7.14    2.01
   7   3   6   11.92    3.05
  -3   6   7    8.21    1.47
   6   7  -3    6.99    2.01
   3   6  -7    6.35    2.50
   7  -3  -6    7.94    2.50
   7  -3   6   10.31    2.51
   7   3  -6   10.27    3.04
   3  -6  -7    7.37    1.59
  -6   7   3    9.50    1.85
  -7  -3  -6    8.45    2.21
  -6  -7  -3    6.61    2.19
  -7  -3  -6   11.79    3.51
  -7   3  -6    7.80    2.44
  -7   3  -6    9.48    3.17
  -6   7  -3    9.86    2.63
  -7  -3  -6   11.74    3.41
  -7  -3  -6   11.20    2.21
  -7   3  -6    8.85    2.57
   3  -6   7    6.71    1.87
  -6  -7   3    7.16    2.53
   7  -3   6   21.46    3.89
   3  -6   7    6.24    2.04
  -3  -6   7    7.60    1.38
   6  -7   3   10.10    2.61
   6  -7  -3    9.19    2.24
  -3  -6   7    5.38    2.05
   3   6   7    8.54    2.27
  -3   6   7    9.26    2.27
   3  -6  -7   10.27    2.78
   7  -3  -6   13.09    3.29
   7   3   6    9.41    2.38
   7   3  -6   13.02    2.78
  -7   3   6    9.81    1.49
  -6   7   3   10.02    2.48
   3   6   7    7.74    2.25
   6   7   3    9.30    2.42
  -6   7  -3    9.59    1.96
  -7  -3   6    7.72    2.21
  -6   7   3    7.85    1.99
  -6  -7   3    7.91    2.10
   7  -4   0   20.27    1.42
   0  -7  -4   16.36    3.02
  -7  -4   0   19.48    2.24
  -7  -4   0   19.60    3.10
  -7   4   0   13.29    2.51
  -4   0  -7   10.43    2.88
   0   7  -4   18.64    2.96
  -7   4   0   22.85    3.56
   4   0  -7   18.27    3.12
   7   4   0   16.90    2.89
  -4   0   7   16.86    2.59
   0   7  -4   20.06    2.03
   0  -7  -4   17.71    2.03
   7   4   0   17.63    2.69
  -7  -4   0   16.74    2.99
   4   0   7   16.84    3.25
  -4   0   7   15.67    2.58
   4   0  -7   15.82    3.13
  -7  -4   0   15.74    3.30
  -4   0  -7   14.97    3.11
   0  -7   4   19.69    3.05
   0  -7  -4   20.37    2.25
   7  -4   0   15.61    2.67
   4   0   7   17.23    2.94
  -4   0   7   19.26    2.82
   0  -7  -4   19.76    2.70
   4   0  -7   18.77    3.55
   7   4   0   17.84    2.25
   0   7  -4   19.11    1.92
   0   7   4   21.20    3.72
  -7   4   0   19.12    3.15
  -4   0  -7   14.91    2.62
  -7   4   0   16.64    1.85
  -1  -7  -4  252.21   11.77
  -7  -4   1  263.32    8.12
  -7  -4   1  254.33   11.33
   1  -7  -4  262.98   11.69
  -7  -4  -1  246.39   11.11
  -7   4  -1  240.20   11.06
   1  -7   4  258.53    6.59
   7  -4   1  248.45    6.05
  -7   4   1  254.19   11.40
  -7  -4  -1  246.93    8.36
   4   1  -7  253.44   12.13
   7   4   1  248.28   10.93
   7   4  -1  242.51   10.85
  -7   4  -1  262.85   11.68
  -4   1   7  258.73   10.80
  -1   7  -4  262.70   10.80
  -7   4   1  260.39   12.32
  -4  -1  -7  250.82   13.50
   1   7  -4  247.42    7.43
   1   7  -4  258.77   11.84
   1  -7  -4  251.79    5.37
  -4  -1   7  253.14    4.81
   7   4  -1  255.06   11.12
  -7  -4   1  255.14   11.85
   7   4   1  247.13    9.66
  -4  -1   7  257.02   10.78
   7  -4   1  250.92    5.76
   4   1   7  268.13   12.84
   1   7  -4  252.25   12.03
   4   1  -7  240.65   12.40
  -4   1   7  264.61    9.77
   4  -1   7  254.51   12.29
  -1   7   4  262.25    9.06
   4  -1  -7  242.58   11.83
   1  -7  -4  258.15    5.23
  -4   1  -7  246.33   12.53
  -1  -7  -4  250.13    7.91
  -1   7  -4  252.53    7.95
  -4  -1  -7  254.93   13.63
  -7   4   1  255.18   11.21
  -7  -4  -1  252.80   12.92
   1  -7   4  248.23   11.13
   7  -4   1  257.42   11.29
  -1  -7   4  243.10   10.22
  -1  -7  -4  251.97    8.35
   7  -4  -1  260.79   10.27
  -4  -1   7  250.04    9.21
   4   1  -7  262.76   13.04
   7   4   1  251.80    8.19
  -4   1   7  269.91   10.27
   4  -1   7  253.10   11.47
   1  -7  -4  256.02   10.53
  -7   4  -1  253.21    5.01
  -1  -7  -4  258.02    8.87
   4   1   7  255.80   11.60
   4  -1  -7  254.23   12.69
  -4  -1  -7  272.09   10.44
  -4   1  -7  262.36   11.49
  -1   7   4  265.64   13.02
   1   7   4  258.30   12.73
  -7  -4   1  252.99   12.15
  -7   4  -1  241.86   11.89
  -7   4  -1  247.30    6.13
  -7   4   1  248.66   11.90
  -7   4   1  258.12    8.33
  -7  -4   2  626.32   18.07
  -2  -7   4  586.60   11.77
  -2   7   4  595.13   12.08
  -2  -7  -4  624.21   18.69
  -2  -7   4  612.25   17.52
   7  -4   2  609.64   10.91
  -7  -4  -2  659.30   14.69
   2  -7  -4  644.83   17.79
  -7   4   2  608.52   17.95
  -7  -4   2  597.96   12.00
   7   4  -2  611.16   17.48
   2   7  -4  616.42   18.77
   4   2  -7  606.16   19.22
  -2   7  -4  608.50   15.71
  -4   2   7  608.34   17.63
  -4   2  -7  607.35   20.83
  -4  -2  -7  634.90   21.32
  -2  -7   4  618.36   12.62
  -2   7   4  614.63   12.53
  -4  -2   7  603.64   16.31
   2  -7  -4  594.70   11.50
  -2  -7  -4  609.99   16.97
   7   4   2  620.88   14.31
  -7  -4   2  634.58   18.38
  -7  -4  -2  609.33   19.85
   7   4  -2  629.88   18.52
  -4  -2   7  608.87   17.62
   4  -2   7  612.91   18.94
   4  -2  -7  619.62   18.29
   4   2   7  590.60   19.27
   7  -4   2  613.85   11.83
  -4   2   7  624.55   14.06
  -2   7   4  631.47   12.38
   2   7  -4  626.48   18.71
  -7  -4  -2  631.43   21.14
  -7   4  -2  613.86   17.68
  -7  -4  -2  620.09   17.74
  -4   2  -7  605.29   18.85
  -2  -7  -4  613.31   20.65
  -2   7  -4  600.41   13.19
  -2  -7  -4  591.38   13.04
  -7   4   2  630.70   17.03
  -4  -2  -7  590.36   21.59
   7  -4  -2  618.26   14.91
  -2  -7   4  606.18   15.85
   4  -2   7  622.38   18.27
   7  -4   2  621.01   18.57
   2  -7   4  600.41   18.19
  -4  -2   7  601.72   15.44
  -2  -7  -4  613.47   13.85
   4   2  -7  616.01   20.08
   4  -2   7  598.56   17.78
   2  -7  -4  607.22   17.30
  -2  -7  -4  596.87   11.89
   4   2   7  590.75   17.92
   4  -2  -7  597.83   19.57
   7  -4  -2  626.52   18.58
  -4   2   7  618.09   15.70
  -7   4   2  607.70   14.12
  -4  -2   7  612.43   14.55
  -7   4  -2  614.91   19.50
  -4   2  -7  617.03   18.53
   7   4   2  618.75   12.17
  -4  -2  -7  650.46   15.37
   2   7   4  620.55   19.46
  -7   4   2  607.49   19.05
  -7  -4   2  634.39   19.52
  -7   4  -2  626.70    8.08
  -7  -4   3    2.21    0.73
  -7   4   3    3.45    1.53
  -3  -7   4    4.56    1.20
  -3   7   4    2.94    1.13
  -7  -4   3    4.44    1.10
  -3  -7  -4    4.54    1.88
   3  -7  -4    3.97    1.30
  -3  -7   4    4.36    1.60
  -4   3  -7    3.19    1.35
  -4  -3  -7    0.46    0.85
  -3   7  -4    6.00    1.09
  -7  -4  -3    2.95    1.06
  -7   4   3    1.71    0.99
   4   3  -7    1.49    0.98
  -3   7  -4    5.07    1.39
   7   4  -3    3.44    1.48
  -3  -7  -4    5.95    1.81
  -7  -4   3    3.87    1.61
  -3   7   4    5.01    1.26
  -7  -4  -3    5.71    2.13
   7  -4  -3    3.00    1.34
  -7  -4   3    2.11    1.54
  -3  -7   4    3.11    0.97
   3  -7  -4    4.41    1.15
  -3  -7   4    4.14    1.34
  -3   7   4    4.77    1.33
  -7   4   3    4.74    1.78
  -4  -3   7    1.46    0.79
   4   3  -7    4.60    1.85
   3   7  -4    6.85    2.01
   4  -3  -7    1.79    0.70
   7  -4   3    3.10    0.92
  -3   7   4    4.57    0.80
   4  -3   7    2.07    1.61
   7   4  -3    3.86    1.81
   7   4   3    3.65    1.18
  -3   7  -4    4.63    1.17
  -7  -4  -3    5.10    2.34
  -3  -7  -4    5.42    1.18
  -7   4  -3    5.39    1.92
  -7  -4  -3    3.21    1.40
  -4  -3  -7    1.59    0.80
  -3  -7  -4    3.26    1.27
  -7   4  -3    5.53    2.02
  -3   7  -4    4.58    1.22
  -4   3  -7    4.03    1.33
  -7   4   3    3.97    1.30
   3  -7   4    6.38    2.13
  -4  -3   7    2.30    1.05
   7  -4   3    5.00    1.66
  -3  -7  -4    3.47    1.21
   7  -4  -3    3.15    0.96
   3  -7   4    4.76    1.38
  -4   3   7    2.18    0.65
   4  -3   7    0.12    0.72
  -3  -7  -4    3.98    0.78
   3  -7  -4    5.33    1.82
  -3  -7   4    3.99    1.12
   7  -4  -3    5.59    1.93
  -4   3   7    2.28    1.29
  -7   4  -3    3.55    0.54
   7   4   3    4.19    1.03
  -3   7   4    5.77    1.96
  -7   4   3    1.36    0.47
   3   7   4    5.43    1.86
  -7  -4   3    3.46    1.79
  -4  -3   7    1.39    0.87
  -4   3  -7    2.79    1.50
  -7   4   3    3.97    1.38
  -4  -7   4  100.14    7.09
  -4  -7   4  104.93    5.94
  -7  -4   4  105.64    7.95
  -7   4   4  108.16    8.12
  -4   7   4  103.03    5.92
  -4  -7  -4  108.85    7.93
   4  -7  -4  108.39    6.84
  -7  -4   4  111.46    5.38
  -4   7  -4  103.92    5.02
  -4   7  -4  104.53    5.84
   4   4  -7   82.89    7.48
   7   4  -4   98.86    7.44
  -4  -4  -7   94.08    8.04
   4   7  -4  100.80    8.18
  -7   4   4  104.48    8.51
  -4   4  -7  100.67    8.19
  -7  -4  -4  106.09    8.71
  -4  -4   7   90.60    6.92
  -7  -4   4  103.36    7.94
   4  -7  -4  108.46    6.48
  -4  -7  -4  107.47    7.95
  -4  -7   4  106.52    6.00
  -4  -7   4  106.10    6.28
  -4   7   4  107.98    6.30
  -7  -4   4  103.12    8.30
  -7   4   4   96.04    8.02
   7  -4  -4   98.81    7.91
   7   4   4  103.65    5.24
   4  -4   7   91.50    7.27
  -7   4   4  103.11    8.04
  -4   7   4  107.06    6.06
  -7  -4   4  100.03    7.01
   4  -4  -7   96.71    6.84
   4  -7   4  102.23    6.68
   4   7  -4  105.10    8.00
  -4   4   7   87.99    4.63
   7   4  -4  106.18    8.59
   7  -4   4  104.78    6.41
   4   4  -7   86.47    8.08
   4  -4   7   91.78    7.47
  -7  -4  -4  105.71    9.60
  -4  -7  -4  104.35    6.55
  -4  -7  -4  104.81    8.60
  -4  -4  -7   85.85    8.75
  -4   4  -7   99.92    6.89
  -4   7  -4  106.80    5.80
  -4  -7  -4  107.27    5.73
  -7   4  -4  100.98    7.46
  -7  -4  -4   99.14    7.45
   7  -4  -4  108.12    5.57
   4  -4   7   93.97    7.55
   7  -4   4  101.00    8.06
  -4  -4   7   92.12    7.14
  -7  -4   4  103.31    8.46
  -7   4   4  100.87    3.18
   7  -4  -4  100.37    8.06
   4   4   7   92.78    7.41
   7   4   4  106.95    6.79
   4  -7  -4  101.54    7.94
  -4   7  -4   99.68    6.95
  -4   4   7   97.76    6.65
   4  -4  -7   94.48    8.01
   4   4   7   93.94    6.64
  -7   4  -4   99.35    8.38
  -4   4  -7   95.51    7.95
  -4   4   7   98.23    8.13
   4   7   4  110.49    8.03
  -7   4  -4  100.90    6.33
  -7  -4   4  104.49    7.92
  -4   7   4  106.97    6.31
  -4  -7   4  108.70    6.24
  -7   4   4  105.51    8.39
  -7  -4   4  101.39    8.27
  -7   4  -4  100.41    2.82
  -4   7   4  108.12    8.38
   7   4   4  103.89    4.91
  -5  -7  -4  497.55   17.13
   5  -7  -4  506.91   14.30
   5  -7   4  485.54   15.25
  -7  -4   5  494.95   11.92
  -5  -7   4  504.21   15.73
  -5  -7   4  497.06   13.96
  -5   7   4  502.63   14.03
  -7   4   5  486.10   17.86
  -7  -4   5  478.65   17.55
  -5   7  -4  490.41   11.79
   7   4  -5  500.68   17.41
   4   5  -7  507.42   18.83
  -7   4   5  485.18   19.07
   5   7  -4  493.46   18.76
  -5  -7   4  497.31   14.02
  -7  -4  -5  482.32   18.81
  -4  -5  -7  529.31   17.17
   5  -7  -4  517.99   15.73
  -7  -4   5  496.32   18.90
  -7   4   5  499.64   18.88
  -5   7   4  496.76   14.03
   7  -4  -5  514.56   18.35
   4  -5   7  502.89   17.62
   4  -5  -7  507.88   15.33
  -7  -4   5  480.20   17.72
  -7   4   5  482.09   17.91
   7  -4   5  498.36   14.06
  -7  -4   5  487.44   14.99
  -5  -7  -4  494.16   18.21
   4  -5   7  493.28   17.54
   5  -7   4  499.78   14.39
  -4   5   7  489.64    9.76
   7   4   5  449.34   17.67
   7  -4   5  495.70   15.23
   4   5   7  507.98   18.81
   7   4  -5  481.30   19.04
   4   5  -7  490.00   19.59
   5   7  -4  491.26   17.56
  -5   7  -4  499.05   13.66
  -5  -7  -4  515.90   13.63
  -7  -4  -5  485.18   21.22
  -4   5  -7  498.84   18.84
  -7   4  -5  477.77   19.24
  -7  -4  -5  473.29   19.22
  -5  -7  -4  490.13   19.62
  -4  -5  -7  500.42   21.59
  -4  -5  -7  503.51   18.97
  -7   4  -5  492.90   17.05
  -7  -4  -5  481.17   16.92
   7  -4   5  475.70   18.10
   4  -5   7  520.56   18.20
  -4  -5   7  508.55   17.81
   5  -7   4  483.04   18.31
  -7  -4   5  490.19   18.75
   5  -7  -4  508.82   16.21
  -7   4   5  476.53    8.74
   7   4   5  504.89   15.68
  -5   7  -4  502.89   15.07
  -4   5   7  508.89   15.76
   5  -7  -4  485.52   18.26
   4   5   7  480.29   17.33
   7  -4  -5  467.40   18.46
   4  -5  -7  537.00   19.37
  -4   5   7  524.89   19.54
  -5  -7   4  498.02   14.60
  -5   7  -4  503.75   18.98
  -7   4  -5  491.62   12.83
  -7   4  -5  485.18   19.26
  -7  -4   5  480.51   16.92
  -7   4   5  479.47   18.52
  -7  -4   5  481.90   18.60
  -5   7   4  492.37   14.76
   4   5   7  500.54   16.22
   5   7   4  518.66   17.11
  -5   7   4  502.96   18.13
  -6  -7  -4   89.66    7.24
   6  -7   4   88.21    6.31
  -7  -4   6   83.05    5.16
   6  -7  -4   93.63    5.86
  -6  -7   4   90.83    6.60
  -6  -7   4   85.62    6.24
  -6   7   4   87.57    6.34
  -7  -4   6   84.94    7.70
  -7   4   6   83.42    7.68
   6   7  -4   83.42    7.87
  -7   4   6   86.19    8.18
   4   6  -7   83.87    8.04
   7   4  -6   81.92    7.36
   4  -6  -7   82.45    5.91
  -4  -6  -7   84.80    7.00
  -4  -6   7   80.36    6.94
  -4   6   7   86.69    7.30
  -6   7   4   85.59    6.33
  -7  -4   6   80.78    5.88
  -7  -4  -6   82.74    7.98
  -7  -4   6   80.06    7.58
  -7  -4   6   81.59    7.87
  -7   4   6   85.04    8.11
   6  -7  -4   90.17    7.09
   7  -4   6   85.31    6.30
  -7   4   6   86.39    7.91
  -6  -7   4   88.49    6.39
  -6  -7  -4   91.22    8.24
   4  -6   7   85.98    7.52
   7  -4  -6   77.06    7.35
   6  -7   4   86.27    5.76
   4   6   7   81.63    7.81
   7   4   6   76.06    7.50
   7  -4   6   83.87    6.76
   7   4  -6   84.69    8.37
   4  -6   7   83.50    7.39
   6   7  -4   89.25    7.74
   4   6  -7   84.71    8.32
  -6   7  -4   88.24    6.26
  -6  -7  -4   84.69    6.02
  -7  -4  -6   78.18    8.91
  -6  -7  -4   83.72    8.51
  -7   4  -6   75.96    7.90
  -7  -4  -6   84.02    8.51
  -4   6  -7   85.13    7.65
  -4  -6  -7   82.88    7.44
  -4  -6  -7   65.95    8.03
  -7   4  -6   87.59    7.54
  -7  -4  -6   84.24    7.35
   7  -4   6   83.92    7.92
  -7  -4   6   79.19    7.54
   4  -6   7   81.95    7.45
   6  -7  -4   91.20    6.87
  -4  -6   7   80.55    7.57
   6  -7   4   95.73    8.51
   4  -6  -7   83.33    7.75
  -7   4   6   82.96    4.26
  -6   7  -4   93.24    6.13
   7   4   6   83.91    6.81
   4   6   7   76.19    7.20
   7  -4  -6   82.38    8.09
  -6   7   4   87.92    5.55
  -4   6   7   84.11    6.69
  -4   6   7   85.72    8.22
  -7  -4   6   82.17    6.89
  -6   7  -4   88.97    8.23
  -6   7   4   90.95    6.89
  -6  -7   4   88.76    6.74
   6   7   4   93.10    6.99
  -6   7   4   87.73    7.55
   4   6   7   83.04    6.99
  -7  -5   0  246.25    8.89
  -7  -5   0  230.22   10.55
  -7   5   0  245.58   10.85
   7  -5   0  264.10    6.83
   0  -7  -5  237.88   11.85
   0   7  -5  240.24   11.33
   5   0  -7  262.62   12.01
   7   5   0  243.95   11.53
   0  -7  -5  231.05    8.78
  -7   5   0  238.33   11.63
  -5   0   7  261.30   11.29
   0   7  -5  221.26    8.24
  -5   0  -7  265.04   14.18
   7   5   0  247.69   10.23
   0  -7  -5  235.23    9.11
  -7  -5   0  222.40   11.88
   0   7   5  238.66   10.04
   5   0  -7  256.32   12.96
   5   0   7  259.82   12.83
  -5   0  -7  249.15   13.76
  -7  -5   0  245.76   12.20
   0  -7   5  227.52   10.37
   7  -5   0  247.13   11.29
   0  -7  -5  232.58    6.21
   5   0   7  256.79   11.47
   0  -7  -5  240.73    9.86
   7   5   0  245.29    9.38
   5   0  -7  267.90   13.53
  -7   5   0  252.35   11.72
   0   7   5  234.85   12.62
  -7   5   0  246.36    8.23
  -5   0  -7  247.18   11.31
   1  -7  -5   68.71    6.19
  -7  -5   1   77.22    5.05
   7  -5  -1   66.97    3.12
  -7  -5   1   60.63    5.44
  -7   5   1   64.50    5.61
   7  -5   1   63.57    3.60
  -7  -5  -1   72.70    5.07
  -1  -7  -5   57.20    5.83
   7   5   1   61.94    5.80
   5   1  -7   64.37    6.16
  -1   7  -5   57.35    5.40
   7   5  -1   61.93    5.84
  -1   7  -5   56.42    1.93
   1   7  -5   59.47    5.84
  -7   5   1   66.63    6.43
  -5   1   7   66.79    5.96
  -5  -1  -7   65.65    6.99
  -1   7  -5   55.28    4.17
  -1  -7  -5   56.83    4.46
  -7   5  -1   63.19    5.78
   7   5   1   59.18    4.53
  -1  -7  -5   58.69    4.86
  -5  -1   7   65.05    5.11
   1  -7  -5   56.31    4.14
  -7  -5   1   59.19    5.93
  -5  -1   7   62.66    2.26
  -1   7   5   62.92    4.60
   1   7  -5   61.57    6.27
   7   5  -1   66.94    5.67
   1   7   5   61.17    5.49
   5  -1  -7   70.85    6.64
   5   1   7   64.17    6.43
   1  -7  -5   54.73    1.94
   5  -1   7   63.03    6.33
  -5   1  -7   58.16    6.35
  -5  -1  -7   66.98    7.36
  -7   5   1   62.77    5.58
  -7  -5  -1   61.84    6.44
   1  -7   5   57.64    5.47
   7  -5  -1   63.15    5.34
  -1  -7  -5   60.60    3.49
  -1  -7   5   56.46    4.96
  -5   1   7   68.05    4.83
  -7  -5   1   65.57    6.79
   1  -7  -5   59.73    3.00
   7  -5   1   58.16    5.66
   5   1  -7   66.44    6.68
   5  -1   7   67.09    5.82
  -5   1   7   60.97    4.70
   1  -7  -5   60.26    5.30
  -1  -7  -5   58.13    4.40
   5  -1  -7   61.70    6.42
   5   1   7   66.78    5.90
   7   5   1   66.58    4.80
  -7   5  -1   64.05    3.92
  -7   5  -1   71.74    6.55
   1   7   5   62.74    6.52
  -5   1  -7   67.79    6.16
  -1   7   5   61.64    6.60
  -7   5   1   62.49    4.58
  -5  -1  -7   68.67    5.62
  -2  -7  -5   66.18    6.39
   2  -7  -5   64.98    5.88
  -7  -5  -2   62.40    4.90
   7  -5   2   62.15    3.88
  -7   5   2   58.39    5.49
  -7  -5   2   61.41    5.58
  -7  -5   2   66.14    4.51
   7   5  -2   58.33    5.78
   5   2  -7   45.09    5.21
  -2   7  -5   66.75    5.58
  -7   5   2   58.14    6.15
   2   7  -5   66.80    6.43
   7   5   2   63.26    6.04
  -5   2   7   53.99    5.56
  -2   7   5   64.62    4.68
   2  -7  -5   61.88    3.62
  -7  -5  -2   57.54    6.25
   7   5   2   56.81    4.17
  -5  -2   7   56.98    3.34
  -7  -5   2   63.50    6.14
  -2  -7  -5   67.84    5.56
  -5  -2   7   47.71    4.52
   5  -2  -7   52.11    5.61
  -2  -7   5   67.68    4.73
   5  -2   7   53.60    5.86
  -2   7   5   68.58    4.31
  -5   2   7   52.66    3.88
   7  -5   2   59.80    3.45
   7   5  -2   64.09    5.95
   5   2   7   53.50    5.97
   2   7  -5   64.89    6.54
  -7  -5  -2   57.05    6.38
  -5   2  -7   51.95    5.94
  -2   7  -5   64.63    4.99
  -2  -7  -5   64.18    4.93
  -5   2  -7   47.17    6.21
  -7   5   2   59.58    5.26
  -2  -7  -5   65.52    7.13
  -5  -2  -7   56.95    5.03
  -5  -2  -7   51.59    6.54
   5  -2   7   57.28    5.84
   7  -5  -2   58.22    4.94
  -2  -7   5   64.17    5.12
   2  -7   5   64.01    5.99
   7  -5   2   59.42    6.02
  -5  -2   7   51.04    4.90
  -7  -5   2   63.60    6.76
   2  -7   5   65.41    6.05
   2  -7  -5   64.08    5.82
  -5   2   7   48.96    4.20
   5   2  -7   53.83    6.06
  -7   5   2   58.95    2.45
   7  -5  -2   65.26    6.31
  -2  -7  -5   64.12    4.13
   5  -2   7   49.70    5.09
   5   2   7   47.11    5.06
   5  -2  -7   55.98    6.20
  -5  -2   7   53.59    4.85
  -7   5  -2   57.40    3.44
   2   7   5   62.68    6.31
   7   5   2   64.40    4.61
  -7   5   2   53.04    5.54
  -7  -5   2   55.11    5.69
  -5   2  -7   52.47    5.65
  -7   5   2   66.12    5.09
  -7   5  -2   57.86    6.15
  -7   5   3    1.08    0.91
  -3  -7  -5    2.06    1.08
  -7  -5   3    2.27    0.91
  -3  -7   5    3.36    1.24
  -3   7   5    2.85    1.16
  -7  -5   3    1.89    0.81
  -7  -5  -3    3.40    1.43
  -3  -7   5    1.84    1.10
   3  -7  -5    4.54    1.64
   7  -5   3    2.19    0.81
   7   5  -3    0.26    0.54
  -5   3   7    3.37    1.77
  -3   7  -5    2.63    1.11
   5   3  -7    4.72    1.87
  -7  -5   3    0.25    0.83
   5  -3   7    3.22    1.28
  -3  -7  -5    4.05    1.63
  -7  -5  -3    4.01    1.48
  -3  -7   5    2.45    1.11
  -3   7   5    4.01    1.19
  -7  -5   3    0.48    0.57
  -7   5   3    4.22    1.52
  -5  -3   7    3.52    1.42
  -5  -3   7    3.61    1.03
   5   3   7    5.36    2.13
   7   5   3    2.38    0.78
   5   3  -7    1.64    1.14
   5  -3   7    3.61    1.51
   3   7  -5    3.15    1.41
   5  -3  -7    3.68    1.79
   3  -7  -5    3.76    1.12
  -3   7   5    3.42    0.56
   7   5  -3    1.08    1.06
  -3   7  -5    1.66    0.67
  -7  -5  -3    1.04    1.15
  -5   3  -7    4.00    1.97
  -7   5  -3    1.47    0.86
  -7  -5  -3    2.14    1.30
  -7   5  -3    3.43    1.91
  -5   3  -7    3.86    1.83
  -3  -7  -5    2.83    1.08
  -5  -3  -7    4.55    1.50
  -5  -3  -7    3.48    2.10
  -7   5   3    3.35    1.26
  -5  -3   7    4.46    1.44
   3  -7   5    5.06    2.30
   7  -5   3    1.94    1.05
  -5   3   7    3.61    0.90
   5  -3   7    3.77    1.62
   7  -5   3    2.43    0.75
   3  -7   5    3.81    1.26
   7  -5  -3    2.51    1.19
  -7   5   3    2.11    0.54
  -3  -7  -5    3.06    0.73
   5   3   7    3.73    1.45
   7  -5  -3    2.54    1.15
  -3  -7   5    3.25    1.07
   3  -7  -5    2.60    1.31
  -5   3   7    3.94    1.40
   5  -3  -7    3.82    1.79
   3   7   5    2.46    1.07
  -3   7   5    4.17    2.00
  -7   5   3    3.98    1.64
  -5  -3   7    1.95    0.93
  -5   3  -7    5.20    1.87
   7   5   3    1.09    0.61
  -7   5   3    2.55    1.41
  -7  -5   3    3.25    1.58
  -7   5  -3    2.11    0.80
  -4  -7  -5  210.18   11.49
   4  -7  -5  224.43   10.32
  -4  -7   5  207.34   10.53
  -7  -5   4  221.95    8.42
  -7   5   4  213.94   11.22
  -7  -5   4  224.12   11.45
  -4  -7   5  216.54    9.18
  -4   7   5  213.70    9.20
  -7  -5  -4  224.11   10.42
  -5   4   7  206.32   11.86
  -4   7  -5  213.72    9.12
   5   4  -7  207.82   11.99
  -7   5   4  208.00   12.39
   4   7  -5  210.53   12.26
   7   5  -4  222.98   11.86
  -5  -4   7  216.54   12.26
  -5   4   7  214.55   12.25
  -4  -7   5  214.23    9.56
  -4   7   5  215.88    9.53
   7  -5  -4  215.24   11.73
   5  -4   7  201.71   10.87
  -7   5   4  225.11   11.52
  -7  -5  -4  212.94   12.58
  -4  -7   5  209.08    9.08
  -4   7   5  215.90    9.39
   4  -7  -5  217.93    9.16
  -7  -5   4  226.77   11.65
  -7  -5   4  224.03   11.14
   5  -4  -7  209.22   10.91
  -4  -7  -5  206.48   11.26
   7  -5   4  212.90    8.91
   5  -4   7  205.97   11.28
   4  -7   5  214.11   10.45
   7   5  -4  215.95   12.26
   5   4  -7  201.88   12.73
   4   7  -5  202.25   11.77
  -7   5  -4  215.55   10.81
  -7  -5  -4  206.44   10.54
  -7  -5  -4  210.52   13.55
  -4   7  -5  212.19   10.10
  -4  -7  -5  207.60    9.91
  -5   4  -7  209.57   12.91
  -5  -4  -7  212.73   12.81
  -5  -4  -7  212.11   14.01
  -4  -7  -5  205.19   12.98
  -5   4  -7  210.64   10.85
  -4   7  -5  214.80    8.87
  -4  -7  -5  207.87    8.58
   4  -7   5  211.10   11.90
  -4  -7   5  199.61   12.07
   7  -5  -4  233.09    9.24
   5  -4   7  213.79   11.88
   7  -5   4  219.66   12.27
  -5  -4   7  203.13   11.09
  -7  -5   4  213.05   12.69
   7  -5  -4  212.98   12.30
   5   4   7  206.75   11.14
   7   5   4  221.31   10.42
  -7   5   4  218.80    5.95
   4  -7  -5  210.99   11.85
  -5   4   7  215.35    9.31
  -7   5   4  223.09   10.58
   5   4   7  209.21    9.45
  -7   5  -4  219.12    9.23
  -7   5  -4  219.63   12.92
  -7   5   4  215.19   11.92
  -5   4  -7  209.24   12.25
  -7  -5   4  225.11   12.17
  -7   5  -4  212.66    6.26
   4   7   5  207.15   11.20
   7   5   4  217.77    8.31
  -4   7   5  218.39   12.44
  -5  -7  -5  200.22   11.39
  -5  -7   5  196.05   10.05
  -7  -5   5  201.69    8.37
   5  -7  -5  199.85    9.48
  -7  -5   5  200.47   11.16
  -7   5   5  208.82   11.41
  -5  -7   5  198.16    9.31
  -5   7   5  192.38    9.25
   5   7  -5  186.65   11.73
   5   5  -7  200.85   12.20
   7   5  -5  198.41   11.50
  -7   5   5  209.98   12.93
  -7  -5  -5  226.91   13.10
  -5  -5   7  202.43   11.76
  -5   5   7  207.41   11.89
  -5  -5  -7  207.98   11.53
  -5  -7  -5  195.01   11.48
  -7   5   5  204.13   11.41
  -5  -7   5  191.91    9.71
  -5   7   5  192.74    9.71
  -7  -5   5  202.26   11.84
  -7   5   5  205.85   12.03
   5  -5  -7  208.28   10.58
  -5  -7   5  195.51    9.34
  -5   7   5  205.66    9.63
   5  -5   7  208.28   11.27
   7  -5  -5  211.54   11.84
  -7  -5   5  207.58   10.45
   5  -7  -5  194.41    9.61
  -7  -5   5  206.36   11.40
   5  -5   7  209.25   11.47
   5  -7   5  196.19    9.76
   7   5   5  212.70   12.66
   7   5  -5  211.21   12.81
   5   5  -7  202.18   13.09
   5   7  -5  188.44   11.66
   7  -5   5  202.93    9.61
  -7  -5  -5  206.72   14.05
  -7  -5  -5  201.61   12.36
  -5   7  -5  196.51   10.32
  -5  -7  -5  193.12   10.24
  -5   5  -7  194.04   12.14
  -5  -5  -7  203.27   12.48
  -5  -7  -5  185.02   12.64
  -5  -5  -7  185.55   13.42
  -5   7  -5  191.96    8.98
  -5  -7  -5  192.55    8.87
  -7   5  -5  209.46   11.07
  -7  -5  -5  202.91   10.84
  -7  -5   5  201.65   12.53
  -5  -5   7  194.96   11.44
   7  -5   5  202.07   12.24
  -5  -7   5  188.35   12.08
   5  -5   7  197.08   11.73
   5  -7  -5  203.31   12.19
  -5   7   5  199.65    9.34
   5   5   7  200.49   11.40
   7  -5  -5  206.58   12.65
  -5   5   7  207.90    9.54
   7   5   5  202.95   10.50
  -7   5   5  197.15    6.43
  -5   7  -5  192.04    9.45
  -5   5   7  209.57   12.40
  -5   7  -5  198.64   12.40
  -7   5  -5  211.70    8.23
  -7   5  -5  201.32   12.75
  -7   5   5  208.21   10.97
  -5   7   5  199.35    9.99
  -5  -7   5  195.06    9.68
  -7   5   5  202.99   11.97
  -7  -5   5  206.71   12.01
   5   7   5  204.38   10.90
  -5   7   5  192.81   11.71
   5   5   7  206.09   10.07
  -5  -6   7   58.31    5.91
  -5   6   7   58.70    5.98
   6  -7  -5   57.83    4.80
  -7  -5   6   56.13    4.57
  -6  -7   5   57.62    5.37
  -6  -7  -5   55.94    6.04
  -6  -7   5   50.80    5.01
  -6   7   5   52.41    5.17
  -7  -5   6   54.00    6.08
  -7   5   6   60.82    6.59
   5   6  -7   54.51    6.57
   7   5  -6   59.91    6.57
  -7   5   6   55.49    6.84
   6   7  -5   57.72    6.67
  -7  -5   6   54.19    5.22
  -5  -6  -7   58.62    6.20
  -7  -5  -6   69.82    7.42
  -5  -6   7   57.10    6.07
  -5   6   7   58.38    6.14
  -7  -5   6   54.34    6.31
  -7   5   6   56.06    6.54
   7  -5   6   59.80    5.45
   5  -6  -7   64.11    5.89
   5  -6   7   63.24    6.48
  -6  -7   5   53.20    5.21
  -7   5   6   62.05    6.62
   6  -7  -5   56.07    5.61
   7  -5  -6   59.67    6.34
  -6   7   5   54.57    5.31
  -6  -7  -5   54.85    6.46
  -7  -5   6   55.11    6.19
   6  -7   5   59.28    5.27
   5  -6   7   53.27    5.87
   6   7  -5   58.71    6.60
   5   6   7   56.65    6.70
   7   5  -6   53.41    6.72
   7   5   6   61.32    7.16
   5   6  -7   68.67    7.67
   7  -5   6   57.17    5.53
  -6   7  -5   53.68    5.15
  -6  -7  -5   52.86    4.85
  -7  -5  -6   59.96    8.05
  -6  -7  -5   52.73    6.97
  -7   5  -6   60.78    7.00
  -7  -5  -6   58.97    7.03
  -5   6  -7   60.72    6.74
  -5  -6  -7   61.63    6.66
  -5  -6  -7   61.65    7.69
  -7   5  -6   60.27    6.28
  -7  -5  -6   59.32    6.01
   7  -5   6   63.40    7.10
   5  -6   7   62.36    6.69
  -6  -7   5   48.85    6.36
  -5  -6   7   58.89    6.59
   6  -7   5   54.27    6.42
  -7  -5   6   54.90    6.61
  -6   7   5   53.00    4.45
  -6   7  -5   58.04    4.94
   7  -5  -6   53.24    6.69
   5   6   7   60.05    6.52
   7   5   6   64.61    6.23
  -5   6   7   55.65    5.21
   5  -6  -7   55.62    6.59
  -5   6   7   56.87    6.64
  -6   7  -5   50.43    6.42
  -7   5   6   60.61    6.86
  -7  -5   6   57.34    6.58
  -6   7   5   55.89    5.62
  -7   5  -6   64.94    7.51
   6   7   5   57.45    5.57
   5   6   7   56.06    5.59
  -6   7   5   58.75    6.44
  -6  -7   5   57.90    5.68
  -7  -6   0    4.68    1.52
   0  -7  -6    4.45    1.43
  -7   6   0    3.13    1.37
   7  -6   0    3.52    1.23
  -7  -6   0    3.30    1.45
   0   7  -6    5.47    1.75
   0   7  -6    8.01    1.94
   0  -7  -6    7.37    1.73
   6   0  -7    3.24    1.53
  -7   6   0    4.48    1.79
   7   6   0    5.05    1.97
  -6   0   7    3.10    1.14
  -6   0   7    3.71    1.66
   0  -7  -6   15.47    2.37
   0   7   6    6.92    1.91
   6   0   7    2.70    1.19
   7   6   0    5.82    1.72
   6   0  -7    5.66    2.38
  -7   6   0    2.45    1.48
  -7  -6   0    4.94    1.99
  -6   0  -7    1.99    1.37
  -6   0  -7    2.28    1.82
  -6   0  -7    2.90    1.12
   0  -7   6    4.89    1.68
  -7  -6   0    2.23    1.06
   7  -6   0    5.45    2.00
   0  -7  -6   10.49    2.23
   6   0   7    2.44    1.04
   6   0  -7    1.71    1.43
  -7   6   0    5.08    1.43
   0   7   6    5.10    1.71
   7   6   0    4.78    1.73
  -7  -6   1  103.16    6.50
  -7  -6  -1   93.15    6.25
  -1  -7  -6   99.80    8.12
   1  -7  -6  107.15    8.17
   7  -6  -1  102.52    4.73
  -7  -6   1   92.07    6.49
  -7   6   1  100.62    6.87
   7  -6   1   98.14    5.09
   7   6   1   99.05    7.84
  -6   1   7   90.98    7.43
  -1  -7  -6   97.45    6.52
   6   1  -7  106.87    7.90
  -1   7  -6   99.71    7.50
   1   7  -6   91.02    7.55
   7   6  -1   92.30    7.53
  -7   6   1   94.05    7.83
  -7   6  -1   99.09    7.50
  -1   7  -6   89.15    6.04
  -6  -1   7   98.08    8.71
   6  -1  -7   93.10    8.07
  -6  -1   7   96.78    5.89
  -7  -6   1   86.65    7.62
   1  -7  -6  104.28    5.31
  -7  -6  -1   90.13    7.95
  -1  -7  -6  103.19    6.39
   1   7   6  100.02    7.27
   1   7  -6  101.05    8.70
  -1   7   6   98.08    6.17
   7   6  -1   94.41    6.67
   7   6   1   93.60    5.48
   6   1   7   86.35    7.59
   6  -1   7  102.75    8.15
  -7  -6  -1   92.07    7.83
  -6   1  -7   88.85    8.36
  -6  -1  -7   95.96    9.24
  -6  -1  -7   89.20    8.97
   1  -7   6   93.56    6.94
   7  -6  -1   92.25    6.99
  -1  -7   6   89.15    6.32
   1  -7   6   98.14    7.90
   7  -6   1  100.00    7.83
  -7  -6   1   99.51    8.68
   7   6   1   99.77    6.55
   6   1  -7   95.69    8.25
   6  -1   7   98.65    7.03
   1  -7  -6  102.26    7.17
  -1  -7  -6   97.96    6.09
   7   6  -1   99.88    6.82
   6  -1  -7   94.82    8.34
   6   1   7   98.63    7.21
  -7   6  -1   99.65    7.94
  -7   6   1   93.98    6.88
  -6  -1  -7   97.31    7.23
  -7   6  -1   97.45    5.51
   1   7   6  102.15    8.63
  -1   7   6   92.81    8.56
  -7   6   1  101.54    6.29
  -6   1  -7   97.79    7.79
   7  -6   2  612.16   13.35
  -2  -7  -6  653.88   21.03
   2  -7  -6  657.73   19.61
  -7  -6   2  629.49   17.57
  -7   6   2  622.75   17.46
  -7  -6   2  637.09   15.52
  -7  -6  -2  667.92   17.17
   7   6  -2  648.89   20.34
   6   2  -7  664.48   20.16
  -2   7  -6  635.49   18.50
   2   7  -6  633.89   20.63
   7   6   2  640.82   20.27
  -7   6   2  631.66   20.96
  -6   2   7  657.74   20.53
  -7   6  -2  642.03   18.14
  -2  -7  -6  582.23   16.15
  -6  -2   7  656.22   22.57
  -6   2   7  659.58   22.76
   6  -2  -7  631.60   20.94
  -6  -2   7  660.51   16.12
  -7  -6   2  621.78   20.16
  -7  -6  -2  635.99   21.64
  -2  -7  -6  669.82   17.57
  -6  -2   7  664.51   11.70
   6  -2   7  656.61   20.52
   2  -7   6  633.12   19.79
   2   7   6  656.38   19.81
   2  -7  -6  624.97   10.94
   7   6  -2  643.63   18.83
   6   2   7  640.79   21.00
  -2   7   6  654.49   13.88
   6   2  -7  641.73   22.47
   2   7  -6  639.92   21.67
  -6   2  -7  646.69   21.88
  -7  -6  -2  607.04   21.22
  -6  -2  -7  651.69   18.01
  -6   2  -7  653.86   24.05
  -6  -2  -7  636.16   23.64
  -7   6   2  648.57   17.20
  -2  -7  -6  657.15   23.81
   2  -7   6  620.40   19.29
   7  -6  -2  637.92   17.81
   7  -6   2  626.26   20.22
  -2  -7   6  664.05   16.18
  -7  -6   2  629.04   22.25
   6   2  -7  626.96   21.28
  -6   2   7  669.34   14.62
   2  -7  -6  658.25   19.34
   6   2   7  624.10   18.61
   6  -2  -7  645.12   21.98
  -2  -7  -6  629.65   13.72
   7   6   2  657.51   16.52
  -6  -2   7  655.19   18.37
  -7   6  -2  637.91   13.36
  -7   6   2  636.07   18.99
   2   7   6  645.74   21.21
  -6   2  -7  640.82   20.82
  -7   6   2  670.95   17.18
  -7   6  -2  633.67   20.79
   7  -6   3   12.49    2.07
  -7  -6   3   13.82    2.65
  -7   6   3   13.55    2.82
  -7  -6  -3   17.19    2.91
  -3  -7  -6   16.51    3.74
  -7  -6   3   14.62    2.41
   7   6  -3   15.02    3.27
  -3   7  -6   20.11    3.25
  -7   6   3   12.12    3.00
   3  -7  -6   16.52    3.09
  -6   3   7   17.33    3.38
   6   3  -7   15.11    3.11
  -7  -6   3   16.13    3.25
  -3  -7   6   20.04    2.92
  -3  -7  -6   18.32    3.09
  -7  -6  -3   13.41    3.01
  -3   7   6   17.63    2.85
  -6  -3   7   16.57    3.24
  -6   3   7   16.28    3.58
  -6  -3   7   14.76    2.05
   6  -3   7   13.58    2.66
   3  -7  -6   18.92    2.29
  -3   7   6   19.23    1.94
   6  -3   7   17.04    3.33
   6   3   7   16.54    3.57
   3   7  -6   20.90    3.94
   7   6  -3   13.60    2.81
   6  -3  -7   15.57    3.28
   3   7   6   18.84    3.47
   6   3  -7   15.69    3.74
  -6   3  -7   17.20    3.61
  -7  -6  -3   13.76    3.36
  -7   6  -3   17.03    2.98
  -6   3  -7   17.09    3.52
  -3   7  -6   21.23    3.47
  -7   6   3   17.77    2.65
  -6   3  -7   13.09    3.35
  -6  -3  -7   18.68    3.84
  -3  -7  -6   16.61    2.76
  -6  -3  -7   13.50    2.61
  -7   6  -3   12.97    3.21
   3  -7   6   22.56    3.81
  -6  -3   7   15.91    3.08
  -3  -7   6   18.21    2.56
   7  -6  -3   16.04    2.90
   3  -7   6   13.49    2.82
   7  -6   3   15.55    3.26
  -3  -7   6   17.63    3.65
  -3  -7  -6   18.24    1.87
  -6   3   7   15.84    2.39
   6  -3  -7   15.68    3.36
  -7   6   3   16.95    1.88
  -3   7   6   19.02    3.29
   6   3   7   15.25    3.06
   6   3  -7   16.51    3.38
   7  -6  -3   14.54    3.13
   3  -7  -6   18.48    3.56
   3   7   6   16.22    3.20
  -3   7   6   17.66    3.67
  -6  -3   7   18.11    3.05
  -7   6   3   14.37    2.61
   7   6   3   14.49    2.43
  -7   6  -3   13.86    1.97
  -7  -6   3   15.31    3.09
  -7   6   3   13.68    2.93
  -4   7   6  130.94    7.76
  -6  -4   7  122.19    9.24
  -6   4   7  127.13    9.48
  -7  -6   4  128.69    8.48
   7  -6   4  129.63    6.99
  -4  -7   6  128.25    8.39
  -4  -7  -6  133.23    9.64
   4  -7  -6  142.74    8.62
  -7  -6  -4  128.25    8.32
  -7  -6   4  123.56    6.93
  -4  -7   6  124.61    7.53
  -7   6   4  127.75    8.51
  -4   7  -6  133.77    7.86
   4   7  -6  134.05   10.05
   6   4  -7  118.09    9.12
  -6   4   7  117.78    9.50
   7   6  -4  125.95    9.37
   6  -4  -7  130.93    9.17
  -6  -4   7  122.62    9.78
  -6   4   7  118.78    9.49
  -4  -7   6  125.14    7.89
  -4   7   6  135.41    8.23
   7  -6  -4  131.30    9.16
   4  -7  -6  127.50    7.14
  -7  -6   4  131.91    8.61
  -7   6   4  121.04    8.27
   6  -4   7  124.53    8.29
  -4  -7   6  127.73    7.63
  -6  -4   7  127.57    6.94
  -7  -6   4  109.77    8.23
  -7  -6  -4  123.25    9.90
  -4  -7  -6  141.56    9.30
   4  -7   6  129.97    8.74
   6   4  -7  120.77   10.24
   4   7   6  140.19   10.12
   6   4   7  121.08    9.57
   7  -6   4  125.51    6.81
   6  -4   7  119.40    8.72
   4   7  -6  126.78    9.88
   7   6  -4  126.02    9.41
  -7   6  -4  127.00    8.26
  -7  -6  -4  134.91    8.45
  -7  -6  -4  118.40   10.28
  -6  -4  -7  118.13   10.77
  -4   7  -6  130.64    8.65
  -4  -7  -6  128.29    8.50
  -6   4  -7  124.99   10.31
  -6  -4  -7  120.25   10.07
  -4  -7  -6  129.52   10.84
   7  -6  -4  132.88    7.70
   7  -6   4  124.59    9.59
  -4  -7   6  134.79   10.09
  -6  -4   7  127.14    9.15
   4  -7   6  139.55    9.94
  -7  -6   4  111.74    9.61
  -7   6  -4  119.00    5.61
  -4   7   6  131.31    8.26
   7  -6  -4  126.49    9.84
   4  -7  -6  135.45    9.83
  -7   6   4  123.87    5.26
   6   4   7  121.03    8.68
   6  -4  -7  112.08    9.62
  -6   4   7  127.19    6.64
  -7   6   4  136.57    8.79
  -7   6   4  131.77    9.10
  -7   6  -4  132.09    7.13
  -6   4  -7  127.05    9.99
  -7  -6   4  129.45    8.99
  -7   6  -4  134.69   10.34
   7   6   4  131.60    7.33
   4   7   6  131.88    9.25
  -4   7   6  137.36   10.47
  -7  -6   5  210.74    9.26
  -6  -5   7  209.32   11.86
  -6   5   7  225.06   12.49
  -7  -6  -5  227.89   11.59
  -5  -7  -6  225.97   12.68
  -5  -7   6  208.47   10.61
  -7  -6   5  212.59   11.25
  -7   6   5  213.58   11.38
  -5   7   6  224.13   10.70
  -5  -7   6  214.31   10.25
  -6   5   7  231.34   13.62
   6   5  -7  221.74   12.85
  -7   6   5  213.61   13.50
   5   7  -6  223.52   13.27
   7   6  -5  212.63   12.44
  -6  -5  -7  218.80   12.51
  -6  -5   7  219.14   12.76
  -6   5   7  222.47   12.89
  -5  -7   6  218.23   10.88
  -5   7   6  215.55   10.90
   7  -6  -5  222.24   12.15
  -7  -6   5  210.81   11.31
  -7   6   5  214.43   11.46
  -5   7   6  210.36   10.50
  -6  -5   7  229.24   12.58
   6  -5   7  225.70   11.56
  -5  -7   6  210.67   10.32
  -7  -6   5  230.04   11.77
   6  -5  -7  220.63   11.78
  -5  -7  -6  236.50   12.69
  -7  -6  -5  211.43   13.08
   5  -7  -6  208.80    9.90
  -6  -5   7  218.77   10.02
   6  -5   7  225.45   11.86
   7  -6   5  209.15    9.74
   5   7   6  216.36   13.21
   7   6  -5  221.33   13.23
   5  -7   6  228.51   11.41
   6   5  -7  230.85   14.18
   5   7  -6  211.93   13.05
  -7   6  -5  210.45   10.97
  -7  -6  -5  224.38   11.15
  -5  -7  -6  215.91   14.33
  -7  -6  -5  205.70   14.05
  -6  -5  -7  218.77   14.84
  -5   7  -6  207.32   11.15
  -5  -7  -6  207.98   11.17
  -6   5  -7  223.01   13.58
  -6  -5  -7  221.63   13.44
  -5   7  -6  212.00   10.04
  -5  -7  -6  215.29    9.94
  -7  -6   5  232.76   13.89
   7  -6   5  232.55   13.49
  -5  -7   6  204.07   12.85
   5  -7   6  216.70   12.84
  -6  -5   7  216.25   12.47
  -5   7  -6  225.90   10.52
   7  -6  -5  213.80   13.12
   7   6   5  222.87   11.66
   5   7   6  224.65   12.83
  -5   7   6  220.13   10.20
   6   5   7  217.02   12.02
   5  -7  -6  225.22   13.25
  -6   5   7  213.67    8.98
   6   5   7  231.21   10.11
  -7   6   5  211.93   11.52
  -5   7  -6  227.53   13.80
  -7  -6   5  224.30   12.27
  -7   6   5  208.92   12.01
  -7   6  -5  216.77   13.52
   5   7   6  226.44   11.78
  -5   7   6  216.05   12.98
  -6  -7   6   41.24    4.76
  -6  -7  -6   43.75    5.57
  -6  -6   7   37.60    4.31
  -6  -7   6   43.27    4.72
  -7  -6   6   41.29    4.19
  -6  -6   7   31.10    4.60
  -7  -6   6   35.20    4.80
  -7   6   6   36.29    4.78
  -6   7   6   41.70    4.86
  -6   6   7   35.55    4.76
   6   6  -7   34.83    5.30
   7   6  -6   36.38    5.27
  -6   7   6   43.55    6.17
  -6   6   7   35.18    5.48
  -7   6   6   34.47    5.35
   6   7  -6   42.91    5.87
  -7  -6  -6   36.94    5.49
  -6  -6  -7   36.80    5.20
  -6  -6   7   32.36    4.64
  -6   6   7   34.79    4.98
  -6  -7   6   35.70    4.59
  -6   7   6   41.64    5.12
  -7  -6   6   37.76    5.20
  -7   6   6   37.33    5.27
  -7  -6   6   34.50    4.78
  -6  -7   6   40.35    4.76
  -7   6   6   38.04    5.15
  -6   7   6   42.31    4.89
  -6  -6   7   35.48    4.90
  -6   6   7   34.41    4.81
   6  -6  -7   37.47    4.93
  -7  -6   6   36.36    4.61
   7  -6  -6   34.70    4.82
   6  -7  -6   40.43    4.79
  -6  -7  -6   43.61    5.85
   7  -6   6   41.86    4.72
   6   7   6   41.88    5.96
   6  -6   7   39.52    4.94
   7   6   6   35.06    5.59
   7   6  -6   34.29    5.38
   6   6  -7   37.30    5.84
   6   7  -6   39.52    5.75
   6  -7   6   37.81    4.65
  -6   7  -6   40.32    4.56
  -7  -6  -6   31.34    5.99
  -6  -7  -6   39.79    6.42
  -7  -6  -6   41.63    5.71
  -6   7  -6   38.55    5.09
  -6  -7  -6   44.94    5.67
  -6  -6  -7   39.05    6.60
  -6   6  -7   38.53    5.49
  -6  -6  -7   39.33    5.64
  -6   6  -7   37.37    4.86
  -6  -6  -7   36.19    4.60
  -7   6  -6   38.15    4.78
  -6  -7  -6   39.72    4.51
  -7  -6  -6   35.39    4.63
  -7  -6   6   31.12    5.08
  -6  -7   6   42.62    6.05
   6  -6   7   34.86    5.24
   7  -6   6   39.80    5.75
  -6  -6   7   45.28    6.19
  -6   7  -6   39.45    4.10
   6   7   6   39.46    5.30
   7   6   6   40.55    5.22
   6   6   7   35.46    5.11
   6  -7  -6   39.60    5.81
  -6   7   6   41.85    4.20
   7  -6  -6   41.12    5.96
  -6   6  -7   39.28    3.94
  -6   6   7   33.67    3.64
  -6   7   6   46.71    6.01
  -6   6   7   37.99    5.59
  -6   7  -6   40.12    5.88
  -6   6  -7   34.48    5.74
  -7   6   6   38.04    5.28
  -6   7   6   39.87    5.07
  -7   6   6   38.26    5.37
  -6  -7   6   42.87    5.04
  -7  -6   6   28.87    4.57
  -7   6  -6   33.83    5.57
   6   7   6   45.20    5.07
   6   6   7   40.37    4.58
  -7   0   7    7.26    2.27
  -7  -7   0    7.05    1.81
   7  -7   0    8.83    1.55
   0  -7  -7    8.25    2.03
   7   7   0    7.35    2.16
   7   0  -7    5.47    1.64
   0  -7  -7    6.97    2.29
   0   7  -7    9.30    2.31
   0   7  -7    6.94    2.35
  -7   7   0   10.11    2.73
  -7   0   7    9.01    2.92
  -7   0   7    5.22    1.12
   7   7   0    6.09    1.43
   0   7   7    9.73    2.42
   7   0   7    6.23    2.39
   7   0  -7    7.14    2.13
  -7  -7   0    6.75    2.07
  -7   7   0    9.33    2.32
  -7   0  -7    8.23    3.46
  -7   0  -7    6.09    2.16
  -7   0  -7    8.33    2.97
   7  -7   0    8.87    2.54
  -7  -7   0    6.97    2.45
   0  -7   7    7.13    1.96
   0  -7  -7    9.13    2.08
   7   0   7    5.35    1.52
   7   0  -7    6.89    2.56
   0   7   7    4.03    1.72
  -7   7   0    7.38    1.88
   0   7   7    5.98    2.21
   7   7   0    5.65    1.74
  -7   1   7  133.54   10.18
  -7  -7   1  160.22    8.90
   7  -7   1  146.07    6.88
  -7  -7   1  145.73    7.89
  -7   7   1  141.86    7.84
  -1  -7  -7  148.14   10.44
   1  -7  -7  147.95   10.03
  -7  -7  -1  136.79    8.09
   7   1  -7  142.11    9.14
  -1   7  -7  142.06    9.55
   1   7  -7  133.41    9.65
   7   7  -1  146.34   10.02
  -7   7  -1  141.08    9.11
  -7   1   7  130.16    9.40
  -1   7  -7  137.95    8.34
  -1  -7  -7  143.91    8.71
   7   7   1  133.79    9.60
  -7   7   1  146.27    9.99
  -7  -1   7  127.54   10.45
  -7  -1   7  139.78    6.74
  -7   1   7  137.78    6.10
   7  -1  -7  136.77   10.37
  -7  -7   1  135.32    9.98
  -7  -7  -1  132.28   10.12
  -1  -7  -7  152.59    7.65
   1   7  -7  137.41   10.69
   1  -7   7  147.01   10.21
   1   7   7  145.88    9.06
   7  -1   7  136.81    9.56
   7   1   7  125.54    9.34
  -1   7   7  147.72    7.80
   7   7  -1  144.26    8.11
  -7   1  -7  131.87   10.85
  -7  -1  -7  128.70   11.17
  -7  -1  -7  129.68   11.23
  -7  -1  -7  143.09    9.41
  -7  -7  -1  130.97    9.39
   7  -7   1  133.02    9.46
   7  -7  -1  128.22    8.79
  -1  -7   7  146.70    8.05
   7  -1   7  137.28    9.74
  -7  -7   1  141.25   10.70
   1  -7   7  141.57    8.76
   7   1   7  137.59    8.45
   7   7   1  148.36    8.74
   7  -1   7  131.85    8.08
  -1   7   7  147.88    9.91
   1  -7  -7  140.09    8.80
  -1  -7  -7  142.86    7.78
   7  -1  -7  145.51   10.52
   7   1  -7  143.31   10.32
   7   7  -1  138.04    8.59
  -7   7  -1  145.36    9.62
  -7   7   1  136.15    8.44
  -7   7   1  140.00    8.08
  -7   7  -1  141.96    7.34
   1   7   7  149.02   10.77
  -1   7   7  143.07   10.73
  -7   1  -7  141.51    9.93
   2  -7  -7  155.17    9.96
  -7  -2   7  173.46   11.56
  -7   2   7  181.72   11.96
   7  -7   2  180.42    7.84
  -7  -7   2  173.57    8.86
  -7   7   2  181.76    9.04
  -7  -7  -2  182.84    9.64
  -7  -7   2  182.47    9.08
  -2  -7  -7  166.11   11.16
   7   7  -2  166.96   10.95
   7   2  -7  181.44   10.63
   7   7   2  178.76   11.33
  -7   7  -2  177.22    9.70
   2   7  -7  156.14   10.67
  -7   7   2  178.68   11.53
  -7   2   7  180.07   11.32
  -2   7  -7  164.35   10.01
  -2   7  -7  145.51    8.61
  -2  -7  -7  155.35    9.05
   7  -2  -7  185.56   11.98
  -7  -2   7  175.36   12.23
  -7   2   7  197.97   13.03
  -7   2   7  181.26    6.95
  -7  -7   2  168.65   10.95
  -7  -7  -2  177.53   11.90
  -2  -7  -7  158.06    8.54
   7  -2   7  189.31   11.14
   2   7   7  161.37   10.13
   2   7  -7  168.12   11.79
   7   2  -7  180.86   12.39
   7   2   7  171.31   11.13
   7   7  -2  183.85    9.98
   2  -7   7  156.36   10.43
  -2   7   7  162.58    7.35
  -7  -7  -2  177.72   11.36
  -7   2  -7  189.11   13.51
  -7  -2  -7  192.32   13.50
  -2  -7  -7  154.10   12.23
  -7   7   2  184.83    9.20
  -7  -2  -7  182.32   10.32
  -7   2  -7  185.23   12.36
   7  -2   7  182.80   11.44
   2  -7   7  152.87    9.64
  -7  -7   2  185.53   12.35
   7  -7  -2  180.40   10.17
  -2  -7   7  157.75   10.78
  -2  -7   7  160.45    7.94
   7  -7   2  179.49   11.39
   7   2  -7  180.18   11.48
  -2   7   7  160.47   10.18
   7  -2  -7  188.84   12.23
   7   2   7  185.67   10.09
   2   7   7  163.44   10.95
   2  -7  -7  170.44   10.31
  -2  -7  -7  167.22    7.53
  -7   2  -7  189.35   11.86
  -7   7   2  182.77    9.69
  -7  -2   7  189.70   10.69
  -7   7  -2  175.63    7.95
  -2   7   7  161.12   11.72
   7   7   2  185.48    9.70
  -7   7  -2  177.94   11.16
   2   7   7  162.94   10.98
  -7  -3   7  231.83   13.43
  -7   3   7  242.27   13.81
  -7  -7  -3  219.53   10.96
   7  -7   3  226.14    9.27
  -7  -7   3  225.57   10.52
  -7   7   3  232.14   10.58
  -7  -7   3  223.37    9.95
  -7   7   3  217.06   13.14
   7   7   3  234.87   13.11
  -3   7  -7  234.23   11.56
  -7   3   7  248.64   13.76
   7   3  -7  227.80   12.38
   3  -7  -7  232.89   11.84
   7   7  -3  227.04   12.93
  -3   7   7  223.40   10.77
   7  -3  -7  241.32   13.45
  -7  -3   7  245.82   14.44
  -7   3   7  228.81   13.92
   7  -3   7  237.70   11.00
  -7  -7  -3  228.93   13.56
  -7   3   7  250.92   14.16
  -7  -7   3  223.23   12.49
  -7  -3   7  236.11   13.59
  -7  -3   7  237.25    8.58
  -3  -7   7  221.25   10.69
  -3  -7  -7  239.57   11.34
   7   3   7  232.30   13.21
   3  -7   7  231.15   12.69
   7  -3   7  230.45   12.19
   3   7   7  227.82   12.77
   3  -7  -7  220.50    8.07
   7   7  -3  224.56   11.88
   3   7  -7  225.85   13.73
   7   3  -7  227.34   14.25
  -7   3  -7  252.10   14.18
  -7  -7  -3  220.50   13.45
  -3  -7  -7  210.80   14.32
  -7  -3  -7  236.84   15.66
  -7   3  -7  228.29   14.66
  -7  -3  -7  239.19   14.95
  -3   7  -7  219.01   11.43
  -3  -7  -7  217.86   11.24
  -7  -3  -7  247.30   11.58
   7  -3   7  231.47   13.14
   7  -7   3  225.21   13.06
  -3  -7   7  222.36    8.45
   7  -7  -3  216.89   10.88
  -3  -7   7  220.92   12.88
  -7  -7   3  223.58   13.85
   3  -7   7  219.78   12.11
   7   3  -7  245.12   13.18
   7  -7  -3  217.45   13.05
  -7   7   3  222.28    7.53
   3   7   7  217.42   12.69
  -3   7   7  237.61   12.07
   7   3   7  243.36   11.95
  -7   3   7  231.82    7.85
   3  -7  -7  224.34   12.43
   7  -3  -7  250.08   14.38
  -7   7  -3  218.80    8.68
  -7  -7   3  229.55   11.28
  -7  -3   7  244.01   11.88
   7   7   3  232.88   10.61
  -7   7   3  229.93   11.34
  -7   7  -3  228.43   13.08
  -7   3  -7  250.87   14.10
   3   7   7  230.24   12.70
  -7   7   3  237.43   11.54
  -7  -7   4   14.60    2.84
  -7   7   4   17.15    2.95
  -7  -7  -4   18.68    3.23
  -7  -4   7   14.16    3.57
  -7   4   7   12.65    3.18
  -7  -7   4   16.11    2.63
  -4  -7   7   12.77    2.63
  -4   7   7   15.62    2.95
  -7  -4   7   14.31    2.34
   7  -7   4   16.36    2.71
   4   7  -7   16.55    3.66
   7   7  -4   20.43    4.18
   7   4  -7   13.11    3.23
  -7   4   7   12.70    3.31
  -4  -7  -7   12.04    3.09
  -4   7   7   15.34    3.13
  -7  -4   7   13.25    2.37
   7  -7  -4   17.10    3.42
  -7  -7  -4   22.13    4.34
  -4  -7  -7   11.31    2.72
  -7   4   7   17.93    3.81
  -4  -7   7   16.99    3.09
  -7  -4   7   13.28    3.26
  -7  -4   7   14.69    3.49
  -7   4   7   15.30    4.00
   7  -4   7   11.43    2.56
  -7  -7   4   17.09    3.39
   7   7  -4   17.46    3.64
   7   4   7    9.88    2.77
   4   7  -7   11.67    2.91
   7  -4   7   15.54    3.22
   7  -4  -7   10.64    2.69
   4  -7  -7   13.60    2.39
   4   7   7   13.61    3.33
   7   4  -7   15.99    4.07
  -7   4  -7   13.64    3.37
  -7  -4  -7   12.94    3.15
  -7   4  -7   14.34    3.54
  -7   7  -4   18.12    3.03
  -7  -7  -4   13.54    3.73
  -7  -4  -7   11.68    3.48
  -7   7  -4   13.54    3.26
  -7   4  -7   12.89    3.53
  -4  -7  -7   12.73    3.71
  -7  -4  -7   13.43    3.47
  -4   7  -7   11.60    2.78
  -4  -7  -7   14.15    2.84
  -7  -4   7   12.83    3.17
  -4  -7   7   15.33    3.59
   4  -7   7   13.41    2.94
   4  -7   7   15.94    3.40
   7  -7   4   18.93    3.91
  -4   7   7   14.76    2.84
   7  -4  -7    9.12    2.79
   7   4   7   15.64    3.10
   7  -7  -4   15.69    2.79
  -7   7  -4   17.66    2.44
   7  -7  -4   16.40    3.64
   4   7   7   12.42    3.09
   4  -7  -7   13.14    3.07
   7   7   4   16.67    2.85
   4   7   7   15.35    3.05
  -7   7   4   14.89    3.14
  -4   7   7   11.88    3.26
  -7   7   4   15.21    3.08
  -7  -7   4   15.32    3.00
  -7  -7   5   17.24    3.18
  -7  -7   5   17.36    2.90
  -7   7   5   18.93    3.35
  -7  -5   7   16.66    3.57
  -7   5   7   13.24    3.09
  -5   7   7   17.33    3.20
   7  -7   5   21.40    3.22
  -5  -7   7   18.31    3.24
  -7  -5   7   16.01    2.37
  -7  -7  -5   24.91    4.09
  -5  -7   7   22.00    3.70
   5   7  -7   15.93    3.50
  -7   7   5   18.50    4.08
   7   7  -5   21.53    3.93
  -7   5   7   17.51    3.95
   7   5  -7   15.89    3.39
  -7  -5   7   16.56    3.34
  -7  -5   7   17.59    2.96
  -7  -7  -5   16.50    3.71
  -5  -7  -7   17.27    3.34
  -5  -7   7   20.53    3.68
  -7   7   5   20.13    3.48
  -7  -7   5   19.46    3.49
   5  -7  -7   21.41    3.27
  -7   5   7   16.85    3.69
  -5   7   7   18.21    3.33
  -5   7   7   15.86    3.15
  -7  -5   7   14.96    3.52
  -7   5   7   17.49    3.69
  -5  -7   7   20.59    3.51
  -7  -7   5   16.38    3.36
   7  -5   7   17.50    3.24
   7   5   7   12.19    3.20
   7   5  -7   18.59    4.26
   7   7  -5   17.71    3.73
   7  -7  -5   17.46    3.42
   5  -7   7   21.94    3.84
   5   7  -7   19.62    4.33
   7  -5  -7   18.74    3.82
   5   7   7   24.85    4.59
  -5  -7  -7   22.97    5.23
  -7   5  -7   17.22    3.40
  -7  -5  -7   16.75    3.52
  -7  -5  -7   11.10    3.93
  -7  -7  -5   18.76    3.15
  -7   7  -5   15.90    3.85
  -5  -7  -7   21.48    3.93
  -7  -7  -5   15.76    3.90
  -7   5  -7   12.65    3.34
  -7  -5  -7   14.73    3.75
  -5   7  -7   19.75    3.86
  -7   7  -5   20.61    3.60
  -5  -7  -7   15.96    2.94
  -5  -7   7   22.69    4.39
  -7  -7   5   20.79    4.35
   7  -7   5   20.23    4.21
   5  -7   7   22.86    4.30
  -7  -5   7   16.87    3.72
   7  -5   7   15.62    3.14
   7  -5  -7   16.69    3.76
   7   5   7   12.90    2.90
  -5   7   7   23.23    3.45
   7   7   5   17.71    3.55
   5   7   7   22.07    4.08
   5  -7  -7   22.35    4.30
  -7   7   5   19.91    3.71
  -5   7   7   21.16    4.21
  -7   7   5   14.40    2.92
  -7  -7   5   20.71    3.69
   5   7   7   23.92    3.98
  -5   7  -7   21.53    4.70
  -7  -7   6    7.64    1.88
  -7   7   6   11.59    2.56
  -7  -6   7    8.70    2.77
  -7   6   7   10.43    2.99
  -6  -7   7    6.54    2.14
  -6   7   7    8.55    2.40
  -7  -7   6    9.43    2.47
  -6  -7   7    7.73    2.11
  -7  -6   7    8.57    1.98
   7   6  -7    9.63    2.97
   6   7  -7    4.27    2.14
  -7   6   7    9.15    2.92
   7   7  -6   13.57    3.64
  -6   7   7    9.03    2.67
  -7   7   6   10.92    3.54
  -7  -6   7    9.30    2.29
  -7  -7  -6    8.42    2.72
  -6  -7  -7    5.50    2.10
  -7  -6  -7    8.90    3.06
  -7   6   7    9.17    2.81
  -7  -7   6    8.37    2.16
  -7   7   6   10.01    2.62
  -7  -6   7    6.61    2.07
  -6  -7   7    8.18    2.23
  -6   7   7    8.49    2.41
  -6  -7   7    5.85    1.99
  -6   7   7    6.91    2.00
  -7  -6   7   13.66    3.39
  -7   6   7    8.89    2.73
  -7  -7   6   11.30    2.82
   7  -7  -6   11.07    2.62
   7   6  -7    7.08    2.33
   6   7  -7    8.74    2.70
   7   7  -6   13.36    3.37
   7  -6  -7    8.66    2.92
   6  -7  -7    7.38    2.02
   6   7   7    6.02    2.48
   7   6   7    5.84    1.58
  -6   7  -7    9.50    2.26
  -6  -7  -7    9.48    2.15
  -7   6  -7    8.13    1.85
  -7  -6  -7    7.21    2.28
  -7   7  -6    8.50    2.07
  -7   7  -6    7.54    2.64
  -7  -7  -6   10.74    3.03
  -7  -7  -6   14.92    3.06
  -6  -7  -7    6.26    2.71
  -7  -6  -7   11.10    3.10
  -6   7  -7    5.22    1.91
  -6  -7  -7    9.64    2.82
  -7   6  -7    8.39    2.97
  -7   6  -7    7.10    2.84
  -7  -6  -7    6.71    2.41
  -6  -7   7    7.49    2.55
  -7  -6   7    6.61    2.56
   6  -7   7    8.03    2.43
   6  -7   7    8.50    2.66
   7  -7   6   12.56    3.29
   7  -6   7    9.36    2.53
  -7  -7   6   12.65    3.39
  -6   7   7   10.33    2.03
   7   7   6   12.71    2.80
   7   6   7    8.98    2.72
   6   7   7    6.98    2.47
   6  -7  -7    8.05    2.76
  -6   7   7    7.08    1.88
  -6  -7   7    8.74    2.65
  -6   7  -7   11.13    3.59
  -6   7   7    6.94    2.24
  -7   7   6    8.34    2.13
  -7   6   7    9.69    2.83
  -7  -6   7    8.22    2.85
  -7   7   6    8.05    2.64
  -7  -7   6    7.39    2.17
  -7  -7   7  195.77    9.90
  -7  -7   7  178.69   10.65
   7   7  -7  176.43   12.50
  -7   7   7  182.71   13.20
  -7  -7  -7  194.79   12.76
  -7   7   7  188.46   11.66
   7  -7  -7  187.00   11.17
  -7  -7   7  185.87   11.04
  -7  -7   7  192.33   10.80
   7   7  -7  197.59   13.69
  -7  -7  -7  198.74   10.82
  -7  -7  -7  177.97   14.08
  -7  -7   7  181.97   12.99
   7   7   7  195.62   12.23
  -7   7  -7  192.44   13.56
  -7   7   7  188.02   11.82
   0  -8   0  226.38   10.74
  -8   0   0  224.87   11.74
   0   0   8  229.47   11.07
   0   0  -8  237.26   10.87
  -8   0   0  236.85   11.94
   8   0   0  233.49    8.96
   0   0   8  235.60    6.05
   8   0   0  220.04    8.38
   0   8   0  215.62   11.61
   8   0   0  215.97    6.54
   0   8   0  217.82    9.87
  -8   0  -1  119.23    8.65
  -1  -8   0  123.11    8.00
   1  -8   0  118.31    7.78
  -8   0   1  125.76    8.91
   0  -1   8  128.47    3.77
   8   0   1  121.99    4.94
  -1   8   0  116.34    6.78
   8   0  -1  122.82    5.05
   1   8   0  120.01    7.67
   8   0  -1  118.60    8.37
   0   1   8  125.80    4.29
   0   1   8  120.27    7.97
   8   0   1  127.69    6.76
   0  -1   8  118.80    8.24
   0  -1  -8  127.19    7.49
   0   1  -8  117.53    8.12
  -1  -8   0  119.88    6.04
  -8   0  -1  112.11    8.32
   0   1  -8  130.14    8.23
   1  -8   0  126.00    8.54
   8   0   1  114.96    6.78
   0  -1   8  128.03    6.45
   8   0  -1  124.35    5.90
   0  -1  -8  123.30    8.34
   8   0  -1  119.84    6.65
   1   8   0  114.68    8.47
  -1  -8   0  123.63    8.25
   8   0   1  120.76    5.85
  -8   0   1  120.08    8.75
  -8   0  -1  118.63    8.55
  -8   0   1  124.39    9.33
  -8   0   2    1.67    1.09
   2  -8   0    1.49    1.05
   0   2  -8    0.87    0.29
   8   0  -2    1.23    0.71
   2   8   0    3.32    1.30
   8   0   2    2.15    0.79
  -2   8   0    0.37    0.22
   8   0   2    1.68    0.35
   8   0  -2    2.82    1.87
   0  -2  -8    0.25    0.64
   0   2  -8    0.40    0.74
   0   2   8    1.88    1.27
   8   0   2    1.41    0.49
  -2  -8   0    1.28    1.19
  -8   0  -2    1.69    0.67
   0  -2  -8    0.52    0.26
  -8   0  -2    1.90    1.17
  -2  -8   0    1.81    0.95
   8   0  -2    2.62    0.80
   2  -8   0   -0.13    0.54
   8   0   2    0.51    0.37
   0  -2   8    0.51    0.43
   0  -2  -8    1.32    1.18
   8   0  -2    0.09    0.47
  -8   0   2    0.70    0.72
   2   8   0    0.27    0.76
  -8   0  -2    2.32    1.38
  -8   0   2    3.13    2.02
  -2   8   0    0.39    0.99
  -3  -8   0  105.18    7.61
   3  -8   0  122.69    7.60
  -8   0   3  117.43    8.82
  -3   8   0  117.96    5.85
   8   0  -3  118.47    5.74
   8   0  -3  122.28    9.06
  -8   0   3  121.94    9.07
   8   0   3  113.99    7.20
   0   3   8  108.07    7.39
   0  -3  -8  107.92    5.95
   0   3  -8  116.23    8.96
  -8   0  -3  110.89    8.37
  -3  -8   0  115.70    6.40
   0   3  -8  104.09    6.13
   0  -3   8  113.59    6.36
   3  -8   0  118.02    8.56
  -3  -8   0  120.23    8.48
   0  -3  -8  106.10    7.63
   3   8   0  120.42    8.61
   8   0  -3  116.60    7.48
  -3   8   0  119.87    8.42
   8   0   3  121.34    4.67
  -3   8   0  119.81    7.12
  -8   0  -3  121.87    8.33
  -8   0   3  120.17    9.51
  -8   0   4   41.38    5.43
   4  -8   0   41.74    4.38
  -4  -8   0   46.38    5.04
   0   4  -8   42.50    5.33
   8   0  -4   40.57    3.64
  -4   8   0   41.21    2.98
  -8   0   4   36.52    5.41
  -8   0   4   44.22    5.52
   0  -4   8   40.67    5.14
   8   0  -4   41.03    5.36
   4   8   0   45.36    3.40
   8   0   4   46.07    4.87
   0  -4   8   43.20    5.40
   0   4   8   43.12    4.73
   0  -4  -8   41.15    3.32
  -4  -8   0   39.11    3.87
   0   4  -8   45.40    3.30
  -8   0  -4   39.67    5.15
  -8   0  -4   38.29    4.97
   4  -8   0   46.14    5.47
   0  -4   8   43.28    4.06
  -4  -8   0   43.81    5.21
   4   8   0   45.73    5.38
   8   0   4   40.82    3.23
   0   4   8   42.28    5.13
   8   0  -4   42.31    4.79
   0  -4  -8   44.73    4.89
   0   4   8   38.25    5.08
  -4   8   0   43.35    4.40
  -8   0   4   41.62    5.83
  -4   8   0   45.16    5.00
  -8   0   5  157.62   10.75
   5  -8   0  164.52    8.40
  -5  -8   0  154.65    9.36
   8   0  -5  166.01    8.07
   0   5  -8  176.07   11.03
   5   8   0  147.48   10.02
   8   0  -5  163.63   11.22
  -8   0   5  165.57   11.69
  -8   0   5  172.10   11.47
   0  -5   8  169.29   10.86
   0   5  -8  176.18   11.96
   0  -5   8  170.80   11.17
   8   0   5  169.17    9.87
   0   5   8  165.31    9.25
  -5  -8   0  158.88    8.44
  -8   0  -5  156.72   12.06
  -8   0  -5  170.94   10.91
  -8   0  -5  162.83   10.82
  -8   0  -5  161.95   12.21
   5  -8   0  155.46   10.10
  -5  -8   0  154.23   10.34
   0  -5   8  163.84    8.18
   8   0   5  166.25    7.51
   5   8   0  153.51    9.77
   0   5   8  160.53   10.24
   8   0  -5  165.44   10.07
   0  -5  -8  171.43    9.61
   0   5   8  170.84   11.23
  -8   0   5  159.79   11.53
  -5   8   0  161.73    9.34
  -5   8   0  166.71    9.06
  -6  -8   0   12.59    2.87
  -8   0   6   18.32    3.86
   6  -8   0   13.08    2.48
   0   6  -8   10.67    2.94
   0   6  -8   11.23    2.73
   0  -6  -8   13.68    3.14
   6   8   0    9.55    2.71
   8   0  -6   15.41    2.71
  -6   8   0   13.13    3.06
  -8   0   6   17.55    3.78
  -8   0   6   13.93    3.58
   0  -6   8   11.86    2.93
  -6  -8   0   11.31    2.90
   8   0   6   15.81    3.20
   0   6   8   13.18    2.66
  -8   0  -6   18.63    3.75
  -6  -8   0   11.08    2.42
  -8   0  -6   21.14    4.77
  -8   0  -6   15.18    3.83
  -8   0  -6   17.48    3.64
  -6   8   0   14.63    2.79
   0  -6   8   12.66    2.44
  -6  -8   0   14.02    3.32
   6  -8   0   12.35    3.12
   0  -6   8   17.22    3.76
   0   6   8   11.48    2.92
   8   0  -6   12.93    3.04
   0  -6  -8   11.62    2.62
   8   0   6   17.48    2.76
   0   6   8   11.66    2.95
   6   8   0   15.31    3.13
  -6   8   0   15.06    2.98
  -8   0   7   14.40    3.29
  -7  -8   0   11.07    2.52
   0   7  -8    8.69    2.52
   0  -7  -8    8.22    2.28
   7   8   0   10.92    2.82
   0   7  -8    5.12    2.15
  -7   8   0   11.20    2.73
  -8   0   7    9.17    2.89
  -8   0   7   12.22    3.52
   0   7   8    7.38    2.07
   8   0   7   11.22    2.78
  -8   0  -7   13.20    3.55
  -8   0  -7   11.91    3.68
  -7   8   0   11.09    2.67
  -8   0  -7    7.96    3.29
  -8   0  -7   12.41    3.06
   7  -8   0   11.84    3.06
  -7  -8   0   11.27    3.23
   8   0   7    9.82    2.73
   0  -7   8   10.65    3.06
   0  -7   8    9.61    2.16
   0  -7  -8    8.50    2.20
   8   0  -7    9.58    2.92
   8   0   7   10.42    2.42
   0   7   8    9.78    2.80
  -7   8   0   13.75    2.54
   0   7   8    7.89    2.88
   7   8   0   12.56    2.83
   0  -8   1  455.96   15.22
  -8   1   0  470.07   17.18
   0  -8  -1  461.23   15.52
  -1   0   8  520.32   11.40
   0   8   1  475.34   14.70
   8   1   0  485.17   11.46
   0   8  -1  463.75   14.44
   8  -1   0  472.08    6.44
  -8  -1   0  449.84   15.97
   8   1   0  490.40   16.25
  -1   0   8  510.53    8.00
  -1   0  -8  514.79   15.84
   1   0   8  459.39   16.08
   8  -1   0  498.23   11.36
   0  -8  -1  481.31    9.66
  -1   0   8  503.56   16.26
   1   0  -8  504.59   16.33
  -1   0  -8  520.16   17.90
  -8   1   0  501.06   17.38
   0  -8   1  439.68    9.50
   0  -8  -1  482.24   16.83
   0  -8   1  462.11   15.91
   8  -1   0  489.93   13.39
  -1   0   8  508.60    8.58
   1   0   8  505.25   16.91
   1   0  -8  510.19   17.79
  -1   0   8  497.77   16.32
   0   8   1  459.65   17.11
   8  -1   0  478.29   13.32
   8   1   0  489.35   11.35
  -8   1   0  508.60   17.64
  -1  -8   1  279.02   11.97
  -8   1  -1  284.61   13.16
   1  -8   1  276.83   11.84
  -8   1   1  284.05   13.43
   1  -8  -1  283.45   12.10
  -1  -8  -1  295.20   12.66
   8  -1   1  280.50    5.47
  -1   8   1  280.77   10.61
  -1   8  -1  280.93   10.68
   1   8   1  293.84   12.20
   8  -1  -1  279.06    5.35
   8   1  -1  279.30    8.89
   1   8  -1  283.99   11.93
  -1  -1   8  283.25    7.02
   1  -1   8  267.78    4.09
   8   1   1  287.53    8.98
  -8  -1   1  277.54   11.98
   8   1  -1  294.25   13.03
  -8  -1  -1  289.38   13.22
  -1  -8  -1  282.93    6.54
  -1  -1  -8  276.39   10.90
  -1   1  -8  288.15   12.58
   1   1   8  267.96   12.17
   8  -1   1  289.84    9.46
  -1   1   8  277.07   11.70
   1  -1  -8  277.44   11.48
   1   1  -8  283.05   12.96
  -1  -1   8  279.61   12.35
  -1   1  -8  278.87   12.33
  -1  -8   1  270.42    6.89
  -8   1  -1  296.58   13.53
  -8   1   1  282.59   12.85
  -8  -1  -1  257.33   12.80
  -1  -8  -1  278.42   10.89
  -1  -1  -8  283.53   14.02
   1  -1   8  277.86   10.40
  -1  -8  -1  278.49   11.79
   8   1  -1  281.21    8.75
  -1  -1   8  275.45    8.44
   8  -1   1  271.16   10.78
   1  -8  -1  286.65   13.09
   8  -1  -1  291.53    9.44
  -1  -8   1  303.08   12.74
  -1  -1   8  275.44    8.23
   1   1   8  262.74    4.23
   1   8  -1  286.23   13.45
   1   8   1  279.40   13.48
   1  -1  -8  282.19   13.11
  -1   8  -1  273.57   12.91
   1  -1   8  275.31   12.53
  -1  -1   8  277.86   12.38
   8  -1  -1  278.75   10.72
   8   1   1  280.65    7.93
   8   1  -1  276.92    9.31
   1   1   8  276.31   12.56
  -1   1   8  278.47   12.19
  -8   1  -1  273.03   12.80
  -8  -1   1  286.13   13.58
  -1  -1  -8  273.58    8.78
  -8  -1  -1  260.02   12.82
  -8  -1   1  273.74   14.05
  -8   1   2    2.36    1.09
   2  -8   1    3.51    1.63
   2  -8  -1    2.80    1.34
   2   8  -1    1.19    1.00
  -2   8  -1    0.70    0.36
   8  -1   2    2.64    0.71
   1   2  -8    2.54    1.07
   8   1   2    0.55    0.38
   8  -1  -2    2.77    0.62
   2   8   1    3.02    1.34
  -2   8   1    2.87    0.91
   8   1  -2    2.72    1.00
  -8  -1   2    2.47    1.04
   8  -1  -2    1.76    1.17
   1   2   8    4.93    1.71
   1  -2   8    3.93    1.37
   8  -1   2    2.68    0.99
   1  -2  -8    1.58    0.73
   1   2  -8    2.48    0.87
  -1   2  -8    2.40    1.48
  -1  -2  -8    2.41    1.23
   8   1  -2    2.13    0.84
  -1   2   8    3.61    1.28
  -8  -1  -2    1.37    1.61
  -8   1  -2    2.59    1.25
  -1   2  -8    2.23    1.47
  -2  -8   1    1.74    0.51
  -1  -2  -8    3.78    0.79
  -8   1  -2    2.18    1.46
  -2  -8  -1    2.16    1.22
   2  -8  -1    3.72    1.35
   8  -1  -2    1.15    0.45
   1  -2   8    2.42    0.93
  -1  -2   8    3.64    1.24
   2  -8   1   -0.13    0.76
  -1  -2   8    3.20    1.00
  -2  -8   1    2.21    0.86
   8   1  -2    3.03    0.78
   8  -1   2    2.94    1.25
  -2  -8  -1    2.46    1.17
  -1  -2   8    4.26    1.01
   8   1  -2    1.63    1.03
   1  -2  -8    5.54    1.64
  -1  -2  -8    4.59    1.59
   1  -2   8    0.89    0.46
   1   2   8    3.54    1.59
  -1   2   8    5.41    1.85
   8   1   2    1.35    0.51
   8  -1  -2    1.70    0.66
   8   1   2    1.57    0.34
  -8  -1  -2    3.75    1.80
   1  -2  -8    3.80    0.82
   2   8  -1    2.74    1.38
  -8  -1   2    4.41    2.03
  -2   8  -1    0.51    0.97
   2   8   1    2.62    1.05
  -8   1  -2    3.25    1.53
  -8  -1   2    2.35    1.04
  -2   8   1    1.87    1.22
   3  -8   1 1248.79   24.29
  -3  -8   1 1225.07   25.54
  -8   1   3 1238.59   28.97
   3  -8  -1 1294.92   25.25
  -3  -8  -1 1283.58   27.02
  -3   8   1 1252.90   18.83
   8  -1  -3 1221.84   15.90
   8   1  -3 1280.94   20.85
  -3   8  -1 1243.77   19.26
  -8  -1   3 1248.83   23.04
  -1  -3   8 1132.70   26.45
   8  -1  -3 1268.36   29.19
  -8   1   3 1250.09   29.15
   8   1  -3 1267.99   28.94
   8  -1   3 1280.76   14.25
   1  -3   8 1271.50   28.30
  -1   3  -8 1331.43   30.12
  -1   3   8 1288.43   24.39
   8   1   3 1204.89   24.57
   8  -1   3 1228.10   22.74
   1  -3  -8 1312.07   22.20
   1   3   8 1267.98   26.78
   1   3  -8 1112.73   27.76
  -8   1  -3 1218.61   27.45
  -3  -8   1 1243.36   16.56
   1   3  -8 1264.95   20.86
  -1   3  -8 1294.03   22.51
  -3  -8  -1 1248.42   23.27
  -8   1  -3 1153.05   27.75
  -1  -3  -8 1269.99   11.07
  -8  -1  -3 1249.18   28.36
  -8  -1  -3 1266.14   32.50
  -1  -3   8 1301.74   19.13
   8  -1  -3 1291.93   14.17
   8  -1   3 1255.15   26.02
   1  -3   8 1340.83   23.53
   3  -8   1 1251.32   27.77
  -3  -8  -1 1250.65   26.30
  -3  -8   1 1242.19   28.06
   3  -8  -1 1268.58   27.79
  -1  -3  -8 1308.04   25.72
  -1   3   8 1276.80   27.31
   8   1   3 1240.51   14.79
   8  -1  -3 1263.90   25.66
   3   8   1 1300.76   28.74
  -3   8  -1 1282.30   27.07
   3   8  -1 1271.46   28.69
   1  -3  -8 1263.46   27.78
   8   1   3 1253.95   16.50
   8   1  -3 1214.01   23.11
  -8  -1   3 1221.59   28.52
  -3   8   1 1260.58   21.04
  -8   1  -3 1237.66   26.12
  -8  -1   3 1260.57   30.73
  -3   8   1 1227.42   27.34
  -4  -8  -1   81.14    7.05
   4  -8   1   71.65    5.77
  -4  -8   1   71.25    6.14
  -8   1   4   69.72    7.10
   4  -8  -1   77.02    5.96
   8  -1  -4   70.09    4.40
  -4   8   1   65.19    3.84
  -1   4  -8   80.75    7.37
   8   1  -4   67.68    5.17
  -4   8  -1   70.94    4.00
  -1   4  -8   77.70    7.36
  -1  -4  -8   76.77    7.31
   8   1  -4   72.07    7.22
  -8  -1   4   69.81    5.18
  -8  -1   4   72.13    7.40
   1  -4   8   66.84    6.69
  -8   1   4   63.89    6.74
   8  -1  -4   69.96    7.10
   8   1   4   67.78    6.05
  -1   4   8   75.37    5.85
   8  -1   4   71.30    5.85
   1  -4   8   71.86    7.03
   1   4   8   78.89    6.63
   1  -4  -8   78.20    5.04
   4   8  -1   70.99    5.09
  -1   4  -8   77.46    4.82
  -4  -8  -1   67.91    5.76
   1   4  -8   72.68    3.95
  -8  -1  -4   68.65    6.74
  -8   1  -4   70.21    7.85
  -4  -8   1   66.79    4.30
  -8  -1  -4   68.79    7.77
  -8   1  -4   67.00    6.61
   8  -1   4   70.65    6.48
   4  -8   1   68.33    6.64
   1  -4   8   76.78    5.90
  -4  -8   1   70.86    6.92
  -4  -8  -1   66.41    6.31
   4  -8  -1   64.54    6.45
  -1  -4   8   76.94    4.94
  -1  -4  -8   76.70    6.13
  -1   4   8   75.75    6.77
  -4   8  -1   74.32    6.40
  -4  -8  -1   72.28    2.69
   8  -1  -4   67.86    6.27
   8   1  -4   67.54    5.99
   4   8   1   75.01    6.87
   1  -4  -8   73.98    6.62
   4   8  -1   71.28    6.75
   8   1   4   73.70    4.61
   1   4   8   72.54    6.65
  -1   4   8   71.46    6.93
  -8  -1   4   68.60    6.93
  -4   8  -1   73.47    6.19
  -8  -1   4   80.25    8.07
  -4   8   1   72.56    5.25
  -4   8   1   68.30    6.34
  -5  -8  -1   32.77    4.39
   5  -8   1   35.76    3.97
  -5  -8   1   34.34    4.28
  -8   1   5   35.26    5.05
   5  -8  -1   32.36    3.81
   5   8   1   31.69    4.77
  -1   5  -8   29.15    4.45
   1   5  -8   22.59    3.99
   8   1  -5   34.81    4.02
  -5   8  -1   33.88    4.29
   5   8  -1   35.72    4.89
  -1   5  -8   24.65    4.33
  -1  -5  -8   27.22    4.14
  -8  -1   5   40.34    5.79
  -8   1   5   33.49    5.04
   1  -5   8   26.65    4.32
  -5  -8  -1   33.00    4.91
   8   1  -5   33.19    5.05
  -1  -5   8   27.10    4.53
   8   1   5   33.79    4.46
   1   5   8   26.54    3.94
   8  -1   5   34.13    4.26
   1  -5  -8   29.80    2.75
   5   8  -1   34.44    3.56
  -1   5   8   27.89    3.66
   1  -5   8   26.57    4.40
   1   5  -8   27.65    4.82
  -5  -8  -1   34.29    4.37
  -8  -1  -5   34.86    5.71
  -8  -1  -5   34.81    4.76
  -8   1  -5   37.19    5.80
  -8   1  -5   31.32    4.82
  -1  -5   8   28.54    3.20
   8  -1   5   33.94    4.78
   5  -8   1   33.69    4.81
   1  -5   8   27.27    3.64
   5  -8  -1   35.04    4.80
  -5  -8   1   31.19    4.71
  -5  -8  -1   33.30    4.68
  -1  -5  -8   28.71    3.64
  -1   5   8   26.30    4.05
   8   1   5   37.56    3.73
   8  -1  -5   33.65    4.66
  -5   8  -1   32.62    4.17
   1  -5  -8   29.07    4.16
   8   1  -5   33.45    4.52
   5   8   1   30.73    4.28
   5   8  -1   31.52    4.51
  -1   5   8   27.05    4.49
   1   5   8   28.33    4.18
  -8  -1   5   38.13    5.28
  -5   8  -1   33.22    4.35
  -8  -1   5   34.45    5.33
  -5   8   1   35.13    4.52
  -5   8   1   32.16    3.68
  -8   1  -5   35.85    5.18
   6  -8  -1  125.11    7.23
  -8   1   6  124.30    9.88
  -6  -8  -1  131.04    8.64
   6  -8   1  117.63    6.92
  -6  -8   1  128.97    8.32
  -6   8  -1  125.09    8.46
  -1   6  -8  132.65    9.53
   8   1  -6  130.44    8.15
   1   6  -8  128.72    9.75
   6   8  -1  109.37    8.89
  -6   8   1  119.54    9.06
   6   8   1  127.09    9.61
  -1   6  -8  130.09    9.01
  -1  -6  -8  130.14    9.13
  -8  -1   6  130.76   10.68
   8  -1  -6  121.16   10.02
  -8   1   6  127.58   10.16
   1  -6   8  132.20    9.91
   8   1  -6  135.50   10.65
  -6  -8  -1  118.57    9.57
   1   6  -8  121.73   10.37
   1   6   8  130.85    8.85
   8   1   6  124.16    9.11
   1  -6   8  125.65    9.66
   8  -1   6  130.03    9.03
  -1  -6   8  125.31    9.77
   6   8  -1  125.03    7.07
  -1   6   8  130.67    7.75
  -6  -8  -1  112.68    8.19
  -8  -1  -6  127.02   10.98
  -8  -1  -6  129.74    9.35
  -8   1  -6  127.42    9.74
  -8   1  -6  131.72   11.07
  -1  -6   8  129.68    7.15
   6  -8   1  120.99    9.28
   8  -1   6  121.16    9.33
  -6  -8   1  120.90    9.74
   1  -6   8  129.91    8.24
  -6  -8  -1  120.43    9.33
   6  -8  -1  125.22    9.14
   6   8  -1  130.26    9.15
   8   1   6  123.25    7.23
   6   8   1  132.52    8.99
   1  -6  -8  128.38    8.76
  -1   6   8  135.50    9.57
   8  -1  -6  122.56    9.46
   8   1  -6  124.65    9.15
  -1  -6  -8  134.32    8.09
  -8   1  -6  131.76    9.81
  -8  -1   6  128.66    9.55
  -6   8   1  127.21    7.74
  -6   8   1  119.32    8.09
  -6   8  -1  124.68    8.69
   1   6   8  122.85    9.54
  -6   8  -1  128.77    8.00
  -1   6   8  135.80   10.53
  -7  -8   1  629.00   18.90
  -7  -8  -1  594.61   18.06
  -8   1   7  570.65   21.90
  -7   8   1  572.72   20.38
   8   1  -7  591.37   18.52
  -1   7  -8  581.68   20.42
   1   7  -8  571.52   20.95
   7   8  -1  561.72   20.49
  -7   8  -1  567.84   18.63
   7   8   1  568.12   20.60
  -1   7  -8  571.12   18.19
  -1  -7  -8  584.24   18.73
   8  -1  -7  578.36   22.51
  -8  -1   7  592.42   23.40
  -8   1   7  562.32   22.17
  -7  -8   1  564.97   21.19
  -7  -8  -1  585.94   22.03
   8   1   7  556.93   20.27
   1   7  -8  583.62   23.10
   1   7   8  623.93   19.43
  -1   7   8  601.06   16.48
   1  -7   8  595.69   21.65
   8  -1   7  561.16   19.70
  -8  -1  -7  582.89   24.75
  -8  -1  -7  564.80   23.91
  -8  -1  -7  585.96   20.09
  -8   1  -7  593.63   21.80
  -8   1  -7  601.48   23.99
  -7  -8  -1  557.29   19.20
   7  -8   1  554.42   20.32
   8  -1   7  571.72   20.86
  -1  -7   8  600.49   16.28
   7  -8  -1  558.60   19.49
  -7  -8   1  574.96   22.06
   1  -7   8  586.77   18.12
   8   1   7  568.97   16.90
   7   8  -1  569.88   18.74
   7   8   1  572.48   18.43
  -1   7   8  600.04   20.85
   8  -1  -7  589.61   21.73
  -1  -7  -8  600.76   16.82
   1  -7  -8  584.10   18.77
   8   1  -7  571.12   21.05
  -7   8   1  591.07   17.62
  -7   8  -1  581.86   16.27
  -7   8   1  580.98   17.52
  -8   1  -7  606.13   21.54
   1   7   8  617.28   22.45
  -8  -1   7  568.02   20.02
  -1   7   8  605.55   23.36
  -7   8  -1  591.93   19.73
   0  -8  -2   27.75    4.01
  -8  -2   0   20.93    3.60
   0  -8   2   23.64    3.59
  -2   0  -8   20.11    3.60
  -8   2   0   19.97    3.47
   0   8  -2   24.54    3.39
   0   8   2   27.23    3.65
   8   2   0   20.20    2.67
  -2   0  -8   22.20    4.08
  -2   0   8   22.24    2.63
  -8  -2   0   27.07    3.95
   8   2   0   22.66    3.43
  -2   0   8   19.48    3.14
   2   0  -8   19.49    3.28
   8  -2   0   21.34    1.99
  -8   2   0   23.51    3.81
  -2   0   8   21.02    2.06
   8  -2   0   23.25    3.10
  -2   0   8   21.91    1.86
   0  -8   2   23.94    3.61
   2   0   8   25.15    3.83
  -2   0   8   18.03    3.00
   0   8   2   21.92    3.83
   8   2   0   21.62    1.52
   8   2   0   23.77    1.45
   8   2   0   22.44    2.15
  -2   0  -8   21.05    2.83
  -8  -2   0   21.59    3.92
  -1  -8   2    1.25    0.76
   1  -8  -2    2.38    1.14
  -1  -8  -2    2.86    1.45
  -2  -1  -8    5.85    2.33
  -8   2  -1    3.56    1.84
  -8  -2  -1    1.57    0.67
   1  -8   2    2.01    0.74
  -8  -2   1    2.00    1.53
  -8   2   1    2.42    1.16
  -1   8  -2    4.63    1.60
  -2   1   8    2.87    1.04
  -2  -1  -8    4.77    2.11
   1   8  -2    1.24    0.95
   8   2  -1    1.63    0.78
  -1   8   2    1.94    0.97
  -2  -1   8    2.30    0.79
   8   2   1    2.05    0.81
  -8  -2   1    1.30    0.25
  -8  -2  -1    4.34    1.61
   8   2   1    0.53    0.96
   2  -1  -8    4.19    1.16
   2   1  -8    3.97    1.21
   8  -2  -1    2.86    0.69
   8  -2   1    5.30    1.42
   8   2  -1    2.43    1.28
  -2   1   8    2.24    0.88
   2  -1   8    2.37    1.27
  -2   1  -8    2.00    1.08
  -2  -1  -8    3.75    1.18
  -8   2  -1    3.47    1.31
  -8   2   1    2.36    1.11
  -2  -1   8    2.27    0.74
   8  -2  -1    3.43    1.21
   2  -1   8    4.42    1.46
  -2  -1   8    3.47    1.63
   1  -8   2    1.48    0.73
  -1  -8   2    2.52    1.20
  -1  -8  -2    2.32    0.79
  -2  -1   8    3.18    0.86
   8  -2   1    1.89    0.78
   8   2   1    2.88    0.87
   8   2  -1    2.04    0.75
   8   2   1    2.77    0.70
   2  -1   8    4.01    1.79
   2   1  -8    3.17    1.17
   1  -8  -2    0.91    0.67
  -2  -1   8    7.44    2.05
   1   8  -2    3.10    1.82
   8  -2  -1    1.51    0.99
   2   1   8    3.51    1.49
  -2   1   8    3.58    1.52
  -8   2   1    1.66    0.45
  -8  -2   1    3.80    1.43
  -2   1  -8    2.56    1.19
  -8   2  -1    1.66    0.93
  -1   8  -2    1.99    1.39
   1   8   2    1.84    1.26
  -8  -2   1    1.87    1.05
   2  -8  -2   95.13    7.36
   2  -8   2   94.67    6.98
  -8  -2   2   99.50    7.99
  -8   2   2  100.14    7.95
   2   8   2   95.61    7.43
   2   2  -8  103.93    8.32
   2   8  -2   93.10    7.24
  -2   8   2   96.69    5.96
   8   2   2  104.34    6.43
  -2   8  -2  101.70    6.23
   8   2  -2  103.48    6.21
  -2   2  -8  109.27    8.92
  -2  -2  -8  108.80    8.94
   8  -2  -2   95.31    7.88
   8   2  -2   97.69    7.76
  -8  -2   2  100.82    7.09
   2  -2   8  113.00    8.47
  -2   2   8  114.30    7.11
   8  -2   2   94.48    5.43
   2  -2  -8  108.68    7.20
  -2  -2   8  105.89    7.79
   2   2  -8  101.29    8.19
   2   2   8  103.45    7.91
  -8   2  -2   92.96    7.49
  -8  -2  -2   93.38    7.51
  -2  -8  -2   96.86    7.08
  -2  -2  -8  107.83    9.13
  -2   2  -8  105.32    7.42
  -8   2  -2  104.12    8.26
  -8  -2  -2  107.40    9.22
   8   2  -2  101.22    4.39
   2  -2   8  110.67    7.15
   8  -2   2  100.00    7.15
  -2  -8   2   92.55    7.79
   2  -8  -2   93.67    7.53
  -2  -2   8  108.02    6.08
  -2  -8  -2   92.05    6.66
  -2  -2   8  109.04    4.40
   8  -2  -2  101.55    5.35
  -2  -8   2   96.03    7.05
   2   8   2   99.28    8.17
  -2   8  -2  104.29    7.86
   2  -2   8  102.57    7.82
   8   2   2  101.38    4.55
   8  -2  -2   98.88    7.13
   2   8  -2   99.38    8.16
   2   2   8  103.04    7.81
   8   2  -2  101.95    5.84
  -2   2   8  104.08    7.46
   2  -2  -8  109.06    8.33
  -2   8   2   94.92    7.80
  -8   2   2   98.93    8.41
  -2  -2  -8  106.73    5.30
  -2  -2   8  110.17    4.31
  -8   2  -2   98.62    7.50
  -2   8   2   97.71    4.96
  -8  -2   2   95.62    8.03
  -8  -2   2   95.13    8.30
   3  -8  -2   19.54    3.23
  -8  -2   3   20.86    3.71
  -2  -3  -8   19.20    4.13
  -3  -8  -2   15.33    2.99
   3  -8   2   17.30    2.86
  -3  -8   2   15.40    2.92
  -8   2   3   19.53    3.71
  -3   8   2   13.72    2.04
  -2   3  -8   21.35    4.10
   2   3  -8   22.04    3.91
  -3   8  -2   18.56    2.38
   8   2  -3   20.81    2.96
  -2  -3  -8   24.52    4.43
  -8  -2  -3   21.96    3.86
  -2  -3   8   19.90    3.42
  -8   2   3   21.82    3.94
  -8  -2   3   20.09    3.58
  -8  -2   3   22.10    3.20
   3   8  -2   20.95    3.01
  -2  -3   8   19.15    3.44
   2  -3   8   19.32    3.47
   8   2   3   19.73    3.29
  -2   3   8   20.05    2.92
   8   2  -3   19.27    3.57
   2  -3  -8   21.15    3.01
   2   3   8   19.92    3.54
   8  -2   3   20.65    2.82
  -2   3  -8   22.16    3.14
  -8   2  -3   19.12    3.40
  -8  -2  -3   19.74    3.44
  -8  -2  -3   21.86    4.24
  -2  -3  -8   19.39    1.88
  -8  -2  -3   17.10    3.48
  -3  -8  -2   14.87    2.82
   3  -8  -2   18.66    3.30
  -3  -8  -2   13.25    2.69
   8  -2  -3   22.77    2.21
   3  -8   2   18.44    3.50
   8  -2   3   23.67    3.69
   2  -3   8   20.01    3.09
  -2  -3   8   24.83    3.35
  -2  -3   8   19.80    2.01
  -3  -8   2   17.51    3.48
   2  -3  -8   19.46    3.52
  -3   8  -2   17.67    3.28
  -3  -8  -2   18.19    1.81
   8  -2  -3   18.90    3.29
   2   3   8   20.66    3.55
   8   2   3   22.75    2.47
  -2   3   8   19.97    3.34
   8   2  -3   19.29    2.86
  -8   2  -3   18.11    3.01
  -8  -2   3   24.01    4.24
  -3   8   2   21.11    2.42
   3   8   2   20.19    3.53
  -8   2   3   20.02    3.79
  -8   2  -3   21.96    3.93
  -8  -2   3   17.69    3.39
  -3   8   2   17.92    3.31
   4  -8   2   20.08    3.25
  -8  -2   4   20.27    3.82
  -8   2   4   18.39    3.57
   4  -8  -2   21.20    3.22
  -4  -8  -2   20.52    3.54
  -4  -8   2   20.04    3.25
  -4  -8   2   20.84    1.82
  -2   4  -8   19.73    3.66
  -2  -4  -8   16.66    3.38
  -8   2   4   22.13    4.00
  -4   8  -2   17.21    2.13
   8   2  -4   20.27    3.05
   2   4  -8   16.70    3.34
  -4   8   2   20.82    2.26
  -8   2   4   22.69    4.09
   8  -2   4   19.36    2.15
  -8  -2   4   18.59    3.73
   2  -4   8   14.44    2.99
  -2  -4   8   18.38    3.37
  -4  -8  -2   17.09    3.35
  -8  -2   4   17.76    2.71
   2   4  -8   14.53    3.31
  -2   4   8   17.82    2.67
   8   2   4   19.01    3.46
   2   4   8   21.11    3.71
   8   2  -4   22.55    4.03
   2  -4  -8   18.55    2.68
   8  -2   4   21.69    3.21
   4   8  -2   20.64    3.00
  -8  -2  -4   20.14    3.66
  -2   4  -8   16.76    2.50
  -8   2  -4   17.05    3.41
  -8  -2  -4   21.42    3.73
  -4  -8  -2   16.67    3.15
  -8  -2  -4   20.95    4.31
   2   4  -8   18.05    1.93
  -4  -8   2   22.75    3.89
   2  -4   8   14.36    2.78
  -2  -4   8   17.82    1.97
   4  -8   2   17.45    3.49
   4  -8  -2   21.35    3.74
   8  -2   4   15.61    3.27
  -4  -8  -2   20.04    3.37
   2  -4   8   17.55    3.39
  -2  -4   8   17.69    2.97
   4   8   2   22.33    3.94
  -2  -4  -8   19.80    2.97
   2  -4  -8   19.17    3.50
   2   4   8   16.67    3.22
  -2   4   8   17.15    3.21
  -4   8  -2   20.51    3.48
   8   2   4   20.59    2.53
   8   2  -4   19.32    3.20
   8  -2  -4   19.64    3.48
  -8   2   4   19.88    4.05
  -4   8  -2   18.16    3.19
   2   4   8   17.63    3.18
  -2   4   8   15.85    3.44
  -8  -2   4   17.87    3.38
  -8   2  -4   16.74    2.84
  -8  -2   4   22.13    4.24
  -4   8   2   20.71    3.50
  -4   8   2   21.18    2.55
   5  -8   2   11.34    2.33
  -5  -8   2    8.95    1.52
  -8  -2   5    6.37    2.19
  -8   2   5    9.77    2.60
  -5  -8   2   11.91    2.54
   5  -8  -2   11.93    2.35
  -2  -5  -8   14.48    3.78
  -5  -8  -2   11.54    2.43
  -2   5  -8   12.08    2.75
  -2  -5  -8   13.42    3.04
   5   8   2    9.46    2.73
  -2   5  -8   13.69    2.98
   5   8  -2   12.46    2.96
  -5   8  -2    8.53    2.04
  -8   2   5   10.08    2.40
   8   2  -5    7.44    1.96
  -8  -2   5    7.44    1.67
  -8  -2   5    9.25    2.70
  -8   2   5   12.89    3.14
   8  -2   5    8.79    1.79
   2  -5   8   13.95    2.87
  -2  -5   8   15.87    3.42
  -8  -2   5   11.53    3.37
  -8   2   5   11.47    3.14
  -5  -8  -2   10.81    2.79
   8  -2   5   11.70    2.61
   8   2   5    6.37    2.10
   5   8  -2   10.52    2.26
   2   5  -8   13.04    3.25
   2   5   8   15.82    3.35
   8  -2  -5   10.38    2.79
   8   2  -5   10.16    3.07
  -2   5   8   13.16    2.29
   2  -5  -8   13.22    2.24
  -8   2  -5    8.02    2.23
  -8  -2  -5   11.40    2.76
  -8   2  -5   10.21    3.18
  -8  -2  -5    7.57    2.85
  -5   8   2   11.55    2.12
  -5  -8  -2    9.67    2.38
  -8  -2  -5   10.33    2.91
  -8  -2  -5   14.42    3.10
  -5  -8   2    8.60    2.73
  -5  -8  -2   11.40    2.76
   2  -5   8   12.43    2.71
  -2  -5   8   14.28    1.96
   5  -8  -2   12.75    2.78
   5  -8   2   11.74    2.90
   2  -5   8   13.19    3.30
   8  -2   5    8.28    2.48
  -2  -5   8   15.50    3.02
   8  -2  -5    8.43    2.67
   2   5   8   11.69    2.92
   2  -5  -8   12.75    2.94
   5   8  -2   11.34    2.71
  -2   5   8   14.14    3.02
   8   2  -5   15.97    3.21
  -2  -5  -8   11.90    2.34
   8   2   5    7.98    1.74
  -5   8   2   11.28    2.55
  -5   8  -2   12.42    3.07
   2   5   8   13.60    2.94
  -2   5   8   12.48    3.18
   5   8   2   12.04    2.78
  -8  -2   5    9.39    2.52
  -8   2   5    9.24    2.92
  -8  -2   5    7.29    2.39
  -5   8  -2   10.11    2.54
   6  -8  -2   48.82    4.41
   6  -8   2   50.76    4.70
  -6  -8  -2   53.23    5.54
  -6  -8   2   48.88    4.02
  -6  -8   2   53.79    5.38
  -8  -2   6   54.05    6.52
  -8   2   6   49.76    6.33
   6   8  -2   48.16    5.97
  -2   6  -8   44.90    5.53
   6   8   2   43.32    5.67
   8   2  -6   51.66    5.33
  -6   8  -2   46.06    4.88
  -8   2   6   47.03    5.96
  -2   6  -8   45.56    5.56
  -2  -6  -8   45.37    5.55
  -8  -2   6   50.76    4.04
  -2  -6  -8   49.34    4.53
   8  -2  -6   49.13    6.32
  -8  -2   6   49.53    6.58
  -8   2   6   49.85    6.64
   8  -2   6   49.86    4.43
  -8  -2   6   44.59    6.10
  -8   2   6   57.83    6.82
   2  -6   8   42.68    5.50
  -2  -6   8   41.83    5.56
  -6  -8   2   51.62    6.11
  -6  -8  -2   53.70    6.46
   8  -2   6   52.58    5.64
  -2   6   8   46.53    4.24
   2  -6   8   42.02    5.50
   8   2   6   43.39    5.52
   8   2  -6   52.61    6.78
   6   8  -2   50.74    4.98
   2   6   8   52.40    5.89
   2   6  -8   47.86    6.65
  -6  -8  -2   49.19    5.95
  -8   2  -6   51.24    7.11
  -8  -2  -6   43.03    6.20
  -2  -6  -8   44.68    6.61
  -8  -2  -6   51.09    5.73
  -8   2  -6   55.31    7.12
  -8   2  -6   53.46    6.39
  -8  -2  -6   47.12    5.83
   6  -8   2   49.32    6.04
   8  -2   6   49.38    6.02
  -2  -6   8   46.19    3.85
  -2  -6   8   50.85    5.87
  -6  -8  -2   49.71    5.94
   2  -6   8   45.33    5.15
  -6  -8   2   45.02    6.06
   6  -8  -2   54.80    5.90
   8   2  -6   48.36    5.67
  -2  -6  -8   48.49    4.44
   2   6   8   44.37    5.64
   6   8   2   51.70    5.65
  -2   6   8   49.29    5.72
   8  -2  -6   51.16    6.16
   6   8  -2   52.26    5.96
   2  -6  -8   44.57    5.39
   8   2   6   51.25    4.87
  -2   6   8   46.44    6.33
  -8  -2   6   53.93    6.08
  -8   2   6   50.87    6.68
  -8  -2   6   49.72    6.62
  -6   8  -2   51.12    5.05
  -6   8  -2   48.89    5.81
  -6   8   2   49.76    5.41
  -8   2  -6   51.33    6.37
   2   6   8   43.40    5.57
  -6   8   2   49.14    4.41
  -8  -2   7   21.33    4.23
  -8   2   7   20.75    4.27
  -2  -7  -8   21.04    4.35
  -7  -8   2   19.00    2.80
  -7  -8  -2   19.16    3.20
   7  -8   2   20.38    2.87
  -7  -8   2   19.84    3.21
  -2  -7  -8   17.21    3.08
   2   7  -8   21.92    4.10
   8   2  -7   21.09    3.65
  -7   8   2   23.52    4.34
   7   8   2   16.97    3.51
   7   8  -2   18.79    3.83
  -2   7  -8   23.09    3.88
  -7   8  -2   19.93    3.34
  -8   2   7   20.18    3.77
  -2   7  -8   21.22    3.52
  -7  -8  -2   20.15    4.12
   8  -2   7   20.75    3.13
  -8  -2   7   26.72    4.68
  -8   2   7   21.87    4.46
  -8  -2   7   26.68    4.75
  -8   2   7   23.38    4.65
  -7  -8   2   17.47    3.75
  -2   7   8   19.39    2.65
   7   8  -2   20.27    3.10
   2   7   8   19.20    3.58
   8   2   7   16.88    3.61
   2   7  -8   24.00    4.66
   8  -2   7   19.97    3.69
   8  -2  -7   21.52    4.09
   8   2  -7   22.26    4.65
  -8   2  -7   19.48    4.43
  -8  -2  -7   25.79    5.13
  -7   8  -2   23.28    4.08
  -8   2  -7   23.00    4.36
  -8   2  -7   25.04    5.18
  -7  -8  -2   20.77    3.84
  -8  -2  -7   20.62    3.67
  -8   2  -7   24.63    4.44
  -8  -2  -7   26.14    4.54
   7  -8  -2   19.31    3.55
  -7  -8   2   20.00    4.25
   8  -2   7   23.19    4.29
   2  -7   8   19.55    3.90
   7  -8   2   15.86    3.54
  -2  -7   8   21.08    4.29
  -2  -7   8   22.08    2.78
   2  -7   8   21.28    3.66
   8   2  -7   25.53    4.38
   8  -2  -7   20.97    4.29
  -2   7   8   24.87    4.11
   2  -7  -8   22.22    3.94
   2   7   8   20.24    4.07
   8   2   7   21.24    3.33
  -2  -7  -8   23.77    3.05
  -7   8   2   21.14    3.29
   2   7   8   21.27    4.13
  -2   7   8   21.11    4.21
   7   8  -2   18.85    3.44
  -7   8  -2   31.13    3.65
  -8  -2   7   23.00    3.93
   7   8   2   21.06    3.44
   0  -8  -3 2393.84   37.50
  -8   3   0 2293.11   36.83
   0  -8   3 2313.61   35.86
  -8  -3   0 2265.13   36.61
  -8  -3   0 2291.04   19.45
   8   3   0 2352.06   31.37
  -3   0   8 2387.56   29.45
   0   8  -3 2268.58   34.10
  -3   0  -8 2389.57   42.76
   8   3   0 2346.00   34.65
  -8  -3   0 2322.45   37.73
   3   0   8 2375.32   38.76
  -3   0   8 2389.78   34.27
   3   0  -8 2427.83   38.66
  -3   0  -8 2399.34   41.19
  -8   3   0 2369.62   37.60
   8  -3   0 2372.02   32.39
  -3   0   8 2357.79   14.71
   0  -8  -3 2421.31   29.90
   0  -8   3 2330.36   35.29
   3   0  -8 2342.07   40.22
   3   0   8 2353.57   37.22
   8   3   0 2416.54   21.62
  -3   0   8 2430.00   34.58
   0  -8  -3 2314.98   29.87
  -3   0  -8 2445.51   32.25
   0   8   3 2272.75   39.85
   1  -8  -3    0.24    0.96
  -1  -8  -3   -0.13    0.38
   1  -8   3    1.29    1.02
  -8  -3  -1    0.39    0.47
  -8   3  -1    0.52    0.39
  -1  -8   3   -0.48    1.30
  -8  -3   1    0.39    0.37
  -8  -3   1    2.35    1.17
  -8   3   1    0.26    1.63
   8   3   1    0.86    0.63
  -3  -1  -8    0.99    0.49
   3   1  -8    0.42    0.84
  -1   8  -3   -0.49    0.75
   8   3  -1    0.84    0.79
  -3   1   8    0.27    0.42
   1   8  -3   -0.48    0.86
  -8  -3   1    0.13    0.37
  -8  -3  -1   -0.99    0.30
   1  -8  -3    0.23    0.49
   3  -1  -8   -0.75    0.69
   3   1  -8   -0.14    0.67
   8   3   1   -1.31    0.95
   8  -3   1   -0.58    0.72
   8   3  -1    0.36    0.51
   3  -1   8    0.14    1.12
  -8  -3  -1   -0.16    0.68
  -8   3  -1    1.91    1.14
  -3  -1  -8    1.06    0.80
  -3   1  -8    1.90    1.61
  -3  -1  -8   -0.65    0.96
  -8   3   1    0.12    1.38
   8  -3   1    2.18    1.12
  -3  -1   8   -0.13    0.23
   1  -8   3    1.35    1.24
   3  -1   8    1.56    1.10
  -1  -8   3    0.56    0.97
   8  -3  -1    1.10    0.97
  -3  -1   8    0.23    0.34
  -3  -1   8    0.21    0.15
  -3   1   8   -0.97    1.00
  -1  -8  -3    0.08    0.56
  -3   1   8    2.13    1.00
  -1   8  -3   -0.28    1.55
   3  -1   8    0.13    0.60
   8   3  -1    0.37    0.53
  -1  -8  -3    0.42    0.46
   3   1  -8    0.60    0.95
   8   3   1   -0.24    0.54
   8  -3  -1   -0.90    0.82
   3   1   8    1.02    0.80
  -8  -3   1   -0.30    0.93
  -1   8   3    0.19    0.27
  -8   3   1    0.90    1.37
  -8  -3   1    0.45    0.63
  -3   1  -8   -0.64    0.95
   1   8   3    1.91    1.60
   2  -8  -3  190.28   10.17
  -2  -8  -3  187.50   10.58
   2  -8   3  190.97   10.14
  -8  -3   2  191.55   10.98
  -8   3   2  184.60   10.73
  -8  -3   2  182.37    4.59
   2   8  -3  188.46   10.58
   3   2  -8  171.43   10.75
  -3   2   8  177.36    9.12
   8   3   2  198.27    9.67
  -2   8  -3  190.11    8.74
  -3   2  -8  169.11   11.32
  -3  -2  -8  172.94   11.40
   8   3  -2  187.60    9.21
   8   3  -2  198.00   11.01
   8   3   2  193.93    9.17
  -3  -2   8  185.40    9.95
  -8  -3   2  187.55   10.08
  -3   2   8  176.40    8.53
   8  -3   2  177.15    6.91
   2   8  -3  188.57    9.89
   3  -2   8  170.02   10.58
  -3  -2   8  164.82    9.68
   3  -2  -8  177.17    9.74
   3   2  -8  173.85   10.96
  -3   2  -8  166.83    9.75
  -2  -8  -3  192.46   10.97
  -8   3   2  195.37   10.29
  -8  -3  -2  187.17   12.13
  -3  -2  -8  178.84   12.06
   8  -3  -2  191.87    7.96
   3  -2   8  169.53    9.47
   2  -8   3  184.42   10.53
   8  -3   2  189.77   10.17
  -2  -8  -3  188.52    8.91
  -3  -2   8  174.11    7.99
  -2  -8   3  189.20    9.64
   8   3  -2  186.25    7.43
   8   3   2  193.59    7.15
   8  -3  -2  187.33   10.19
  -2  -8  -3  183.13    6.74
   3  -2   8  171.49   10.26
   3   2   8  166.15   10.05
  -2   8  -3  196.55   10.99
  -3   2   8  181.88    9.57
  -8   3  -2  182.61   10.06
  -3  -2   8  173.49    6.70
  -3   2  -8  201.05   10.51
  -8  -3   2  190.60   11.46
  -8   3  -2  182.03   11.09
   2   8   3  204.92   11.77
  -8   3   2  188.80   11.63
  -8  -3   2  183.87   11.54
  -3  -2  -8  180.12    7.57
  -8  -3   3  106.02    3.75
   3  -8  -3   98.22    7.08
   3  -8   3   95.64    7.14
  -3  -8   3   96.23    7.43
  -3  -8   3   92.18    3.57
  -8  -3   3   97.51    7.99
  -8   3   3  107.45    8.42
   3   3  -8  110.64    8.80
  -3   8  -3   93.30    5.77
   8   3  -3  102.80    7.11
  -3   3  -8  110.09    9.18
  -3  -3  -8  128.18    9.88
  -8   3   3  104.41    8.61
  -8  -3  -3  106.63    8.85
   8   3   3  107.17    6.55
  -8  -3   3  107.19    8.41
  -8   3   3  103.26    8.33
  -3  -3   8  104.84    7.76
  -3  -8  -3   94.78    7.46
   8   3  -3   98.62    8.19
  -8  -3   3  103.78    7.30
   3   8  -3  100.49    7.19
   8  -3   3  105.87    6.03
  -3   8   3   95.34    3.86
   3  -3  -8  117.44    7.64
   3  -3   8  117.46    8.86
   3   3   8  119.00    8.88
  -3  -3   8  110.19    8.21
  -3   3   8  114.16    6.60
  -8  -3  -3  107.30    9.55
  -8   3  -3  109.93    8.21
  -8  -3  -3  107.56    8.21
  -3   3  -8  115.39    7.64
  -3  -3  -8  117.06    5.34
  -3  -8  -3   91.61    7.79
   3  -3   8  121.34    8.12
   8  -3   3  104.79    7.98
   8  -3  -3  109.10    5.50
  -3  -3   8  106.06    2.94
  -3  -3   8  113.05    7.15
  -3  -8   3   94.86    8.18
  -3  -8  -3   96.41    6.69
   3  -8  -3   98.74    7.80
   8   3  -3  105.00    6.35
  -3   8  -3   96.44    7.57
   8  -3  -3  104.00    7.91
   8   3   3  107.61    5.91
   3   3   8  113.48    8.40
  -3   3   8  111.64    7.63
  -3  -8  -3   96.11    3.83
   3  -3  -8  117.11    8.85
  -8   3  -3   96.61    7.13
  -8   3  -3   99.97    8.35
  -8  -3   3  103.87    8.50
  -8   3   3   97.18    8.44
  -8  -3   3   99.10    8.53
  -3   8   3   96.91    4.14
   3   8   3  100.63    8.22
  -3   8   3   93.72    7.91
  -4  -8  -3  707.40   20.73
   4  -8   3  699.17   19.08
   4  -8  -3  758.28   18.98
  -4  -8   3  702.32   12.38
  -8  -3   4  705.40   10.17
  -8  -3   4  706.21   22.14
  -8   3   4  721.65   22.41
  -4  -8   3  707.68   19.76
  -4   8  -3  713.87   16.10
   3   4  -8  720.09   22.81
  -4   8   3  700.37   13.81
  -4   8  -3  705.52   14.34
   8   3  -4  714.00   19.09
  -8   3   4  718.66   23.04
  -3   4  -8  722.41   23.19
  -3  -4  -8  704.74   22.90
   8  -3   4  708.50   13.59
  -8  -3  -4  715.92   23.51
   8   3  -4  696.24   22.75
  -8   3   4  717.57   22.44
   8  -3  -4  733.07   23.03
   3  -4   8  726.36   21.94
  -8  -3   4  729.38   22.59
  -3  -4   8  709.97   20.99
  -4  -8  -3  707.75   21.29
  -8  -3   4  694.68   18.33
   8  -3   4  713.63   17.18
   8   3   4  699.43   21.29
   3  -4  -8  723.22   18.21
   3   4   8  738.60   22.31
  -3   4   8  719.33   15.95
   3   4  -8  702.39   23.46
   4   8  -3  706.50   19.34
   3  -4   8  715.73   22.23
  -8   3  -4  718.12   21.56
  -3   4  -8  736.69   17.90
  -8  -3  -4  699.78   21.29
  -8  -3  -4  711.84   25.45
  -4  -8  -3  684.96   21.24
   4  -8   3  672.15   21.51
   8  -3   4  704.30   21.46
   3  -4   8  728.45   20.62
  -3  -4   8  715.51   22.04
  -3  -4   8  730.19   19.72
  -4  -8   3  684.16   22.64
   4  -8  -3  700.14   20.71
  -4  -8  -3  717.74   19.28
  -3  -4   8  711.44    9.63
   8   3  -4  720.45   18.19
  -4   8  -3  720.60   19.93
  -3   4   8  730.87   20.31
   8  -3  -4  701.69   21.68
   8   3   4  729.76   16.58
   3   4   8  675.54   20.87
   3  -4  -8  720.70   22.14
  -4   8  -3  742.56   22.17
   3   4   8  694.69   19.65
  -8   3  -4  721.86   18.61
  -8  -3   4  708.13   22.23
  -8  -3   4  701.03   23.38
   4   8   3  747.87   22.11
  -4   8   3  730.07   13.92
  -4   8   3  744.88   22.25
  -8   3  -4  701.37   22.98
  -8   3   4  719.81   23.60
  -8  -3   5    0.93    0.29
  -8  -3   5    1.11    1.15
  -8   3   5   -0.79    1.11
  -5  -8   3    0.83    0.55
   5  -8  -3    1.26    0.91
  -5  -8  -3    0.40    0.28
  -3  -5  -8    2.92    2.15
   5  -8   3    0.11    0.91
  -5  -8   3    0.63    0.68
  -3   5  -8    1.08    0.97
  -3  -5  -8   -0.31    2.10
   8   3  -5    0.24    0.89
   5   8  -3    0.16    0.74
  -5   8  -3    1.05    0.55
  -5   8  -3    1.27    0.69
   3   5  -8    0.97    1.13
  -8   3   5    1.17    0.35
  -8  -3   5    1.41    0.37
  -8   3   5    1.93    1.47
  -5  -8  -3   -0.93    0.65
  -8  -3   5    1.14    0.72
  -8  -3   5    1.77    1.82
  -8   3   5    0.32    0.59
   3  -5   8    1.05    0.83
   8  -3   5    2.21    1.10
  -3  -5   8    1.57    0.90
   3   5  -8    0.91    0.38
   5   8  -3   -0.49    0.92
   3   5   8    0.61    1.06
  -3   5   8    1.50    0.80
   8  -3  -5    3.07    1.59
   8   3  -5    0.35    0.52
   8  -3   5    1.84    1.57
   8   3   5    1.64    1.82
   3  -5  -8    1.80    1.15
  -8   3  -5    1.77    1.31
  -8  -3  -5   -1.17    1.38
  -5  -8  -3    4.98    2.12
  -8  -3  -5    1.34    1.39
  -8  -3  -5    0.64    1.09
   5  -8  -3    2.26    1.08
  -5  -8  -3    2.69    1.59
   3  -5   8    2.25    1.39
   5  -8   3    0.31    1.04
   3  -5   8    2.76    1.67
  -5  -8   3   -0.34    1.30
   8  -3   5    2.42    1.49
  -3  -5   8    0.93    1.21
   3   5   8    1.91    1.19
   3  -5  -8    1.81    0.32
  -3   5   8    1.15    0.60
   8   3  -5   -0.12    0.84
   8   3   5    0.68    0.65
   5  -8  -3   -0.30    0.55
   8  -3  -5    1.57    1.47
  -5   8   3    2.44    1.32
   3   5   8    1.71    1.59
  -5   8  -3   -0.15    1.34
  -5   8  -3   -0.34    0.83
  -8  -3   5    2.47    1.96
  -8  -3   5    0.45    1.21
   5   8   3   -0.14    1.20
  -8   3   5    2.65    1.74
  -6  -8   3  774.03   16.81
   6  -8   3  816.54   19.52
  -6  -8   3  786.56   20.61
   6  -8  -3  824.78   18.41
  -6  -8  -3  803.66   22.42
  -8  -3   6  790.48   24.80
  -8   3   6  765.78   24.57
   6   8  -3  783.30   24.60
   3   6  -8  757.80   24.57
   8   3  -6  744.83   21.47
  -6   8  -3  793.95   18.51
  -8   3   6  794.11   25.20
  -3   6  -8  742.90   22.53
  -3  -6  -8  757.51   22.89
   6   8   3  782.18   24.24
   8  -3  -6  793.20   24.89
  -3  -6  -8  801.91   19.90
  -8  -3   6  781.55   26.01
  -8   3   6  766.63   25.73
   8  -3   6  781.58   18.06
  -8  -3   6  741.00   24.11
  -8   3   6  767.86   24.69
   3  -6   8  760.00   23.85
  -6  -8  -3  784.10   24.94
  -8  -3   6  769.42   17.31
   8   3  -6  788.76   26.26
   8  -3   6  770.97   21.06
  -3   6   8  790.09   15.42
   8   3   6  742.22   23.49
   3   6   8  800.24   24.21
   3  -6  -8  800.50   17.00
   6   8  -3  781.56   21.45
   3   6  -8  771.17   26.08
   3  -6   8  788.15   24.07
  -8  -3  -6  807.43   29.05
  -3  -6  -8  778.17   28.24
  -6  -8  -3  780.79   24.63
  -8   3  -6  772.70   26.89
  -8  -3  -6  757.43   26.71
  -8  -3  -6  793.72   22.32
  -8   3  -6  792.91   24.04
  -8  -3  -6  791.61   23.90
   6  -8   3  792.37   24.65
   6  -8  -3  819.93   22.49
   8  -3   6  772.91   24.13
   3  -6   8  789.63   22.69
  -3  -6   8  799.22   23.40
  -6  -8   3  764.52   25.62
   8   3  -6  761.57   22.06
   3   6   8  778.71   23.76
  -3   6   8  807.46   22.46
   8   3   6  793.33   20.12
   3  -6  -8  749.84   23.39
  -6   8  -3  811.15   19.76
   8  -3  -6  773.25   24.91
  -6   8   3  796.45   22.85
  -8  -3   6  775.72   22.96
  -8   3   6  780.05   26.04
  -8  -3   6  781.62   26.10
  -6   8  -3  826.44   24.66
   6   8   3  829.43   22.45
   3   6   8  787.28   23.11
  -7  -8  -3   83.34    7.08
   7  -8   3   85.00    6.03
  -7  -8   3   79.07    5.77
  -7  -8   3   78.49    6.38
  -8  -3   7   71.92    7.81
  -8   3   7   74.84    8.11
   8   3  -7   79.21    7.26
   7   8   3   83.88    8.10
  -8   3   7   75.40    8.09
  -7   8   3   80.67    8.23
   7   8  -3   77.61    7.89
  -8  -3   7   79.39    8.61
  -8   3   7   68.50    7.92
   8  -3   7   73.50    6.02
  -8  -3   7   72.61    7.79
  -8   3   7   73.02    7.96
  -7  -8   3   83.55    8.09
  -7  -8  -3   78.85    8.27
   8  -3  -7   80.56    8.14
   3  -7   8   92.73    8.37
   8  -3   7   81.99    7.30
   8   3  -7   82.41    8.92
   3   7   8   99.53    8.76
   8   3   7   79.74    8.04
   7   8  -3   85.81    7.27
   3   7  -8   89.32    9.19
  -3  -7  -8   87.40    9.49
  -7  -8  -3   80.79    8.22
  -8  -3  -7   86.02    9.83
  -3   7  -8   85.30    7.67
  -8   3  -7   73.47    8.52
  -8  -3  -7   81.33    9.13
  -3  -7  -8   97.99    8.17
  -8  -3  -7   77.00    6.91
  -8   3  -7   81.04    7.95
  -8  -3  -7   80.17    7.89
   7  -8   3   80.93    8.29
   7  -8  -3   88.20    7.46
   8  -3   7   85.24    8.22
  -7  -8   3   79.60    8.60
  -3  -7   8   95.32    8.60
   3  -7   8   87.54    7.85
   8   3   7   75.53    6.57
   8   3  -7   75.85    7.47
   3   7   8   95.84    8.79
  -3   7   8   93.86    7.96
   3  -7  -8   89.03    8.08
   8  -3  -7   79.49    8.24
  -8   3  -7   81.26    8.44
  -8  -3   7   78.57    7.29
   7   8   3   88.38    7.10
  -7   8  -3   79.65    8.05
  -7   8   3   84.40    7.33
   3   7   8  104.59    8.94
  -7   8  -3   79.64    5.75
  -8  -4   0   27.15    2.61
   0  -8   4   22.50    3.59
   0  -8  -4   24.16    3.88
  -8  -4   0   31.15    4.21
  -8   4   0   28.16    4.11
   0   8  -4   21.89    3.39
  -8   4   0   29.32    4.26
   8   4   0   32.78    4.11
  -4   0   8   35.21    3.86
  -4   0  -8   30.96    5.02
   8   4   0   32.65    4.06
   0   8   4   23.29    1.67
  -8  -4   0   32.71    4.62
   4   0  -8   29.20    4.46
  -4   0   8   34.36    4.05
   4   0   8   32.45    4.82
  -4   0  -8   31.87    5.00
   0   8  -4   23.85    1.81
  -8   4   0   31.67    4.45
   0  -8   4   24.70    3.63
   0  -8  -4   22.80    2.69
   8  -4   0   28.48    3.76
   4   0  -8   31.82    4.88
   4   0   8   25.92    3.96
   8   4   0   33.89    3.06
   0  -8  -4   28.51    3.39
  -4   0   8   30.48    3.88
   0   8   4   23.63    4.15
  -4   0  -8   35.85    4.11
   1  -8   4  109.10    7.93
  -8  -4  -1  101.98    7.71
  -8   4  -1  106.81    7.90
   1  -8  -4  112.97    8.18
  -1  -8  -4  105.56    8.13
  -8  -4   1  112.46    4.93
  -8  -4   1  111.60    8.05
  -8  -4  -1  103.65    5.38
  -1  -8   4  104.70    3.56
  -8   4   1  105.57    7.88
   4   1  -8  120.24    8.81
   8   4  -1  105.11    7.26
  -1   8  -4  106.82    7.23
  -4   1   8  112.47    7.34
  -8   4   1  114.23    8.74
   1   8  -4  121.41    8.32
   1   8  -4  101.62    3.54
  -4  -1  -8  108.36    9.19
   8   4   1  107.51    7.42
  -1   8   4  111.84    3.95
   8   4  -1  110.27    7.79
  -1  -8   4  105.44    3.60
   1  -8  -4   95.97    2.56
   8   4   1  105.90    6.76
  -8  -4   1  111.89    8.40
   4  -1   8  109.43    8.51
  -4   1   8  109.52    6.84
  -4  -1   8  112.62    7.66
   4   1  -8  114.80    9.02
   4  -1  -8  105.53    8.21
   4   1   8  109.93    8.72
  -4   1  -8  117.66    9.03
  -1   8  -4  111.26    4.17
  -4  -1  -8  114.08    9.44
  -8   4   1  109.17    7.88
  -8  -4  -1  106.02    8.95
  -1  -8  -4  110.49    3.51
   1  -8  -4  106.21    5.63
   4  -1   8  114.74    8.16
   1  -8   4  110.53    8.00
  -1  -8  -4  115.89    6.17
   8  -4   1  105.50    7.57
   8  -4  -1  101.73    6.68
  -1  -8   4  108.97    7.41
  -4  -1   8  113.31    6.17
   4   1  -8  110.17    9.04
  -4   1   8  109.35    7.16
   4  -1   8  105.43    7.88
   8   4   1  106.68    4.92
   1  -8  -4  107.09    7.18
  -1  -8  -4  108.73    6.06
   4  -1  -8  104.84    8.77
   4   1   8  104.48    7.93
  -4  -1  -8  112.60    6.91
  -8   4  -1  110.62    8.53
  -4   1  -8  111.12    7.64
   1   8   4  117.60    9.15
  -1   8   4  120.36    9.38
  -2  -8   4    4.04    0.87
  -8  -4   2    3.47    0.83
   2  -8  -4    4.75    1.81
  -2  -8  -4    4.36    1.96
  -2  -8  -4    5.00    2.07
   2  -8   4    3.94    1.46
  -2  -8   4    4.13    1.72
  -8  -4   2    4.39    1.83
  -8   4   2    4.01    1.43
  -4   2  -8    3.46    1.95
  -4  -2  -8    5.73    2.19
  -2   8  -4    2.66    1.15
   2   8  -4    4.67    0.97
   8   4  -2    3.99    1.39
   8   4   2    3.04    0.85
  -8  -4  -2    4.47    1.32
   4   2  -8    5.89    2.25
  -4   2   8    4.61    1.61
   2   8  -4    5.74    1.97
  -8   4   2    2.89    1.11
  -8  -4   2    3.76    1.65
  -2  -8   4    3.11    0.74
  -4  -2   8    4.92    1.77
  -4  -2   8    4.02    0.71
  -2  -8  -4    4.94    1.65
  -2   8   4    2.97    0.75
   4  -2   8    5.25    1.71
   2   8  -4    4.22    1.30
   2  -8  -4    3.75    0.91
   8   4   2    2.24    1.16
   8  -4   2    2.94    0.85
   8   4  -2    4.27    1.84
  -2   8   4    3.41    1.12
   4  -2  -8    3.73    1.18
  -2  -8  -4    3.48    0.76
  -4  -2  -8    4.28    1.29
  -4   2  -8    3.18    1.72
  -8  -4  -2    4.18    2.13
  -8   4  -2    3.42    1.68
  -4  -2  -8    4.05    1.20
  -8   4   2    0.58    0.35
  -2  -8  -4    3.35    1.46
  -4  -2   8    4.95    1.54
   8  -4   2    4.53    2.03
  -2  -8   4    2.30    1.16
  -4   2   8    6.13    1.61
  -4  -2   8    7.06    2.06
   8  -4  -2    1.92    0.80
   4  -2   8    4.57    1.73
  -4   2   8    5.08    1.75
   4   2  -8    5.62    2.16
   2  -8  -4    3.63    1.43
   4  -2   8    3.41    1.43
   4   2   8    5.69    1.95
   8  -4  -2    3.46    1.55
  -2  -8  -4    3.90    1.04
  -4  -2   8    3.88    1.30
  -2   8   4    3.23    0.82
  -4   2  -8    6.34    2.02
   2   8   4    2.57    1.05
  -8   4   2    2.88    1.59
  -8  -4   2    4.90    2.23
   3  -8   4   29.79    4.11
  -3  -8   4   33.49    4.42
   3  -8  -4   29.77    4.03
  -8  -4   3   27.69    4.22
  -8   4   3   30.45    4.42
  -3  -8   4   33.30    2.64
  -8  -4   3   31.35    2.63
   4   3  -8   23.73    4.24
  -3   8  -4   33.20    3.71
  -4   3   8   27.25    4.05
  -3   8  -4   34.22    2.87
   8   4  -3   26.72    3.80
  -4   3  -8   32.92    5.15
  -4  -3  -8   27.62    4.74
  -8  -4  -3   29.71    4.91
   8   4  -3   29.20    4.46
   8  -4  -3   30.08    4.56
  -4  -3   8   29.09    4.00
   3  -8  -4   30.55    3.06
  -3  -8   4   28.58    2.50
   8   4   3   29.44    3.25
  -8   4   3   31.97    4.53
  -3  -8  -4   37.39    4.76
  -8  -4   3   31.59    4.23
   4  -3  -8   27.58    3.91
   4  -3   8   27.15    4.34
  -4   3   8   29.04    3.13
  -3   8   4   33.76    2.23
   8  -4   3   29.93    3.07
   3   8  -4   31.11    4.40
  -3  -8  -4   38.81    5.35
  -3  -8  -4   33.52    2.62
  -8   4  -3   33.87    4.58
  -8  -4  -3   29.51    4.22
  -4   3  -8   28.01    4.05
  -8  -4  -3   29.27    5.00
  -4  -3  -8   30.73    3.11
   3  -8   4   30.38    4.48
   4  -3   8   30.47    4.41
   8  -4   3   38.77    4.94
   8  -4  -3   30.60    3.17
  -3  -8   4   35.76    5.11
  -4  -3   8   27.67    3.67
  -3  -8  -4   31.57    3.50
   4   3   8   29.27    4.36
   8   4   3   31.67    3.45
   3  -8  -4   30.14    4.27
   8  -4  -3   34.04    4.72
  -3   8  -4   35.06    4.65
  -3  -8  -4   34.60    2.23
  -4   3   8   28.48    3.74
  -8  -4   3   30.93    4.95
  -8   4  -3   29.30    3.87
  -4   3  -8   30.21    4.42
  -4  -3   8   32.78    3.17
  -3   8   4   33.69    2.92
   3   8   4   32.20    4.65
  -3   8   4   34.74    4.97
  -8   4   3   28.96    4.62
  -8   4  -3   23.37    4.21
  -4  -8   4    7.36    1.55
  -8  -4   4    6.78    2.05
  -8   4   4    7.70    2.24
  -8  -4   4    6.38    1.18
   4  -8   4    6.39    1.77
   4  -8  -4    7.81    2.00
  -4  -8  -4    4.94    2.12
  -4  -8   4    8.23    2.19
  -4  -4  -8    5.91    2.33
   8   4  -4    6.54    1.67
  -4   8  -4    5.33    1.50
   4   4  -8    7.82    2.30
  -4   8  -4    6.74    1.27
  -8   4   4    8.89    2.75
  -4   4  -8    7.36    2.46
  -4  -8  -4    5.66    2.02
   8  -4  -4    7.78    2.40
  -8  -4   4    8.19    2.04
   4  -8  -4    4.82    1.51
  -8  -4  -4    7.73    2.70
  -4  -8   4    6.56    1.20
  -8  -4   4    5.37    1.43
  -8   4   4    6.60    2.25
   4  -4   8    7.08    2.16
  -4  -4   8    6.02    1.78
   4   4  -8    8.93    2.83
   4   8  -4    5.55    1.63
   4   4   8    7.84    2.35
   8   4  -4    7.96    2.43
   8  -4   4    9.00    1.82
   4  -4  -8    8.10    2.10
   4  -4   8    8.43    2.57
  -4   4  -8    8.89    2.11
  -8   4  -4    9.96    2.60
  -8  -4  -4    5.09    1.73
  -4  -8  -4    4.69    1.06
  -4  -8  -4    5.45    1.66
  -8   4  -4    6.35    2.16
  -8  -4  -4    7.26    2.32
  -4  -4   8    8.42    2.27
   8  -4   4    7.67    2.30
  -4   4   8    6.56    1.33
   4  -4   8    5.95    1.62
  -4  -8   4    5.72    2.06
   8   4   4    7.32    1.81
   4  -4  -8    5.30    2.24
   4   4   8    6.58    1.87
  -4   4   8    6.12    1.82
   4  -8  -4    4.67    1.59
   8  -4  -4    7.07    1.99
  -4   8   4    3.61    1.71
  -4   4  -8    7.52    2.55
  -8   4  -4    6.72    1.86
  -8   4   4    6.30    2.12
  -8  -4   4    8.15    2.47
  -4   8   4    6.77    1.50
   4   8   4    4.50    1.55
  -4   8  -4    5.03    1.55
   5  -8  -4  109.47    7.19
  -5  -8   4  100.72    7.51
   5  -8   4  102.55    7.44
  -5  -8   4   98.89    5.85
  -8  -4   5   99.66    4.90
  -8  -4   5  105.11    8.69
  -8   4   5   92.52    8.24
  -5  -8  -4  102.70    8.25
   4   5  -8  119.55    9.57
   8   4  -5   98.99    7.89
  -8   4   5  100.39    9.20
  -5   8  -4  103.89    5.62
  -4  -5  -8  108.46    9.13
   5   8  -4  106.93    9.02
  -8  -4  -5  100.41    9.09
   5  -8  -4  111.90    7.34
  -8  -4   5  100.12    8.54
  -8   4   5   96.79    8.52
   4  -5   8  116.58    8.99
   8  -4  -5  103.79    8.86
  -5  -8  -4   98.80    8.47
  -8  -4   5  102.41    7.22
   4  -5   8  115.60    9.00
   8   4   5  103.00    8.84
   8  -4   5  101.56    6.93
   8   4  -5  101.64    9.16
   4  -5  -8  113.55    7.41
   4   5   8  115.21    9.33
   4   5  -8  121.15   10.23
   5   8  -4   98.97    7.94
  -8   4  -5  100.94    8.27
  -8  -4  -5   96.86    8.07
  -8  -4  -5   95.69    9.76
  -5  -8  -4  109.06    9.46
  -4  -5  -8  105.44   10.12
   5  -8   4  106.56    8.90
   4  -5   8  106.15    8.40
   8  -4   5   97.54    8.60
  -4  -5   8  114.45    8.63
  -5  -8   4   97.91    8.99
  -4   5   8  122.04    8.13
   8   4   5  105.74    7.18
  -5   8  -4  109.53    7.58
   5  -8  -4  112.93    8.24
   4   5   8  112.93    8.90
   8  -4  -5  104.35    9.12
   5  -8  -4   97.38    8.55
   4  -5  -8  105.86    9.07
   4   5   8  111.67    8.00
  -4   5  -8  120.06    9.76
  -8   4  -5  109.29    9.53
  -5   8  -4  100.42    8.83
  -8   4  -5   97.05    6.31
  -8  -4   5  102.10    8.37
  -4   5   8  124.74    9.98
  -8   4   5  108.37    9.31
  -8  -4   5  103.21    9.14
   5   8   4  111.03    8.51
  -5   8   4  103.18    8.62
  -5   8   4  103.81    6.43
  -8  -4   6    0.33    0.59
  -8   4   6    0.17    0.49
  -6  -8   4   -0.24    0.61
   6  -8  -4    0.47    0.40
  -6  -8  -4    1.86    1.08
   6  -8   4   -0.11    0.52
  -6  -8   4   -0.70    0.88
   8   4  -6    0.15    0.92
   6   8  -4    0.34    0.88
  -8   4   6    1.09    1.48
   4   6  -8    1.06    0.74
   6  -8  -4    0.86    0.93
  -6  -8  -4    0.69    0.96
  -8  -4   6   -0.10    1.51
  -4  -6   8    3.94    1.94
  -4   6   8    1.47    0.88
  -4  -6  -8    1.65    1.10
  -8  -4   6    0.17    0.35
  -8   4   6    0.68    0.36
   4  -6   8    1.42    1.41
  -8  -4   6   -0.18    1.09
  -8   4   6    0.18    0.39
   4   6   8   -0.85    0.50
   6   8  -4   -1.03    0.87
   4   6  -8    1.96    2.02
   8  -4  -6    0.34    1.18
   4  -6  -8   -0.10    0.67
   8   4  -6    0.19    0.40
   8  -4   6    0.85    0.44
   8   4   6    1.37    0.88
  -8   4  -6    0.15    0.56
  -8  -4  -6    1.83    1.43
  -8  -4  -6    1.62    1.68
  -6  -8  -4   -0.19    1.24
  -6   8  -4    3.29    1.50
  -8   4  -6    1.20    0.59
  -8  -4  -6   -0.60    1.03
  -4  -6  -8   -0.67    1.05
  -4   6  -8   -0.17    0.78
  -4  -6  -8   -0.16    1.15
   8  -4   6    1.70    0.88
  -4  -6   8    0.62    1.46
   6  -8   4    1.38    0.72
   4  -6   8    0.16    0.58
   4  -6   8   -1.39    1.49
   8  -4  -6   -0.53    0.75
   6  -8  -4    0.78    0.82
   4   6   8   -0.64    0.34
   4  -6  -8    2.88    1.38
  -4   6   8   -0.13    0.75
   8   4   6    1.33    1.05
   6  -8  -4   -0.69    1.20
  -8  -4   6    0.87    0.30
  -6   8   4    3.21    1.60
   4   6   8    0.28    0.41
  -4   6   8    0.18    0.39
  -6   8  -4    0.21    0.70
  -8   4   6    2.97    2.40
  -8  -4   6    1.65    1.39
  -6   8   4    0.82    0.22
   6   8   4    0.94    1.16
  -8  -4   7    4.35    2.04
  -8   4   7    2.48    2.04
  -7  -8   4    2.04    1.36
  -7  -8  -4    3.87    1.70
   7  -8   4    5.99    1.76
  -7  -8   4    2.60    0.63
   7   8   4    2.60    1.45
  -8   4   7    2.82    1.76
  -7   8   4    3.82    1.79
   7   8  -4    4.95    2.23
   8   4  -7    0.31    0.33
   4   7  -8    1.67    1.29
  -7  -8  -4    2.43    1.84
   7  -8  -4    4.35    1.77
  -4  -7  -8    1.05    0.48
  -4  -7   8   -0.82    1.03
  -4   7   8    1.65    1.29
  -8  -4   7    3.17    1.70
  -8   4   7    3.63    1.83
  -8  -4   7    3.49    1.77
  -8   4   7    3.90    1.87
  -7  -8   4    3.07    1.76
   8   4   7    2.15    1.31
   4   7   8    4.40    2.02
   7   8  -4    4.89    1.79
   4   7  -8    2.84    2.13
   8  -4   7    2.61    1.15
   8  -4  -7    2.65    2.26
   8   4  -7    4.14    2.26
  -8   4  -7    2.99    1.84
  -8  -4  -7    3.76    1.88
  -8  -4  -7    5.86    2.67
  -7  -8  -4    4.54    2.65
  -4  -7  -8    3.48    1.29
  -8  -4  -7    5.71    2.43
  -8   4  -7    2.76    1.89
  -7   8  -4    4.76    1.44
  -8   4  -7    3.49    2.08
  -4  -7  -8    3.82    1.32
  -4   7  -8    1.53    2.09
   8  -4   7    1.62    0.65
  -4  -7   8    1.72    0.62
   7  -8   4    3.07    1.97
   4  -7   8    2.25    1.68
   4  -7   8    3.43    2.00
   8  -4  -7    5.17    2.48
   4  -7  -8    5.42    2.23
  -4   7   8    2.54    1.19
   8   4   7    2.95    1.41
   7  -8  -4    1.29    0.54
   4   7   8    1.22    1.32
  -7   8   4    2.95    1.64
   7   8   4    2.84    0.69
  -7   8   4    5.51    1.98
   4   7   8    3.40    1.86
  -4   7   8    2.17    1.75
  -8   4   7    3.75    2.34
  -8  -4   7    5.81    2.34
   0  -8   5   19.99    3.48
  -8  -5   0   19.86    3.33
  -8  -5   0   22.07    2.60
  -8   5   0   24.67    3.78
   0  -8  -5   22.23    3.84
   0   8  -5   16.25    3.04
   8   5   0   24.49    3.72
  -5   0   8   25.57    3.53
  -8   5   0   19.34    3.66
   0   8  -5   18.40    2.12
  -5   0  -8   29.64    4.98
   0  -8  -5   17.22    2.68
  -8  -5   0   22.24    4.19
   8   5   0   27.73    3.73
   0   8   5   19.55    3.00
   5   0  -8   32.39    4.77
   5   0   8   31.41    4.80
  -5   0  -8   25.96    4.62
  -8   5   0   23.03    3.83
   0  -8   5   21.04    3.37
  -5   0   8   25.64    3.54
   8  -5   0   22.07    3.46
   5   0   8   27.57    4.09
   8   5   0   23.64    2.96
   0  -8  -5   20.51    3.07
   5   0  -8   27.84    4.71
  -8   5   0   21.69    2.30
   0   8   5   16.83    3.58
  -5   0  -8   25.70    3.82
  -8  -5  -1  579.21   13.85
  -8  -5   1  582.68   12.87
  -8   5   1  577.20   18.16
  -8  -5   1  564.16   17.86
  -1  -8  -5  592.97   19.92
   1  -8  -5  613.00   19.54
   5   1  -8  574.37   19.60
   8   5  -1  561.97   18.12
  -1   8  -5  561.26   17.42
  -5   1   8  571.66   17.58
  -5  -1  -8  536.22   21.29
  -8   5   1  570.20   19.91
   1   8  -5  549.83   11.56
   8   5   1  552.57   18.22
   1   8  -5  563.72   18.81
  -1   8   5  572.25   11.87
   8   5   1  563.57   15.49
   8   5  -1  574.72   17.70
  -5  -1   8  550.20   15.96
  -1  -8  -5  578.23   16.28
  -8  -5   1  579.66   19.82
   5  -1   8  567.82   20.01
  -5   1   8  565.52   15.02
   5  -1  -8  563.28   19.61
  -1   8   5  595.22   14.94
   5   1  -8  552.54   20.55
   5   1   8  557.16   19.89
  -5   1  -8  556.49   20.70
  -5  -1  -8  553.71   22.24
  -1   8  -5  558.39   12.45
  -8   5   1  580.46   18.18
  -8  -5  -1  577.71   20.57
   8  -5  -1  576.51   16.81
   5  -1   8  559.38   19.15
   1  -8   5  556.71   18.11
   8  -5   1  576.93   18.51
  -1  -8   5  575.11   17.10
   5   1  -8  570.16   21.19
   5  -1   8  548.33   17.89
  -5   1   8  554.91   15.52
   1  -8  -5  572.77   16.91
  -1  -8  -5  550.07   14.17
   8   5  -1  564.80   14.71
   5  -1  -8  576.31   21.21
   8   5   1  589.87   13.64
   5   1   8  547.62   18.15
  -8   5   1  561.18   12.87
  -5  -1  -8  574.90   16.90
  -8   5  -1  568.54   19.62
  -1   8   5  577.67   21.36
   1   8   5  584.92   20.95
  -5   1  -8  564.26   18.29
  -8   5  -1  578.35    9.70
  -8  -5   2   61.65    4.20
  -2  -8   5   52.81    5.65
  -8  -5  -2   58.54    4.75
  -8  -5   2   56.91    5.81
  -8   5   2   63.37    6.15
  -2  -8  -5   50.70    5.94
   2  -8  -5   50.71    5.54
  -2  -8   5   55.25    3.76
   8   5  -2   61.62    6.16
   5   2  -8   57.47    6.26
   8   5   2   54.83    5.75
  -2   8  -5   52.38    5.16
  -5   2   8   59.10    5.86
  -8   5   2   52.66    6.11
   2   8  -5   48.21    5.70
  -5  -2  -8   53.49    6.83
  -2   8   5   47.90    3.71
   8   5   2   59.51    4.63
  -5  -2   8   56.77    5.25
  -2  -8   5   50.54    3.62
  -2  -8  -5   53.41    5.25
  -8  -5   2   64.69    6.51
  -8  -5  -2   58.88    6.68
   2   8  -5   48.51    5.75
  -5   2   8   56.56    4.40
   5  -2   8   61.28    6.62
   8   5  -2   55.60    5.82
   5  -2  -8   59.39    6.27
  -2   8   5   47.63    3.69
   5   2   8   55.04    6.53
  -5   2  -8   56.38    6.44
  -5  -2  -8   56.49    7.21
  -2   8  -5   42.38    3.70
  -5  -2  -8   59.90    5.12
  -2  -8  -5   50.39    6.51
  -8   5   2   55.77    5.48
  -8  -5  -2   49.02    6.30
   2  -8   5   48.72    5.53
  -2  -8   5   47.84    4.80
   5  -2   8   55.43    6.10
   8  -5  -2   53.54    4.92
   8  -5   2   57.03    6.09
  -5  -2   8   60.51    5.35
   5   2  -8   60.31    6.88
  -5   2   8   56.07    4.89
   2  -8  -5   51.22    5.41
   5  -2   8   58.34    5.91
   8  -5  -2   63.48    6.55
  -2  -8  -5   50.62    3.77
   5   2   8   53.92    5.87
   5  -2  -8   58.48    6.87
  -5   2  -8   54.05    5.93
  -8   5   2   54.20    4.38
  -5  -2   8   61.85    5.20
  -8  -5   2   60.63    6.43
  -8   5   2   61.01    6.45
   2   8   5   54.95    6.39
  -8   5  -2   54.32    6.22
   3  -8  -5 1819.16   32.21
  -3  -8   5 1759.52   32.35
  -8  -5   3 1742.93   32.81
  -8   5   3 1720.90   32.83
  -8  -5   3 1822.38   22.65
  -3  -8   5 1701.27   22.35
  -8  -5  -3 1748.18   27.27
  -5   3   8 1765.95   33.64
   5   3  -8 1736.19   35.24
  -3   8  -5 1730.47   28.01
   8   5   3 1771.04   33.63
   8   5  -3 1754.00   33.10
   8  -5  -3 1706.22   34.69
  -3   8   5 1724.66   23.53
   5  -3   8 1752.51   33.11
  -3  -8   5 1742.65   22.81
  -5  -3   8 1705.94   29.81
  -5  -3   8 1759.69   20.94
  -3  -8  -5 1739.18   31.86
  -8  -5   3 1703.78   32.95
   3  -8  -5 1703.53   21.68
  -8  -5  -3 1714.81   37.26
   5  -3  -8 1715.96   32.80
   5  -3   8 1715.03   34.78
   8   5  -3 1742.23   34.34
   5   3   8 1593.89   34.37
   5   3  -8 1728.74   38.15
  -5   3   8 1712.57   22.04
   3   8  -5 1671.90   34.13
  -5   3  -8 1710.06   33.44
  -8  -5  -3 1676.04   38.13
  -3  -8  -5 1733.42   38.15
  -8   5  -3 1706.94   31.88
  -3   8  -5 1736.44   25.08
  -5   3  -8 1755.83   39.73
  -5  -3  -8 1700.06   39.12
  -5  -3  -8 1777.24   26.43
  -3  -8  -5 1747.33   21.53
  -3  -8   5 1745.39   27.60
   3  -8   5 1699.32   33.98
   5  -3   8 1740.10   34.13
   8  -5   3 1722.34   34.66
   8  -5  -3 1756.53   26.57
  -5  -3   8 1698.92   29.86
  -5   3   8 1709.99   27.39
   8   5   3 1794.14   27.91
   3  -8  -5 1759.36   33.64
   5   3   8 1725.84   33.51
   8  -5  -3 1722.53   35.19
  -8   5  -3 1716.26   36.13
  -5  -3   8 1714.77   25.84
  -5   3  -8 1734.85   35.22
  -8   5   3 1748.24   35.21
  -3   8   5 1790.48   37.54
  -8  -5   3 1724.34   35.18
   3   8   5 1730.50   35.44
  -8  -5   4    2.72    1.28
  -8   5   4   -0.29    0.61
  -4  -8  -5    1.97    1.27
  -4  -8   5    0.22    0.51
  -8  -5   4   -0.13    0.23
   4  -8   5    0.64    0.27
  -4  -8   5    2.17    1.37
   4  -8  -5    1.52    0.55
  -8   5   4    1.76    1.99
  -4   8  -5    0.35    0.84
   8   5  -4   -0.28    0.78
  -5   4   8    2.32    1.21
   5   4  -8    4.26    2.20
  -5  -4   8   -0.25    0.78
  -4   8   5   -0.16    0.38
   8  -5  -4    0.47    0.57
  -8  -5   4    2.23    0.99
  -4  -8  -5    0.57    0.94
  -8  -5  -4    0.36    0.75
  -5  -4   8    1.34    1.61
  -5   4   8    3.38    2.10
  -8  -5   4    0.29    0.61
  -8   5   4   -0.44    0.96
  -4  -8   5   -0.45    0.22
   5  -4   8   -0.56    0.98
   5   4  -8    2.06    1.67
   4   8  -5    2.48    1.49
   4  -8  -5    3.04    1.23
   5  -4  -8    1.70    1.26
   5  -4   8    0.15    0.72
   8   5  -4    1.63    1.03
  -5  -4  -8   -0.87    1.71
  -8   5  -4    0.17    0.37
  -4  -8  -5   -0.07    0.29
  -8   5  -4   -0.27    0.40
  -8  -5  -4    1.48    1.06
  -5   4  -8    0.13    1.10
  -5   4  -8    2.09    1.78
  -5  -4  -8    2.83    2.13
  -4  -8  -5   -0.56    0.78
  -8  -5  -4    2.26    2.24
   4  -8   5    0.63    1.40
  -5  -4   8    0.53    1.00
   8  -5   4   -0.48    0.47
   5  -4   8    0.30    1.28
   5   4   8    1.02    1.10
   4  -8  -5   -0.31    1.03
  -5   4   8    0.10    0.30
   8  -5  -4    0.66    0.97
   8   5   4    0.11    0.39
   4   8   5    0.61    0.32
  -8   5  -4    1.00    0.75
  -4   8   5   -0.34    0.71
  -4   8  -5    1.15    1.04
  -5   4  -8    2.33    1.71
  -4   8   5    1.53    0.71
  -8   5   4    1.78    1.40
  -8  -5   4    0.32    1.56
  -5  -8  -5  139.61    9.92
   5  -8   5  149.81    9.38
   5  -8  -5  159.04    8.99
  -5  -8   5  149.86    9.34
  -8  -5   5  154.27    6.87
  -5  -8   5  146.51    7.67
  -8  -5   5  149.63   10.20
  -8   5   5  149.65   10.30
   5   5  -8  143.21   10.73
  -5   5   8  142.03   10.42
   8   5  -5  158.83   10.44
  -8   5   5  149.10   11.42
   5   8  -5  148.89   10.85
  -5  -5   8  141.63   10.35
  -5   5   8  136.00   10.29
  -8  -5  -5  163.80   11.85
  -5  -8   5  154.64    7.85
  -8  -5   5  153.12   10.43
  -8   5   5  156.10   10.54
   5  -5   8  145.94    9.99
   8  -5  -5  159.84   10.91
   5  -8  -5  148.42    8.34
  -8  -5   5  160.58    9.62
  -5  -8  -5  149.62   10.37
   5  -5   8  140.42   10.05
   8   5   5  160.98   11.44
   5  -5  -8  138.21    8.85
   5   5   8  139.72   10.67
   8   5  -5  156.30   11.45
   5   5  -8  141.43   11.40
   5   8  -5  152.68   10.56
   8  -5   5  151.54    8.25
  -8   5  -5  158.97   10.20
  -8  -5  -5  152.29    9.91
  -5  -8  -5  163.14    7.74
  -8  -5  -5  157.41   12.62
  -5  -8  -5  144.30   11.34
  -5   5  -8  126.64   10.35
  -5  -5  -8  130.06   10.48
  -5  -5  -8  134.69   11.87
   8  -5   5  149.29   10.87
   5  -5   8  135.84   10.09
  -5  -5   8  142.67    9.90
   5  -5  -8  128.85   10.31
  -5   8  -5  165.05    9.39
   8   5   5  161.61    9.29
   5  -8  -5  145.10   10.69
   8  -5  -5  157.06   11.33
   5   5   8  143.75   10.14
  -5   5   8  140.16    8.30
  -8   5   5  143.01   10.67
   5   5   8  146.46    8.81
  -5   8  -5  149.01   11.32
  -5   5  -8  137.22   10.62
  -8   5  -5  155.61    7.76
  -8  -5   5  155.39   11.08
  -5   8   5  154.78    8.40
   5   8   5  154.44   10.16
  -5   8   5  152.34   10.85
  -8   5  -5  160.85   11.82
  -6  -8   5    3.18    1.34
  -6  -8   5    2.79    1.30
  -8  -5   6    3.02    1.49
  -8   5   6    4.37    1.80
  -6  -8  -5    4.01    1.41
  -5  -6   8    6.88    2.36
  -5   6   8    3.07    1.02
   6  -8   5    4.59    1.56
   6   8  -5    3.03    1.35
  -8   5   6    1.72    0.98
   5   6  -8    2.73    1.98
  -8  -5   6    5.00    1.72
  -8   5   6    4.28    1.59
  -8  -5   6    2.43    1.06
  -6  -8  -5    4.35    1.67
  -8  -5  -6    0.19    0.39
  -5  -6   8    7.78    2.63
  -5   6   8    7.86    2.64
  -8  -5   6    2.26    1.12
  -8   5   6    3.78    1.92
   5  -6   8    4.95    2.00
   5   6   8    5.97    2.43
   5   6  -8    5.06    2.48
   6   8  -5    4.17    2.01
   5  -6  -8    6.18    1.91
   6  -8  -5    2.39    1.44
   8  -5  -6    2.18    1.17
   8   5   6    3.12    1.72
   8   5  -6    4.50    2.17
  -5  -6  -8    7.20    3.04
  -6  -8  -5    2.04    1.29
  -8   5  -6    3.78    1.42
  -8  -5  -6    5.20    2.07
  -8  -5  -6    2.11    1.55
  -6  -8  -5    4.49    1.48
  -8   5  -6    6.01    2.34
  -5   6  -8    6.97    2.86
  -5  -6  -8    5.57    1.93
  -5  -6   8    2.97    0.92
  -6  -8   5    5.65    2.59
   8  -5   6    3.58    1.95
   5  -6   8    5.00    2.16
   8  -5   6    3.23    1.39
   5  -6   8    5.79    2.35
   6  -8   5    7.65    2.42
   5  -6  -8    5.88    2.18
   5   6   8    4.43    1.76
   8   5   6    1.57    0.67
  -5   6   8    8.44    2.26
   6  -8  -5    3.82    1.95
  -6   8   5    3.31    1.42
   8  -5  -6    4.28    1.75
   6   8   5    5.21    1.68
  -6   8  -5    4.46    1.95
  -6   8   5    4.97    1.94
   5   6   8    5.68    1.76
  -5   6   8    2.94    1.44
  -8   5   6    7.45    2.75
  -6   8  -5    2.95    1.13
  -8  -5   6    5.18    2.15
  -6   8   5    2.81    0.97
  -5  -7   8  709.32   20.67
  -5   7   8  710.99   21.04
  -5  -7   8  680.55   20.02
   7  -8   5  695.83   18.94
  -7  -8   5  704.95   19.34
  -7  -8  -5  713.43   22.44
  -8  -5   7  680.25   22.86
  -8   5   7  678.54   23.11
   5   7  -8  681.81   24.60
   8   5  -7  683.56   23.09
  -8   5   7  710.75   25.42
   7   8  -5  656.57   23.49
  -5  -7  -8  711.24   22.07
  -5  -7   8  683.85   21.37
  -5   7   8  710.67   22.05
  -8  -5   7  707.21   24.84
  -8   5   7  697.06   24.70
   8  -5  -7  701.67   23.60
  -8  -5   7  663.49   22.84
  -8   5   7  711.08   23.74
   7  -8  -5  707.32   21.23
  -5  -7   8  678.93   20.58
  -7  -8   5  683.07   22.21
  -7  -8  -5  698.12   24.77
   5  -7   8  698.59   22.50
   8   5   7  670.65   24.52
   5   7   8  698.12   24.74
   8   5  -7  714.24   26.33
   7   8  -5  681.33   23.28
   5   7  -8  705.57   26.09
   8  -5   7  696.40   20.52
  -8  -5  -7  684.29   27.85
  -7  -8  -5  687.70   26.08
  -8   5  -7  650.13   25.04
  -8  -5  -7  667.83   25.11
  -5   7  -8  709.20   23.04
  -5  -7  -8  673.46   22.52
  -5  -7  -8  690.56   27.70
  -8   5  -7  724.91   23.19
  -8  -5  -7  707.01   22.69
  -7  -8   5  670.16   25.30
   8  -5   7  715.16   25.11
   5  -7   8  716.73   24.06
  -5  -7   8  686.13   23.93
   7  -8   5  678.67   24.29
   8  -5  -7  713.51   25.63
   5   7   8  710.77   24.05
   8   5   7  701.56   21.49
  -5   7   8  729.41   20.15
   5  -7  -8  701.26   24.75
  -5   7   8  738.13   25.61
  -8   5   7  689.09   24.77
  -8  -5   7  688.43   24.35
  -7   8  -5  699.27   25.18
  -7   8   5  708.67   20.28
  -7   8   5  734.53   23.32
   5   7   8  721.30   22.04
   0  -8  -6   38.38    5.22
  -8  -6   0   33.07    4.22
  -8   6   0   35.42    4.35
  -8  -6   0   35.56    3.66
   0   8  -6   36.89    4.90
   8   6   0   33.66    4.67
  -8   6   0   34.05    4.71
   0   8  -6   32.94    3.31
  -6   0   8   44.99    6.34
  -6   0   8   42.05    4.16
   0  -8  -6   37.30    3.66
  -8  -6   0   32.25    5.04
   0   8   6   30.89    3.98
   8   6   0   37.30    4.15
   6   0  -8   43.57    5.92
   6   0   8   37.03    5.07
  -6   0  -8   39.31    5.98
  -6   0  -8   38.29    6.13
   8  -6   0   34.35    4.51
   0  -8   6   31.47    4.13
   6   0   8   39.24    4.82
   8   6   0   35.50    3.85
   0  -8  -6   33.17    3.86
   6   0  -8   42.40    5.86
  -6   0  -8   36.83    4.67
   0   8   6   39.82    5.73
  -8   6   0   31.72    4.47
  -8   6   0   33.79    3.20
  -1  -8  -6   27.72    4.54
   1  -8  -6   26.05    4.20
  -8  -6   1   24.46    2.95
  -8  -6   1   22.68    3.50
  -8   6   1   25.11    3.70
  -8  -6  -1   27.95    3.33
   6   1  -8   29.65    4.55
  -8   6   1   27.97    4.55
   8   6  -1   25.39    4.04
  -1   8  -6   25.94    3.98
   1   8  -6   22.98    3.95
  -6   1   8   26.39    4.11
  -8   6  -1   21.33    3.56
   8   6   1   24.31    3.98
   1   8  -6   23.41    2.84
  -6  -1   8   26.98    4.97
  -6  -1   8   22.68    3.16
  -1  -8  -6   23.43    3.20
  -8  -6   1   24.79    4.33
   6  -1   8   21.90    4.04
   1   8   6   27.92    3.89
   8   6  -1   21.85    3.33
   6   1  -8   27.13    4.85
   6  -1  -8   30.44    4.86
  -1   8   6   23.84    3.06
   6   1   8   25.92    4.35
  -6  -1  -8   23.04    4.98
  -6   1  -8   21.96    4.44
  -8   6   1   28.21    4.09
  -6  -1  -8   21.06    4.48
  -8  -6  -1   28.65    4.48
   8  -6  -1   23.47    3.52
   1  -8   6   27.98    4.15
   6  -1   8   25.59    4.30
  -1  -8   6   29.53    3.96
   8  -6   1   22.90    3.80
   6   1   8   23.19    3.70
   6   1  -8   26.22    4.63
   6  -1   8   23.73    3.78
   1  -8  -6   23.32    3.51
   8   6   1   28.42    3.30
  -1  -8  -6   26.03    3.18
   6  -1  -8   24.84    4.53
   8   6  -1   26.29    3.46
   1   8   6   24.09    4.31
  -1   8   6   24.72    4.32
  -8   6  -1   24.03    4.05
  -6  -1  -8   28.45    4.05
  -8   6  -1   23.54    2.43
  -8   6   1   25.00    3.01
  -6   1  -8   26.93    4.18
  -8  -6   2   16.66    2.60
  -8  -6  -2   15.11    2.44
  -2  -8  -6   17.31    3.67
  -2  -8  -6   18.61    4.26
  -2  -8   6   15.83    3.26
   2  -8  -6   18.34    3.51
  -8  -6   2   17.61    3.26
  -8   6   2   13.65    2.82
   2   8  -6   18.32    3.60
   6   2  -8   22.19    4.10
   8   6  -2   15.75    3.37
   8   6   2   11.96    2.72
  -8   6   2   18.58    3.85
  -6   2   8   18.56    3.60
  -2   8  -6   18.75    3.15
  -2   8   6   16.71    2.48
  -8  -6   2   19.29    3.86
  -2  -8  -6   19.53    3.14
  -8  -6  -2   13.96    3.48
  -6  -2   8   17.88    3.77
  -6   2   8   18.18    4.27
  -6  -2   8   18.36    3.01
   2   8  -6   15.72    3.40
   6   2   8   17.93    3.62
  -2   8   6   20.42    2.45
   6  -2   8   20.31    3.92
   2   8   6   17.67    3.35
   6  -2  -8   19.68    3.81
   8   6  -2   14.92    2.96
  -6   2  -8   20.15    3.81
  -2   8  -6   18.33    2.76
  -8  -6  -2   12.99    3.40
  -8   6  -2   12.23    2.93
  -6   2  -8   16.94    3.70
  -6   2  -8   15.30    3.96
  -6  -2  -8   18.72    4.32
  -6  -2  -8   17.43    3.06
  -8   6   2   14.91    2.74
  -6  -2  -8   22.06    4.74
  -2  -8   6   18.81    2.98
   8  -6  -2   16.51    2.89
   2  -8   6   20.29    3.49
   6  -2   8   18.98    3.68
   8  -6   2   15.47    3.41
  -2  -8   6   17.66    3.86
  -6   2   8   20.39    2.99
   6  -2  -8   16.99    3.72
   6   2  -8   19.43    3.94
   2  -8  -6   20.63    3.66
   8  -6  -2   15.30    3.31
   6   2   8   21.27    3.56
  -2  -8  -6   20.06    2.46
   2   8   6   17.76    3.76
  -8   6   2   16.35    2.64
  -6  -2   8   17.79    3.04
  -3  -8   6    3.80    1.21
   3  -8  -6    2.81    1.35
  -3  -8  -6    4.40    2.22
  -3  -8   6    3.13    1.81
  -8  -6   3    1.91    0.62
  -8  -6   3    3.25    1.39
  -8   6   3    2.73    1.42
   8   6   3    4.10    1.86
  -8  -6  -3    3.49    1.39
   3   8  -6    4.32    1.91
  -3   8  -6    5.08    1.44
   6   3  -8    2.06    1.45
  -6   3   8    2.61    1.61
  -8   6   3    4.74    2.39
   8   6  -3    2.85    1.51
  -8  -6   3    3.00    1.51
  -3  -8  -6    4.53    1.94
  -8  -6  -3    3.47    1.80
   8  -6  -3    1.87    1.60
  -6  -3   8    2.93    0.67
  -6   3   8    1.66    1.34
  -3   8   6    3.28    1.17
   6  -3   8    0.67    0.93
  -3  -8   6    3.98    1.62
  -6  -3   8    1.40    1.15
   6   3  -8    3.06    1.56
   6  -3  -8    0.77    1.36
   3   8  -6    4.42    2.26
   6   3   8    3.00    1.95
   6  -3   8    3.58    1.66
   3   8   6    4.88    1.28
   8   6  -3    3.11    1.28
  -8  -6  -3    3.82    2.16
  -6   3  -8    0.95    0.33
  -6   3  -8    1.16    1.40
  -3   8  -6    3.57    1.46
  -8   6  -3    2.55    1.95
  -6   3  -8    3.27    1.55
  -6  -3  -8   -0.41    1.96
  -6  -3  -8    1.72    0.93
  -8   6   3    1.95    0.30
   8  -6  -3    1.67    0.88
   3  -8   6    1.65    0.63
  -6  -3   8    1.91    0.53
   8  -6   3    4.67    2.03
   6  -3   8    3.49    1.70
  -3  -8   6    3.85    1.98
   6  -3  -8    2.36    1.78
  -6   3   8    2.12    0.98
  -3  -8   6    4.00    1.42
   6   3   8    2.54    1.68
   8  -6  -3    2.66    1.75
   3  -8  -6    3.54    1.91
  -8   6   3    2.08    1.08
  -8  -6   3    4.01    1.97
   3   8   6    2.63    1.46
  -3   8   6    4.58    2.18
  -8   6   3    1.13    0.61
  -6  -3   8    4.57    1.48
  -8  -6   4    3.41    1.43
  -8   6   4    4.39    1.84
  -4  -8   6    1.98    1.01
  -6  -4   8    7.16    2.53
  -6   4   8    3.84    1.86
  -8  -6   4    4.31    1.46
  -4  -8  -6    3.44    1.91
  -4  -8   6    6.27    2.04
   4  -8  -6    4.66    1.74
  -4   8  -6    4.85    1.34
  -8  -6  -4    4.38    1.39
   8   6  -4    6.83    2.06
   6   4  -8    6.52    2.27
  -6   4   8    4.64    2.03
  -6  -4   8    2.78    0.84
  -8  -6   4    3.48    1.61
  -4  -8  -6    4.51    1.70
  -8  -6  -4    7.66    2.54
  -6  -4   8    3.96    2.07
  -6   4   8    4.17    1.79
  -4  -8   6    4.23    1.46
   8  -6  -4    6.98    2.35
   6  -4   8    7.25    2.09
  -4   8   6    3.46    1.50
   6  -4   8    5.41    2.43
   6   4  -8    6.35    2.16
   6   4   8    4.87    2.31
   4   8  -6    2.61    1.46
   4  -8  -6    2.62    0.56
   4   8   6    4.01    1.57
   6  -4  -8    5.76    1.64
   8   6  -4    7.43    2.40
  -4  -8  -6    3.48    1.61
  -4  -8  -6    2.63    1.07
  -4   8  -6    2.99    1.35
  -8   6  -4    4.08    1.51
  -8  -6  -4    4.92    1.58
  -6  -4  -8    4.18    2.71
  -6   4  -8    6.25    2.15
  -8   6  -4    4.16    1.98
  -6   4  -8    4.42    1.89
  -6  -4  -8    8.79    2.72
  -8  -6  -4    5.81    2.42
   4  -8   6    0.97    1.92
  -6  -4   8    5.39    1.74
  -8  -6   4    4.27    2.08
   8  -6   4    2.71    1.13
   4  -8   6    2.53    1.45
   6  -4   8    3.64    1.70
  -4  -8   6    4.70    2.08
  -6   4   8    4.38    1.48
   6  -4  -8    8.15    2.23
   8   6   4    4.49    1.87
   6   4   8    4.76    1.71
  -4   8   6    2.99    1.25
   8  -6  -4    2.63    1.16
   4  -8  -6    4.73    1.75
  -4   8  -6    3.72    1.53
   4   8   6    3.32    1.82
  -4   8   6    6.76    2.46
  -8   6   4    5.01    1.71
  -8   6  -4    1.27    0.46
  -8   6   4    6.41    2.05
  -8  -6   4    4.53    1.86
   5  -8  -6   49.07    5.15
  -6  -5   8   45.14    5.67
  -6   5   8   51.98    6.21
  -5  -8   6   40.31    4.86
  -8  -6   5   38.98    3.79
  -5  -8  -6   45.41    5.86
  -8  -6   5   45.88    5.36
  -8   6   5   41.27    5.21
  -5  -8   6   41.45    4.34
   6   5  -8   46.54    6.23
   5   8  -6   47.73    6.33
  -6   5   8   48.65    6.34
  -8   6   5   44.15    6.37
   8   6  -5   42.14    5.53
  -8  -6   5   43.49    5.50
  -8  -6  -5   39.07    6.02
   5  -8  -6   43.21    4.35
  -6  -5   8   47.08    6.22
  -6   5   8   44.57    6.18
  -5   8   6   41.71    4.53
  -8   6   5   44.36    5.45
  -5  -8   6   39.39    4.22
   8  -6  -5   44.85    5.80
   6  -5   8   43.10    5.30
  -6  -5   8   43.87    4.38
  -8  -6   5   43.66    5.15
  -5  -8  -6   43.72    5.57
   6  -5   8   44.04    5.49
   8   6   5   47.13    6.65
   5   8   6   48.66    6.40
   6  -5  -8   47.37    5.62
   8   6  -5   43.65    6.08
   6   5  -8   42.11    6.17
   5   8  -6   39.82    5.87
  -8   6  -5   43.82    5.27
  -8  -6  -5   38.78    4.85
  -8  -6  -5   45.38    6.85
  -6  -5  -8   48.26    7.23
  -6   5  -8   44.12    6.28
  -6  -5  -8   44.32    6.32
  -5  -8  -6   36.80    5.96
  -5  -8  -6   42.96    4.33
   6  -5   8   45.63    5.99
  -5  -8   6   44.61    6.16
   5  -8   6   43.98    5.04
   8  -6   5   42.30    5.90
  -6  -5   8   43.50    5.58
   5  -8   6   42.97    5.81
  -8  -6   5   38.34    5.90
  -5   8   6   45.22    4.85
   8   6   5   39.84    4.76
   8  -6  -5   45.99    6.35
   5  -8  -6   37.55    5.44
   6   5   8   45.10    5.72
  -6   5   8   48.21    4.43
  -5   8  -6   44.30    4.93
  -5   8  -6   44.04    6.23
  -5   8   6   46.31    4.82
  -6   5  -8   44.21    6.16
  -8   6   5   42.28    5.71
  -8   6  -5   36.64    5.55
   5   8   6   44.34    5.63
  -5   8   6   45.77    6.17
  -8  -6   5   43.41    5.51
  -8  -6   6    0.60    0.55
  -8   6   6    2.31    1.83
  -6  -6   8    1.05    1.04
  -6   6   8    0.47    0.33
   6  -8   6    0.39    1.38
  -6  -6   8    1.56    1.45
  -6  -8   6   -0.25    1.25
   8   6  -6    1.03    1.08
   6   8  -6   -1.11    1.23
  -6   6   8    0.95    0.98
  -8   6   6    3.60    1.78
  -6  -8  -6   -0.49    1.54
   6   6  -8    1.86    0.68
   6  -6   8    0.45    0.99
  -8  -6   6    0.52    0.91
  -6  -8  -6   -0.35    0.36
  -8  -6  -6    1.74    1.99
  -8  -6   6    0.61    1.43
  -8   6   6    1.10    1.04
  -6  -6   8    0.66    2.16
  -6  -6   8    0.15    0.32
  -6   6   8    3.19    2.20
  -6   6   8   -0.34    1.22
  -6  -6   8    0.11    0.64
   8   6  -6   -0.79    1.31
   6   6   8   -0.19    1.33
   6   6  -8   -0.42    0.88
   6   8  -6   -0.74    1.23
   8  -6  -6    0.81    0.91
   6  -8  -6   -0.12    0.73
   6   8   6    1.95    1.23
   6  -6  -8    0.79    0.68
   8   6   6   -1.18    1.09
  -6  -6  -8    1.29    0.67
  -8   6  -6    1.88    1.43
  -8  -6  -6    0.57    1.54
  -6  -8  -6   -0.10    0.73
  -8  -6  -6   -0.47    1.72
  -6  -8  -6   -0.22    2.23
  -8   6  -6    2.20    1.73
  -6  -6  -8    1.21    0.72
  -6   6  -8    4.98    1.94
  -6  -8   6   -0.59    1.02
  -6  -6   8    2.59    1.62
  -8  -6   6    0.79    1.66
   6  -6   8   -0.54    0.53
   8  -6   6   -1.85    1.35
   6  -6   8   -2.00    1.88
  -6   8   6   -0.48    0.71
   8   6   6    0.42    0.51
   6  -6  -8    2.95    2.41
   6   6   8    1.34    1.53
  -6   6   8    0.78    1.10
   6   8   6    1.37    2.05
   6  -8  -6    2.29    1.70
   8  -6  -6    1.17    2.00
   6   8   6   -0.56    0.93
  -6   8   6    1.26    2.15
  -6   8  -6   -0.85    1.07
  -6   8  -6    3.93    1.60
  -6   8   6   -1.36    1.07
  -8   6   6   -0.17    0.37
  -8  -6   6    1.36    2.13
  -7  -8   6    1.06    0.49
  -8  -6   7   -0.16    1.62
  -8   6   7    0.49    1.52
  -6  -7   8    0.41    0.82
  -6  -7   8    2.07    1.08
   7  -8   6    0.24    0.77
  -8   6   7    0.62    1.61
   7   8  -6    1.15    1.20
  -7  -8  -6   -0.16    0.48
  -6   7   8    0.81    1.12
  -7   8   6    3.53    1.80
   6   7  -8   -0.78    0.92
   8   6  -7    1.61    1.88
  -8  -6   7   -1.07    0.71
  -7  -8  -6    0.76    0.98
  -6  -7  -8    1.81    0.91
  -8  -6   7    3.03    1.83
  -8   6   7    4.12    2.24
  -6  -7   8   -0.14    0.98
  -6   7   8    0.62    1.08
  -7  -8   6    0.46    1.19
   8   6   7    0.41    1.65
   6   7   8    4.20    1.97
   8   6  -7   -0.84    1.82
   7   8  -6   -2.64    2.13
   6   7  -8    1.07    0.78
   7  -8  -6    1.48    1.41
   8  -6  -7    1.17    1.53
   7   8   6    1.04    0.61
  -6  -7  -8    0.91    1.02
  -8   6  -7    1.37    0.32
  -8  -6  -7    2.23    1.04
  -8   6  -7    2.29    1.45
  -8  -6  -7    2.00    1.96
  -6  -7  -8    2.46    2.06
  -7   8  -6    0.82    0.61
  -7  -8  -6    1.15    0.84
  -6   7  -8    0.17    1.33
  -6  -7   8    0.19    1.46
  -7  -8   6   -0.83    0.43
  -8  -6   7    1.37    1.01
   8  -6   7    0.38    1.14
   6  -7   8    2.97    1.51
   6  -7   8   -1.06    0.64
   7  -8   6    1.74    1.46
   8  -6  -7    0.82    0.74
   6  -7  -8    1.41    1.79
   6   7   8    2.13    1.49
   8   6   7    0.76    1.68
   7   8   6    0.83    0.35
   7  -8  -6    0.81    0.60
  -7   8   6   -0.68    0.50
  -8   6   7    4.03    2.49
  -8  -6   7   -1.60    1.29
  -7   0   8  956.69   28.33
  -8  -7   0  945.80   20.34
   0  -8  -7  975.15   27.40
   0   8  -7  932.03   25.64
   8   7   0  949.79   26.22
  -8   7   0  940.50   25.69
   0   8  -7  891.00   19.67
  -7   0   8  971.93   30.04
  -7   0   8  953.44   18.27
  -8  -7   0  894.34   27.07
   7   0  -8  975.02   28.93
   0   8   7  963.77   21.96
   7   0   8  951.10   26.86
  -7   0  -8  967.05   30.66
  -7   0  -8  927.52   30.94
   8  -7   0  940.00   25.09
   0  -8   7  957.31   22.82
   7   0   8  978.61   23.79
   0   8   7  986.99   27.42
   0  -8  -7  944.41   21.68
   8   7   0  990.18   22.26
   7   0  -8  969.72   28.67
  -8   7   0  976.08   24.88
  -7   0  -8 1005.48   25.94
  -8   7   0  995.84   19.10
   0   8   7  983.30   29.31
  -7   1   8    0.36    1.20
  -8  -7   1    0.66    1.03
  -8  -7   1    2.98    1.64
  -8   7   1    1.45    1.09
  -8  -7  -1    1.43    0.91
   1   8  -7    1.78    0.59
   7   1  -8    0.14    0.61
  -1  -8  -7    0.34    0.94
   1  -8  -7   -0.47    0.81
   8   7   1    0.47    0.87
  -8   7   1   -0.16    0.97
  -8   7  -1   -0.71    0.42
   8   7  -1    1.87    1.85
   1   8  -7    1.92    1.54
  -1   8  -7   -0.29    1.09
  -1   8  -7    0.65    0.85
  -8  -7   1    2.74    1.80
  -7  -1   8   -0.20    0.59
  -7   1   8    2.47    1.10
  -7  -1   8    0.57    0.71
   8   7  -1    2.30    1.28
   1   8   7    0.89    1.03
   7  -1   8    0.48    1.90
  -1   8   7    1.71    0.82
   7   1   8   -0.99    0.49
   7  -1  -8   -0.54    1.42
  -7  -1  -8    0.66    0.80
  -8  -7  -1    1.27    1.63
  -7   1  -8   -0.31    0.46
  -8   7  -1    1.82    1.46
  -7  -1  -8    1.98    2.16
  -7  -1  -8    0.68    1.18
  -8   7   1   -0.76    0.88
  -7   1  -8   -0.59    0.59
   8  -7  -1    0.68    0.94
   8  -7   1   -1.84    1.36
   1  -8   7   -0.91    0.72
  -1  -8   7    0.11    0.71
   7   1   8    1.67    1.43
   1  -8  -7    1.50    0.37
  -1  -8  -7    0.46    0.33
   7  -1  -8    2.05    0.88
   7   1  -8    1.08    1.07
   7  -1   8    0.87    1.14
  -1   8   7   -0.95    0.58
   1   8   7    0.91    1.38
  -1   8   7   -0.38    0.40
  -8   7   1    2.02    1.07
  -7  -1   8   -0.55    0.50
   8   7   1   -0.10    0.31
   8   7  -1    2.17    1.33
  -7  -2   8  103.34    9.28
  -7   2   8   98.38    9.23
  -8  -7   2  120.79    7.37
  -8  -7  -2  112.82    7.53
  -8  -7   2  105.33    7.42
  -8   7   2  107.09    7.47
  -2  -8  -7  110.31    9.46
   2  -8  -7  100.80    8.33
   8   7   2  105.80    8.82
   8   7  -2  107.20    8.84
   7   2  -8   95.18    8.13
  -2   8  -7  105.44    8.15
   2   8  -7  110.08    9.26
  -8   7   2  113.00    9.50
  -7   2   8   96.36    8.52
  -2   8   7  107.60    6.89
  -7  -2   8   96.50    9.58
  -7   2   8   96.94    9.60
  -7   2   8   98.28    5.72
  -8  -7   2  108.08    9.15
  -8  -7  -2  103.86    9.40
  -2  -8  -7  110.18    7.38
   2   8  -7  109.76    9.87
   7  -2   8  101.73    8.66
   2   8   7  111.14    8.52
   7  -2  -8  101.03    9.09
   8   7  -2  104.97    7.85
   7   2   8   93.28    8.57
  -7  -2  -8   96.57   10.25
  -7   2  -8   98.62    9.96
  -7  -2  -8   93.29    9.72
  -2   8  -7  102.92    7.19
  -2  -8  -7  112.01   10.64
  -7  -2  -8  105.48    7.76
  -8   7   2  110.22    7.52
  -7   2  -8   98.50    9.21
  -8  -7  -2  103.74    9.12
   2  -8   7   98.30    8.02
  -2  -8   7  108.43    6.97
   8  -7  -2  101.06    7.68
  -2  -8   7  104.16    9.25
  -8  -7   2   99.06    9.38
   8  -7   2  102.95    8.85
   7   2  -8   96.10    8.88
   2   8   7  114.05    9.60
  -2   8   7  119.19    9.14
   8  -7  -2  107.03    9.19
   2  -8  -7  110.72    8.50
   8   7  -2  108.29    7.87
   7  -2  -8   96.84    9.32
   7   2   8   98.54    7.79
  -7   2  -8  100.52    8.86
  -7  -2   8   97.48    7.66
  -8   7  -2  111.01    9.15
   2   8   7  109.47    9.51
  -2   8   7  112.55   10.10
  -8   7   2  108.20    7.19
   3  -8  -7   72.42    6.85
  -7  -3   8   75.86    7.92
  -7   3   8   71.60    7.73
  -3  -8   7   67.23    5.30
  -3  -8   7   71.45    6.85
  -8  -7  -3   75.48    6.38
  -8  -7   3   66.29    5.95
  -8   7   3   73.52    6.40
  -8  -7   3   81.27    5.73
  -3   8  -7   76.67    6.68
   7   3  -8   75.04    7.43
   8   7   3   66.48    7.06
   3   8  -7   69.73    7.62
  -8   7   3   68.07    7.71
  -7   3   8   71.50    7.56
   8   7  -3   69.61    7.24
  -3   8   7   71.32    5.84
   8  -7  -3   69.43    7.08
  -7  -3   8   81.65    8.73
  -7   3   8   71.20    8.07
   7  -3   8   84.05    6.98
  -8  -7   3   77.64    7.60
  -8  -7  -3   71.71    8.01
  -3  -8  -7   79.45    6.73
   3   8  -7   70.94    7.87
   7  -3   8   76.35    7.46
   7  -3  -8   70.72    7.51
   3   8   7   78.42    7.57
   7   3  -8   80.38    8.67
   7   3   8   73.29    7.62
   8   7  -3   78.84    7.24
  -8  -7  -3   75.78    8.25
  -3  -8  -7   77.26    8.84
  -7   3  -8   69.12    8.36
  -7  -3  -8   74.01    8.62
  -3   8  -7   69.01    5.99
  -7  -3  -8   80.91    6.56
  -7   3  -8   74.44    7.71
   3  -8   7   74.31    7.30
   8  -7  -3   70.43    6.27
   3  -8   7   71.42    7.08
  -3  -8   7   73.41    7.84
   8  -7   3   79.12    7.94
  -3  -8   7   69.76    5.16
  -8  -7   3   75.32    8.53
   3   8   7   71.22    7.68
  -3   8   7   76.09    7.14
   8  -7  -3   73.81    7.82
   3  -8  -7   75.61    7.37
   7   3   8   79.12    7.13
   7  -3  -8   79.92    8.43
  -8   7  -3   75.82    7.88
   3   8   7   81.79    8.04
  -7  -3   8   76.12    6.58
  -7   3  -8   85.90    8.41
  -8   7   3   76.84    6.46
  -7  -4   8  282.75   15.06
  -7   4   8  270.27   14.90
  -4  -8   7  271.03   13.10
  -8  -7   4  270.10   12.60
  -8   7   4  280.00   12.79
  -8  -7   4  278.54   10.81
  -8  -7  -4  288.66   12.96
  -4  -8   7  275.95   11.18
  -4  -8  -7  270.84   14.88
   7   4  -8  266.46   14.50
  -7   4   8  280.86   15.27
   8   7   4  276.32   14.67
   8   7  -4  278.42   14.68
  -7  -4   8  278.46   15.86
  -7   4   8  274.99   15.82
  -4   8   7  283.92   12.05
   8  -7  -4  278.62   14.38
   7  -4   8  301.27   13.40
  -4  -8   7  270.84   11.23
  -7  -4   8  268.40   14.84
  -7   4   8  284.48   15.52
  -8  -7   4  257.94   13.67
  -8  -7  -4  277.88   15.91
  -4  -8  -7  292.80   13.75
   7  -4  -8  286.46   14.86
   4  -8   7  292.19   14.14
   4   8   7  300.48   15.59
   7   4   8  276.03   15.27
   7   4  -8  275.27   16.29
   7  -4   8  277.86   14.07
   8   7  -4  276.20   14.35
   4   8  -7  269.30   15.48
  -8  -7  -4  274.88   16.34
  -7  -4  -8  277.96   17.87
  -4   8  -7  267.54   12.26
  -7   4  -8  282.54   16.72
  -7  -4  -8  252.39   15.95
  -4  -8  -7  281.34   16.92
  -4  -8  -7  285.25   10.90
  -4  -8   7  270.24   15.20
   8  -7   4  284.50   15.41
   4  -8   7  277.36   14.71
   4   8   7  291.40   15.56
  -4   8   7  281.12   13.08
   8  -7  -4  272.77   15.40
   4  -8  -7  285.20   15.07
   7   4   8  287.78   14.08
   7  -4  -8  286.07   16.18
  -4   8  -7  292.37   16.40
  -8   7   4  291.88   13.11
  -8   7   4  280.98   13.79
  -8  -7   4  286.56   13.79
  -7   4  -8  290.43   16.07
   4   8   7  298.83   15.08
  -8   7  -4  282.57   15.57
  -4   8   7  284.54   16.11
  -8  -7   5   18.98    3.53
  -8   7   5   15.60    3.23
  -7  -5   8   16.42    3.76
  -7   5   8   23.10    4.33
  -8  -7   5   19.84    2.75
  -7  -5   8   14.69    2.43
  -5  -8   7   16.08    3.15
   5   8  -7   14.28    3.55
   8   7  -5   20.97    4.08
  -5  -8  -7   12.88    3.39
  -7   5   8   16.79    3.88
   7   5  -8   21.96    4.17
  -8  -7   5   15.63    3.45
  -5  -8  -7    9.41    2.16
  -8  -7  -5   17.22    3.92
   7  -5   8   22.91    3.95
  -7  -5   8   21.65    4.33
  -7   5   8   14.87    3.51
  -7  -5   8   16.57    3.81
  -7   5   8   24.07    4.55
  -5   8   7   14.81    2.85
   8   7  -5   19.92    4.04
   7   5  -8   16.80    4.24
   7   5   8   18.96    4.06
   5   8  -7   14.32    3.59
   8  -7  -5   14.95    3.27
   8   7   5   20.38    4.24
   7  -5  -8   23.38    4.13
   5   8   7   11.92    3.23
  -7   5  -8   23.96    4.23
  -7  -5  -8   19.08    3.66
  -8  -7  -5   18.74    4.47
  -8   7  -5   19.56    3.48
  -8  -7  -5   17.88    3.27
  -7   5  -8   16.58    4.13
  -8   7  -5   20.04    4.40
  -7  -5  -8   22.87    4.70
  -7  -5  -8   16.45    4.50
  -7   5  -8   16.62    4.26
  -5  -8  -7   10.95    3.42
  -5  -8   7   11.69    3.19
   7  -5   8   17.36    3.64
  -8  -7   5   14.25    3.50
  -7  -5   8   19.16    3.78
   7  -5   8   20.10    3.63
   5  -8   7   12.77    3.22
   8  -7   5   18.06    4.14
   5  -8   7   14.60    3.68
  -5   8   7   12.08    2.60
   7  -5  -8   17.48    3.68
  -5   8  -7   13.01    2.72
   7   5   8   20.24    4.04
   5   8   7   13.34    3.43
   8   7   5   20.50    3.53
   8  -7  -5   18.32    4.19
   5  -8  -7   14.27    3.87
   5   8   7   12.99    2.83
  -5   8   7   16.42    3.69
  -8   7   5   20.54    3.68
  -5   8   7   12.33    2.65
  -8   7   5   19.65    3.62
  -5   8  -7   11.84    3.42
  -8  -7   5   17.96    3.66
  -7  -6   8  319.62   12.33
  -6  -8   7  319.96   13.65
  -8  -7   6  315.91   14.28
  -7  -6   8  321.94   15.31
  -7   6   8  319.50   15.58
   7   6  -8  309.33   16.39
   6   8  -7  315.02   16.71
   8   7  -6  308.74   16.20
  -6   8   7  328.52   17.76
  -7   6   8  314.00   17.02
  -8   7   6  327.52   17.72
  -6  -8  -7  322.98   16.02
  -8  -7  -6  318.91   17.21
  -7  -6   8  305.57   15.82
  -7   6   8  308.51   15.98
   7  -6  -8  314.49   14.83
  -8  -7   6  319.65   14.36
  -7  -6   8  316.66   15.34
  -7   6   8  314.91   15.61
  -8  -7   6  317.19   14.43
   8  -7  -6  328.84   15.63
   8   7   6  335.83   18.07
   7  -6   8  321.95   14.93
   6   8   7  323.34   17.44
   8   7  -6  332.88   17.30
   7   6  -8  327.36   18.10
   6   8  -7  341.72   17.76
  -8  -7  -6  318.78   14.02
  -8  -7  -6  305.05   18.18
  -7  -6  -8  326.10   19.49
  -6  -8  -7  311.05   18.34
  -7   6  -8  304.59   16.46
  -7  -6  -8  306.69   16.62
  -7   6  -8  321.56   15.04
  -7  -6  -8  309.47   14.74
   8  -7   6  325.48   17.09
   7  -6   8  319.73   16.66
  -6  -8   7  315.21   17.06
   6  -8   7  327.65   16.94
  -7  -6   8  313.81   16.28
  -8  -7   6  329.98   17.83
   7   6   8  325.75   15.98
   6   8   7  320.87   16.50
   8   7   6  321.92   14.92
   8  -7  -6  329.05   17.54
   6  -8  -7  323.99   17.33
  -6   8   7  339.01   17.23
  -6   8  -7  333.10   17.90
  -7  -6   8  302.99   15.70
  -8   7   6  325.55   15.76
  -8   7  -6  331.49   17.78
   7  -8   7   81.90    7.00
  -7  -7   8   76.21    6.30
  -8  -7   7   65.09    6.63
  -7  -7   8   73.87    7.20
  -7  -8   7   76.13    6.55
   7   7  -8   84.57    8.73
   8   7  -7   72.64    7.89
   7   8  -7   79.87    8.63
  -7   8   7   82.40    9.06
  -7   7   8   82.34    9.03
  -8   7   7   63.47    8.02
  -7  -8  -7   79.88    8.30
  -8  -7  -7   69.99    7.93
  -7   7   8   90.63    8.32
   8  -7  -7   77.41    7.53
  -8  -7   7   62.96    6.49
  -7  -7   8   77.89    7.28
  -7  -8   7   75.86    7.15
  -8  -7   7   65.41    6.39
   7   7   8   84.91    9.22
   7   8   7   86.38    9.27
   8   7   7   74.88    8.79
   8   7  -7   80.43    8.70
   7   7  -8   84.29    9.32
   7   8  -7   84.14    8.90
  -8  -7  -7   74.26    7.12
  -8  -7  -7   66.36    8.88
  -7  -8  -7   72.14    9.02
  -7  -7  -8   78.61    9.50
  -7   7  -8   79.15    8.09
  -7  -7  -8   83.67    7.20
   7  -7   8   78.72    8.48
   8  -7   7   73.50    8.26
  -7  -8   7   80.39    8.63
  -7  -7   8   76.47    8.35
  -8  -7   7   72.03    8.43
   7   7   8   89.01    8.55
   7   8   7   79.53    7.88
   8   7   7   69.35    7.15
   7  -8  -7   79.21    8.71
   7  -7  -8   82.95    9.01
  -7   8   7   77.79    8.15
  -7   7   8   77.13    7.67
  -8   7   7   65.14    7.16
  -7   8  -7   86.89    9.29
  -7   7  -8   89.32    9.45
  -8   7  -7   70.66    8.53
  -8  -8   0    3.42    1.65
  -8   0   8   -0.58    1.00
   8   8   0    3.67    1.57
   0   8  -8    0.87    0.46
   0  -8  -8    0.17    0.63
   0   8  -8    2.32    1.10
  -8   8   0    1.25    0.66
  -8   0   8    2.77    2.15
  -8   0   8    3.37    2.00
   0   8   8    1.50    1.55
   8   0  -8    2.61    1.69
   8   0   8    3.01    1.76
  -8   0  -8    1.65    0.54
  -8   0  -8    0.47    0.85
  -8   0  -8    2.69    1.70
  -8   8   0    1.12    1.31
  -8   0  -8    3.35    1.25
   8  -8   0    3.79    1.88
   0  -8   8   -0.24    0.86
   8   0   8    5.43    2.24
   0  -8  -8    2.44    1.36
   8   0  -8    3.40    1.73
   8   0   8    5.07    2.08
   0   8   8   -0.35    1.09
   8   8   0    2.87    1.14
  -8   8   0    2.66    0.98
   0   8   8    4.76    2.86
  -8   1   8    1.55    1.15
  -1  -8  -8    1.88    1.21
  -8  -8   1    5.68    2.05
  -8  -8  -1    3.01    1.42
   1   8  -8    1.79    1.24
   8   1  -8    2.13    1.58
   8   8   1    1.01    1.00
  -1  -8  -8    2.15    1.59
  -1   8  -8    1.91    0.58
   8   8  -1    1.35    0.71
  -8   8   1    5.39    1.87
  -8   8  -1    1.01    0.86
   1   8  -8    3.11    1.81
  -1   8  -8    1.77    0.93
  -8  -8   1    3.12    1.39
  -8  -8  -1    1.53    2.01
  -8  -1   8    3.82    1.73
  -8   1   8    2.58    2.28
   8  -1   8    2.79    1.88
   1   8   8    2.53    1.89
   8   1   8    2.04    0.95
  -1   8   8    1.64    1.09
   8  -1  -8    1.38    1.17
  -8   1  -8    5.13    2.21
  -8  -8  -1    3.24    1.17
  -8   1  -8    4.69    2.79
  -8  -1  -8   -1.40    1.47
  -8   8  -1    2.93    1.80
  -8   1  -8    4.41    2.22
  -8   8   1    3.37    1.11
  -8  -1  -8    4.80    1.94
  -8  -1  -8   -0.24    0.86
   8  -8  -1    1.95    1.41
  -8  -8   1    3.41    1.63
   1  -8   8    3.01    1.53
   8  -8   1    2.00    1.10
  -1  -8   8    1.57    0.70
   8  -1   8    1.75    1.47
   1  -8  -8   -0.80    1.80
   8   1   8    2.75    1.80
   8  -1  -8    2.32    1.57
  -1  -8  -8    0.70    0.76
   8   1  -8    5.89    2.62
  -1   8   8    0.67    0.61
  -8   8   1    1.99    1.05
   1   8   8    0.77    0.40
  -1   8   8    3.27    2.43
   8   8  -1    2.60    1.52
  -8  -1   8    1.84    1.51
  -8  -8  -2   40.30    4.78
  -8  -8   2   39.37    4.36
  -8  -8   2   34.18    3.90
  -8  -2   8   37.53    5.78
  -8   2   8   38.97    5.88
   8   8  -2   40.45    5.70
  -2   8  -8   42.55    5.58
   8   2  -8   43.67    5.57
   2   8  -8   41.38    5.96
  -8   8  -2   34.86    4.45
  -8   8   2   36.01    5.53
   8   8   2   36.46    5.54
  -8  -2   8   37.43    6.06
  -8   2   8   44.32    6.65
   8  -2   8   39.30    4.64
  -8  -2   8   42.45    6.27
  -8   2   8   41.12    6.16
  -8  -8   2   44.45    6.01
  -8  -8  -2   38.30    5.85
   2   8  -8   46.40    6.58
   8  -2   8   39.17    5.43
   8  -2  -8   45.96    6.31
   8   2  -8   43.20    6.66
   2   8   8   46.78    5.71
   8   2   8   38.28    5.55
  -8  -2  -8   39.53    6.80
  -2  -8  -8   41.20    6.83
  -8   2  -8   43.10    6.92
  -2   8  -8   36.76    4.75
  -8  -2  -8   34.83    5.91
  -8  -2  -8   44.05    5.38
  -8   2  -8   44.45    6.13
  -8  -2  -8   42.63    5.89
  -8   2  -8   39.16    5.98
  -8  -8  -2   42.02    5.81
   2  -8   8   45.04    5.47
   8  -8   2   33.71    5.30
   8  -2   8   46.25    6.22
   2  -8   8   48.89    6.41
  -2  -8   8   43.17    5.98
   8  -8  -2   39.41    5.17
  -8  -8   2   41.58    6.20
   8   8  -2   34.64    4.54
   8   2   8   38.28    4.76
   8   2  -8   44.91    6.07
   8  -8  -2   44.02    6.22
   2   8   8   38.26    5.67
  -2   8   8   41.53    5.80
   2  -8  -8   44.23    5.48
   8  -2  -8   44.45    6.37
  -8   8  -2   39.57    5.42
  -8  -2   8   41.68    5.27
  -8   8   2   38.84    4.59
   2   8   8   40.74    5.97
  -2   8   8   41.58    6.27
  -8   2  -8   44.75    6.07
  -8  -8  -3   29.75    4.24
  -3  -8  -8   25.89    5.41
  -8  -8   3   37.33    4.35
  -8  -3   8   33.37    5.51
  -8   3   8   34.40    5.72
  -3   8  -8   28.18    4.27
   8   8   3   32.11    5.34
   8   3  -8   34.94    5.18
  -8   8   3   29.24    5.11
  -8   3   8   35.08    5.41
   3   8  -8   25.68    4.59
   8   8  -3   32.03    5.29
  -3   8   8   29.72    4.03
   8  -3  -8   36.68    5.92
   8  -8  -3   36.41    5.30
  -8  -3   8   32.81    5.74
  -8   3   8   37.92    6.29
   8  -3   8   35.37    4.48
  -8  -3   8   36.19    5.57
  -8   3   8   34.53    5.69
  -8  -8   3   34.14    5.34
  -8  -8  -3   33.18    5.65
   3   8  -8   29.94    5.33
   8  -3   8   35.07    5.13
   3   8   8   31.94    4.86
   8   3  -8   35.92    5.98
   8   3   8   36.88    5.63
   8   8  -3   38.82    4.82
   3  -8   8   31.31    4.97
  -8  -8  -3   33.83    5.38
  -8   3  -8   36.61    6.30
  -8  -3  -8   34.64    6.07
  -8  -3  -8   43.02    5.22
  -3   8  -8   21.37    3.58
  -8   3  -8   37.51    5.64
  -8  -3  -8   40.57    5.85
   3  -8   8   28.58    4.60
   8  -8   3   35.03    5.46
   8  -8  -3   37.77    4.86
   8  -3   8   34.74    5.36
  -3  -8   8   32.56    5.31
  -8  -8   3   33.74    5.75
  -3   8   8   27.00    4.39
   8  -3  -8   30.62    5.06
   8  -8  -3   31.14    5.15
   3  -8  -8   29.08    4.67
   8   8  -3   31.19    4.63
   8   3   8   35.37    4.80
   3   8   8   28.96    4.76
  -8   3  -8   34.64    5.52
  -8  -3   8   37.14    4.99
   3   8   8   35.51    5.58
  -8   8  -3   35.20    5.33
  -8   8   3   29.45    3.96
  -8  -4   8    3.48    2.21
  -8   4   8    3.36    1.24
  -4  -8   8    7.93    2.40
  -8  -8   4    4.07    0.98
   8   8  -4    6.83    2.47
   8   8   4    3.91    2.24
  -8  -8  -4    4.32    1.85
  -8   8   4    6.79    2.52
   8   4  -8    1.18    0.71
  -8   4   8    5.17    2.67
  -8  -8   4    8.51    2.75
  -8  -8  -4    5.48    2.29
  -8  -4   8    5.07    2.37
  -8   4   8    5.75    2.45
  -8  -4   8    3.07    1.29
  -8   4   8    2.69    1.50
   8  -8  -4    5.18    2.33
   8   4  -8    5.49    2.57
   4   8   8    5.97    2.43
   8   8  -4    2.85    1.00
   8   4   8    5.49    2.89
   4   8  -8    6.66    2.51
   8  -4  -8    2.72    1.66
   8  -4   8    1.53    1.07
  -8   4  -8    5.48    2.16
  -8  -4  -8    5.02    2.24
  -8  -4  -8    5.13    2.58
  -8   4  -8    6.29    2.83
  -8  -4  -8    3.57    2.19
  -8   8  -4    4.59    2.05
  -8   4  -8    5.41    2.66
  -8  -8  -4    3.71    1.94
  -4  -8  -8    4.28    2.96
  -4  -8   8    5.05    1.96
   8  -8   4    2.64    1.81
   4  -8   8    2.28    0.97
   4  -8   8    8.51    2.62
   4  -8  -8    7.14    3.05
  -4   8   8    4.77    1.47
   8  -4  -8    4.47    1.96
   8   4   8    3.34    1.26
   8  -8  -4    5.89    2.30
   4   8   8    7.66    2.48
  -4   8  -8    3.50    1.73
   4   8   8    3.58    1.68
  -8   8   4    3.74    1.72
  -4   8   8    6.23    2.50
  -8  -4   8    5.73    2.43
  -8  -5   8    4.36    1.83
  -8   5   8   11.89    3.43
  -5  -8   8    4.16    1.40
   8   8   5    7.10    2.57
   8   8  -5    3.50    2.15
  -8  -8  -5    2.94    1.41
  -8   5   8    5.80    2.59
   8   5  -8    7.31    2.67
   5   8  -8    5.60    2.59
  -8  -8   5    3.11    1.68
  -8  -8  -5    4.28    2.10
  -8  -5   8    4.44    1.71
  -8   5   8    6.21    2.17
  -8  -5   8    6.93    2.63
  -8   5   8    5.19    2.55
   5   8   8    5.04    2.23
   8   5  -8    8.21    3.09
   8   8  -5    5.61    2.02
   8   5   8    3.99    2.10
   8  -8  -5    3.85    1.71
   5   8  -8    6.37    2.36
   8  -5  -8    5.93    2.01
  -8  -8  -5    1.11    1.74
  -8   5  -8    5.95    2.26
  -8  -5  -8    6.97    2.03
  -8  -5  -8    4.42    2.32
  -8  -5  -8    8.16    2.96
  -8   8  -5    6.28    2.37
  -8   5  -8    8.76    3.22
  -8   5  -8   11.01    3.36
  -5  -8  -8    7.78    3.23
  -5  -8   8    6.58    2.54
  -8  -8   5    2.60    1.70
   5  -8   8    3.28    0.80
   8  -5   8    6.19    2.25
   5  -8   8    8.70    3.02
   8  -8   5    5.25    2.68
   5  -8  -8    7.33    3.16
   8  -5  -8    5.22    2.84
  -5   8  -8    4.20    1.62
  -5   8   8    3.56    1.44
   8   5   8    8.61    2.82
   8   8   5    0.15    0.94
   8  -8  -5    5.30    1.96
   5   8   8    8.31    2.38
  -5   8  -8    5.46    2.20
   5   8   8    7.01    2.03
  -5   8   8    7.92    2.86
  -8   8   5    4.17    1.93
  -8   5   8    3.63    1.47
  -8  -5   8    5.10    2.02
  -8  -6   8    3.76    1.65
  -8   6   8    4.73    2.53
  -6  -8   8    7.52    2.11
   8   8  -6    6.53    2.48
  -6   8   8   12.24    3.68
  -8   8   6    6.00    2.54
  -8   6   8    1.66    1.63
   8   6  -8    3.94    1.47
   6   8  -8    7.31    3.04
  -8  -6   8    2.05    0.96
  -8   6   8    3.56    1.76
  -8  -8   6    6.05    2.03
  -8  -8  -6    7.12    3.36
  -6  -8  -8    5.68    1.31
  -8  -6   8    4.66    2.32
  -8   6   8    6.72    2.32
   6   8   8    6.80    2.41
   8   6  -8    3.11    2.55
   8   6   8    5.24    2.24
   8   8  -6    1.92    1.45
   6   8  -8    9.03    2.96
   8  -8  -6    5.42    1.55
   8  -6  -8    7.09    2.64
  -8   6  -8    3.99    2.09
  -8  -6  -8    5.47    2.30
  -8  -8  -6    5.42    2.27
  -6  -8  -8    8.00    3.56
  -8  -6  -8    2.87    2.26
  -8   8  -6    7.20    3.05
   6   8   8    8.61    2.58
   6  -8  -8    7.59    2.82
   8  -6  -8    4.06    2.38
   8   6   8    5.01    1.98
   8   8   6    7.23    2.36
  -6   8  -8    4.09    2.02
  -6   8   8    7.46    2.74
  -8   6   8    2.86    0.40
  -8  -6   8    5.71    2.32
  -6  -8   8    6.75    2.73
  -8  -8   6    3.89    2.08
   6  -8   8    8.22    2.60
   8  -8   6    4.40    1.78
  -8  -7  -8   34.71    4.79
   8   8   7   38.83    5.67
   8   7   8   34.02    5.17
  -8   7   8   40.02    5.73
   0   9   0    2.83    1.27
   0   0   9    2.05    0.84
   9   0   0    2.46    1.31
   0   0   9    1.47    1.09
   0   0  -9    4.55    1.65
   9   0   0    3.16    1.28
   0   0   9    2.29    0.57
   9   0   0    3.54    1.24
   0  -9   0    2.30    1.54
   0   0  -9    3.38    2.16
  -9   0   0    4.65    1.91
   0  -9   0    0.58    1.03
   1  -9   0  125.20    8.49
  -9   0  -1  113.06    8.81
  -9   0   1  124.24    9.40
  -1  -9   0  131.28    8.83
   9   0   1  115.51    4.80
  -1   9   0  127.02    7.56
   1   9   0  122.57    8.29
   9   0  -1  118.26    8.86
   0   1   9  106.24    7.90
   9   0   1  124.07    6.98
   0  -1   9  108.64    8.33
   0  -1  -9  109.89    7.48
   0   1  -9  113.23    8.45
   0   1  -9  107.83    8.09
  -9   0  -1  113.40    8.96
  -1  -9   0  118.74    6.13
   0  -1   9  109.06    6.29
   9   0   1  116.38    7.26
   1  -9   0  114.21    8.73
   9   0  -1  123.88    6.30
   0  -1   9  112.53    5.30
   9   0   1  117.83    6.09
   9   0  -1  122.82    7.01
   1   9   0  125.72    9.51
   0  -1  -9  113.10    5.69
  -9   0  -1  121.22    9.22
  -9   0   2  566.56   20.50
   2  -9   0  578.99   18.16
  -2   9   0  561.87   14.94
   2   9   0  574.13   18.66
   9   0   2  574.77   11.33
   9   0  -2  580.94   20.38
   0   2  -9  614.62   20.59
   0   2   9  584.05   18.50
   9   0   2  567.73   15.84
   0  -2  -9  585.74   16.19
   0   2  -9  588.02   17.31
  -2  -9   0  563.43   13.27
  -9   0  -2  582.94   20.55
   2  -9   0  586.95   20.09
   9   0   2  599.28   17.46
   0  -2   9  598.02   14.82
   9   0  -2  596.29   11.75
  -2  -9   0  561.49   19.07
   2   9   0  565.55   20.41
   0  -2  -9  594.09   19.29
  -2   9   0  585.91   20.06
   9   0   2  568.08   12.76
   9   0  -2  569.36   16.00
   0   2   9  500.60   18.08
  -9   0   2  554.82   20.39
  -9   0  -2  556.59   19.45
   0  -2  -9  590.95   10.46
  -9   0   2  571.56   22.00
   3  -9   0  116.73    8.05
  -9   0   3  121.17    9.59
  -3  -9   0  111.86    8.32
  -3   9   0  110.76    6.07
   9   0   3  128.65    5.92
   3   9   0  104.28    8.26
  -9   0   3  129.85    9.94
   9   0  -3  123.16    9.58
   0  -3  -9  129.33    7.05
   0   3  -9  129.48   10.07
   0   3   9  116.96    8.27
   9   0   3  131.16    8.01
  -9   0  -3  124.18    9.44
   0   3  -9  128.17    7.23
   9   0   3  126.74    8.55
   0  -3   9  138.00    7.24
  -3  -9   0  110.20    8.54
   3  -9   0  103.73    8.56
   0  -3  -9  127.09    8.92
  -3   9   0  110.15    8.60
   3   9   0  111.97    9.04
   9   0  -3  121.26    7.86
   0   3   9  135.06    9.53
  -9   0   3  121.53    9.67
  -3   9   0  107.55    7.02
  -9   0   3  119.28   10.05
   4  -9   0   64.43    5.83
  -9   0   4   55.75    6.72
  -4  -9   0   62.94    6.36
   0   4  -9   61.78    6.87
  -4   9   0   59.87    3.79
  -9   0   4   69.80    7.41
   9   0  -4   58.57    6.91
   0   4   9   60.36    5.91
   0  -4  -9   58.94    4.21
   0   4  -9   59.11    7.07
   9   0   4   61.92    5.79
   0  -4   9   54.30    6.39
  -9   0  -4   66.12    7.05
   0   4  -9   63.29    4.29
  -9   0  -4   60.88    6.77
  -4  -9   0   62.48    6.60
   9   0   4   66.64    6.45
   0  -4   9   56.67    4.73
   4  -9   0   58.47    6.46
   0  -4  -9   61.29    6.23
   4   9   0   64.93    6.86
   0   4   9   55.72    6.26
   9   0  -4   60.88    5.90
  -9   0   4   61.88    6.85
  -4   9   0   62.88    5.51
  -9   0   4   62.06    7.47
  -4   9   0   58.75    6.17
  -5  -9   0   13.16    3.07
  -9   0   5   10.76    3.23
   5  -9   0   15.09    2.74
   5   9   0   18.27    3.79
   0   5  -9    6.57    2.53
  -9   0   5   11.29    3.30
   0  -5   9    7.25    2.47
  -5  -9   0   14.29    3.40
   0   5   9    8.10    2.28
   9   0   5   11.21    2.70
   9   0  -5   10.12    2.65
  -9   0  -5   10.79    2.96
  -9   0  -5    9.90    3.29
  -5   9   0   11.68    2.49
  -9   0  -5   14.55    3.27
  -5  -9   0   14.73    3.59
   0  -5   9    7.26    2.48
   5  -9   0   12.77    3.11
   9   0   5   10.38    2.84
   0  -5   9    6.72    1.85
   9   0  -5    9.13    2.59
   0   5   9    6.75    2.19
   0  -5  -9    5.29    1.71
   0   5   9    9.41    2.82
  -9   0   5    9.54    3.08
   5   9   0   11.91    3.20
  -9   0   5   10.52    2.95
  -5   9   0   14.57    3.08
  -6  -9   0   35.02    4.75
  -9   0   6   38.83    5.81
   6  -9   0   37.75    4.24
   0   6  -9   34.61    5.30
  -6   9   0   30.08    4.53
   6   9   0   31.27    5.04
   0   6  -9   33.85    5.07
   0  -6  -9   34.26    5.00
   9   0  -6   32.54    5.43
  -9   0   6   38.33    5.92
  -9   0   6   39.03    5.74
   0  -6   9   29.83    4.91
  -6  -9   0   36.07    5.48
   0  -6   9   33.94    5.27
   9   0   6   39.90    5.17
   0   6   9   34.81    4.48
  -9   0  -6   36.88    5.40
  -9   0  -6   34.66    5.63
  -9   0  -6   39.75    6.51
  -9   0  -6   35.91    5.38
   0  -6   9   35.26    4.07
   9   0   6   39.88    5.47
   6  -9   0   37.79    5.39
  -6  -9   0   32.67    5.10
   0   6   9   32.26    4.92
   6   9   0   33.82    4.90
   9   0  -6   37.04    5.21
   0  -6  -9   35.20    4.65
   0   6   9   29.14    4.83
  -9   0   6   39.94    6.30
  -6   9   0   35.72    4.60
  -6   9   0   31.11    4.22
  -7  -9   0   93.57    7.57
  -9   0   7  102.33    9.53
   0   7  -9   97.64    8.80
   7   9   0   79.80    7.98
  -7   9   0   90.53    7.96
   0   7  -9  103.12    8.24
   0  -7  -9  102.74    8.30
  -9   0   7   93.27    9.82
  -9   0   7   99.42    9.55
  -7  -9   0   76.01    8.14
   9   0   7  104.47    8.71
   0   7   9   98.15    7.49
  -9   0  -7  102.41   10.54
  -9   0  -7  102.30    8.96
  -9   0  -7   97.02   10.13
  -9   0  -7  101.95    9.36
   0  -7   9   99.43    7.07
   9   0   7   84.92    8.31
   0  -7   9  106.75    9.55
   7  -9   0   94.54    8.52
  -7  -9   0   82.48    8.50
   0   7   9   98.52    8.97
   7   9   0   95.55    8.13
   9   0  -7  106.18    9.30
   0  -7  -9   96.86    7.74
   0   7   9   97.93    9.43
  -9   0   7  101.92    9.04
  -9   0   7  100.86   10.01
  -7   9   0   92.28    7.49
  -7   9   0   88.32    6.96
  -8  -9   0  170.04    9.89
  -9   0   8  182.96   13.06
   0   8  -9  186.98   12.56
   8   9   0  185.32   12.32
  -8   9   0  192.64   11.93
  -9   0   8  170.05   13.46
  -9   0   8  187.10   13.32
   9   0  -8  181.16   13.49
   0   8   9  188.49   10.32
   9   0   8  180.86   11.97
  -9   0  -8  180.35   14.38
  -9   0  -8  175.44   11.90
  -9   0  -8  189.08   12.95
  -9   0  -8  174.17   13.86
   9   0   8  180.90   12.44
   0  -8   9  186.59   10.01
   8  -9   0  177.55   11.89
   0   8   9  196.80   12.92
   0  -8  -9  190.58   10.50
   9   0  -8  182.22   12.79
  -9   0   8  186.54   12.30
  -9   0   8  179.66   13.95
  -8   9   0  187.87   10.99
   0   8   9  193.19   13.82
   0  -9   1    4.86    1.99
  -1   0  -9    1.05    0.89
   0  -9  -1    5.13    1.85
  -9   1   0    2.25    1.33
   9   1   0    3.14    0.98
  -1   0   9    1.11    0.40
   0   9  -1    3.88    1.56
   0   9   1    3.23    1.42
   9   1   0    2.12    1.18
   1   0   9    1.40    1.25
   1   0  -9    2.46    1.16
  -1   0   9    0.90    0.76
  -1   0  -9    2.05    1.08
   9  -1   0    3.18    1.04
  -9   1   0    1.62    1.20
   9   1   0    2.67    1.26
  -1   0   9    1.44    0.47
   0  -9   1    3.87    1.77
  -1   0   9    0.91    0.41
   9  -1   0    0.71    0.59
   9   1   0    2.68    1.03
   1   0   9    0.98    1.06
  -1   0   9    3.08    1.49
   9  -1   0    2.97    1.39
  -1   0  -9    1.69    0.99
  -9   1   0    2.91    1.44
   0   9   1    1.58    1.48
   1  -9   1   90.86    7.21
  -1  -9   1   80.94    6.92
  -9   1  -1   97.07    8.17
  -9   1   1   95.36    8.24
   1  -9  -1   95.12    7.65
  -1  -9  -1   89.86    7.38
  -1   9  -1   90.53    6.51
   1   9  -1   88.84    7.04
   9   1   1   89.77    5.06
  -1   9   1   82.00    6.08
   9   1  -1   95.16    5.25
   1   9   1   92.57    7.26
   9   1   1   83.93    6.95
   9  -1  -1   90.34    7.86
   9   1  -1   91.75    7.66
  -1  -1   9   88.21    7.39
  -1   1  -9   94.91    7.63
  -1  -1  -9   96.61    6.85
   1   1   9   89.12    7.48
   9  -1  -1   94.82    4.74
   9  -1   1   93.46    5.60
  -1   1   9   90.33    7.14
   1  -1  -9   95.22    7.17
   1   1  -9   93.04    7.82
  -1   1  -9   87.32    7.36
  -1  -9  -1   92.35    6.34
  -1  -1  -9   90.25    8.38
  -9   1  -1   94.52    8.10
   9   1   1   97.42    6.56
   1  -1   9   90.21    6.26
   9   1  -1   90.66    5.22
  -1  -1   9   94.11    5.15
   9  -1   1   92.13    6.55
  -1  -9  -1   88.75    7.11
  -1  -1   9   85.89    4.53
   9  -1  -1   90.32    5.49
   1  -9  -1   87.22    7.67
  -1  -9   1   91.83    7.66
   1   1   9   89.54    7.59
  -1   1   9   82.64    7.16
   1  -1  -9   94.77    8.02
   1   9  -1   95.10    8.37
   1   9   1   96.81    8.50
   9  -1   1   87.38    5.77
   1  -1   9   92.94    7.85
  -1  -1   9   95.44    7.71
  -1   9  -1   89.30    7.86
   9  -1  -1   87.13    6.34
   9   1   1   91.36    4.74
   9   1  -1   88.24    5.51
  -9   1  -1   94.91    8.09
  -9  -1   1   82.34    7.80
  -1  -1  -9   92.92    5.32
  -9  -1  -1   92.20    8.16
   2  -9   1  107.67    7.81
  -9   1   2  113.52    9.05
   2  -9  -1  107.95    7.95
   2   9   1  116.76    8.50
  -2   9  -1  112.14    6.75
   2   9  -1  105.38    7.94
   9   1  -2  116.68    6.03
  -2   9   1  119.03    6.84
   9   1   2  122.86    6.23
   9  -1  -2  123.23    9.38
   9   1  -2  124.25    9.29
   1   2   9  115.54    8.55
  -1   2  -9  118.72    9.11
  -1  -2   9  119.73    8.88
   9   1   2  119.23    7.61
  -1   2   9  127.78    8.37
   9  -1   2  128.53    7.05
   1  -2  -9  119.44    7.66
   1   2  -9  115.93    9.07
  -9   1  -2  119.34    9.29
   1   2  -9  113.71    7.60
  -1   2  -9  121.04    8.13
  -2  -9  -1  109.98    6.88
  -1  -2  -9  126.50   10.37
   9  -1   2  126.42    8.09
   1  -2   9  119.63    7.25
  -1  -2   9  117.24    5.83
   2  -9  -1  111.30    8.85
  -2  -9   1  109.02    8.62
  -1  -2   9  121.41    6.45
  -2  -9  -1  111.04    8.07
   9  -1  -2  114.71    5.47
   2  -9   1   99.00    8.28
   1  -2  -9  120.42    9.03
   2   9  -1  115.06    9.22
   2   9   1  111.65    9.01
   1  -2   9  115.11    8.92
   9  -1  -2  116.99    7.65
  -2   9   1  111.73    8.82
   9   1  -2  123.92    7.06
  -2   9  -1  114.36    8.83
  -1   2   9  124.13    8.80
  -9  -1   2  121.25    9.65
  -9   1  -2  123.77    9.00
   1  -2  -9  125.37    4.41
  -9  -1  -2  120.51    9.23
  -9  -1   2  108.62    9.57
  -1  -2  -9  114.82    5.10
  -3  -9  -1   14.80    3.10
  -9   1   3   13.52    3.56
   3  -9   1   11.74    2.62
  -3  -9   1   16.25    3.12
   1   3  -9    9.12    1.95
  -1  -3  -9    9.86    3.59
   3  -9  -1   12.05    2.44
   3   9  -1   12.87    2.96
   3   9   1   15.44    3.37
  -1   3  -9   12.82    3.39
   9   1  -3   16.33    2.46
   9   1   3   14.15    2.32
  -3   9  -1   13.90    2.28
  -3   9   1   12.68    1.96
  -9   1   3   12.81    3.23
   1  -3   9    7.76    2.63
  -1  -3   9   14.62    3.09
  -1   3   9    8.90    2.30
   9  -1  -3   17.38    3.58
   1   3   9    8.84    2.18
   1  -3  -9    8.76    1.98
   1   3  -9    7.53    2.58
   9  -1   3   11.78    2.20
   9   1  -3   15.54    3.41
   9   1   3   12.35    2.55
  -9   1  -3   10.87    2.65
  -1   3  -9    6.08    1.81
  -3  -9  -1   11.20    2.28
  -9   1  -3   13.43    3.13
  -9  -1  -3   13.74    3.21
  -3  -9  -1   12.47    2.93
   3  -9  -1   15.30    3.41
  -1  -3   9    8.47    1.66
   1  -3   9   11.57    2.97
   9  -1   3   14.58    2.98
   3  -9   1   11.66    2.88
  -1  -3   9    9.41    2.17
  -3  -9   1   13.73    3.20
  -1  -3   9    6.38    1.91
   1  -3   9    8.26    1.98
   9   1  -3   10.13    2.27
   1  -3  -9    8.28    2.20
  -1  -3  -9   11.12    2.76
  -1   3   9    8.61    2.55
   9  -1  -3   14.46    2.91
  -3   9   1   13.94    2.40
   3   9  -1   17.98    3.66
  -9  -1   3   15.78    3.60
   3   9   1   11.97    2.83
  -3   9  -1   17.38    3.36
  -3   9   1   13.73    3.23
  -9  -1   3   13.32    3.60
  -9   1  -3   10.33    2.62
  -9   1   4   13.53    3.12
  -4  -9  -1   19.10    3.52
   4  -9   1   16.34    2.99
  -1  -4  -9   14.70    3.99
  -4  -9   1   19.96    3.51
   4  -9  -1   21.68    3.40
  -4   9  -1   15.08    1.95
  -4   9   1   16.98    2.08
  -1   4  -9   11.09    3.16
  -1  -4  -9   17.95    3.92
   9   1  -4   13.95    2.34
  -9   1   4   13.01    3.17
   1  -4   9   12.30    3.03
  -1  -4   9   14.96    3.38
   9   1   4   12.44    2.48
   9  -1  -4   13.53    3.29
   9   1  -4   15.26    3.45
   9  -1   4   17.98    3.18
  -1   4   9   14.30    2.80
   1  -4  -9   14.97    2.36
   1   4   9   12.78    2.83
  -9   1  -4   14.16    3.41
  -1   4  -9   13.06    2.08
  -9  -1  -4   17.22    3.64
  -4  -9  -1   16.80    2.97
  -9  -1  -4   19.99    3.84
  -4  -9  -1   13.58    2.83
   1  -4   9   14.37    2.58
   4  -9   1   15.78    3.35
   1  -4   9   14.70    3.53
   4  -9  -1   19.33    3.72
   9  -1   4   17.37    3.53
  -1  -4   9   13.05    2.05
  -4  -9   1   22.29    4.14
  -1  -4   9   12.86    2.55
   9   1  -4   18.55    3.12
   1  -4  -9   17.06    3.37
  -1  -4  -9   13.61    2.76
  -1   4   9   15.15    3.25
   9  -1  -4   17.47    3.56
  -4   9  -1   17.76    3.17
   4   9  -1   15.04    3.12
  -9  -1   4   16.49    3.58
  -4   9   1   17.57    2.68
   4   9   1   16.85    3.62
  -4   9  -1   17.52    3.29
  -9  -1   4   16.02    3.92
  -4   9   1   16.87    3.35
   5  -9  -1  215.68   10.78
  -5  -9  -1  187.81   11.17
   5  -9   1  189.24    9.75
  -9   1   5  188.94   12.45
  -5  -9   1  194.99   11.02
  -1   5  -9  188.12   11.89
   1   5  -9  191.83   12.40
   9   1  -5  187.86    9.05
   5   9  -1  192.31   12.12
  -5   9  -1  192.14   10.44
   5   9   1  189.20   11.91
  -1   5  -9  203.78   12.62
  -1  -5  -9  202.35   12.57
  -9   1   5  187.24   12.44
   1  -5   9  195.73   12.37
  -5  -9  -1  190.31   12.05
   9   1  -5  191.43   12.89
   1  -5   9  200.95   12.66
  -1   5   9  201.21   10.18
   9   1   5  180.38   10.80
  -1  -5   9  180.30   11.93
   9  -1   5  196.31   10.65
   1   5   9  205.48   11.44
  -9   1  -5  202.48   12.51
  -5  -9  -1  174.58    9.64
  -9  -1  -5  184.90   11.78
  -9   1  -5  192.81   12.44
  -1  -5   9  198.88    8.36
   9  -1   5  185.07   11.41
   5  -9   1  193.35   12.10
  -1  -5   9  204.05   11.05
   1  -5   9  209.50   10.29
  -5  -9   1  199.69   12.65
  -5  -9  -1  182.59   11.38
   5  -9  -1  192.51   11.82
  -1  -5  -9  196.23   10.35
   5   9  -1  190.69   11.82
   5   9   1  186.46   11.49
  -1   5   9  193.86   11.70
   9  -1  -5  196.39   11.56
   9   1  -5  193.53   11.02
   1  -5  -9  199.14   11.60
   1   5   9  189.31   11.80
  -1   5   9  197.14   12.64
  -9  -1   5  195.31   12.43
  -5   9  -1  196.41   10.84
  -5   9  -1  182.22   10.59
  -5   9   1  182.14   10.84
  -5   9   1  194.16    9.25
  -9  -1   5  187.46   13.18
  -9   1   6   23.34    4.24
   6  -9  -1   24.04    3.42
   6  -9   1   19.35    2.96
  -1  -6  -9   17.23    4.51
  -6  -9  -1   19.48    3.50
  -6  -9   1   23.36    3.86
  -1   6  -9   19.38    3.99
  -1  -6  -9   18.41    3.83
  -1   6  -9   21.76    4.20
  -6   9  -1   26.09    4.04
   9   1  -6   16.45    2.91
   1   6  -9   19.40    4.04
   6   9   1   21.24    4.11
  -6   9   1   22.22    3.96
   6   9  -1   18.81    3.95
  -6  -9  -1   21.47    4.11
  -9  -1   6   18.75    4.24
  -9   1   6   19.86    4.13
   9   1  -6   29.50    5.37
   1  -6   9   22.39    4.28
  -1   6   9   21.18    3.30
   9   1   6   18.00    3.38
   1   6  -9   20.58    4.51
   1   6   9   15.65    3.24
   9  -1   6   20.72    3.71
  -9   1  -6   21.58    4.10
  -9   1  -6   22.95    4.64
  -9  -1  -6   19.30    4.57
  -9   1  -6   20.86    4.20
  -9  -1  -6   19.96    3.84
   6  -9  -1   20.65    4.10
  -6  -9   1   19.71    3.81
  -6  -9  -1   21.63    4.04
  -1  -6   9   21.31    2.89
   6  -9   1   21.57    4.10
   1  -6   9   19.05    3.90
   9  -1   6   19.02    3.74
  -1  -6   9   18.75    4.04
   1  -6   9   19.06    3.26
   9  -1  -6   22.76    4.14
  -1   6   9   19.26    3.80
   1  -6  -9   17.92    3.52
   6   9  -1   23.49    4.15
   9   1  -6   20.71    3.98
  -1  -6  -9   16.95    2.93
  -6   9   1   20.60    3.65
   1   6   9   18.50    3.74
  -1   6   9   20.93    4.10
  -6   9   1   22.36    3.35
  -9  -1   6   20.13    4.01
  -6   9  -1   22.17    3.51
  -6   9  -1   24.20    3.89
   6   9   1   20.23    3.60
  -9  -1   6   20.45    4.47
  -9   1   7    6.16    2.29
  -7  -9  -1    5.63    1.73
  -7  -9   1    6.01    2.15
  -1  -7  -9    7.29    3.14
  -1   7  -9    4.04    2.23
  -1  -7  -9    2.38    1.17
   1   7  -9    4.34    1.69
   1  -7  -9    1.34    0.63
   7   9   1    6.27    2.64
   1   7  -9    2.18    0.85
  -7   9   1    5.44    1.80
  -7   9  -1    8.83    2.61
   7   9  -1    4.91    1.91
  -1   7  -9    4.08    1.60
  -7  -9  -1    6.82    1.86
  -9   1   7    4.90    1.80
  -9  -1   7    8.65    3.18
   9  -1   7    9.05    2.92
  -1   7   9    3.05    1.50
   9   1   7    4.75    2.20
   1   7   9    3.78    1.95
   9   1  -7    9.70    3.00
   9  -1  -7    4.69    2.14
  -9   1  -7    5.87    2.41
  -9   1  -7    4.68    2.69
  -9  -1  -7    9.16    3.38
  -9  -1  -7    6.01    2.67
  -7   9  -1    7.75    2.46
  -9   1  -7    5.95    2.33
  -9  -1  -7    7.24    2.70
   7  -9   1    5.26    2.47
  -7  -9   1    7.39    2.74
   1  -7   9    2.20    1.06
  -7  -9  -1    7.12    2.48
  -1  -7   9    2.76    0.97
   9  -1   7    5.08    2.24
   1  -7   9    3.67    2.07
  -1  -7   9    5.10    1.80
   7  -9  -1    7.31    2.55
  -1   7   9    8.95    2.90
   9  -1  -7    9.78    2.84
   1  -7  -9    5.71    2.24
   9   1  -7    7.66    2.72
  -1  -7  -9    2.34    0.78
  -7   9   1    5.94    1.99
   1   7   9    7.40    2.80
  -1   7   9    4.58    2.51
  -9  -1   7   11.28    3.33
   7   9  -1    5.44    2.25
  -9  -1   7    7.78    3.08
   7   9   1    6.50    1.96
  -7   9  -1    5.65    1.63
  -8  -9   1   63.47    6.02
  -8  -9  -1   59.58    5.94
  -9   1   8   57.71    7.44
   8   9  -1   57.38    6.89
  -1   8  -9   63.51    7.14
   1   8  -9   63.42    7.48
  -8   9   1   70.78    7.42
   8   9   1   62.58    7.22
  -8   9  -1   68.23    6.81
  -9  -1   8   58.16    7.73
  -9   1   8   57.69    7.45
  -8  -9   1   65.17    7.71
  -8  -9  -1   56.82    7.30
   9  -1   8   60.09    6.86
   9  -1  -8   66.84    8.13
   1   8   9   64.54    6.47
   9   1   8   59.27    6.94
  -9  -1  -8   56.06    7.93
  -9  -1  -8   68.48    7.15
  -9  -1  -8   59.81    8.22
  -9   1  -8   55.93    6.86
  -1  -8  -9   62.31    8.41
  -9   1  -8   62.37    8.07
  -9   1  -8   59.48    7.29
   1  -8   9   65.43    6.39
  -8  -9   1   61.51    7.73
   9   1   8   63.16    7.36
   9  -1   8   62.45    7.25
   8  -9   1   58.00    6.93
  -1  -8   9   73.13    7.77
   8  -9  -1   70.57    7.31
   9   1  -8   63.94    7.37
   1   8   9   66.81    7.68
  -1   8   9   65.86    7.31
   8   9  -1   64.80    6.65
   1  -8  -9   68.84    6.64
   9  -1  -8   62.95    7.62
  -1   8   9   70.40    8.36
  -9  -1   8   54.78    6.55
  -9  -1   8   59.58    8.00
  -8   9  -1   60.96    6.71
   1   8   9   71.27    8.18
   0  -9  -2  248.42   13.05
   0  -9   2  230.86   11.85
  -9  -2   0  231.93   12.57
  -9   2   0  238.86   12.86
   0   9  -2  222.22   10.91
   9   2   0  229.88    9.18
   0   9   2  218.98   10.79
  -2   0   9  263.08    8.96
  -2   0  -9  274.30   15.05
  -9  -2   0  249.49   12.81
   9   2   0  239.64   11.87
  -2   0   9  249.69   11.91
   2   0  -9  245.64   12.44
  -9   2   0  231.38   12.67
  -2   0  -9  251.72   13.50
   0  -9   2  219.16   11.78
  -2   0   9  256.80    7.35
   9  -2   0  253.10   10.56
   2   0   9  257.75   13.01
  -2   0   9  251.89   12.34
   9  -2   0  241.54   10.73
  -9   2   0  230.98   12.77
  -2   0  -9  258.51   10.41
  -9  -2   0  217.20   12.75
   0   9   2  227.26   13.09
   1  -9  -2  303.26   14.26
  -1  -9  -2  290.51   14.22
   1  -9   2  276.22   12.83
  -1  -9   2  271.27   12.86
  -9  -2  -1  267.46   13.48
  -9   2  -1  258.33   13.32
  -9  -2   1  265.50   13.59
  -9   2   1  272.18   13.84
   1   9  -2  279.49   12.72
  -1   9   2  279.27   11.58
   1   9   2  278.18   12.84
  -2   1   9  285.61   10.40
   9   2   1  275.93   10.11
  -1   9  -2  270.49   11.35
  -2  -1  -9  294.83   15.71
   9   2  -1  267.73    9.93
  -9  -2   1  268.55   12.84
  -9  -2  -1  262.41   13.58
   9   2   1  266.81   12.21
   9   2  -1  281.59   13.39
   2   1   9  286.23   13.90
  -2  -1   9  275.53   12.96
   9  -2   1  271.80    8.47
   2  -1  -9  283.41   12.85
   2   1  -9  271.77   13.70
  -2   1   9  270.03   12.05
  -2  -1  -9  281.91   14.93
  -9   2  -1  270.72   13.77
  -2   1  -9  289.11   13.66
  -9   2   1  269.79   13.41
  -1  -9  -2  262.32   11.95
   9   2  -1  270.53    8.89
   2  -1   9  269.84   11.60
  -2  -1   9  280.12    7.38
   9  -2   1  272.44   11.69
  -1  -9   2  287.17   13.30
   9  -2  -1  281.36   10.24
  -1  -9  -2  278.49   11.93
  -2  -1   9  278.18    8.38
   1  -9   2  267.49   13.28
   2  -1  -9  271.98   14.04
  -2   1   9  276.87   12.82
  -1   9  -2  262.99   13.64
   2  -1   9  274.20   13.57
   9  -2  -1  280.69   11.98
   1   9   2  270.87   14.36
  -2  -1   9  286.17   13.30
   9   2  -1  265.41    8.74
   1   9  -2  279.86   14.41
   2   1   9  274.17   13.51
  -2   1  -9  289.69   11.92
  -9   2  -1  267.47   13.44
  -2  -1  -9  279.82    9.86
  -9  -2   1  270.96   14.44
   2  -9  -2   48.04    5.65
  -2  -9  -2   44.11    5.39
   2  -9   2   41.70    5.04
  -2  -2  -9   28.54    4.84
  -9  -2   2   43.31    5.62
  -9   2   2   37.97    5.26
  -2   9   2   47.82    4.43
   9   2   2   47.96    4.34
   2   9  -2   42.93    5.25
   2   9   2   45.93    5.36
   9   2  -2   41.04    4.00
  -2   9  -2   44.83    4.37
  -2   2  -9   32.05    5.36
  -2  -2  -9   31.52    5.19
  -9  -2   2   40.43    4.79
   9   2   2   42.82    4.74
   9  -2  -2   42.93    5.66
  -9  -2  -2   40.88    5.55
   9   2  -2   41.60    5.45
   2  -2   9   33.60    5.07
   9  -2   2   39.45    3.58
  -2   2   9   31.70    4.04
   2  -2  -9   31.06    4.02
  -2  -2   9   32.07    4.54
   2   2  -9   37.12    5.36
   2   2   9   36.01    4.96
  -2  -9  -2   42.40    4.72
  -2   2  -9   29.03    4.21
  -9   2  -2   38.34    5.29
   2  -2   9   35.11    4.13
   9  -2   2   47.62    5.17
  -2  -2   9   33.89    2.57
  -2  -9   2   41.80    5.51
  -2  -9  -2   45.73    4.99
  -2  -2   9   34.31    3.51
   9  -2  -2   43.74    3.61
   2  -9  -2   43.42    5.59
   2  -2  -9   30.73    4.67
  -2   9  -2   46.60    5.76
   9  -2  -2   45.71    5.06
   2  -2   9   28.56    4.47
   2   9   2   50.84    6.14
   2   2   9   33.75    4.80
   2   9  -2   43.05    5.68
   9   2  -2   43.11    3.98
  -2   2   9   30.86    4.40
  -9   2  -2   49.63    5.65
  -2   9   2   42.34    3.40
  -9  -2   2   43.59    5.80
  -2  -2  -9   33.35    2.96
  -2   9   2   46.77    5.80
  -9   2   2   39.02    5.66
  -9  -2   2   37.60    5.69
   3  -9  -2   23.24    3.59
  -3  -9   2   18.32    3.37
   3  -9   2   24.22    3.75
  -2  -3  -9   14.96    3.60
  -9  -2   3   24.21    4.38
  -9   2   3   24.10    4.31
   3   9  -2   20.18    3.66
  -2   3  -9   15.63    3.63
  -2  -3  -9   17.71    3.81
   2   3  -9   18.67    3.94
   3   9   2   22.41    4.02
   9   2  -3   23.03    3.05
  -3   9  -2   19.08    2.57
   9   2   3   23.19    3.13
  -3   9   2   22.03    2.77
  -9  -2   3   22.69    3.53
   9  -2  -3   20.34    4.10
  -2  -3   9   16.48    3.32
   2  -3  -9   13.24    2.42
  -2   3   9   16.96    2.80
   2   3  -9   16.63    3.89
   9   2   3   24.46    3.74
   9   2  -3   22.26    4.15
   9  -2   3   22.96    3.03
   2   3   9   17.14    3.58
  -9   2  -3   23.99    4.22
  -9  -2  -3   19.21    3.55
  -3  -9  -2   14.76    3.00
  -9  -2  -3   25.54    4.96
   2   3  -9   18.72    2.81
  -9   2  -3   21.69    4.08
  -2   3  -9   15.21    2.78
  -3  -9  -2   19.94    3.31
   9  -2   3   25.84    4.13
   3  -9   2   14.71    3.22
   2  -3   9   15.91    3.32
  -2  -3   9   14.26    3.26
  -2  -3   9   16.64    2.77
   2  -3   9   15.40    2.82
  -2  -3   9   17.71    1.93
  -3  -9   2   20.04    3.97
   2  -3  -9   17.06    3.40
   3  -9  -2   19.07    3.66
  -3  -9  -2   19.64    2.01
   2   3   9   13.94    3.26
  -2   3   9   15.12    3.03
   3   9  -2   22.38    4.20
   9  -2  -3   18.79    3.36
   9   2  -3   24.18    3.24
  -9  -2   3   33.96    5.10
  -9   2  -3   23.49    3.84
  -3   9  -2   19.10    3.57
   3   9   2   21.20    4.03
  -9   2   3   18.19    3.95
  -9  -2   3   21.75    4.58
  -3   9   2   18.74    3.62
   4  -9  -2  165.32    9.62
  -4  -9  -2  159.35   10.33
   4  -9   2  149.67    9.09
  -4  -9   2  149.45    9.66
  -9  -2   4  151.34   10.81
  -9   2   4  154.15   10.94
   2   4  -9  151.91   11.08
  -4   9  -2  149.57    6.49
   9   2  -4  151.65    8.34
  -4   9   2  151.97    6.35
  -2   4  -9  158.68   11.30
  -2  -4  -9  147.31   10.93
  -9  -2   4  151.98    8.49
   2  -4   9  151.41   10.56
  -9  -2   4  146.88   10.79
  -9   2   4  157.22   11.10
  -2  -4   9  154.51   10.47
   9   2  -4  149.14   11.08
  -4  -9  -2  159.78   10.73
   4   9  -2  154.17    8.34
  -2  -4   9  148.51   10.48
   2  -4   9  157.30   10.94
  -2   4   9  160.51    8.68
   9   2   4  153.53    9.87
   2  -4  -9  155.36    8.20
   2   4   9  159.72   10.47
   9  -2   4  169.79    8.94
  -9   2  -4  152.63   10.64
  -9  -2  -4  152.07   10.59
  -2   4  -9  165.44    8.12
  -4  -9  -2  151.25    9.50
  -9   2  -4  145.83   10.84
  -9  -2  -4  157.19   10.61
  -9  -2  -4  164.36   12.78
  -2  -4   9  155.42    6.04
   9  -2   4  148.33   10.06
   4  -9  -2  149.07   10.18
   4  -9   2  158.06   10.88
   2  -4   9  163.44    9.43
  -2  -4   9  166.27    9.32
  -4  -9   2  153.42   10.94
  -4  -9  -2  150.00    9.67
  -4   9  -2  157.80   10.06
   9  -2  -4  154.31   10.05
   2   4   9  155.59   10.53
  -2   4   9  159.98   10.21
   4   9   2  155.89   10.73
   4   9  -2  156.14   10.82
   2  -4  -9  153.10   10.40
   9   2  -4  157.94    8.98
  -4   9  -2  151.48    9.79
  -9  -2   4  148.39   10.74
  -9   2  -4  156.01    9.44
  -9   2   4  159.29   11.85
  -9  -2   4  165.33   12.11
  -4   9   2  145.48   10.09
   5  -9  -2  449.65   15.20
   5  -9   2  423.68   14.99
  -5  -9  -2  425.02   16.79
  -5  -9   2  427.51   16.25
  -9  -2   5  427.01   18.60
  -9   2   5  422.06   18.56
   5   9  -2  421.75   18.10
   5   9   2  415.29   17.69
   9   2  -5  428.54   14.76
  -5   9  -2  441.94   14.83
  -2   5  -9  442.54   18.60
  -2  -5  -9  430.53   18.45
   9   2  -5  446.80   19.77
  -9  -2   5  418.55   13.28
  -9  -2   5  440.11   19.03
  -9   2   5  413.00   18.46
   2  -5   9  438.18   18.33
  -2  -5   9  427.19   17.76
  -5  -9  -2  407.01   17.84
   9  -2  -5  390.42   18.09
   5   9  -2  424.81   14.01
  -2   5   9  435.58   13.90
   9   2   5  419.08   17.06
   2  -5   9  445.95   18.87
   2   5   9  441.97   17.63
   2  -5  -9  440.86   12.51
   2   5  -9  421.01   19.57
   9  -2   5  436.87   15.35
  -9   2  -5  439.22   18.19
  -9  -2  -5  428.45   18.24
  -5  -9  -2  405.84   16.00
  -9  -2  -5  428.10   17.61
  -9  -2  -5  412.59   20.97
   5  -9  -2  425.35   17.32
   9  -2   5  425.62   17.56
   5  -9   2  412.74   17.76
   2  -5   9  442.94   15.88
  -2  -5   9  455.57   16.54
  -5  -9   2  412.57   18.52
  -5  -9  -2  419.68   16.82
   9   2  -5  434.10   16.15
  -5   9  -2  437.23   16.30
   5   9   2  420.18   17.37
   2   5   9  412.25   17.68
  -2   5   9  450.60   17.62
   9  -2  -5  426.35   17.59
   2  -5  -9  426.07   17.54
   5   9  -2  418.30   17.75
   2   5   9  432.50   17.28
  -9  -2   5  437.17   18.51
  -5   9  -2  418.08   16.64
  -9   2   5  429.69   19.81
  -9  -2   5  441.28   20.13
  -5   9   2  438.07   17.30
   6  -9  -2   60.32    5.19
  -6  -9  -2   60.25    6.23
   6  -9   2   56.54    5.22
  -6  -9   2   61.40    6.09
  -9  -2   6   61.61    7.24
  -9   2   6   53.81    6.76
   6   9   2   56.39    6.65
   6   9  -2   55.25    6.64
   9   2  -6   63.35    5.97
  -6   9  -2   52.02    5.19
  -2   6  -9   58.89    6.60
  -2  -6  -9   61.12    6.82
   9  -2  -6   67.02    7.67
  -9  -2   6   59.96    7.55
  -9   2   6   66.93    7.79
  -9  -2   6   57.78    7.01
  -9   2   6   64.59    7.43
   2  -6   9   64.00    7.23
  -2  -6   9   64.56    7.09
  -6  -9   2   62.50    7.12
  -6  -9  -2   56.52    6.96
   2   6  -9   57.58    7.24
   9  -2   6   60.63    6.12
   2  -6   9   65.40    7.36
  -2   6   9   60.53    5.10
   9   2   6   65.22    6.91
   9   2  -6   66.60    7.87
   2   6   9   61.95    6.61
  -9  -2  -6   62.78    8.28
  -6  -9  -2   53.42    6.02
  -2  -6  -9   68.25    8.67
  -9  -2  -6   66.78    7.08
  -9   2  -6   67.50    7.34
  -9  -2  -6   62.38    6.99
   6  -9  -2   58.77    6.49
   6  -9   2   59.15    7.03
   9  -2   6   64.96    7.02
  -2  -6   9   64.81    6.66
   2  -6   9   63.52    6.29
  -6  -9   2   63.31    7.48
  -6  -9  -2   59.57    6.63
   9   2  -6   69.23    6.94
   2   6   9   61.39    7.00
  -2   6   9   65.52    6.95
   9  -2  -6   63.25    7.07
   2  -6  -9   64.73    6.86
   6   9  -2   60.07    6.73
   2   6   9   59.23    6.73
  -9   2  -6   64.30    7.51
  -2   6   9   62.63    7.63
  -9  -2   6   63.33    7.12
  -9   2   6   59.83    7.58
  -9  -2   6   56.93    7.36
   6   9   2   54.67    6.10
  -6   9  -2   60.39    5.82
  -6   9  -2   61.87    6.68
  -6   9   2   58.59    6.34
  -9  -2   7    1.91    0.90
  -9   2   7    2.49    1.61
  -2  -7  -9    4.60    2.59
  -7  -9  -2    2.24    0.42
  -7  -9   2    2.77    1.64
  -2   7  -9    3.94    1.50
  -2  -7  -9    2.72    0.95
   7   9  -2    3.39    2.01
  -2   7  -9    4.07    1.87
   9   2  -7    5.53    1.79
  -7   9   2    2.84    0.91
   2   7  -9    2.24    1.79
  -7   9  -2    2.34    1.44
   7   9   2    1.76    0.83
   2  -7   9    1.28    1.09
  -7  -9  -2    3.66    2.65
  -9  -2   7    4.48    2.13
  -9   2   7    3.32    1.92
  -9  -2   7    4.30    2.17
  -9   2   7    3.67    2.44
  -7  -9   2    4.72    2.02
   9   2   7    4.06    1.88
   2   7  -9    2.35    2.05
   2   7   9    2.01    1.38
   9  -2   7    5.60    1.80
   9  -2  -7    3.01    1.88
   9   2  -7    2.56    2.72
  -9   2  -7    4.93    2.24
  -9  -2  -7    5.26    2.29
  -9   2  -7    4.93    2.87
  -9  -2  -7    5.35    2.39
  -7   9  -2    5.50    1.83
  -9   2  -7    4.36    2.07
  -9  -2  -7    4.24    1.81
  -7  -9   2    0.20    1.20
   2  -7   9    2.35    1.86
   9  -2   7    4.80    2.42
   7  -9  -2    1.57    1.40
   7  -9   2    3.77    2.03
  -2  -7   9    2.65    1.70
   2  -7   9    2.49    1.09
   2   7   9    2.34    0.93
   9  -2  -7    3.15    1.23
   2  -7  -9    2.49    0.86
  -2   7   9    4.25    2.17
   9   2  -7    3.11    1.79
  -7   9   2    1.94    1.37
   2   7   9    4.08    1.97
  -2   7   9    4.27    2.30
   7   9  -2    3.13    1.61
  -9  -2   7    2.50    1.52
  -9   2   7    2.61    1.58
  -9  -2   7    3.88    3.03
   7   9   2    4.37    1.96
  -7   9  -2    3.00    0.90
  -9  -2   8    7.44    2.35
  -9   2   8    5.65    1.80
  -8  -9  -2    7.79    2.15
  -8  -9   2    6.43    2.08
  -2  -8  -9    3.74    2.28
   8   9  -2    5.68    2.46
  -2   8  -9    3.10    1.53
   8   9   2    6.71    2.31
   2   8  -9    2.11    1.66
  -8   9   2    3.69    2.01
  -8   9  -2    3.27    0.82
   9   2  -8    6.74    2.15
  -8  -9   2    8.58    2.77
  -8  -9  -2    8.59    3.15
  -9  -2   8    8.55    2.49
  -9   2   8    8.17    2.64
  -9  -2   8    4.93    2.35
  -9   2   8    4.28    2.17
   2   8  -9    6.43    2.87
   2   8   9    3.40    1.03
   9   2   8    4.86    1.73
   9  -2   8    5.14    1.91
   9  -2  -8    4.57    2.26
   9   2  -8    4.48    2.93
  -9   2  -8    5.19    2.21
  -9  -2  -8    0.57    1.06
  -9   2  -8    7.38    2.53
  -9  -2  -8    4.62    2.28
  -8   9  -2    5.26    1.85
  -9   2  -8    6.15    2.46
  -9  -2  -8    6.18    3.38
  -9  -2  -8    5.70    1.94
  -8  -9   2    7.07    2.66
   2  -8   9    4.46    2.18
   2  -8   9    3.17    0.55
   8  -9  -2    6.88    2.08
   9  -2   8    8.80    2.86
   8  -9   2    6.28    2.82
  -2  -8   9    5.62    2.22
  -2   8   9    2.73    1.82
   2  -8  -9    0.62    1.30
   9  -2  -8    5.84    2.28
   9   2  -8    4.84    2.13
   8  -9  -2    5.83    2.61
  -8   9   2    5.60    1.83
   2   8   9    2.52    2.38
  -2   8   9    4.11    2.08
   8   9  -2    5.13    1.95
  -9   2   8    8.18    3.13
  -9  -2   8    4.49    2.79
  -9  -2   8    3.91    1.87
   0  -9  -3  129.07    9.24
   0  -9   3  120.54    8.65
  -9  -3   0  114.88    8.78
  -9   3   0  121.97    9.00
   9   3   0  120.58    7.37
  -3   0   9  115.00    6.50
   0   9  -3  125.88    8.35
  -3   0  -9  102.99    9.41
  -9  -3   0  124.46    9.30
   9   3   0  131.17    8.65
   3   0   9  100.53    8.49
   3   0  -9  112.46    8.69
  -3   0   9  104.69    7.64
  -9   3   0  125.00    9.22
  -3   0  -9  108.85    8.97
   9  -3   0  124.61    7.73
   0  -9  -3  125.83    7.35
   0  -9   3  116.68    8.53
   3   0   9  109.62    8.68
  -3   0   9  105.35    7.79
   9  -3   0  130.15    8.44
   0  -9  -3  115.13    6.98
  -3   0  -9  107.00    7.06
   0   9   3  114.42    9.44
  -1  -9  -3    0.99    0.59
   1  -9  -3    0.83    0.77
  -1  -9  -3    1.99    1.12
  -9  -3  -1    0.29    0.75
  -9   3  -1    2.49    1.57
  -9  -3   1   -0.45    1.17
  -9   3   1    2.53    1.71
   1  -9   3    1.07    1.01
  -1  -9   3    3.12    1.56
  -3  -1  -9    1.11    0.78
   9   3  -1    1.37    0.74
   9   3   1   -0.10    0.72
  -1   9  -3    1.43    0.98
  -3   1   9    4.30    1.52
  -1   9   3    0.99    0.87
   1   9  -3    1.58    1.41
  -9  -3   1    1.42    1.30
  -9  -3  -1    0.32    0.75
   3  -1   9    2.04    1.64
   3  -1  -9   -0.28    1.00
   3   1  -9    1.41    0.93
   9   3   1    0.23    0.49
   9   3  -1    1.63    0.81
  -3  -1  -9    0.89    1.30
  -3  -1  -9    1.63    0.74
  -3   1  -9    3.29    1.91
  -9   3  -1    0.15    1.12
  -9   3   1    1.56    1.03
  -3  -1   9    1.02    0.47
   9  -3   1    3.77    1.73
   3  -1   9    1.09    1.05
  -3   1   9    1.52    0.42
  -3  -1   9    2.34    1.19
   9  -3  -1    1.63    0.99
   1  -9   3    1.95    1.40
  -1  -9   3    3.23    1.82
  -3   1   9    2.35    1.52
  -1  -9  -3    0.20    0.50
  -3   1   9    1.72    1.13
   3  -1   9    2.46    1.33
   3   1  -9    4.27    2.30
   1   9  -3    0.50    0.78
   1  -9  -3    1.29    0.81
   9  -3  -1    1.24    1.52
  -1  -9  -3    0.15    0.51
   3   1   9    1.87    0.85
  -9  -3   1    1.17    0.86
  -1   9  -3    1.89    1.14
  -3   1  -9    2.63    1.20
   1   9   3    0.83    0.98
   2  -9  -3  496.16   17.34
  -2  -9  -3  494.38   18.14
   2  -9   3  486.40   17.22
  -9  -3   2  469.57   18.27
  -9   3   2  469.14   18.30
   9   3   2  507.69   15.61
   3   2  -9  504.89   19.63
  -3   2   9  507.35   15.88
  -2   9   3  518.20   15.17
  -2   9  -3  481.38   14.73
   9   3  -2  485.63   14.91
  -3   2  -9  490.02   20.47
  -3  -2  -9  489.39   20.40
   2   9  -3  494.00   18.15
   9   3  -2  461.25   17.84
   9   3   2  484.58   15.58
  -3  -2   9  490.94   17.35
  -9  -3   2  475.89   17.05
  -3   2   9  490.95   15.31
   3  -2   9  501.91   19.41
  -3  -2   9  497.02   17.92
   3  -2  -9  508.18   17.36
   3   2  -9  482.05   19.52
   3   2   9  487.93   19.00
  -2  -9  -3  463.69   17.44
  -3   2  -9  502.73   17.82
  -9   3  -2  492.15   19.14
  -9  -3  -2  486.58   20.68
  -3  -2  -9  484.45   20.87
   9  -3  -2  482.57   12.92
   3  -2   9  507.08   17.01
   9  -3   2  492.74   17.13
   2  -9   3  482.46   18.05
  -2  -9   3  485.18   19.35
  -2  -9  -3  470.18   15.08
  -3  -2   9  502.07   13.58
  -2  -9   3  477.36   16.51
  -2   9  -3  487.27   18.51
  -3   2   9  506.78   17.08
   2  -9  -3  481.65   16.46
   9  -3  -2  462.96   16.72
  -2  -9  -3  478.40   11.49
   3  -2   9  489.33   18.42
   3   2   9  490.55   18.26
   3  -2  -9  500.98   19.70
  -9   3  -2  475.42   17.42
  -3   2  -9  509.42   17.41
  -3  -2  -9  489.02   12.59
  -9  -3   2  458.71   18.87
   2   9   3  489.79   19.34
  -2   9   3  461.68   18.57
  -9   3   2  453.91   19.29
  -9  -3   2  466.65   19.61
  -9  -3   3    9.56    2.57
  -9   3   3   11.35    3.00
  -3  -9   3    7.05    2.13
  -3  -3  -9   11.81    3.36
   3  -9  -3    7.57    1.89
   3  -9   3    7.39    2.07
  -3   3  -9   10.39    2.79
  -3  -3  -9   10.81    2.93
   3   9  -3    9.18    2.53
   9   3   3    8.86    2.04
  -3   9  -3    7.61    1.67
   3   9   3    8.07    2.41
   9   3  -3    7.64    2.08
   3   3  -9   11.82    2.99
  -3   9   3    9.56    2.01
  -9  -3   3    9.10    2.19
   9   3   3    9.23    2.25
  -3  -3   9    9.59    2.59
  -3  -9  -3    8.00    2.40
   3  -3  -9   11.86    2.63
   3   3  -9   10.18    2.86
   9  -3   3    5.57    1.18
   9   3  -3    8.44    2.60
   3   3   9   11.60    2.65
   3  -3   9    9.23    2.86
  -3  -9  -3    8.68    2.24
  -9   3  -3    8.00    2.28
  -9  -3  -3   11.97    3.05
  -3   3  -9   10.13    2.51
  -9  -3  -3    9.18    3.03
  -9   3  -3    5.89    2.23
  -3  -3  -9   10.93    1.53
  -3  -3   9    8.23    2.00
  -3  -9  -3    7.16    1.74
  -3   3   9   10.27    2.15
  -3  -3   9    9.68    2.62
   3  -3   9    9.52    2.28
  -3  -9   3    5.45    2.18
   9  -3   3    6.51    2.06
   3  -3  -9    9.26    2.71
   9   3  -3    8.61    1.93
   3   3   9    8.24    2.42
   3  -9  -3    5.31    1.76
  -3   3   9   10.32    2.52
   9  -3  -3    7.13    2.16
  -3   3  -9   11.87    2.90
  -3   9  -3    6.81    2.09
  -9   3  -3    8.13    2.22
   3   9   3    7.48    2.53
  -9  -3   3    9.73    2.71
  -9   3   3    5.67    1.99
  -9  -3   3   10.29    3.11
  -3   9   3    8.75    2.70
  -9   3   4  159.38   11.02
  -4  -9  -3  156.57   10.36
   4  -9  -3  166.92    9.53
   4  -9   3  160.54    9.62
  -4  -9   3  159.03   10.01
  -9  -3   4  158.82   11.11
   3   4  -9  156.76   11.13
  -4   9  -3  153.95    7.01
   9   3  -4  161.95    9.24
  -4   9  -3  161.75    7.95
  -9   3   4  157.01   11.41
  -4   9   3  155.33    6.76
  -3   4  -9  138.49   10.67
  -3  -4  -9  141.19   10.75
   9   3  -4  165.09   11.63
   9   3   4  170.09    8.69
   3  -4   9  150.52   10.47
  -9  -3   4  171.99   11.59
  -9   3   4  153.60   10.98
   9  -3  -4  164.50   11.52
  -3  -4   9  138.73    9.69
  -4  -9  -3  155.04   10.51
  -9  -3   4  160.47    9.18
   4   9  -3  157.27    9.31
  -3  -4   9  153.28   10.62
   3  -4   9  147.87   10.68
   9  -3   4  155.46    8.07
   9   3   4  165.74   10.75
   3  -4  -9  141.75    8.40
   3   4   9  147.70   10.56
  -3   4   9  140.96    7.61
  -3   4  -9  149.84    8.31
  -9   3  -4  161.52   10.79
  -9  -3  -4  166.68   11.05
  -4  -9  -3  150.40   10.18
  -9  -3  -4  165.48   12.80
   9  -3   4  164.89   10.78
   3  -4   9  148.34    9.54
  -4  -9   3  162.02   11.51
  -3  -4   9  156.98    9.16
  -4  -9  -3  153.17    9.31
   4  -9  -3  151.23   10.15
   9   3  -4  171.74    9.02
   4  -9  -3  156.73   10.42
   9  -3  -4  150.50   10.27
  -4   9  -3  154.48    9.96
   3   4   9  141.19   10.07
  -3   4   9  151.19    9.72
   3  -4  -9  147.06   10.66
  -4   9  -3  155.44   10.51
  -9   3  -4  162.02    9.51
  -9  -3   4  154.92   11.00
  -9   3  -4  155.36   11.41
   4   9   3  159.11   10.84
  -9   3   4  169.50   12.27
  -9  -3   4  167.19   12.14
  -4   9   3  155.09   10.79
   5  -9   3   19.68    3.30
  -9  -3   5   20.12    4.04
  -9   3   5   17.08    3.43
  -5  -9   3   18.68    3.23
  -5  -9  -3   18.70    3.54
  -3  -5  -9   21.21    4.57
   5  -9  -3   22.19    3.57
  -3   5  -9   26.18    4.55
  -3  -5  -9   23.05    4.29
   5   9  -3   22.50    4.17
   9   3  -5   23.03    3.76
  -5   9  -3   20.46    2.97
   3   5  -9   22.04    4.19
   5   9   3   19.93    3.92
  -9   3   5   21.45    4.29
  -5  -9  -3   20.30    4.00
   3  -5   9   28.94    4.86
  -3  -5   9   26.84    4.44
  -9  -3   5   19.69    4.01
  -9   3   5   23.13    4.16
   9  -3  -5   24.60    4.56
  -9  -3   5   22.34    3.37
   9  -3   5   23.41    3.43
   3   5  -9   20.41    4.32
   5   9  -3   20.57    3.37
   3  -5   9   24.28    4.41
   9   3   5   22.57    4.10
   3   5   9   30.78    4.98
   3  -5  -9   24.60    3.32
   9   3  -5   24.69    4.67
  -3   5   9   23.62    3.02
  -9   3  -5   26.65    4.48
  -5  -9  -3   17.73    3.76
  -9  -3  -5   18.71    3.83
  -9  -3  -5   20.35    4.58
  -5  -9   3   17.12    3.91
  -5  -9  -3   21.73    3.61
   9  -3   5   23.02    4.27
   3  -5   9   24.83    4.00
  -3  -5   9   28.14    4.45
   5  -9   3   20.50    4.27
   9  -3  -5   21.88    4.03
   3  -5  -9   22.27    4.30
   9   3  -5   20.19    3.43
   5  -9  -3   23.25    3.95
   5  -9  -3   23.38    4.37
   3   5   9   25.05    4.36
  -3   5   9   27.05    4.29
   5   9  -3   20.26    3.78
  -5   9   3   21.64    4.15
   3   5   9   25.52    4.23
  -5   9  -3   19.35    3.90
  -5   9  -3   19.85    3.55
  -9   3   5   24.05    4.90
  -9  -3   5   23.05    4.59
  -9  -3   5   21.74    4.08
   5   9   3   20.30    3.79
   6  -9   3  107.35    7.54
  -6  -9   3  106.40    8.04
  -6  -9  -3  101.34    8.30
  -9  -3   6  100.47    9.22
  -9   3   6  100.75    9.31
   3   6  -9   89.02    8.77
   9   3  -6  100.13    7.83
   6   9   3  108.85    9.34
  -6   9  -3  112.42    7.02
  -9   3   6   98.46    9.29
  -3   6  -9   82.30    7.93
  -3  -6  -9   88.38    8.15
   6   9  -3  102.93    9.12
   9  -3  -6  104.14    9.55
  -9  -3   6  104.93    9.97
  -9  -3   6   95.05    8.95
  -9   3   6   96.97    9.19
   3  -6   9   94.91    8.84
  -6  -9  -3   96.24    9.06
   3  -6   9   93.39    8.78
   3   6   9  100.37    8.84
   9  -3   6  101.88    7.70
   9   3  -6  106.13   10.03
   9   3   6   96.48    8.75
   6   9  -3  103.78    7.66
   3   6  -9   99.10    9.84
  -9   3  -6  105.40    9.15
  -9  -3  -6   96.82    8.81
  -9  -3  -6  103.17   10.96
  -3  -6  -9   96.51   10.19
  -6  -9  -3   99.96    8.69
   6  -9   3   98.24    9.13
   9  -3   6  107.67    9.36
   6  -9  -3  110.20    8.76
   3  -6   9   95.06    8.06
  -3  -6   9   90.12    8.00
  -6  -9   3  111.64    9.94
   9   3  -6  103.23    8.17
   6  -9  -3   97.61    9.03
   3   6   9   97.27    8.85
  -3   6   9  106.82    8.53
   9  -3  -6  104.77    9.32
   6   9  -3  106.19    9.08
   3  -6  -9   92.44    8.41
  -6   9  -3  111.08    7.84
   3   6   9   99.09    8.44
  -9  -3   6   96.74    8.70
  -9   3   6  100.61    9.67
  -6   9  -3  109.22    9.23
  -9  -3   6  100.81    9.71
   6   9   3  105.32    8.43
  -6   9   3  105.05    8.71
  -9  -3   7    5.46    2.27
  -9   3   7    7.21    2.18
  -7  -9  -3    3.96    1.34
  -3  -7  -9    5.11    2.23
  -7  -9   3    3.78    1.37
   7   9   3    5.16    2.33
  -7   9   3    2.65    1.86
   9   3  -7    5.23    1.78
  -9   3   7    5.25    2.27
   7   9  -3    4.56    2.23
  -9  -3   7    4.25    1.78
  -9   3   7    5.34    2.50
  -7  -9  -3    2.33    1.35
   7  -9  -3    4.21    1.84
  -9  -3   7    6.91    2.67
  -9   3   7    8.13    2.54
  -7  -9   3    3.40    1.60
   9  -3   7    7.08    2.32
   9   3   7    3.56    2.30
   3   7  -9    6.01    2.59
   3   7   9   10.72    3.17
   9  -3  -7    5.91    2.48
   9   3  -7    1.51    1.35
  -9   3  -7    4.33    1.82
  -9  -3  -7    3.39    1.59
  -9   3  -7    4.86    1.54
  -9  -3  -7    5.97    2.31
  -7   9  -3    5.08    2.55
  -9   3  -7    6.16    1.96
  -9  -3  -7    5.30    2.90
  -3   7  -9    4.88    1.96
  -3  -7  -9    6.03    2.37
  -7  -9  -3    1.41    2.27
  -7  -9   3    2.06    1.56
   7  -9   3    3.13    1.93
   3  -7   9    6.59    2.70
   3  -7   9    6.13    2.20
   9  -3   7    6.78    2.11
   7  -9  -3    4.35    1.99
  -3  -7   9    5.54    1.90
   3   7   9    6.93    2.57
   9  -3  -7    4.02    2.01
   3  -7  -9    6.28    2.22
  -3   7   9    5.60    1.88
   9   3  -7    5.35    1.93
  -7   9   3    4.45    1.46
   3   7   9    5.74    2.33
   7   9  -3    3.45    1.73
  -9   3   7    7.96    2.96
  -9  -3   7    5.95    2.40
  -9  -3   7    8.24    2.65
   7   9   3    2.49    0.87
  -8  -9   3  240.51   11.64
  -8  -9  -3  224.57   12.15
  -9  -3   8  217.62   14.10
  -9   3   8  228.73   14.61
   9   3  -8  226.28   12.79
   3   8  -9  213.92   14.11
  -8   9   3  217.52   14.16
   8   9  -3  218.00   13.71
   8   9   3  222.73   13.74
   8  -9  -3  218.27   12.57
  -9  -3   8  220.64   15.01
  -9   3   8  224.09   15.23
   9  -3  -8  227.92   14.69
  -9  -3   8  222.65   14.40
  -9   3   8  212.59   14.30
  -8  -9   3  219.31   13.80
  -8  -9  -3  227.21   14.78
   3   8  -9  238.92   15.61
   3  -8   9  224.74   13.77
   9  -3   8  232.53   12.93
   9   3  -8  233.72   15.81
   3   8   9  239.64   13.84
   9   3   8  225.24   13.95
  -9   3  -8  218.88   15.66
  -9  -3  -8  228.03   15.86
  -9   3  -8  241.63   14.73
  -3  -8  -9  215.45   15.82
  -9  -3  -8  235.50   14.24
   3  -8   9  237.71   13.21
   8  -9   3  220.29   13.90
   9  -3   8  224.10   14.21
   8  -9  -3  233.60   12.60
  -3  -8   9  233.02   14.00
  -8  -9   3  229.46   15.15
   3   8   9  224.15   14.20
   8  -9  -3  214.68   14.16
  -3   8   9  222.29   12.87
   3  -8  -9  239.64   13.70
   9  -3  -8  225.13   14.57
   8   9  -3  224.19   12.81
   3   8   9  225.20   13.93
  -9   3  -8  246.37   15.15
  -9  -3   8  246.53   13.30
  -9   3   8  224.61   15.35
  -9  -3   8  229.83   15.46
  -8   9   3  234.24   12.13
  -8   9  -3  229.62   13.87
   0  -9  -4    7.31    2.24
  -9  -4   0    6.99    2.32
  -9   4   0    7.01    2.38
   0  -9   4    9.70    2.54
  -4   0  -9   14.41    3.70
   0   9  -4    7.25    2.25
  -9  -4   0    6.18    1.15
  -4   0   9   10.49    1.89
   9   4   0    4.88    1.37
  -9  -4   0    5.76    2.20
   4   0  -9   12.88    3.22
   4   0   9   13.30    3.08
   9   4   0    9.26    2.48
  -4   0  -9    9.34    2.96
  -4   0  -9   10.41    2.37
  -9   4   0    7.84    2.58
   0  -9   4    7.42    2.23
  -4   0   9   13.21    2.78
   9  -4   0    7.07    1.71
   0  -9  -4    7.85    1.79
   4   0   9    9.13    2.24
   4   0  -9   12.72    3.62
  -4   0   9    9.96    2.48
   0  -9  -4    8.89    2.04
   0   9   4    8.11    2.71
   1  -9  -4    1.00    0.73
  -1  -9  -4    3.88    1.47
  -1  -9  -4    1.31    1.54
   1  -9   4   -0.70    1.28
  -9  -4   1   -0.14    0.86
  -9   4   1    0.58    0.68
  -4  -1  -9   -0.19    0.57
  -1   9  -4    2.12    1.23
   9   4  -1    0.69    0.72
   9   4   1    1.29    1.20
   1   9  -4    0.41    0.58
  -4   1   9    1.70    0.74
  -9  -4   1   -0.46    0.32
  -9  -4  -1    0.34    0.70
   4  -1  -9    1.65    1.44
   4   1   9   -0.16    0.59
   4   1  -9    0.50    0.79
   9   4   1   -0.44    1.44
   9   4  -1    1.21    0.94
   4  -1   9    0.49    1.32
  -4   1  -9   -0.82    1.37
  -4   1  -9    2.75    1.14
  -4  -1  -9   -0.10    0.29
  -9   4  -1    1.10    1.54
  -9   4   1    0.28    0.66
  -4  -1  -9    1.89    0.97
   9  -4  -1    1.01    0.52
  -1  -9  -4   -0.33    0.46
  -1  -9   4    2.02    0.96
   9  -4   1    1.02    1.25
   4  -1   9   -0.14    0.63
   1  -9   4    0.28    0.78
  -4   1   9    1.59    0.80
  -4  -1   9   -0.25    0.75
   1  -9  -4    1.14    0.53
  -1   9  -4   -0.16    0.69
   4  -1  -9    1.94    0.74
  -4   1   9    1.39    1.17
   4  -1   9    0.29    0.81
   4   1  -9    1.60    1.12
   9  -4  -1   -0.28    0.77
   1  -9  -4    0.11    0.47
  -1  -9  -4    1.27    0.87
   4   1   9    0.58    0.81
   1   9   4    0.17    0.72
  -1   9   4    1.21    1.03
   2  -9   4   55.46    5.91
  -2  -9   4   59.50    6.24
   2  -9  -4   63.47    6.38
  -2  -9  -4   71.12    7.11
  -9  -4   2   67.31    6.89
  -9   4   2   65.57    6.73
   9   4   2   74.61    6.49
   4   2  -9   76.49    7.73
  -2   9  -4   63.38    5.61
  -4   2   9   74.67    6.40
  -9   4   2   74.28    7.67
   2   9  -4   57.85    6.34
  -4   2  -9   75.16    8.24
  -4  -2  -9   70.77    7.90
   9   4  -2   67.89    6.03
   9   4  -2   68.79    6.85
  -4  -2   9   75.46    6.58
   9   4   2   68.82    5.72
  -2  -9  -4   67.79    6.42
  -9  -4   2   70.84    6.90
   4  -2   9   79.61    7.81
  -2   9   4   65.91    4.33
   4  -2  -9   75.34    7.01
  -4  -2   9   78.06    7.13
   4   2  -9   80.31    8.18
  -4   2   9   76.63    5.79
  -4   2  -9   69.64    7.03
  -9   4  -2   73.10    7.54
  -2  -9  -4   65.13    6.94
  -4  -2  -9   80.08    8.68
  -9   4   2   67.29    6.45
  -9  -4  -2   63.69    7.68
   9  -4  -2   68.83    5.27
   4  -2   9   72.18    6.88
   2  -9   4   61.12    6.50
   9  -4   2   73.60    6.93
  -2  -9   4   69.12    7.56
  -2  -9   4   62.03    5.86
  -2  -9  -4   62.56    5.10
  -4  -2   9   76.53    5.53
  -4   2   9   75.14    6.33
   2  -9  -4   61.34    5.94
   9  -4  -2   62.57    6.50
  -2  -9  -4   63.49    4.16
   4  -2   9   82.03    7.50
  -2   9  -4   61.39    6.60
   4   2   9   69.62    6.83
  -9   4  -2   66.42    6.49
  -4  -2  -9   82.23    5.60
  -4   2  -9   77.56    7.07
   2   9   4   62.97    7.11
  -9   4   2   71.65    7.46
  -9  -4   2   69.68    7.48
   3  -9   4   59.47    6.22
  -3  -9   4   57.44    6.03
   3  -9  -4   61.63    6.11
  -9  -4   3   58.49    6.57
  -9   4   3   58.26    6.49
   4   3  -9   60.27    6.94
  -3   9  -4   54.08    4.81
   9   4   3   66.20    6.36
  -3   9  -4   55.99    3.88
  -4   3   9   66.79    6.33
   9   4  -3   57.78    5.78
   3   9  -4   56.03    6.39
  -4   3  -9   65.75    7.57
  -4  -3  -9   62.92    7.45
  -9  -4  -3   63.58    7.35
   9  -4  -3   62.26    6.97
   9   4  -3   65.42    7.03
   4  -3   9   62.06    6.66
   3  -9  -4   58.68    4.02
  -4  -3   9   59.57    6.07
   9   4   3   60.18    5.08
  -3  -9  -4   55.89    6.02
  -9  -4   3   64.66    6.31
   3   9  -4   60.26    6.20
   4  -3  -9   63.82    6.21
   4  -3   9   64.26    7.08
  -4   3   9   69.31    5.31
   4   3   9   63.30    7.02
  -4   3  -9   67.84    6.47
  -4  -3  -9   67.84    4.55
  -4  -3  -9   63.74    7.93
  -3  -9  -4   57.03    6.67
  -9  -4  -3   66.45    7.93
   3  -9   4   57.33    6.49
   4  -3   9   71.07    6.86
   9  -4   3   59.58    6.50
  -4  -3   9   66.06    6.72
  -3  -9   4   58.98    7.03
  -4  -3   9   61.88    5.45
  -3  -9  -4   56.65    5.10
  -4   3   9   65.27    5.97
  -3   9  -4   55.54    6.13
   9  -4  -3   58.76    6.50
   3  -9  -4   60.22    6.28
   4   3   9   63.63    6.80
   4  -3  -9   62.36    7.11
  -9   4  -3   60.56    5.98
  -4   3  -9   69.09    6.96
   3   9   4   51.74    6.40
  -9  -4   3   63.11    7.23
  -3   9   4   59.61    6.97
  -9   4   3   64.84    7.31
  -9   4  -3   60.48    7.15
  -4  -9   4   -0.69    1.40
  -9  -4   4   -1.31    1.19
  -9   4   4    0.49    1.19
   4  -9  -4    0.37    1.04
  -4  -9  -4    0.16    1.09
   4  -9   4    1.61    1.01
  -4  -4  -9   -0.19    1.36
  -4   9   4    0.58    0.70
   9   4  -4    0.26    0.61
   4   4  -9   -0.35    0.37
  -4   4   9    0.74    1.03
  -4   9  -4    0.08    0.33
  -9   4   4    1.11    1.35
  -4   4  -9   -0.37    0.39
  -4  -9  -4    2.16    1.29
  -9  -4   4    0.25    0.54
  -9  -4  -4   -0.19    0.80
  -9   4   4   -0.83    0.69
   4  -4   9    0.79    1.19
  -4  -4   9    0.43    1.07
   4  -9  -4    0.08    0.90
   4   4  -9    2.93    2.17
   4   9  -4    0.98    1.10
   9  -4  -4   -0.70    0.37
   4   4   9   -1.54    0.95
   9   4   4   -0.82    1.03
   9   4  -4    0.53    0.83
   4  -4  -9    2.33    1.21
  -4  -9  -4   -0.17    0.50
  -9   4  -4   -1.24    1.42
  -9  -4  -4    0.62    1.16
  -4   4  -9    0.23    0.49
  -9  -4  -4    1.53    0.65
  -9   4  -4    2.02    2.28
   4  -4   9    1.62    1.31
  -4  -4   9    1.23    0.82
   9  -4   4    2.10    1.70
  -4  -9  -4    1.46    1.35
   4  -4   9    0.50    1.37
  -4   4   9    0.38    0.50
  -4  -9   4   -1.29    1.50
   4  -4  -9    2.66    1.63
   4   4   9    0.79    1.14
   4  -9  -4    1.72    1.27
  -4   4   9    0.37    0.58
   9  -4  -4    0.66    1.47
  -4   9  -4    1.69    1.18
  -4   9   4    2.41    1.81
  -4   9  -4    0.14    0.93
  -9   4  -4    2.11    1.23
  -9   4   4   -0.93    1.47
  -9  -4   4   -1.68    0.56
  -4   4  -9    0.50    0.86
   4   9   4   -0.16    0.90
   5  -9   4   34.80    4.51
  -9  -4   5   32.13    4.81
  -5  -9   4   28.94    4.27
  -9   4   5   30.48    4.89
  -5  -9  -4   32.10    4.67
   5  -9  -4   30.61    4.01
   4   5  -9   33.14    5.28
   9   4  -5   29.78    4.28
  -9   4   5   33.48    5.63
   5   9  -4   34.96    5.30
  -4  -5  -9   32.77    5.09
   5  -9  -4   32.18    3.82
  -9  -4   5   28.90    4.83
  -9   4   5   32.59    5.11
   4  -5   9   36.66    5.23
  -4  -5   9   32.95    4.83
   9  -4  -5   33.14    5.41
  -5  -9  -4   27.80    4.58
  -9  -4   5   28.27    3.93
   4  -5   9   38.31    5.54
   9   4  -5   33.60    5.58
   9   4   5   28.98    4.79
   4   5   9   35.59    5.41
   4  -5  -9   37.65    4.36
   4   5  -9   32.94    5.60
   5   9  -4   32.07    4.63
  -9   4  -5   33.44    5.00
  -9  -4  -5   29.91    4.62
  -5  -9  -4   28.78    4.91
  -9  -4  -5   29.59    5.66
  -4  -5  -9   38.89    6.52
   9  -4   5   29.28    4.77
   4  -5   9   35.34    4.89
  -5  -9   4   32.47    5.46
  -4  -5   9   31.02    4.45
   5  -9  -4   35.60    5.27
   9  -4  -5   30.88    5.09
   4   5   9   38.71    5.39
  -5   9  -4   26.19    4.03
  -4   5   9   32.53    4.39
   4  -5  -9   32.28    5.30
  -9   4  -5   29.81    5.29
  -4   5  -9   34.66    5.44
  -5   9  -4   30.51    5.02
  -9   4  -5   30.73    3.90
  -9   4   5   33.89    5.55
   5   9   4   31.32    4.71
  -5   9   4   30.00    4.87
  -9  -4   5   25.81    4.92
  -9  -4   6    0.89    0.53
  -9   4   6    4.30    2.13
  -6  -9   4    1.05    0.68
  -6  -9  -4   -0.16    0.33
   6  -9   4    2.19    1.75
   6   9   4    2.49    1.67
   4   6  -9    3.61    2.22
   6   9  -4    0.18    0.54
  -9   4   6    0.99    1.56
   9   4  -6   -1.76    1.48
  -6  -9  -4    1.64    1.62
  -9  -4   6   -1.58    1.25
   6  -9  -4    1.31    1.17
  -9  -4   6    1.80    1.00
  -9   4   6    3.82    1.87
   4  -6   9    2.39    0.95
   9   4   6    1.44    1.31
   4   6  -9    2.33    1.66
   6   9  -4   -0.73    1.33
   4   6   9    1.80    1.56
   9  -4  -6    0.74    1.17
   9   4  -6    2.44    1.54
  -4  -6  -9    2.64    2.01
  -9   4  -6    3.89    1.70
  -9  -4  -6    0.17    2.10
  -6   9  -4    0.36    1.14
  -6  -9  -4   -1.12    0.79
  -9  -4  -6    0.97    2.34
  -4   6  -9    0.18    0.66
  -4  -6  -9    0.36    1.91
  -4  -6   9   -0.16    1.40
   9  -4   6    1.45    0.85
  -6  -9   4    0.81    1.90
   4  -6   9   -0.16    1.12
   6  -9   4    1.65    1.49
   4  -6   9    0.52    1.32
   9  -4  -6    1.67    1.10
   4  -6  -9    1.45    1.20
   4   6   9    3.12    1.79
  -4   6   9    0.96    0.86
   6  -9  -4    1.65    1.63
  -6   9   4    1.49    1.10
   4   6   9   -0.58    0.61
  -4   6  -9    0.58    0.57
  -6   9  -4    0.36    0.56
  -9   4   6    7.48    2.91
  -9  -4   6    2.82    1.98
   6   9   4    0.75    0.89
  -7  -9  -4   44.11    5.48
  -7  -9   4   43.89    5.12
  -9  -4   7   48.41    6.35
  -9   4   7   35.10    5.59
   4   7  -9   50.72    6.85
   9   4  -7   44.34    5.79
   7   9   4   38.05    5.76
  -7   9   4   42.49    6.32
  -9   4   7   45.31    6.61
   7   9  -4   37.41    5.64
  -4   7   9   46.20    5.62
   7  -9  -4   47.75    5.46
  -9  -4   7   45.12    6.49
  -9   4   7   45.32    6.58
  -9  -4   7   42.65    6.16
  -9   4   7   41.95    6.10
   9  -4  -7   43.27    6.28
  -7  -9   4   43.92    6.07
  -7  -9  -4   44.13    6.23
   9   4   7   42.90    6.13
   9   4  -7   50.40    7.11
   9  -4   7   42.53    5.11
   4  -7   9   47.87    6.27
   4   7   9   53.18    6.90
   4   7  -9   45.20    6.72
  -9  -4  -7   41.39    5.80
  -9  -4  -7   46.23    7.51
  -7  -9  -4   38.27    5.85
  -4   7  -9   44.36    5.83
  -4  -7  -9   46.58    7.39
  -9   4  -7   48.70    6.39
   7  -9   4   46.40    6.36
   9  -4   7   43.22    6.32
  -4  -7   9   46.75    5.99
   4  -7   9   55.60    6.61
  -7  -9   4   42.71    6.46
   7  -9  -4   45.98    6.52
   4   7   9   43.69    6.14
  -4   7   9   54.07    6.01
   9  -4  -7   46.39    6.63
   4  -7  -9   50.56    6.43
   4   7   9   42.16    5.51
  -4   7  -9   54.46    7.05
  -4   7   9   52.30    6.99
  -9   4   7   50.72    7.18
  -9  -4   7   45.26    6.68
  -7   9  -4   53.06    6.91
  -9   4  -7   44.32    6.38
  -7   9   4   39.15    5.35
  -4  -8   9   41.76    5.37
  -8  -9  -4   37.84    4.97
  -9  -4   8   44.01    6.32
  -9   4   8   40.11    6.12
  -8  -9   4   35.85    4.47
   8   9   4   36.00    5.77
   9   4  -8   46.15    5.95
  -8   9   4   38.81    6.25
   8   9  -4   36.77    5.82
  -9   4   8   48.82    6.77
  -9  -4   8   43.64    6.67
  -9   4   8   39.18    6.45
   8  -9  -4   36.09    4.97
   9  -4  -8   40.61    5.98
  -9  -4   8   40.98    6.24
  -9   4   8   42.50    6.20
  -8  -9   4   35.62    5.46
  -8  -9  -4   39.34    6.12
   4   8  -9   40.87    6.68
   4  -8   9   50.51    6.43
   4   8   9   49.18    6.47
   9   4   8   41.71    6.24
   9   4  -8   46.55    7.16
  -8  -9  -4   39.39    6.07
  -9   4  -8   42.24    6.68
  -9  -4  -8   39.44    6.41
  -4  -8  -9   41.01    7.15
  -9  -4  -8   39.76    6.91
  -9   4  -8   49.33    6.60
  -9  -4  -8   43.73    5.85
   8  -9   4   30.97    5.37
   9  -4   8   42.14    6.09
  -4  -8   9   41.77    6.10
  -8  -9   4   32.02    6.10
   4  -8   9   41.68    5.83
   4   8   9   50.17    6.81
  -4   8   9   41.00    5.33
   8   9  -4   32.47    4.99
   4  -8  -9   44.27    6.21
   9  -4  -8   34.60    5.86
   4   8   9   49.16    6.17
  -4   8   9   40.93    6.23
  -9   4   8   44.42    6.69
  -9  -4   8   44.37    6.59
  -9   4  -8   44.52    6.66
  -8   9  -4   39.16    5.90
  -8   9   4   42.77    5.54
  -9  -5   0    3.23    0.92
   0  -9   5    3.97    1.90
  -9  -5   0    3.04    1.56
  -9   5   0    2.36    1.33
   0  -9  -5    1.87    0.80
   9   5   0    5.61    1.82
   0   9  -5    2.07    1.23
  -5   0  -9    4.21    1.78
  -9  -5   0    3.22    1.67
   0  -9  -5    3.54    1.46
   5   0  -9    5.11    1.89
   5   0   9    5.90    1.97
   9   5   0    5.05    1.91
   0   9   5    5.26    1.75
  -5   0  -9    6.38    1.87
  -9   5   0    3.59    1.57
  -5   0  -9    5.93    2.20
  -5   0   9    5.56    1.62
   0  -9   5    6.58    1.99
   9  -5   0    6.24    2.08
   5   0   9    4.49    1.49
   5   0  -9   10.40    3.17
   0  -9  -5    1.70    1.01
   0   9   5    2.92    2.03
   1  -9   5  241.46   12.83
  -9  -5   1  237.23   12.34
  -9   5   1  237.07   12.28
  -9  -5  -1  246.59    8.67
  -1  -9  -5  248.09   13.50
   1  -9  -5  262.01   13.54
   9   5  -1  243.14   12.12
  -5   1   9  248.58   11.76
  -1   9  -5  248.64   12.06
   1   9  -5  237.83   12.66
  -9   5   1  251.91   13.97
   9   5   1  250.37   12.36
  -5  -1  -9  236.92   14.83
   9   5   1  246.00   10.78
   9   5  -1  246.72   12.22
  -5  -1   9  246.03   11.52
  -1  -9  -5  246.79   11.26
  -9  -5   1  253.55   13.86
  -9  -5  -1  250.79   14.35
   5  -1   9  247.93   13.84
  -1   9   5  253.37    9.91
   5  -1  -9  247.05   13.63
   5   1  -9  236.18   14.02
   5   1   9  241.86   13.90
  -5   1   9  239.66   10.45
  -1  -9  -5  242.83   14.45
  -5   1  -9  235.39   13.99
  -5  -1  -9  238.17   15.01
  -9   5  -1  236.52   13.20
  -9   5   1  244.87   12.64
  -1  -9   5  241.33   11.81
   9  -5  -1  236.13   11.00
   5  -1   9  230.52   12.62
   1  -9   5  242.93   12.53
   9  -5   1  270.50   13.08
   5   1   9  237.55   12.67
   5   1  -9  240.22   14.40
   5  -1   9  242.59   12.71
   9  -5  -1  257.17   13.53
   1  -9  -5  247.70   11.52
  -5   1   9  239.46   10.93
  -1  -9  -5  245.92    9.65
   5  -1  -9  245.12   14.62
  -5  -1  -9  238.83   11.06
   1   9   5  266.95   14.96
  -1   9   5  242.99   14.60
  -5   1  -9  247.74   12.40
  -2  -9  -5   18.91    3.84
   2  -9  -5   20.42    3.67
  -2  -9  -5   18.26    4.06
   2  -9   5   18.53    3.66
  -2  -9   5   20.78    3.66
  -9  -5   2   17.73    3.44
  -9   5   2   18.77    3.62
   9   5   2   19.94    3.63
   9   5  -2   16.83    3.26
   5   2  -9   23.95    4.32
  -2   9  -5   21.27    3.38
   2   9  -5   18.63    3.88
  -5   2   9   23.30    3.80
  -9   5   2   15.84    3.79
  -5   2  -9   20.19    4.38
  -5  -2  -9   22.32    4.51
  -2  -9  -5   17.57    3.27
  -9  -5   2   22.40    4.00
  -5  -2   9   23.13    3.67
   5   2  -9   27.17    4.72
  -5   2   9   20.04    2.76
   5  -2   9   24.29    4.37
   5  -2  -9   22.59    4.06
   5   2   9   18.96    3.86
   9   5  -2   17.90    3.44
  -5   2  -9   19.13    3.84
  -9  -5  -2   15.99    3.98
  -5  -2  -9   21.05    2.90
  -5  -2  -9   22.95    4.91
  -9   5   2   20.44    3.57
  -9   5  -2   17.07    3.65
   9  -5  -2   16.66    2.76
   2  -9   5   18.80    3.56
   9  -5   2   20.27    3.79
  -2  -9   5   22.38    3.43
   5  -2   9   20.23    3.76
  -5   2   9   24.34    3.60
   5   2  -9   21.35    4.25
   9  -5  -2   22.49    4.02
   2  -9  -5   19.83    3.56
  -2   9  -5   17.62    3.48
   5   2   9   22.63    3.99
   5  -2  -9   24.10    4.80
   2   9   5   21.17    4.26
  -5   2  -9   24.30    4.18
   3  -9  -5   73.54    6.88
   3  -9   5   69.72    6.82
  -3  -9   5   65.02    6.57
  -9  -5   3   61.80    6.54
  -9   5   3   68.11    6.88
   5   3  -9   66.01    7.29
  -3   9  -5   70.12    5.84
   9   5   3   69.87    6.85
  -5   3   9   54.18    6.04
   3   9  -5   60.98    6.79
   9   5  -3   71.97    6.78
  -9  -5  -3   62.59    7.53
   9  -5  -3   67.89    7.28
   5  -3   9   58.92    6.42
  -5  -3   9   60.84    6.12
  -3  -9  -5   65.82    6.45
  -9  -5   3   69.35    6.88
   3   9  -5   70.90    7.25
   9   5  -3   64.55    6.94
   5  -3  -9   55.38    6.14
   5  -3   9   59.33    6.93
  -5   3   9   60.84    4.60
  -5   3  -9   60.82    6.47
  -5  -3  -9   58.96    7.76
  -5   3  -9   63.27    7.68
  -5  -3  -9   61.86    7.78
  -5  -3  -9   59.86    4.75
  -9  -5  -3   65.40    7.81
  -3  -9  -5   66.55    7.52
   3  -9   5   70.98    7.24
   5  -3   9   54.51    6.24
   9  -5   3   62.16    6.76
  -5  -3   9   61.18    5.72
  -5   3   9   60.54    5.57
   9  -5  -3   66.68    7.12
   3  -9  -5   71.67    6.99
   5   3   9   55.93    6.33
  -3   9  -5   70.73    7.21
  -9   5  -3   71.51    6.50
  -9   5  -3   71.39    7.64
  -5   3  -9   64.38    6.88
  -9   5   3   62.82    7.18
  -9  -5   3   70.88    7.57
   3   9   5   68.72    7.45
  -3   9   5   70.83    7.77
  -9  -5   4   -0.32    2.00
  -9   5   4    0.16    0.58
  -4  -9  -5    0.49    0.60
   4  -9   5    0.14    1.23
   4  -9  -5    0.78    0.67
  -4  -9   5    2.97    1.33
   9   5   4    2.42    1.19
   9   5  -4    0.86    1.00
  -4   9  -5    0.54    0.27
   5   4  -9   -1.25    1.30
  -5   4   9   -0.16    1.29
  -4  -9  -5    1.38    1.11
  -9  -5   4    0.71    0.59
  -9  -5  -4    2.16    1.84
   9  -5  -4    0.35    0.97
   5  -4   9    0.16    0.46
  -5  -4   9   -0.68    0.40
   5   4  -9    1.02    0.95
   4   9  -5    0.96    1.61
   9   5  -4   -0.52    1.60
   5  -4  -9    0.83    0.82
  -9   5  -4    0.30    1.05
  -9  -5  -4    1.35    1.33
  -5   4  -9    1.45    1.33
  -4  -9  -5    1.90    1.70
  -9  -5  -4    2.20    1.38
  -9   5  -4   -0.38    0.40
  -5   4  -9    1.04    0.76
  -5  -4  -9    0.83    0.61
  -5  -4   9    0.78    0.27
   9  -5   4    0.17    0.36
   5  -4   9    1.19    1.43
   4  -9   5   -1.18    1.28
   5  -4   9    3.37    1.75
   5  -4  -9    0.94    1.53
   5   4   9    2.23    0.89
   4  -9  -5    1.63    1.14
   9  -5  -4    0.53    1.95
  -5   4   9    0.11    0.71
   4   9   5    1.86    2.04
  -4   9  -5    2.75    1.15
  -4   9   5    0.18    0.39
  -5   4  -9   -0.35    0.37
  -4   9  -5    0.43    0.60
  -9   5  -4    1.13    0.63
  -9   5   4   -1.09    1.01
  -9  -5   4    0.18    0.54
  -5  -9  -5  317.88   15.66
   5  -9  -5  340.45   13.83
   5  -9   5  314.48   14.05
  -5  -9   5  323.51   14.45
  -9  -5   5  296.41   15.10
  -9   5   5  294.02   15.13
   5   5  -9  316.60   16.53
   9   5  -5  295.04   14.36
  -5   5   9  327.19   16.14
  -9   5   5  315.96   16.98
   5   9  -5  300.94   15.92
  -5  -5   9  320.55   16.34
  -5   5   9  312.57   16.33
  -9  -5  -5  308.75   16.93
  -9   5   5  294.62   15.12
   5  -5   9  323.76   15.52
   9  -5  -5  330.98   16.54
  -9  -5   5  302.08   15.29
  -5  -9  -5  311.61   15.58
  -9  -5   5  308.16   13.63
   5  -5   9  318.51   15.90
   9   5   5  320.40   16.71
   5  -5  -9  310.28   13.44
   9   5  -5  314.17   16.79
   5   5   9  321.22   16.61
   5   5  -9  321.74   17.80
   5   9  -5  300.69   14.90
  -9  -5  -5  318.16   18.54
  -9   5  -5  314.08   15.09
  -9  -5  -5  316.07   15.03
  -5  -9  -5  289.71   16.34
  -5   5  -9  316.94   17.20
  -5  -5  -9  317.03   17.04
  -5  -5  -9  312.91   18.84
   5  -5   9  337.99   16.12
   9  -5   5  320.28   16.31
  -5  -5   9  323.54   14.82
  -5   9  -5  320.13   13.98
   5  -9  -5  302.91   15.79
   9  -5  -5  318.69   16.60
   5   5   9  307.71   15.49
   5  -5  -9  316.08   16.73
  -5   5   9  318.53   13.06
  -5   9  -5  322.69   16.70
  -5   5  -9  302.47   16.22
  -9   5  -5  311.55   17.00
  -9   5   5  311.12   16.47
  -9  -5   5  304.80   16.29
   5   9   5  315.55   15.34
  -5   9   5  314.06   16.30
  -9  -5   6    1.88    1.43
  -9   5   6    2.25    1.82
  -6  -9   5    0.80    1.16
  -6  -9  -5   -1.16    0.92
   6  -9   5    0.65    0.67
   9   5  -6    1.27    1.97
   6   9  -5    0.19    1.58
  -5   6   9    0.37    1.17
   5   6  -9    0.19    0.81
  -9   5   6    1.64    0.43
  -6  -9  -5    2.54    1.47
  -9  -5   6    0.36    0.72
  -5  -6   9   -0.51    1.43
  -5   6   9    0.17    1.52
  -9  -5   6    0.69    1.54
  -9   5   6   -0.70    0.37
   5  -6   9   -1.50    0.93
   5   6  -9    0.65    1.65
   6   9  -5    0.50    0.60
   5   6   9   -0.57    0.40
   9  -5  -6    0.18    2.20
   9   5   6    0.58    1.00
   9   5  -6    1.03    1.14
  -5  -6  -9    0.99    1.37
  -9   5  -6   -0.82    0.91
  -9  -5  -6    1.78    0.68
  -9   5  -6    0.62    1.06
  -5   6  -9    0.57    0.79
  -5  -6  -9   -0.38    0.89
  -9  -5  -6   -0.49    0.51
  -6  -9  -5    0.82    2.48
   5  -6   9    1.21    1.36
  -5  -6   9   -0.65    0.84
   9  -5   6   -0.75    0.39
   5  -6   9    1.20    0.95
   5  -6  -9   -1.36    1.68
   5   6   9    1.60    0.74
  -5   6   9    0.97    1.47
   6  -9  -5    3.62    1.55
   9  -5  -6   -1.75    0.41
  -6   9  -5    0.19    1.29
   6   9   5    3.05    1.81
  -9  -5   6    0.19    1.16
  -6   9   5   -0.71    0.74
  -6   9  -5   -0.48    1.27
  -9   5   6    2.76    1.85
  -5   6  -9    0.40    0.93
  -5  -7   9   32.28    4.85
  -5  -7   9   29.82    4.29
  -7  -9  -5   38.20    5.38
  -7  -9   5   38.54    4.78
  -9  -5   7   36.89    5.69
  -9   5   7   41.28    5.95
   5   7  -9   29.86    5.43
   9   5  -7   45.45    5.90
  -7   9   5   39.21    6.39
  -9   5   7   40.87    6.35
   7   9  -5   41.70    6.18
   7   9   5   35.66    5.71
  -5   7   9   31.65    4.88
   9  -5  -7   36.16    5.62
  -9  -5   7   41.38    5.90
  -9   5   7   32.39    5.37
   7  -9  -5   33.47    4.65
  -7  -9   5   35.95    5.28
  -7  -9  -5   37.22    6.05
   5   7   9   29.75    5.18
   9   5   7   38.31    6.16
   9   5  -7   43.42    6.78
   7   9  -5   38.01    5.35
   5   7  -9   32.01    5.98
  -5  -7  -9   23.65    4.84
  -9   5  -7   44.44    5.98
  -9  -5  -7   38.05    5.43
  -9  -5  -7   37.57    6.59
  -7  -9  -5   34.56    5.82
  -5   7  -9   25.31    4.72
   7  -9   5   36.99    5.87
   9  -5   7   36.32    5.91
   5  -7   9   24.13    4.18
   5  -7   9   30.58    5.02
  -5  -7   9   28.08    4.96
   5  -7  -9   32.57    5.31
   7  -9  -5   40.12    6.25
   5   7   9   32.21    5.36
   9  -5  -7   44.95    6.58
  -5   7   9   28.40    4.26
  -7   9  -5   41.50    6.30
  -5   7  -9   26.01    5.04
  -9  -5   7   37.26    5.89
  -9   5   7   33.73    5.68
  -7   9   5   34.19    5.11
  -9  -5   8   18.19    3.88
  -9   5   8   24.59    4.63
  -5  -8   9   24.82    4.01
  -8  -9  -5   19.90    3.56
   9   5  -8   21.70    4.39
  -9   5   8   23.83    4.85
  -8  -9   5   22.98    4.18
  -8  -9  -5   25.26    5.13
  -9  -5   8   20.88    4.09
  -9   5   8   23.66    4.60
   5   8   9   30.65    5.33
   5   8  -9   26.52    5.30
   9  -5  -8   20.34    4.05
  -8  -9  -5   22.75    4.96
  -9   5  -8   24.01    4.16
  -9  -5  -8   21.19    4.16
  -8   9  -5   24.80    5.11
  -5  -8   9   26.25    4.71
   5  -8   9   26.50    4.66
   5  -8   9   24.34    4.56
   5  -8  -9   28.54    4.93
   8   9   5   27.51    4.42
  -8   9   5   22.45    3.89
  -9   5   8   25.01    5.05
  -9  -5   8   22.13    4.72
  -9  -6   0   23.26    2.87
   0  -9   6   22.09    4.07
   0  -9  -6   18.72    3.63
   0   9  -6   24.97    4.23
   9   6   0   22.92    3.97
  -9   6   0   22.47    4.19
  -9  -6   0   22.99    4.48
  -6   0   9   23.78    4.69
  -6   0   9   26.60    3.52
   6   0   9   25.95    4.60
   9   6   0   28.45    3.85
   0   9   6   22.03    3.40
   6   0  -9   30.45    5.12
  -6   0  -9   27.13    5.25
  -9   6   0   23.26    4.00
  -6   0  -9   21.76    4.85
   9  -6   0   22.57    3.78
   0  -9   6   22.27    3.55
   6   0   9   23.34    3.94
   6   0  -9   25.02    4.66
   0  -9  -6   21.60    3.43
   0   9   6   22.69    4.78
  -6   0  -9   26.14    3.96
  -1  -9  -6    1.53    1.28
   1  -9  -6    2.72    1.43
  -1  -9  -6    1.44    2.40
  -9  -6   1    0.28    0.54
   1  -9   6    0.31    0.96
  -9  -6  -1    0.49    0.73
  -9  -6   1    1.48    1.47
  -9   6   1    0.40    0.63
   1   9  -6    1.10    0.87
   9   6   1   -1.34    1.13
   9   6  -1    0.74    0.69
  -9   6   1    1.55    1.40
  -6   1   9   -0.27    1.07
  -1   9  -6    1.38    1.20
  -1  -9  -6    2.03    1.10
  -9  -6   1    0.87    1.21
  -6  -1   9    0.80    1.40
  -6  -1   9    1.06    1.11
   6   1  -9   -0.76    1.33
  -1   9   6    0.95    0.31
   6  -1   9    2.75    1.84
   9   6  -1    2.89    1.60
   1   9   6    0.13    0.46
   6   1   9    3.67    1.91
   6  -1  -9    0.88    1.99
  -6   1  -9    1.92    2.28
  -6   1  -9    1.18    1.16
  -6  -1  -9    3.06    1.89
  -6  -1  -9    1.11    1.19
  -9   6  -1    0.48    1.02
  -6  -1  -9    2.46    2.10
  -9   6   1    1.67    1.54
   6  -1   9    1.62    1.27
   1  -9   6    1.13    0.78
  -1  -9   6    0.12    0.57
   9  -6  -1    0.25    0.64
   9  -6   1    1.04    1.82
   6   1   9    1.90    1.47
  -1  -9  -6    2.58    1.01
   6  -1  -9    3.33    2.36
   6   1  -9    2.11    1.51
   6  -1   9    1.58    0.80
   9  -6  -1    0.84    1.37
   1  -9  -6    2.07    1.17
   1   9   6    1.14    1.13
  -1   9   6    1.18    1.01
  -6  -1   9    3.51    0.74
  -2  -9  -6  103.91    9.17
   2  -9  -6  102.45    8.53
   2  -9   6   93.94    8.19
  -2  -9   6   92.80    8.14
  -9  -6   2  100.57    7.97
  -9   6   2   89.17    7.52
  -9  -6  -2  107.56    6.66
   9   6  -2   98.86    8.26
   6   2  -9  112.50    9.32
  -2   9  -6   98.82    7.64
   2   9  -6  105.62    9.01
  -6   2   9  103.06    8.33
  -9   6   2  100.85    9.20
   9   6   2  106.78    8.67
  -6  -2   9   99.89    9.60
  -6   2   9  100.67    9.75
  -6  -2   9  107.93    7.54
  -2  -9  -6  109.31    7.69
  -9  -6   2  105.12    9.07
   6  -2   9  105.57    9.20
   2   9   6  107.57    8.53
   9   6  -2  112.38    8.57
   6  -2  -9  104.05    9.11
   6   2   9  103.38    9.22
  -6   2  -9  103.16    9.19
  -6  -2  -9  105.26   10.60
  -2  -9  -6   94.72    9.43
  -6   2  -9  101.92   10.23
  -6  -2  -9  100.65   10.19
  -6  -2  -9  105.76    7.31
  -9   6   2   96.16    7.51
  -9  -6  -2  102.54    9.52
   6  -2   9  110.43    9.10
   2  -9   6   94.84    8.17
  -2  -9   6  106.61    7.47
   9  -6  -2  101.06    7.29
  -2  -9   6  100.93    9.36
   9  -6   2   95.98    8.34
   6   2  -9  102.29    9.57
   9  -6  -2  101.22    9.05
   2  -9  -6   92.99    7.68
  -6   2   9  106.27    6.88
   6  -2  -9  104.16    9.73
   6   2   9  114.33    8.90
  -9   6  -2  110.71    9.42
   2   9   6  103.30    9.56
  -6   2  -9  107.67    8.93
   3  -9  -6   12.43    3.07
  -3  -9  -6   10.51    3.43
   3  -9   6    9.08    2.42
  -3  -9   6   13.00    3.04
  -9  -6   3   12.52    2.99
  -9   6   3   11.54    2.82
   3   9  -6    9.35    2.87
   9   6   3   10.40    2.61
  -3   9  -6    9.68    2.44
  -6   3   9   15.20    3.29
  -9   6   3   11.25    2.97
   9   6  -3   13.04    3.09
   6   3  -9   13.98    3.32
  -3  -9  -6   11.26    2.75
  -9  -6   3   10.84    2.90
  -9  -6  -3   13.51    3.34
  -6  -3   9   17.07    4.25
  -6   3   9   15.25    3.77
   9  -6  -3   13.24    3.27
   6  -3   9   15.03    3.14
  -6  -3   9   16.08    3.08
   3   9  -6   10.81    3.18
   6   3   9   18.26    4.02
   3   9   6   11.29    2.95
   6  -3  -9   15.58    3.27
   9   6  -3   10.12    2.84
   6  -3   9   15.31    3.82
  -6  -3  -9   13.60    3.61
  -6   3  -9   12.93    3.24
  -9  -6  -3   11.09    3.37
  -6   3  -9   12.68    3.36
  -9   6  -3   10.82    2.98
  -6   3  -9   13.09    3.90
  -6  -3  -9   14.26    3.77
  -6  -3  -9   14.17    2.60
   3  -9   6   14.74    3.28
   9  -6   3   13.37    3.14
   6  -3   9   14.40    3.37
  -3  -9   6   12.67    3.33
  -3   9  -6   12.28    3.19
   6  -3  -9   18.49    4.24
  -6   3   9   13.78    2.51
   6   3   9   13.70    3.36
   9  -6  -3   15.23    3.55
   3  -9  -6   11.42    2.88
   3   9   6    6.91    2.35
  -3   9   6   11.04    3.10
  -9   6  -3    7.99    2.15
   4  -9   6    0.15    0.70
  -4  -9  -6    1.41    1.28
  -4  -9   6    2.76    1.75
  -9  -6   4   -0.75    1.18
  -9   6   4    3.17    1.79
  -4   9  -6    0.51    0.71
   4  -9  -6   -0.14    0.91
   9   6  -4   -0.16    0.74
   6   4  -9   -0.18    0.66
  -6   4   9   -0.17    0.71
   9   6   4    0.16    0.91
  -9  -6   4   -0.15    0.46
  -4  -9  -6    0.45    1.00
  -9  -6  -4    1.83    0.43
  -6  -4   9    0.78    0.71
  -6   4   9   -0.20    1.37
   9  -6  -4    0.88    1.52
   6  -4   9    2.57    1.68
   6   4  -9    0.42    2.48
   4   9  -6    2.14    1.59
   4   9   6   -3.31    1.68
   6  -4  -9    3.96    1.92
   6  -4   9    3.07    1.60
   9   6  -4   -1.57    1.27
  -6   4  -9   -0.19    1.11
  -9  -6  -4    1.32    0.80
  -4  -9  -6   -2.30    1.86
  -9   6  -4    0.19    0.81
  -6   4  -9    0.22    0.65
  -6  -4  -9    1.93    1.86
  -6  -4   9   -0.14    0.29
   4  -9   6    0.69    1.25
   9  -6   4   -0.18    1.12
   6  -4   9    1.04    1.63
  -4  -9   6    1.77    1.98
  -6   4   9   -0.59    0.69
   6   4   9   -0.97    0.68
  -4   9   6    0.40    0.40
   9  -6  -4   -1.31    1.47
   4  -9  -6    0.34    0.51
  -9  -6   4   -0.17    1.20
  -4   9  -6    1.17    1.16
   4   9   6   -0.70    0.90
  -4   9   6   -0.39    0.58
  -4   9  -6    1.16    1.06
  -9   6  -4   -0.66    1.30
  -9   6   4   -0.87    1.09
  -9  -6   5   17.51    3.59
  -9   6   5   16.52    3.62
  -6  -5   9   20.61    4.09
  -6   5   9   17.59    3.67
   5  -9   6   16.54    3.53
  -5  -9   6   14.44    3.23
   5   9  -6   13.92    3.84
   9   6  -5   17.67    3.79
  -5  -9  -6   13.95    3.48
   5  -9  -6   14.14    2.71
   6   5  -9   20.06    4.41
  -6   5   9   23.68    4.46
  -9   6   5   20.99    4.57
  -9  -6   5   16.56    3.35
  -5  -9  -6   12.57    3.33
  -9  -6  -5   16.34    4.10
  -6  -5   9   18.43    4.12
  -6   5   9   21.29    4.39
   6  -5   9   24.32    4.06
   9   6  -5   14.21    3.75
   6   5  -9   19.99    4.56
   5   9  -6   15.53    3.75
   9  -6  -5   16.71    3.84
   5   9   6   14.50    3.77
   9   6   5   15.71    3.94
   6  -5  -9   21.47    3.88
  -9   6  -5   19.05    3.54
  -9  -6  -5   18.81    3.63
  -6  -5  -9   26.65    5.81
  -6   5  -9   21.68    4.48
  -9   6  -5   19.17    4.38
  -6   5  -9   27.39    5.23
  -6  -5  -9   25.71    4.98
  -5  -9  -6   15.01    3.74
  -9  -6  -5   12.33    3.59
  -5  -9   6   13.62    3.65
  -6  -5   9   21.75    3.95
   6  -5   9   24.25    4.54
   5  -9   6    8.74    2.59
   9  -6   5   17.93    3.92
   6  -5   9   22.28    4.16
  -6   5   9   22.49    3.34
   6  -5  -9   24.16    4.79
   6   5   9   22.30    4.32
  -5   9   6   12.96    2.70
   5  -9  -6   14.60    3.64
   9  -6  -5   17.73    3.95
  -5   9  -6   15.57    3.86
   5   9   6   11.19    2.83
  -5   9   6   14.85    3.86
  -5   9  -6   15.16    2.82
  -9   6   5   14.17    3.15
  -9  -6   5   13.44    3.41
  -9  -6   6    2.25    1.43
  -9   6   6   -0.49    0.49
  -6  -9   6   -0.13    0.40
  -6  -6   9    0.64    1.30
  -6   6   9   -0.17    1.10
  -6  -6   9   -0.35    0.25
   6  -9   6    0.55    0.65
  -6  -9  -6    0.17    1.55
   9   6  -6    1.37    1.34
   6   9  -6    0.59    0.92
  -6   6   9    4.81    2.36
   6   6  -9    2.17    1.90
  -9   6   6    8.68    2.55
  -9  -6   6   -1.07    1.19
  -6  -9  -6   -1.80    1.37
  -9  -6  -6    0.21    1.38
  -9  -6   6   -0.49    0.59
  -9   6   6   -0.83    1.21
  -6  -6   9   -0.18    1.58
  -6   6   9   -0.54    1.59
  -6  -6   9   -1.31    1.29
   6  -6   9   -0.16    1.35
   9   6  -6   -1.63    1.29
   6   6  -9    1.11    1.55
   6   9  -6   -0.18    1.22
   6   6   9   -0.60    2.34
   9  -6  -6    0.54    1.25
   6   9   6    0.80    1.93
   9   6   6    2.48    1.84
  -6  -9  -6   -2.00    1.61
  -9   6  -6    1.10    1.36
  -9  -6  -6    0.31    0.65
  -6  -6  -9   -0.51    0.76
  -6   6  -9    4.32    2.07
  -6   6  -9    0.59    1.09
  -6  -6  -9    1.38    1.94
  -9   6  -6   -1.26    1.76
  -9  -6  -6    0.49    1.78
  -6  -9   6    1.26    2.03
  -6  -6   9   -1.35    1.32
   6  -6   9    0.18    0.77
   9  -6   6   -0.58    0.82
   6  -6   9    1.01    1.63
   6  -6  -9    2.48    1.73
   6   6   9    0.18    0.92
   6   9   6    0.73    1.15
   6  -9  -6    1.18    0.83
   9  -6  -6    1.62    1.81
  -6   9   6   -1.14    0.40
  -6   9  -6   -1.44    1.97
  -9   6   6    4.12    2.01
  -9  -6   6   -2.22    1.82
  -9  -6   7   12.55    3.18
  -9   6   7   15.67    3.59
  -6  -7   9   12.39    2.87
  -7  -9   6   11.03    2.50
  -6  -7   9   11.91    2.43
   7   9  -6   12.55    3.72
  -7  -9  -6    8.30    2.22
  -6   7   9   16.42    3.83
  -9   6   7   11.86    3.57
   6   7  -9   11.83    3.45
   9   6  -7   10.46    2.26
  -7  -9  -6    8.33    2.41
  -9  -6   7   12.37    3.26
  -9   6   7    9.66    2.80
  -6  -7   9   12.57    2.85
  -6   7   9   14.31    3.49
  -7  -9   6   11.94    3.01
   9   6   7   11.63    3.77
   9   6  -7   12.75    3.54
   6   7  -9   12.65    3.67
   6   7   9   12.75    3.14
   7   9  -6   10.16    2.80
   9  -6  -7   11.61    2.61
   7   9   6    9.11    2.92
  -6  -7  -9   14.91    2.90
  -9   6  -7   11.87    3.18
  -9  -6  -7   11.41    2.68
  -6  -7  -9   18.39    4.77
  -6   7  -9   11.11    3.30
  -7  -9  -6    5.69    2.53
  -7   9  -6   10.36    3.26
  -6   7  -9   10.98    3.29
  -9   6  -7   13.05    3.65
  -9  -6  -7   11.31    3.62
  -6  -7   9   13.06    3.34
  -7  -9   6   16.64    4.03
   9  -6   7   14.35    3.65
   6  -7   9   15.62    3.93
   6  -7   9   14.23    3.42
   9  -6  -7   14.41    3.91
   6  -7  -9   11.64    3.65
   6   7   9   12.67    3.48
   7   9   6   10.39    2.82
   7  -9  -6   10.35    3.07
  -7   9   6   12.13    3.06
  -9   6   7   11.82    3.79
  -9  -6   7   16.86    3.86
  -7   0   9   51.99    6.83
   0  -9   7   65.25    6.96
   0  -9  -7   64.80    7.35
  -9  -7   0   61.46    4.98
   0   9  -7   59.58    6.62
   9   7   0   63.05    6.90
  -9   7   0   66.98    7.19
  -7   0   9   52.37    7.04
  -7   0   9   53.75    4.74
  -9  -7   0   64.20    7.60
   7   0  -9   54.79    7.02
   0   9   7   65.33    5.81
   7   0   9   52.72    6.60
  -7   0  -9   60.76    7.80
  -7   0  -9   61.85    8.22
  -9   7   0   63.60    6.74
   9  -7   0   65.47    6.74
   7   0   9   47.16    6.26
   0  -9   7   64.64    6.26
   7   0  -9   50.09    6.78
   7   0   9   54.28    6.05
   0  -9  -7   65.00    5.74
  -7   0  -9   57.17    6.37
   0   9   7   75.55    8.61
  -7   1   9    0.19    1.52
   1  -9   7    0.16    0.48
  -9  -7   1    1.00    1.36
  -9   7   1   -0.25    1.06
  -1  -9  -7    1.34    2.35
  -9  -7  -1    0.95    0.20
   9   7   1   -0.16    0.96
  -1  -9  -7    4.89    1.78
   1  -9  -7   -0.68    1.19
   9   7  -1   -0.65    0.83
  -1   9  -7    0.75    0.70
  -9   7   1    0.71    0.74
   1   9  -7    2.01    1.57
  -9  -7   1    0.74    1.29
  -7  -1   9    0.85    1.48
  -7  -1   9    0.38    0.52
   1   9   7    1.93    1.15
   7  -1   9    1.40    0.90
   7   1   9    0.18    0.92
   7  -1  -9   -0.57    0.98
   7   1  -9    2.04    1.60
  -7  -1  -9    0.23    1.82
  -7   1  -9    2.72    1.61
  -7  -1  -9    2.11    2.64
  -9   7  -1   -0.16    0.34
  -7  -1  -9   -0.14    0.64
  -7   1  -9   -2.05    2.15
  -9   7   1    0.41    0.58
   9  -7  -1   -0.14    0.50
   1  -9   7    2.55    1.71
   9  -7   1    0.63    0.88
  -1  -9   7    2.16    1.40
   7  -1   9    0.52    0.82
   1  -9  -7    2.16    1.65
   7   1   9   -1.15    1.79
   7  -1  -9   -1.02    0.60
   7   1  -9    0.98    1.24
   7  -1   9   -0.14    0.51
  -1   9   7    1.20    1.01
   1   9   7    2.20    0.59
  -1   9   7    1.03    1.44
  -7  -1   9   -0.13    0.80
  -7  -2   9  257.90   15.17
  -7   2   9  255.34   15.30
  -2  -9   7  248.91   13.43
  -9  -7   2  260.48   12.40
  -9   7   2  264.94   12.42
  -2  -9  -7  276.05   15.34
   2  -9  -7  271.11   14.25
  -9  -7  -2  279.79   11.50
   9   7  -2  249.33   13.80
   7   2  -9  252.57   13.87
  -2   9  -7  257.50   12.92
   2   9  -7  260.53   14.59
  -9   7   2  267.52   15.11
  -7   2   9  265.85   14.13
   9   7   2  271.74   14.37
  -7  -2   9  259.68   16.03
  -7   2   9  260.88   16.09
   7  -2   9  266.45   13.27
  -7  -2   9  261.98   11.02
  -9  -7   2  271.08   15.04
  -9  -7  -2  271.47   15.89
   7  -2   9  268.04   14.68
   2   9   7  265.52   13.40
   7  -2  -9  260.12   14.90
   9   7  -2  248.74   12.46
   7   2   9  240.22   14.30
  -7  -2  -9  259.90   17.18
  -2  -9  -7  239.75   15.80
  -7   2  -9  250.01   16.64
  -7  -2  -9  248.64   16.39
  -7  -2  -9  252.72   12.18
  -9  -7  -2  247.22   14.77
  -7   2  -9  251.07   14.90
   2  -9   7  246.45   13.14
   7  -2   9  268.94   14.88
  -2  -9   7  259.54   11.38
   9  -7  -2  268.40   12.57
  -2  -9   7  256.85   15.18
   9  -7   2  266.41   14.56
   7   2   9  259.48   13.38
  -2   9   7  277.14   14.57
   7   2  -9  267.28   15.48
   9  -7  -2  261.86   14.92
   2  -9  -7  252.34   12.96
   7  -2  -9  253.43   15.56
  -7   2  -9  267.95   14.60
  -9   7  -2  257.29   14.57
   2   9   7  265.46   15.47
  -2   9   7  259.90   15.95
  -7  -3   9   21.58    4.53
  -7   3   9   20.39    4.42
   3  -9   7   18.82    3.67
  -3  -9   7   18.29    3.59
  -9  -7   3   19.96    3.59
  -9   7   3   18.18    3.16
   3   9  -7   14.97    3.72
   9   7   3   19.82    4.04
  -9  -7  -3   18.85    3.26
   3  -9  -7   16.86    3.60
  -3   9  -7   17.11    3.20
   7   3  -9   22.33    4.32
  -9   7   3   14.08    3.53
  -7   3   9   21.09    4.15
   9   7  -3   16.19    3.52
  -9  -7   3   18.52    3.95
  -9  -7  -3   25.42    4.95
  -7  -3   9   20.51    4.39
  -7   3   9   24.34    4.79
   9  -7  -3   21.74    4.31
   7  -3   9   21.75    3.67
   9   7  -3   20.66    4.06
   7   3  -9   22.97    4.90
   3   9  -7   19.90    4.08
   7   3   9   25.67    4.62
   7  -3   9   21.75    4.32
   7  -3  -9   23.12    4.51
   3   9   7   19.46    3.96
  -3  -9  -7   13.65    3.79
  -7   3  -9   21.23    4.12
  -7  -3  -9   24.40    5.39
  -7   3  -9   21.32    4.38
  -7   3  -9   20.78    4.93
  -7  -3  -9   22.31    3.44
  -7  -3  -9   21.43    5.07
  -9   7  -3   22.57    4.48
  -9  -7  -3   14.61    3.79
   3  -9   7   15.81    3.42
   7  -3   9   17.86    3.55
   9  -7   3   15.72    3.66
  -3  -9   7   18.84    4.28
   3  -9  -7   17.07    3.75
   7  -3  -9   18.50    4.19
   3   9   7   20.00    4.21
   9  -7  -3   20.58    4.38
   7   3   9   18.30    3.68
  -3   9   7   16.98    3.38
   3   9   7   23.32    4.74
  -3   9   7   17.77    4.21
  -7  -4   9   87.98    8.72
  -7   4   9   93.78    8.89
   4  -9  -7   99.05    8.09
   4  -9   7   96.80    8.38
  -4  -9   7   91.01    7.98
  -9  -7   4   93.59    7.75
  -4  -9  -7   98.15    9.18
   7   4  -9   80.38    8.19
   9   7   4   92.54    8.62
  -7   4   9   89.55    8.72
  -9   7   4   97.26    9.61
   9   7  -4   92.49    8.51
  -7  -4   9   83.85    8.87
  -7   4   9   91.66    9.35
   9  -7  -4   90.32    8.56
   7  -4   9   82.68    7.47
  -7  -4   9   88.77    8.82
  -9  -7   4   97.43    8.76
  -4  -9  -7   99.03    8.28
  -9  -7  -4  101.52   10.02
   4   9  -7   98.55    9.47
   4   9   7  104.24    9.37
   7  -4  -9   87.12    8.26
   7   4   9   86.36    8.76
   9   7  -4   93.63    8.50
   7   4  -9   90.08    9.55
   7  -4   9   88.94    8.32
  -9  -7  -4   90.32    9.69
  -7   4  -9   85.80    9.50
  -7  -4  -9   82.34    9.20
  -4  -9  -7   90.67    9.69
   4  -9   7   91.10    8.61
   7  -4   9   87.66    8.68
  -4  -9   7   94.55    9.26
   9  -7   4  101.78    9.43
   4   9   7  100.63    9.48
  -4   9   7  100.55    8.00
   9  -7  -4   95.25    9.28
   4  -9  -7  100.13    9.00
   7   4   9   88.58    8.17
  -4   9  -7  100.40    8.22
   7  -4  -9   87.59    9.22
  -4   9  -7  102.38    9.93
  -9   7  -4  100.28    9.66
  -7   4  -9   82.58    8.64
   4   9   7  101.55    9.31
  -4   9   7  104.78   10.18
  -7  -5   9   19.49    3.88
  -7   5   9   18.60    4.35
   5  -9   7   17.71    3.55
  -5  -9   7   17.17    3.32
  -9  -7   5   11.71    2.81
   5   9  -7   16.14    4.16
   9   7  -5   15.09    3.38
   9   7   5   15.70    3.49
  -5  -9  -7   15.65    3.58
   7   5  -9   22.26    4.59
  -7   5   9   21.74    4.29
  -9  -7   5   13.49    3.38
  -5  -9  -7   15.20    3.11
  -9  -7  -5   14.22    3.86
  -7  -5   9   17.55    3.99
  -7   5   9   15.94    3.97
  -7  -5   9   21.25    4.02
  -7   5   9   21.89    4.50
   7  -5   9   19.63    3.76
   9   7  -5   17.05    3.61
   7   5  -9   16.38    4.00
   5   9  -7   14.85    3.55
   9  -7  -5   17.43    4.01
   9   7   5   16.82    4.24
   7  -5  -9   21.04    3.87
   5   9   7   15.89    3.84
  -7   5  -9   20.51    4.00
  -7  -5  -9   19.83    3.86
  -7   5  -9   26.16    5.15
  -7   5  -9   15.50    3.78
  -7  -5  -9   20.78    4.75
  -9   7  -5   18.39    3.95
  -9  -7  -5   11.10    3.33
  -5  -9  -7   17.76    4.49
  -7  -5  -9   19.10    4.69
  -5  -9   7   19.87    4.37
   7  -5   9   19.81    3.94
  -7  -5   9   22.01    4.12
   5  -9   7   14.42    3.54
   7  -5   9   18.41    3.89
   9  -7   5   15.37    3.54
   7   5   9   19.32    4.10
  -5   9   7   21.86    3.85
   5   9   7   15.65    3.58
   9  -7  -5   15.34    4.12
   5  -9  -7   17.43    4.34
  -5   9  -7   17.42    4.62
   5   9   7   15.24    3.43
  -5   9   7   17.22    3.99
  -5   9  -7   21.40    3.51
  -9   7   5   17.16    3.81
   6  -9   7   61.89    6.42
  -6  -9   7   69.86    6.62
  -9  -7   6   70.24    7.03
  -7  -6   9   61.68    7.00
  -7   6   9   60.75    7.00
   7   6  -9   60.70    7.43
   6   9  -7   60.05    7.57
   9   7  -6   64.94    7.37
  -6   9   7   66.63    8.15
  -7   6   9   56.14    7.24
  -9   7   6   66.60    8.10
  -6  -9  -7   65.81    7.25
  -9  -7  -6   73.00    8.44
  -7  -6   9   63.93    7.47
  -7   6   9   61.41    7.20
  -7  -6   9   57.16    6.73
  -7   6   9   62.05    7.15
  -9  -7   6   68.17    6.83
   9  -7  -6   65.74    7.25
   9   7   6   68.23    8.43
   6   9   7   70.03    8.22
   7  -6   9   59.57    6.68
   9   7  -6   69.11    8.01
   7   6  -9   53.98    7.58
   6   9  -7   67.07    7.98
  -9  -7  -6   61.33    8.18
  -7  -6  -9   55.89    8.10
  -6  -9  -7   69.59    8.89
  -7   6  -9   56.11    7.10
  -7  -6  -9   63.74    7.77
  -7   6  -9   59.44    6.61
  -7  -6  -9   59.65    6.57
   6  -9   7   66.24    7.63
   7  -6   9   56.76    7.11
   9  -7   6   69.86    8.05
  -6  -9   7   66.35    8.03
  -7  -6   9   62.99    7.16
   6   9   7   74.01    8.16
   9  -7  -6   68.69    8.34
   6  -9  -7   66.12    7.90
   7   6   9   59.52    7.08
   7  -6  -9   53.26    7.29
  -6   9   7   71.34    8.13
  -9   7  -6   66.85    8.26
  -6   9  -7   68.59    8.21
  -9   7   6   61.56    6.90
  -7   6  -9   66.92    8.15
  -7   7   9    6.68    2.19
  -7  -9   7   10.40    3.08
   9  -7  -7   10.12    2.47
  -7  -7  -9    6.55    2.05
  -9  -7  -7    6.26    1.56
  -7   7   9    8.37    2.14
  -9   7   7    7.54    2.26
  -7  -9   7    5.94    2.00
  -8   0   9  111.66   10.37
   0  -9  -8  114.71    9.86
  -9  -8   0  110.18    7.18
   0   9  -8  107.67    9.28
   9   8   0  108.78    9.36
  -9   8   0  102.38    8.85
  -8   0   9  116.16   11.04
  -8   0   9  113.14   10.49
  -9  -8   0  112.48   10.24
   8   0  -9  107.83   10.30
   0   9   8  101.03    7.33
   8   0   9  105.35    9.33
  -8   0  -9  109.30   11.01
  -8   0  -9  100.68   10.67
  -9   8   0  114.23    8.93
  -8   0  -9  111.11    8.96
   9  -8   0   95.74    8.47
   0  -9   8  105.69    7.92
   8   0  -9  104.08    9.91
   0   9   8  110.74    9.76
   8   0   9  112.32    8.42
   0   9   8  106.35   10.33
  -8   1   9  134.47   11.34
  -9  -8  -1  157.89    8.88
  -1  -9  -8  150.12   11.54
   9   8  -1  147.37   10.91
  -1   9  -8  142.95   10.35
   1   9  -8  142.73   10.80
   1  -9  -8  154.25   11.32
   9   8   1  144.01   10.69
  -9   8   1  157.97   11.47
  -8  -1   9  143.59   12.35
  -8   1   9  157.19   12.37
  -9  -8   1  146.64   11.55
   8  -1   9  147.15   10.94
   8  -1  -9  152.65   12.14
   8   1  -9  149.49   12.38
   1   9   8  148.53    9.50
   8   1   9  140.43   10.85
  -8  -1  -9  136.91   12.45
  -8  -1  -9  136.31   12.52
  -8  -1  -9  150.55   10.22
  -1  -9  -8  142.35   12.63
  -8   1  -9  142.24   12.03
   9  -8   1  148.87   10.89
   1  -9   8  149.19    9.81
   9  -8  -1  146.33   10.06
  -1  -9   8  146.04   11.51
  -1  -9   8  152.33    9.09
   8   1  -9  153.94   11.83
   8   1   9  156.30   10.07
   9  -8  -1  154.97   11.82
   1   9   8  153.69   11.69
  -1   9   8  159.39   11.51
   1  -9  -8  148.53    9.54
   8  -1  -9  154.04   12.36
  -8  -1   9  142.34    9.82
  -8   1  -9  143.02   10.75
  -9   8  -1  156.14   10.90
   1   9   8  143.94   11.84
  -1   9   8  152.92   12.43
  -8  -2   9   12.12    3.57
  -8   2   9   12.18    3.25
  -2  -9  -8   22.73    5.55
  -2  -9   8   20.24    3.80
  -9  -8  -2   15.83    2.98
   9   8  -2   18.32    4.02
   8   2  -9   11.77    2.97
  -2  -9  -8   26.70    4.91
   9   8   2   15.53    3.29
  -2   9  -8   16.89    3.37
  -9   8   2   16.31    3.96
   2   9  -8   13.97    3.50
  -9  -8   2   16.85    3.79
  -9  -8  -2   20.08    4.60
  -8  -2   9    7.13    2.39
   8  -2   9   12.23    2.88
  -8   2   9   14.40    3.69
  -8  -2   9   10.97    3.28
  -8   2   9   13.74    3.50
   2   9   8   22.60    3.96
   8   2   9   12.61    3.39
   8  -2  -9   11.30    3.46
   8  -2   9   11.85    3.08
  -8  -2  -9   10.96    3.63
  -8   2  -9   14.87    3.58
  -8  -2  -9   12.04    3.61
  -9  -8  -2   20.00    4.18
  -8   2  -9   13.93    3.44
  -8   2  -9   14.07    3.88
  -8  -2  -9   11.18    3.64
  -8   2  -9    9.34    2.90
  -9   8  -2   17.55    3.85
  -8  -2  -9   13.50    2.92
   9  -8  -2   16.43    3.52
   9  -8   2   14.98    3.63
   2  -9   8   17.48    3.44
  -2  -9   8   20.00    4.45
   8   2   9   12.77    2.97
   2  -9  -8   18.13    3.47
   8  -2  -9    8.93    2.71
   8   2  -9    9.34    2.62
   9  -8  -2   19.15    4.34
  -2   9   8   19.15    4.12
   2   9   8   23.17    4.65
  -2   9   8   19.59    4.76
  -8  -3   9   12.70    3.23
  -8   3   9   17.71    4.20
  -3  -9   8   11.19    2.62
  -3   9  -8   15.04    3.14
  -9  -8  -3   15.98    2.91
  -3  -9  -8   16.44    3.74
   8   3  -9   14.57    3.49
  -9   8   3   17.58    4.11
   9   8  -3   16.98    3.71
  -8   3   9   13.50    3.21
   3   9  -8   15.55    3.70
   9   8   3   19.09    4.10
  -9  -8   3   14.50    3.74
  -9  -8  -3   14.08    3.83
  -8  -3   9   12.01    3.20
  -8   3   9   12.80    3.88
   9  -8  -3   20.49    4.39
  -8  -3   9   12.77    3.03
  -8   3   9   16.24    4.05
   8   3  -9   17.92    4.21
   3   9   8   18.42    3.59
   3   9  -8   14.83    3.56
   8   3   9   17.17    4.22
   8  -3   9   16.82    3.76
   8  -3  -9   14.90    3.76
  -8   3  -9   19.51    4.27
  -8  -3  -9   13.11    3.27
  -8  -3  -9   14.42    4.23
  -9  -8  -3   18.16    4.04
  -3  -9  -8   12.46    3.76
  -8   3  -9   15.28    4.32
  -8  -3  -9   19.83    4.89
  -8   3  -9   14.13    3.47
  -9   8  -3   18.32    4.06
   9  -8   3   18.85    4.31
   3  -9   8   17.99    3.76
  -3  -9   8   15.40    3.66
  -3   9   8   15.60    3.44
   3  -9  -8   16.63    3.58
   8  -3  -9   16.07    3.66
   9  -8  -3   18.49    4.13
   3   9   8   13.67    3.81
   8   3   9   16.51    3.26
   3   9   8   17.23    4.11
  -9  -8  -4   63.09    6.23
  -4  -9   8   57.91    6.40
  -8  -4   9   59.43    7.24
  -8   4   9   59.51    7.33
   9   8   4   63.13    7.32
   8   4  -9   57.64    6.94
  -9   8   4   65.05    8.11
  -8   4   9   62.38    7.44
   9   8  -4   66.11    7.68
  -8  -4   9   60.42    7.86
  -8   4   9   66.46    8.18
   9  -8  -4   59.87    6.84
  -8  -4   9   57.64    7.34
  -8   4   9   55.67    7.33
  -9  -8   4   67.68    7.39
  -9  -8  -4   67.63    8.22
   4   9  -8   75.10    8.45
   8  -4  -9   59.79    7.29
   4   9   8   64.91    7.38
   8   4   9   59.84    7.31
   8   4  -9   61.45    7.85
   8  -4   9   63.05    7.01
  -9  -8  -4   58.78    7.47
  -8   4  -9   62.66    8.14
  -8  -4  -9   54.79    7.72
  -4  -9  -8   56.91    7.94
  -8   4  -9   62.53    7.33
  -8  -4  -9   58.47    7.01
   4  -9   8   65.50    7.26
   8  -4   9   64.58    7.65
  -4  -9   8   68.07    7.94
   9  -8   4   71.49    8.26
   4   9   8   69.06    7.96
   9  -8  -4   73.90    8.42
  -4   9   8   62.37    6.54
  -4   9  -8   66.95    6.87
   4  -9  -8   66.77    7.41
   8  -4  -9   65.95    8.03
   8   4   9   58.58    6.39
  -4   9   8   67.07    8.09
  -4   9  -8   65.48    8.00
  -8   4  -9   67.40    7.93
  -9   8  -4   71.66    8.07
   4   9   8   70.28    7.72
   5  -9   8  225.57   12.86
  -5  -9   8  224.81   12.34
  -8  -5   9  232.52   14.14
  -8   5   9  231.65   14.15
   8   5  -9  229.88   14.16
   9   8   5  230.87   13.97
   9   8  -5  238.91   14.32
  -8   5   9  227.36   14.53
  -8  -5   9  243.00   15.22
  -8   5   9  244.42   15.30
  -8  -5   9  230.13   14.09
  -8   5   9  222.51   14.16
   9  -8  -5  240.86   13.67
  -9  -8   5  237.09   13.56
   5   9  -8  224.94   14.93
   8  -5   9  235.70   13.31
   8  -5  -9  240.79   13.90
   5   9   8  239.27   14.87
   9   8  -5  240.56   14.09
  -9  -8  -5  226.13   15.49
  -8   5  -9  239.52   15.88
  -8  -5  -9  229.50   15.43
  -5  -9  -8  224.12   15.80
  -8   5  -9  257.05   14.51
  -8  -5  -9  257.51   14.36
   5  -9   8  229.44   14.13
  -5  -9   8  210.49   14.19
   5  -9  -8  223.71   14.21
   8   5   9  244.88   13.52
  -8   5   9  244.13   15.50
  -8  -5   9  237.96   14.97
  -9   0   9    8.03    2.94
   0  -9  -9    2.06    2.29
   0   9  -9    3.81    1.98
   9   9   0    4.42    2.01
  -9   9   0    0.34    0.71
  -9  -9   0   -0.62    1.69
  -9   0   9    2.38    1.29
  -9   0   9    0.24    1.64
   9   0   9    4.67    2.00
   9   0  -9    2.00    1.24
  -9   0  -9    4.63    1.69
  -9   0  -9    6.08    2.60
  -9   0  -9    3.59    2.40
  -9   0  -9    5.60    2.42
   9  -9   0    2.24    1.73
   9   0   9    4.05    1.77
   0   9   9    2.31    0.99
   9   0  -9    4.12    2.56
   0   9   9    2.88    1.97
  -9   0   9    5.13    2.35
  -1  -9  -9   30.74    5.96
  -9   1   9   36.63    5.86
   9   9  -1   38.79    5.77
  -1   9  -9   37.18    5.52
   1   9  -9   38.63    5.92
   9   9   1   40.25    5.85
  -9   9   1   38.70    5.67
  -9   9  -1   40.34    5.46
  -9   1   9   41.65    6.60
  -9  -9   1   35.09    5.67
  -9  -1   9   32.19    5.86
   9  -1   9   36.38    5.35
   9  -1  -9   40.70    6.43
   9   1  -9   42.14    6.66
   1   9   9   36.59    4.71
   9   1   9   39.57    5.89
  -9   1  -9   35.44    6.09
  -9   1  -9   42.21    5.98
  -9  -1  -9   33.27    6.15
  -9  -1  -9   39.42    5.40
  -9  -1  -9   37.77    6.43
  -9   1  -9   35.19    5.70
   9   1   9   39.25    6.08
   9  -1   9   31.93    5.64
   9  -9   1   43.09    6.03
   1  -9   9   39.59    5.08
  -1  -9   9   36.03    5.70
   9  -9  -1   34.85    4.83
   9   1  -9   33.49    5.86
   9  -9  -1   35.88    5.86
   1   9   9   41.41    6.16
  -1   9   9   34.80    5.52
   1  -9  -9   39.40    4.95
   9  -1  -9   38.24    6.05
  -9   9  -1   41.10    5.44
  -9  -1   9   38.22    6.61
   1   9   9   42.03    6.35
  -1   9   9   40.88    6.42
  -9  -9  -2   58.38    5.84
  -2  -9   9   52.60    6.36
  -9  -2   9   57.62    7.49
  -9   2   9   58.20    7.38
  -2   9  -9   53.93    6.36
   2   9  -9   57.92    7.13
  -9   9   2   54.67    7.10
   9   9   2   52.17    6.80
   9   9  -2   52.56    6.80
  -9  -2   9   63.80    8.45
  -9   2   9   56.77    7.93
  -9  -2   9   57.77    7.70
  -9   2   9   54.93    7.33
  -9  -9   2   53.83    6.96
  -9  -9  -2   50.30    7.10
   9  -2   9   60.30    6.74
   9  -2  -9   63.71    7.85
   2   9   9   53.16    6.07
   9   2   9   60.55    7.24
  -9  -2  -9   60.18    8.44
  -2  -9  -9   49.05    7.55
  -9   2  -9   62.34    8.83
  -9  -2  -9   58.81    8.36
  -9  -2  -9   64.26    6.58
  -9   2  -9   62.08    7.72
  -9  -2  -9   60.97    7.45
   9  -9  -2   53.96    6.14
   9  -9   2   59.76    7.20
   2  -9   9   58.40    6.43
   9  -2   9   65.39    7.67
  -2  -9   9   58.05    7.13
   9   2  -9   63.67    7.58
   9  -9  -2   53.59    7.15
  -2   9   9   57.63    6.89
   2  -9  -9   61.85    6.56
   9  -2  -9   69.56    8.29
  -2   9   9   57.40    7.94
  -9   9  -2   54.90    6.62
  -9   2   9   65.51    8.59
  -9  -2   9   61.43    8.00
  -9   2  -9   69.10    7.92
   2   9   9   68.17    8.20
  -9  -9  -3    9.14    2.57
   9   3  -9    5.81    2.06
  -9  -9   3    5.37    2.38
   9  -9  -3    8.96    2.48
   3   9   9    7.75    2.74
   9  -3  -9    9.16    2.67
   9  -3   9    6.05    2.09
   3  -9   9    5.32    2.24
  -3  -9   9    7.23    2.09
   3  -9  -9   10.74    2.44
  -3   9   9   12.75    3.48
  -9   9  -3    8.31    2.41
   3   9   9    8.53    2.94
  -9  -9  -4    3.18    1.45
   9  -9  -4    4.27    2.01
  -4   9   9    4.24    1.94
   4   9   9    3.92    2.04
 -10   0   0 1518.88   34.31
   0 -10   0 1668.83   33.61
   0  10   0 1645.29   30.09
  10   0   0 1591.64   33.76
   0   0 -10 1702.55   32.87
  10   0   0 1646.33   24.74
   0   0  10 1646.56   33.83
   0   0 -10 1662.86   35.42
   0   0  10 1684.35   25.77
  10   0   0 1587.82   25.72
  10   0   0 1602.05   24.62
 -10   0   0 1601.36   36.28
   0   1 -10    2.42    1.89
   0  -1 -10    2.14    1.84
   1 -10   0    0.72    1.28
  -1 -10   0    0.88    0.93
 -10   0  -1    2.50    0.99
 -10   0   1    1.53    1.07
   1  10   0    0.93    1.01
  -1  10   0    0.87    0.85
  10   0  -1    1.61    0.90
   0  -1 -10    0.25    0.26
   0   1 -10    3.64    1.83
   0   1  10    1.61    1.26
  10   0   1    2.49    0.91
 -10   0  -1    1.87    1.43
  10   0  -1    1.39    0.94
   0  -1  10    0.31    0.86
   0  -1  10    2.27    0.86
  10   0   1    1.48    0.31
  -1 -10   0    0.30    0.54
   0   1  10    1.24    1.13
  10   0  -1    1.67    0.99
   0  -1 -10    1.22    0.71
   1  10   0    1.25    1.13
  -1  10   0    1.92    0.63
 -10   0  -1   -0.51    1.20
 -10   0   2  445.40   19.01
   2 -10   0  438.77   16.97
  -2  10   0  439.90   13.86
   2  10   0  425.65   16.96
  10   0  -2  471.48   19.23
   0  -2 -10  435.89   14.79
   0   2 -10  412.42   17.79
   0  -2  10  412.80   17.53
   0   2  10  417.96   16.54
  10   0   2  462.11   14.72
 -10   0  -2  450.57   19.02
   0   2 -10  402.31   15.09
  10   0   2  449.17   15.69
   2 -10   0  441.23   18.62
   0  -2  10  422.59   12.77
   0  -2  10  410.15   11.61
  -2 -10   0  434.18   17.46
  10   0  -2  443.73   14.50
  -2  10   0  447.95   18.89
   2  10   0  429.70   19.06
   0   2  10  424.78   17.63
 -10   0   2  456.90   19.55
 -10   0  -2  446.70   18.57
 -10   0   2  454.68   20.85
 -10   0   3   66.89    7.39
   3 -10   0   70.36    6.63
  -3 -10   0   68.10    6.98
   3  10   0   64.37    6.71
  -3  10   0   70.90    5.15
  10   0  -3   68.04    7.55
   0   3 -10   80.46    8.21
   0  -3 -10   85.57    6.12
   0   3  10   83.73    7.42
  10   0   3   75.51    6.17
   0   3 -10   85.60    6.21
   3 -10   0   71.43    7.52
  10   0   3   75.15    6.84
   0  -3  10   85.34    5.88
  -3 -10   0   75.61    7.41
   0  -3 -10   88.46    7.79
  -3  10   0   66.79    7.20
  10   0  -3   76.23    6.48
   3  10   0   79.02    8.14
   0   3  10   93.39    8.37
  -3  10   0   70.34    5.90
 -10   0   3   74.95    8.05
 -10   0   3   72.74    8.31
 -10   0   4  743.99   25.19
   4 -10   0  787.66   21.65
  -4 -10   0  788.35   24.00
   4  10   0  751.03   24.05
 -10   0   4  743.76   25.37
  10   0  -4  749.39   25.66
   0   4 -10  777.22   26.56
   0   4  10  737.79   21.59
  10   0   4  751.05   20.84
 -10   0  -4  757.02   24.94
 -10   0  -4  741.96   24.66
   4 -10   0  755.94   24.66
  10   0   4  764.24   22.71
   0  -4  10  776.26   17.94
  -4 -10   0  782.32   24.36
   0  -4 -10  754.03   22.69
   0   4  10  761.08   24.13
  10   0  -4  732.27   21.02
   4  10   0  759.74   24.81
 -10   0   4  749.33   25.40
  -4  10   0  770.23   19.88
  -4  10   0  764.31   23.77
 -10   0   4  745.52   27.04
 -10   0   5   -1.34    1.20
  -5 -10   0   -0.98    0.97
   5 -10   0    0.99    1.10
   0   5 -10    2.38    1.92
   0  -5 -10   -0.37    0.87
 -10   0   5    0.39    1.08
  -5 -10   0    1.63    1.66
   0   5  10    2.43    1.17
  10   0   5   -0.14    0.57
  10   0  -5    0.61    1.12
 -10   0  -5   -0.18    0.86
  -5  10   0    0.47    0.69
 -10   0  -5   -0.18    0.86
  -5 -10   0    0.35    0.91
   5 -10   0    1.59    1.70
  10   0   5    0.96    1.35
   0  -5  10    0.18    1.16
   0  -5  10    0.85    0.93
  10   0  -5    1.02    1.37
   0  -5 -10    1.88    1.22
   0   5  10    0.51    2.02
 -10   0   5    0.19    0.68
   5  10   0    2.08    1.74
 -10   0   5    0.22    0.46
  -5  10   0    0.61    0.55
  -6 -10   0  779.61   23.80
 -10   0   6  736.81   25.89
   6 -10   0  804.78   20.91
   0   6 -10  717.76   25.03
   6  10   0  677.01   23.65
  -6  10   0  716.13   22.43
   0   6 -10  714.01   24.00
   0  -6 -10  713.01   24.36
  10   0  -6  762.48   27.33
 -10   0   6  719.35   25.85
   0  -6  10  636.96   23.75
  -6 -10   0  709.55   25.07
   0   6  10  741.41   21.28
  10   0   6  725.56   22.33
   0  -6  10  719.84   25.31
 -10   0  -6  734.09   25.61
 -10   0  -6  773.84   25.69
   0  -6  10  724.71   18.16
  10   0   6  733.33   24.22
   6 -10   0  749.11   25.07
  -6 -10   0  708.70   24.70
   6  10   0  734.15   24.03
   0  -6 -10  742.43   22.14
   0   6  10  722.63   24.59
  10   0  -6  736.79   23.53
 -10   0   6  737.07   25.52
 -10   0   6  735.19   27.86
  -6  10   0  716.58   21.71
  -7 -10   0   36.19    4.85
 -10   0   7   31.68    5.50
   0   7 -10   43.17    6.15
   7  10   0   37.46    5.75
  -7  10   0   32.13    4.71
   0   7 -10   37.28    5.10
   0  -7 -10   40.69    5.47
 -10   0   7   31.35    5.58
  -7 -10   0   31.92    5.49
   0   7  10   38.53    4.83
  10   0   7   28.12    4.70
 -10   0  -7   34.70    5.66
 -10   0  -7   32.08    6.02
 -10   0  -7   36.51    5.78
  10   0   7   31.83    5.35
   0  -7  10   41.45    6.25
   7 -10   0   28.48    5.06
  -7 -10   0   31.56    5.35
   0  -7 -10   41.16    5.10
   7  10   0   39.26    5.40
   0   7  10   41.41    5.98
  10   0  -7   33.01    5.54
   0   7  10   39.14    6.14
 -10   0   7   31.61    5.33
  -7  10   0   36.52    4.66
 -10   0   7   28.13    5.37
  -8 -10   0  119.21    8.74
 -10   0   8  105.85   10.26
   0   8 -10  107.71    9.72
   8  10   0  108.37    9.74
  -8  10   0  124.32    9.59
 -10   0   8  130.39   11.95
 -10   0   8  123.25   11.20
  10   0  -8  120.81   11.42
  10   0   8  122.12    9.91
   0  -8 -10  104.22   11.25
 -10   0  -8  132.84   10.72
 -10   0  -8  124.59   12.11
 -10   0  -8  123.06   10.72
  10   0   8  121.64   10.40
   8 -10   0  131.16   10.60
  10   0  -8  123.06   10.43
   0   8  10  105.28    9.77
   0   8  10  111.82   10.45
 -10   0   8  122.46   10.32
 -10   0   8  115.57   11.40
 -10   1   0   80.64    7.94
   0 -10   1   87.56    7.74
   0 -10  -1   95.72    8.36
   0  10  -1   84.08    6.98
   0  10   1   85.76    6.92
  10  -1   0   75.35    7.54
  10   1   0   80.07    7.44
   1   0  10   70.22    7.12
   1   0 -10   71.21    6.89
  -1   0  10   67.40    6.69
  -1   0 -10   67.73    7.31
   0 -10  -1   83.60    6.21
 -10   1   0   77.81    7.84
   1   0  10   76.37    6.00
  -1   0  10   69.22    4.67
  10   1   0   88.32    5.89
  10  -1   0   82.46    5.96
   0 -10   1   91.61    8.14
   0  10   1   81.21    8.30
   1   0  10   71.61    7.34
  -1   0  10   74.90    7.23
  10  -1   0   84.92    6.21
 -10   1   0   83.37    8.19
  -1   0 -10   72.28    5.47
   1 -10   1   21.33    3.66
  -1  -1 -10   27.47    4.83
 -10   1  -1   22.14    4.22
 -10   1   1   26.48    4.51
  -1 -10   1   20.46    3.91
   1 -10  -1   20.73    3.81
  -1 -10  -1   23.72    4.26
  -1  10  -1   21.20    3.24
   1  10  -1   21.66    3.71
   1  10   1   20.73    3.53
  -1  10   1   21.06    3.23
  10   1   1   23.31    3.96
  10  -1  -1   24.18    4.34
  -1  -1  10   22.97    4.06
   1   1  10   22.20    4.12
  10   1   1   27.82    3.81
  10   1  -1   22.35    4.03
   1  -1  10   26.00    4.54
  -1   1  10   22.29    3.79
   1  -1 -10   24.28    3.82
   1   1 -10   26.04    4.27
   1   1 -10   24.89    4.17
 -10   1  -1   22.16    4.16
  -1   1 -10   28.18    4.48
  10   1   1   25.07    3.52
   1  -1  10   22.76    3.28
  -1  -1  10   19.64    2.42
  10  -1   1   26.74    3.62
  10  -1  -1   21.11    2.75
  -1 -10  -1   24.23    3.98
  -1   1  10   25.40    4.19
   1  -1  10   27.00    4.56
   1 -10  -1   25.83    4.36
   1  10  -1   26.64    4.76
  10  -1  -1   20.61    3.26
  -1  -1  10   28.23    4.60
  10   1  -1   23.83    3.00
  10  -1   1   16.59    2.47
  -1   1 -10   27.59    3.79
   1  -1 -10   25.82    2.69
 -10   1  -1   23.20    4.44
 -10  -1  -1   23.27    4.51
  -1  -1 -10   26.10    2.93
  -1  10  -1   21.86    4.14
   1  10   1   20.78    4.17
 -10  -1   1   22.02    4.44
   2 -10   1  126.94    9.12
 -10   1   2  134.59   10.45
   2 -10  -1  128.23    9.39
   2  10  -1  117.73    8.99
  -2  10   1  121.31    7.24
   2  10   1  125.40    9.25
  -2  10  -1  122.13    7.41
  -1   2 -10  141.79   11.35
  -1  -2 -10  151.16   11.69
  10   1   2  135.49    9.23
  10  -1  -2  119.88    9.76
  10   1  -2  125.04    9.77
   1   2  10  134.20    9.73
  -1  -2  10  129.58    9.80
  10   1   2  123.10    8.06
  -1   2  10  132.71    9.09
  10  -1   2  134.00    7.32
   1  -2 -10  136.96    8.65
   1   2 -10  126.35    9.98
   1   2 -10  137.74    8.69
  -1  -2 -10  145.32   11.59
  -1   2 -10  138.64    9.09
 -10   1  -2  127.27   10.07
  10   1   2  122.40    8.18
  10  -1   2  139.43    8.91
   1  -2  10  137.23    7.97
  -1  -2  10  140.09    6.48
  -2 -10   1  126.83    9.74
  -2 -10  -1  127.73    9.09
  -1  -2  10  137.39    6.62
   2 -10  -1  131.01    9.94
  -1   2  10  144.73   10.11
  -2  10  -1  125.57    9.98
   1  -2 -10  136.41   10.22
   2  10  -1  117.86    9.97
   2  10   1  113.74    9.77
  10  -1   2  129.62    7.09
  10  -1  -2  124.31    8.18
  10   1  -2  128.83    7.38
  -2  10   1  125.60    7.01
 -10   1   2  123.96   10.33
 -10  -1   2  132.97   10.73
 -10   1  -2  124.68    9.71
  -2  10   1  122.64    9.98
 -10  -1   2  127.16   10.94
 -10   1   3   -1.08    0.92
  -3 -10  -1    0.50    1.16
   3 -10   1    0.27    0.29
  -1  -3 -10    2.94    2.57
  -3 -10   1    1.34    0.99
   3 -10  -1   -0.14    0.99
  -1   3 -10    0.97    1.47
  -1  -3 -10   -0.20    0.41
  -3  10   1    1.85    0.97
  -3  10  -1   -0.25    0.24
   3  10   1    1.58    1.10
   3  10  -1    1.10    1.36
   1  -3  10    0.34    1.85
  -1  -3  10    1.48    0.85
   1  -3 -10    0.72    1.31
   1   3 -10    2.38    1.58
  10  -1   3   -1.51    1.44
   1   3  10    1.50    1.34
  10  -1  -3    0.90    1.73
  10   1  -3   -0.53    0.99
  -1   3  10    0.91    0.67
  10   1   3    0.63    1.03
  -1   3 -10    0.11    0.32
   1   3 -10    0.09    0.56
 -10   1  -3    0.53    0.99
 -10  -1  -3    2.61    1.94
  -3 -10  -1    1.77    1.52
   1  -3  10    1.46    1.05
   3 -10  -1   -0.67    0.50
   3 -10   1    0.51    1.71
  -1  -3  10   -0.07    0.63
  10   1   3    1.47    1.09
   1  -3  10    2.77    1.70
  -1  -3  10   -0.17    0.61
  10  -1   3    2.75    1.47
  -1  -3  10    0.09    0.76
  -3 -10   1   -0.84    1.37
  10  -1  -3    0.64    0.38
  10   1  -3   -0.97    0.71
   1  -3 -10    0.97    1.31
  -1   3  10    0.62    0.46
  -3  10  -1    1.64    1.06
 -10   1   3    1.66    1.22
   3  10  -1   -0.72    1.13
 -10  -1   3    0.92    1.28
   3  10   1    1.41    0.83
  -3  10  -1    1.15    1.04
  -3  10   1    1.68    1.58
 -10  -1   3    1.86    0.97
 -10   1  -3   -0.31    0.56
   4 -10  -1   56.54    5.99
  -4 -10  -1   58.80    6.51
   4 -10   1   58.81    6.01
 -10   1   4   50.30    6.51
  -4 -10   1   49.61    5.89
   4  10  -1   52.56    6.40
   4  10   1   48.27    6.23
  -1   4 -10   47.40    6.53
  -1  -4 -10   53.72    7.04
  10   1  -4   58.20    7.27
   1  -4  10   54.00    6.72
  -1  -4  10   53.43    6.51
  10  -1  -4   52.66    6.92
   1   4 -10   55.83    7.17
   1   4  10   51.00    5.98
  -1   4  10   52.31    5.49
   1  -4  10   50.08    6.52
  10   1   4   56.28    5.99
  10  -1   4   63.78    5.82
   1  -4 -10   51.13    4.43
 -10   1  -4   55.03    6.74
 -10  -1  -4   53.00    6.57
  -1  -4 -10   51.44    7.29
  10   1   4   51.33    5.77
   4 -10  -1   53.82    6.54
  10  -1   4   59.48    6.37
   1  -4  10   50.68    4.92
  -1  -4  10   54.62    5.25
  -4 -10   1   53.32    6.58
  -4 -10  -1   57.81    6.57
   4 -10   1   53.08    6.55
  -1  -4  10   54.53    4.14
  -4  10  -1   60.06    6.49
   1  -4 -10   50.09    6.14
   4  10  -1   57.79    6.82
   4  10   1   54.15    6.67
  10  -1  -4   48.97    5.67
  -1   4  10   52.55    6.23
  10   1  -4   55.09    5.61
 -10  -1   4   51.26    6.72
  -4  10  -1   57.35    5.77
 -10  -1   4   52.70    7.24
  -4  10   1   49.30    6.03
   5 -10  -1   37.41    4.76
  -5 -10  -1   37.40    5.19
   5 -10   1   33.30    4.36
 -10   1   5   33.55    5.52
  -5 -10   1   39.21    5.27
   1   5 -10   42.50    6.01
  -5  10  -1   28.52    4.26
  -1   5 -10   37.16    5.61
  -1  -5 -10   34.89    5.49
 -10   1   5   31.77    5.33
   1  -5  10   41.85    5.93
  -1  -5  10   36.38    5.44
  -5 -10  -1   34.92    5.44
  10   1  -5   35.84    5.86
   1  -5  10   34.45    5.33
  -1   5  10   37.05    4.60
  10   1   5   29.41    4.44
  10  -1  -5   27.30    4.95
  10  -1   5   30.88    4.34
   1   5  10   36.34    5.13
 -10   1  -5   33.71    5.48
 -10   1  -5   31.79    5.34
 -10  -1  -5   33.95    5.38
   5 -10  -1   32.65    5.31
  10   1   5   31.20    4.95
  10  -1   5   35.26    5.20
  -1  -5  10   39.25    4.82
   5 -10   1   32.63    5.26
   1  -5  10   39.16    4.52
  -5 -10   1   29.51    5.14
  -5 -10  -1   29.32    4.88
   1  -5 -10   41.77    5.51
  -1  -5 -10   33.25    4.44
   5  10  -1   27.51    4.78
   5  10   1   31.65    5.07
  -1   5  10   43.00    5.74
  10  -1  -5   28.14    4.33
  10   1  -5   31.51    4.55
 -10  -1   5   30.06    4.99
  -5  10  -1   27.58    4.13
  -5  10  -1   29.71    4.50
  -5  10   1   30.71    4.57
 -10  -1   5   28.62    5.25
  -6 -10   1   91.53    8.24
  -6 -10  -1   78.93    7.44
 -10   1   6   82.55    8.80
   6 -10   1   84.91    6.68
   1   6 -10   69.41    7.86
   6  10  -1   89.78    8.60
  -6  10   1   86.03    8.15
  -6  10  -1   84.76    7.33
   6  10   1   82.45    8.09
  -1   6 -10   75.08    7.70
  -1  -6 -10   77.05    7.87
 -10   1   6   76.88    8.43
   1  -6  10   83.54    8.64
  -1  -6  10   83.67    8.38
  10   1  -6   81.92    8.88
  -6 -10  -1   84.06    8.60
   1  -6  10   74.19    8.05
   1   6 -10   78.13    8.95
  -1   6  10   79.89    6.59
  -1  -6  10   74.40    8.20
  10   1   6   89.01    8.09
  10  -1   6   77.68    7.11
   1   6  10   82.23    7.56
 -10   1  -6   77.63    8.27
 -10   1  -6   89.93    8.90
 -10  -1  -6   82.21    8.18
   6 -10  -1   81.16    8.18
  10   1   6   76.96    7.87
  10  -1   6   79.54    7.99
   6 -10   1   82.40    8.39
  -1  -6  10   78.39    7.23
  -6 -10   1   83.73    8.68
  -6 -10  -1   82.10    8.14
   1  -6  10   84.52    6.82
  -1  -6 -10   75.65    6.59
   6  10  -1   77.77    7.85
   1   6  10   69.07    7.59
  -1   6  10   83.07    8.18
  10  -1  -6   84.46    8.07
   6  10   1   76.03    7.84
  10   1  -6   78.26    7.46
   1  -6 -10   80.88    7.68
 -10  -1   6   77.86    9.05
 -10  -1   6   78.64    8.36
  -6  10  -1   88.25    7.46
  -6  10   1   78.53    7.45
  -6  10  -1   85.95    7.48
 -10   1   7    0.81    1.48
  -7 -10  -1    1.62    0.87
  -7 -10   1    1.03    0.82
  -1  -7 -10   -0.26    1.53
  -1   7 -10    1.27    0.74
  -1  -7 -10   -0.16    1.41
   1   7 -10    0.80    1.30
   1  -7 -10    1.65    1.70
   7  10   1    1.84    1.64
   1   7 -10    0.39    0.58
   7  10  -1   -0.19    0.96
  -7  10   1    0.51    0.88
  -7  10  -1    1.27    1.15
   1  -7  10    1.57    1.48
  -7 -10  -1    1.20    0.94
 -10   1   7    1.24    0.75
  10  -1   7    0.62    0.65
  10   1   7    0.84    1.65
  10  -1  -7    3.70    2.24
  10   1  -7    3.13    2.05
   1   7  10    0.73    2.05
 -10   1  -7    0.98    1.88
 -10  -1  -7   -1.53    0.76
  -7  10  -1    0.59    0.69
 -10   1  -7    0.19    1.07
 -10  -1  -7    2.48    1.79
  -7 -10   1    0.41    1.28
  -7 -10  -1    4.37    1.95
   1  -7  10    0.84    0.57
  10   1   7   -0.55    0.86
   7 -10  -1    0.53    0.91
   1  -7  10    1.77    1.85
  10  -1   7    0.18    0.39
  -1  -7  10    2.45    1.24
   7 -10   1   -0.56    1.12
  10  -1  -7   -0.37    0.55
   1   7  10    1.71    1.83
   1  -7 -10    3.21    1.76
  10   1  -7    0.51    1.02
  -1   7  10    0.72    0.85
  -7  10  -1   -0.63    0.37
  -7  10   1    1.70    0.73
   1   7  10    0.19    1.50
  -1   7  10    1.24    1.62
 -10  -1   7    0.37    0.55
   7  10  -1   -0.83    1.11
   7  10   1   -0.32    0.81
 -10  -1   7    2.08    0.84
  -8 -10   1   66.71    6.46
  -8 -10  -1   67.48    6.59
 -10   1   8   70.07    8.28
   8  10  -1   54.81    6.89
  -1   8 -10   72.81    7.90
   1   8 -10   74.70    8.34
   8  10   1   58.65    7.19
  -8  10   1   60.19    7.17
  -8  10  -1   65.23    6.69
 -10  -1   8   61.46    8.32
 -10   1   8   65.70    8.14
  -8 -10   1   54.78    7.13
  -8 -10  -1   59.27    7.67
  10  -1   8   70.58    7.28
  10  -1  -8   67.81    8.35
  10   1   8   69.14    7.47
   1   8  10   79.77    7.22
  -1  -8 -10   68.84    9.11
 -10   1  -8   68.64    7.83
 -10  -1  -8   68.43    7.46
 -10  -1  -8   65.34    8.85
 -10   1  -8   66.25    7.91
   8 -10  -1   66.53    7.54
  -8 -10   1   59.43    7.62
  10   1   8   70.86    7.85
  10  -1   8   68.31    7.80
   8 -10   1   67.09    7.75
  -1  -8  10   69.92    7.59
  10   1  -8   68.32    7.39
   1   8  10   72.90    8.29
  -1   8  10   71.11    7.92
  10  -1  -8   68.94    7.97
   1  -8 -10   68.81    6.94
 -10   1   8   68.89    7.89
   1   8  10   68.82    8.11
  -1   8  10   72.24    8.42
 -10  -1   8   74.24    7.93
 -10  -1   8   65.53    8.57
   0 -10  -2  216.04   12.60
   0 -10   2  188.40   11.43
 -10  -2   0  201.84   12.42
 -10   2   0  200.92   12.49
   0  10   2  198.40   10.87
  10   2   0  207.00    8.70
  -2   0 -10  221.32   14.29
   0  10  -2  194.16   10.64
  10   2   0  206.15   11.75
  -2   0  10  216.22   11.88
   2   0  10  204.15   12.53
   2   0 -10  209.54   12.17
 -10   2   0  206.00   12.60
  -2   0 -10  216.81   13.05
  10   2   0  208.51    9.08
   0 -10   2  192.72   11.74
  10  -2   0  211.02    9.91
   0 -10  -2  199.25   10.57
   2   0  10  226.35   12.97
  -2   0  10  223.76   12.31
  10  -2   0  221.20   10.72
 -10   2   0  206.91   12.93
  -2   0 -10  225.19   10.01
   0  10   2  189.76   12.79
   1 -10  -2  371.43   16.32
  -1 -10  -2  375.52   16.72
   1 -10   2  355.45   15.41
  -1 -10   2  363.19   15.80
 -10  -2  -1  331.47   15.91
 -10   2  -1  342.36   16.20
 -10  -2   1  345.34   16.39
 -10   2   1  328.98   16.10
   1  10  -2  333.52   14.58
   1  10   2  345.80   14.92
  10   2   1  350.80   11.42
  10   2  -1  354.66   11.43
  -1  10  -2  358.77   13.73
  -1  10   2  344.82   13.43
  -2  -1 -10  322.45   17.37
 -10  -2   1  358.25   15.61
  10  -2  -1  339.80   16.43
  10   2   1  348.35   14.81
  10   2  -1  342.36   15.61
  -2   1  10  331.33   14.17
   2   1  10  328.12   15.75
  -2  -1  10  351.58   15.48
   2  -1 -10  335.82   14.73
   2   1 -10  351.01   16.43
  -1 -10  -2  323.62   13.45
  -2   1 -10  340.88   15.48
 -10   2  -1  353.00   16.72
  -2  -1 -10  345.53   17.25
   1 -10   2  346.97   15.95
  10   2   1  363.69   13.16
  -2   1  10  355.70    9.40
   2  -1  10  340.23   13.40
  10  -2   1  367.32   14.09
  -1 -10  -2  364.72   14.42
  10  -2  -1  363.06   11.94
  -1 -10   2  344.78   15.47
   2   1  10  332.58   15.76
   2  -1 -10  349.24   16.89
   1  10  -2  350.82   17.20
  -2   1  10  345.00   15.18
  -1  10  -2  353.20   16.94
   2  -1  10  345.45   16.08
  10  -2   1  359.12   13.22
  10  -2  -1  347.38   13.81
 -10   2   1  330.08   16.44
 -10   2  -1  342.97   16.27
  -2   1 -10  344.96   13.41
 -10  -2   1  360.93   17.49
   1  10   2  361.39   17.39
  -2  -1 -10  348.83   11.21
   2 -10   2    6.70    2.18
   2 -10  -2    8.21    2.84
  -2 -10  -2    7.10    2.71
  -2  -2 -10    7.80    2.94
   2   2 -10    5.64    1.94
 -10  -2   2   10.20    2.62
 -10   2   2    6.74    1.81
  -2   2 -10    6.57    2.47
  -2  -2 -10    7.80    2.66
   2  10  -2    7.15    2.00
   2  10   2    5.71    2.05
  10   2  -2    7.74    1.62
  10   2   2    8.99    2.14
  -2  10   2   10.66    2.22
  -2  10  -2    6.99    1.95
  -2   2  10    6.33    1.84
  10   2   2    5.50    1.32
  10  -2  -2    8.10    2.82
 -10  -2   2    6.89    2.12
  -2  -2  10    6.67    2.21
   2  -2 -10    6.24    2.20
   2   2 -10    5.09    2.09
   2   2  10    7.76    2.56
  10   2  -2    5.94    1.96
  10   2   2    4.15    0.67
   2  -2  10    5.82    2.00
  -2   2 -10    4.33    1.47
 -10   2  -2    8.76    3.12
  -2 -10  -2    6.87    1.99
  -2 -10  -2    8.16    2.14
  -2  -2  10    6.87    1.36
  -2   2  10    6.38    2.03
  -2  -2  10    4.55    1.68
   2  -2  10    3.50    1.41
  -2 -10   2    9.33    2.81
  10  -2   2    8.77    2.35
  -2   2  10    4.55    1.88
   2  -2 -10    8.83    2.82
  -2 -10  -2    5.92    1.38
   2   2  10    5.57    2.12
  10  -2  -2    7.51    2.35
 -10   2   2    7.39    2.33
 -10  -2   2    4.61    2.59
  -2   2 -10    4.72    1.51
   2  10  -2    7.65    2.59
  -2  10  -2    6.31    2.26
 -10   2  -2    7.02    2.37
   2  10   2   11.84    2.87
 -10  -2   2    4.78    2.38
  -2  10   2   10.70    3.10
   3 -10  -2  930.38   24.82
   3 -10   2  917.30   24.33
  -3 -10   2  904.33   25.07
 -10  -2   3  916.65   27.37
 -10   2   3  932.81   27.76
  10   2   3  963.22   20.36
   3  10  -2  883.13   25.73
   3  10   2  897.44   25.77
  -3  10   2  891.98   18.50
  -3  10  -2  897.42   18.77
  -2   3 -10  911.62   28.99
  -2  -3 -10  899.92   28.93
  10   2  -3  919.82   27.40
 -10  -2   3  897.78   22.84
  10   2   3  904.45   22.83
   2  -3  10  912.37   26.95
  10  -2  -3  923.95   28.03
  -2  -3  10  907.23   25.90
   2   3  10  900.49   26.05
   2  -3  10  881.47   26.73
  10   2   3  914.79   24.09
  -2  -3  10  902.73   26.29
  -2   3  10  904.53   22.47
   2  -3 -10  946.44   22.34
   2   3 -10  921.66   28.22
  -2   3 -10  916.14   22.34
  -2  -3 -10  911.41   30.12
   2   3 -10  904.96   19.74
  -3 -10  -2  868.28   22.02
 -10   2  -3  947.83   28.00
  10  -2   3  924.44   24.73
   2  -3  10  925.59   22.70
  -3 -10   2  928.31   27.54
  -2  -3  10  902.44   19.54
  -3 -10  -2  922.34   24.11
   3 -10  -2  911.31   26.79
   2  -3 -10  893.43   26.68
   3  10  -2  909.62   27.89
  10  -2  -3  870.70   23.78
   2   3  10  910.70   26.25
  -3  10  -2  918.04   26.39
  -2   3  10  934.92   25.39
   3  10   2  949.12   27.93
 -10  -2   3  864.01   27.31
 -10   2  -3  908.86   25.11
  -3  10   2  885.86   26.51
 -10   2   3  891.05   29.21
 -10  -2   3  904.29   29.43
   4 -10  -2   50.91    5.59
  -4 -10  -2   50.49    6.13
   4 -10   2   51.59    5.73
  -4 -10   2   52.67    6.09
 -10  -2   4   50.36    6.40
 -10   2   4   48.99    6.50
   4  10   2   46.26    6.00
   4  10  -2   52.07    6.41
   2   4 -10   46.84    6.39
  -2   4 -10   52.74    6.81
  -2  -4 -10   52.01    6.84
   2  -4  10   57.77    6.85
  -2  -4  10   55.50    6.65
  -4 -10  -2   51.73    6.46
  10   2  -4   52.97    6.79
   2  -4  10   61.83    7.24
  -2  -4  10   51.68    6.47
  10   2   4   46.36    5.75
  -2   4  10   53.50    5.28
   2  -4 -10   55.56    5.09
  10  -2   4   53.16    5.11
   2   4  10   56.12    6.60
   2   4 -10   55.50    7.20
 -10   2  -4   55.90    6.78
 -10  -2  -4   48.83    6.34
  -2  -4 -10   49.90    7.34
 -10   2  -4   53.77    6.82
 -10  -2  -4   52.79    7.40
  10  -2   4   48.73    5.84
   2  -4  10   55.13    5.62
   4 -10   2   51.77    6.50
   4 -10  -2   48.01    6.06
  -2  -4  10   54.46    5.32
  -4 -10   2   52.48    6.64
  -4 -10  -2   52.07    5.95
   2  -4 -10   51.45    6.38
   4  10  -2   51.60    6.58
  -4  10  -2   51.94    6.22
   4  10   2   56.24    6.87
  10  -2  -4   53.05    6.09
   2   4  10   52.28    6.55
  -2   4  10   50.44    5.95
  10   2  -4   52.45    5.18
  -4  10  -2   49.09    5.72
 -10  -2   4   51.81    6.69
 -10   2   4   48.38    6.87
 -10  -2   4   46.30    7.00
  -4  10   2   56.39    6.68
   5 -10  -2  121.37    8.31
  -5 -10  -2  125.95    9.55
   5 -10   2  129.53    8.66
 -10  -2   5  124.50   10.51
 -10   2   5  121.37   10.33
  -5 -10   2  124.24    9.26
  -5  10  -2  128.19    8.16
  -2   5 -10   99.68    9.30
  -2  -5 -10  105.66    9.62
  10   2  -5  129.15   11.03
 -10  -2   5  126.27   10.64
 -10   2   5  123.17   10.49
   2  -5  10  113.09    9.76
  -2  -5  10   95.36    8.88
  -5 -10  -2  123.24   10.20
  10  -2   5  123.44    8.31
  -2  -5  10  109.30    9.73
  -2   5  10  102.17    7.09
  10   2   5  126.97    9.71
   2  -5  10  103.13    9.52
   2   5  10  106.23    9.00
 -10   2  -5  123.78   10.24
 -10  -2  -5  128.63   10.38
 -10  -2  -5  127.31   10.15
 -10  -2  -5  120.47   11.45
  10  -2   5  129.30   10.07
   5 -10  -2  124.74    9.91
   5 -10   2  121.68   10.22
   2  -5  10  105.85    7.94
  -2  -5  10  109.71    8.11
  -5 -10   2  123.36   10.57
  -5 -10  -2  115.52    9.10
  10   2  -5  122.02    8.52
   5  10  -2  120.11    9.95
  -5  10  -2  125.28    9.33
   2   5  10   96.82    8.94
  10  -2  -5  122.99    9.62
  -2   5  10  106.56    8.92
   2  -5 -10  109.29    9.38
 -10  -2   5  127.11   10.48
  -5  10  -2  125.31    9.37
   5  10   2  125.08   10.00
 -10   2   5  120.71   11.06
 -10  -2   5  125.48   11.35
  -5  10   2  124.79    9.74
  -6 -10  -2   86.93    7.89
   6 -10   2   82.29    6.74
 -10  -2   6   84.01    8.67
 -10   2   6   80.60    8.70
  -6 -10   2   94.02    8.08
   6  10  -2   85.40    8.65
  -6  10  -2   83.58    6.85
   6  10   2   85.80    8.41
  -2   6 -10   97.48    8.92
  -2  -6 -10   88.25    8.52
  10  -2  -6   83.23    9.07
 -10  -2   6   80.47    8.65
 -10   2   6   85.64    9.00
   2  -6  10   89.21    8.81
  -2  -6  10   97.30    9.08
  -6 -10   2   85.11    8.59
  -6 -10  -2   82.04    8.38
   2   6 -10  101.38   10.09
  10  -2   6   82.90    7.02
  10   2  -6   87.17    9.35
   2  -6  10   78.07    8.39
  10   2   6   86.31    8.10
   2   6  10   91.85    8.41
 -10   2  -6   86.40    8.62
 -10  -2  -6   92.31    8.89
  -2  -6 -10   91.57   10.30
 -10   2  -6   92.65    9.30
 -10  -2  -6   86.04    8.37
 -10  -2  -6   93.16   10.22
  10  -2   6   83.86    8.40
   6 -10  -2   86.58    8.30
   6 -10   2   88.85    8.85
  -2  -6  10   89.86    7.85
  -6 -10   2   86.39    9.00
   2  -6  10   94.99    7.66
  -6 -10  -2   93.85    8.58
  10   2  -6   84.41    7.67
   6  10  -2   85.09    8.44
   2   6  10   91.30    8.78
  -2   6  10  101.84    8.92
  10  -2  -6   86.70    8.40
   2  -6 -10   84.59    8.26
 -10  -2   6   82.44    8.29
   6  10   2   95.49    8.45
 -10   2   6   82.27    9.32
 -10  -2   6   84.49    9.49
  -6  10  -2   90.39    7.63
  -6  10  -2   94.81    8.40
  -6  10   2   90.35    8.10
  -7 -10   2  442.40   17.67
  -7 -10  -2  431.50   17.35
 -10  -2   7  391.38   19.24
 -10   2   7  406.45   19.38
   7  10  -2  391.43   18.60
   2   7 -10  399.32   19.22
  -7  10   2  392.24   18.24
   7  10   2  385.30   18.19
  -2   7 -10  383.66   16.82
  10  -2  -7  404.83   20.17
 -10  -2   7  373.76   18.99
 -10   2   7  410.29   19.68
   2  -7  10  424.50   19.72
  -7 -10   2  382.82   18.66
  -7 -10  -2  406.07   19.52
   2   7 -10  445.71   21.68
  10  -2   7  399.32   16.44
  10   2  -7  412.39   20.69
  10   2   7  404.87   18.12
   2  -7  10  420.29   19.41
   2   7  10  410.96   17.75
 -10   2  -7  419.07   19.56
 -10  -2  -7  406.99   19.32
  -2  -7 -10  424.45   22.44
 -10   2  -7  410.35   19.64
 -10  -2  -7  406.18   17.83
   7 -10  -2  405.42   17.94
  10  -2   7  393.93   18.46
   7 -10   2  389.32   18.77
  -2  -7  10  428.17   17.96
  -7 -10   2  393.47   19.58
   2  -7  10  422.38   16.35
  10   2  -7  427.10   17.84
   7  10  -2  407.82   17.92
   7 -10  -2  393.49   18.89
  -2   7  10  427.19   18.60
  10  -2  -7  414.02   19.07
   2  -7 -10  407.31   17.71
   2   7  10  419.60   18.86
 -10  -2   7  395.17   18.22
 -10   2   7  418.92   21.13
 -10  -2   7  398.26   20.69
   7  10   2  393.74   16.80
  -7  10   2  408.53   16.93
  -7  10  -2  419.07   17.74
  -8 -10  -2   17.67    3.35
  -8 -10   2   15.46    3.27
   2   8 -10   15.86    3.82
  -8  10   2   15.96    3.70
  -8 -10   2   17.63    4.04
 -10  -2   8   14.82    4.30
 -10   2   8   13.94    4.15
  10   2   8   13.29    3.44
   2   8  10   11.38    2.59
  10  -2  -8   15.78    3.65
  10  -2   8   14.57    3.21
 -10   2  -8   13.28    3.96
 -10  -2  -8   12.17    3.13
  -8  10  -2   18.99    3.70
 -10   2  -8   13.10    3.67
 -10  -2  -8    9.21    2.61
  -8 -10   2   18.83    4.34
   8 -10   2   12.72    3.10
   2  -8  10   14.73    3.31
   2  -8  10   16.26    3.91
   8 -10  -2   16.32    3.89
  -2  -8  10   13.13    3.53
  10  -2  -8   14.20    3.61
   2  -8 -10   12.42    3.01
  -2   8  10   15.55    3.68
  10   2  -8   12.52    3.16
   2   8  10   12.86    3.14
   8  10  -2   11.26    3.19
 -10   2   8   11.95    3.17
 -10  -2   8   12.31    3.22
 -10  -2   8   12.12    2.97
   0 -10  -3   30.48    4.70
   0 -10   3   29.99    4.37
 -10  -3   0   32.38    4.92
 -10   3   0   27.86    4.63
  -3   0 -10   35.44    5.53
  10   3   0   30.34    3.69
   0  10   3   31.45    4.53
   0  10  -3   30.16    4.28
 -10  -3   0   26.47    4.53
  10   3   0   31.22    4.45
   3   0 -10   28.64    4.53
  -3   0  10   39.41    5.05
  -3   0 -10   31.93    5.18
 -10   3   0   35.50    5.14
   0 -10   3   31.26    4.57
  10  -3   0   31.17    4.10
   0 -10  -3   33.64    4.00
   3   0  10   32.89    4.94
   0 -10  -3   28.81    3.76
  10  -3   0   33.02    4.37
  -3   0  10   32.77    4.64
 -10   3   0   27.56    4.60
   0  10  -3   26.56    4.58
  -3   0 -10   38.15    4.33
   0  10   3   24.47    4.57
   1 -10  -3   83.67    7.64
  -1 -10  -3   89.13    8.04
   1 -10   3   83.39    7.65
  -1 -10   3   80.06    7.61
 -10   3  -1   80.13    7.71
 -10  -3   1   85.90    8.10
 -10   3   1   82.83    7.89
  -1  10   3   85.51    6.85
  10   3   1   85.98    6.27
   1  10   3   81.25    7.40
  -3   1  10   95.99    6.44
  -1  10  -3   80.44    6.69
   1  10  -3   82.66    7.32
  -3  -1 -10   89.15    9.16
  10   3  -1   85.67    6.29
 -10  -3   1   89.85    8.14
 -10  -3  -1   89.63    8.56
  10   3   1   94.53    7.52
  10   3  -1   84.36    7.71
  -3  -1  10   87.51    7.61
   3  -1  10   88.41    8.53
  -3   1  10   92.96    7.42
   3  -1 -10   89.88    7.79
   3   1 -10   92.05    8.56
  -3   1 -10   83.69    7.97
  -1 -10  -3   85.04    7.57
 -10   3  -1   85.43    8.30
  -3  -1 -10   94.30    9.28
 -10   3   1   86.57    7.93
   3  -1  10   95.31    7.49
  10  -3   1   93.84    7.30
   1 -10  -3   90.35    6.55
  -1 -10   3   77.73    7.21
  -1 -10  -3   88.12    6.62
  10  -3  -1   90.58    6.34
   1 -10   3   95.63    8.34
   3   1  10   87.00    8.02
   3  -1 -10   83.94    8.52
  -1  10  -3   87.11    8.39
  -3   1  10   93.15    7.68
   3  -1  10   84.97    8.06
  10  -3   1   92.95    7.34
   1 -10  -3   80.62    6.58
  -1 -10  -3   81.48    5.70
  10  -3  -1   88.29    7.38
  -3  -1 -10   90.61    6.07
 -10   3  -1   87.51    8.29
  -3   1 -10   94.90    7.25
   1  10   3   84.86    8.61
   2 -10   3   18.81    3.54
  -2 -10  -3   22.82    4.16
  -2 -10  -3   16.29    3.34
   2 -10  -3   14.89    3.14
 -10  -3   2   20.10    3.87
 -10   3   2   15.83    3.48
  -3   2 -10   25.84    5.00
  -3  -2 -10   18.93    4.27
  -2  10   3   19.59    3.10
  -2  10  -3   18.81    2.97
   2  10   3   18.98    3.65
  -3   2  10   22.56    3.48
  10   3  -2   17.98    2.83
  10   3   2   20.61    3.15
   2  10  -3   18.74    3.64
 -10  -3   2   19.41    3.67
 -10  -3  -2   19.97    4.31
  -3  -2  10   23.51    4.07
  10  -3  -2   15.52    3.45
   3  -2 -10   17.81    3.37
   3   2 -10   15.38    3.52
   3   2  10   19.58    4.08
  -3   2  10   21.80    3.41
  10   3   2   15.45    2.99
   3  -2  10   15.72    3.67
  10   3  -2   18.70    3.91
  -3  -2  10   23.18    4.18
  -3  -2 -10   23.13    4.79
 -10   3  -2   16.61    3.67
  -3   2 -10   22.34    3.87
  -2 -10  -3   18.19    3.14
  10  -3   2   20.17    3.72
   3  -2  10   20.66    3.41
  -3  -2  10   20.43    2.53
  -2 -10   3   22.78    4.41
   2 -10   3   18.11    3.83
  -3   2  10   19.71    3.50
   3  -2 -10   16.69    3.89
   2 -10  -3   21.20    3.61
  10  -3  -2   15.86    3.22
   3   2  10   20.49    4.05
 -10  -3   2   17.49    3.79
  -3   2 -10   22.21    3.75
   2  10  -3   16.83    3.64
  -2  10  -3   22.32    4.32
 -10   3  -2   16.09    3.46
   2  10   3   18.55    3.93
  -2  10   3   20.27    4.20
   3 -10  -3   79.16    7.15
   3 -10   3   86.32    7.58
  -3 -10   3   79.37    7.51
 -10  -3   3   82.63    8.21
 -10   3   3   76.75    7.98
  10   3   3   87.38    6.76
   3   3 -10   69.70    7.89
  -3  10  -3   84.47    5.97
   3  10   3   80.85    7.98
  -3   3  10   65.82    6.29
  10   3  -3   77.58    6.24
  -3  10   3   76.89    5.55
  -3   3 -10   66.22    7.79
  -3  -3 -10   64.82    7.81
   3  10  -3   83.99    8.01
  10   3  -3   78.82    7.94
 -10  -3   3   79.60    7.18
  10   3   3   81.61    6.63
   3  -3  10   65.54    7.17
  -3  -3  10   65.32    6.82
  -3 -10  -3   83.23    7.75
  -3   3  10   67.84    5.82
  10   3   3   80.26    7.46
   3  -3 -10   63.37    6.08
  -3  -3  10   66.43    7.16
   3  -3  10   67.06    7.43
   3   3 -10   62.90    7.67
   3   3  10   66.87    7.24
  -3   3 -10   72.08    6.60
 -10   3  -3   75.44    8.24
  -3 -10  -3   75.33    7.10
  -3  -3 -10   61.96    8.04
   3  -3  10   68.76    6.58
  10  -3   3   79.76    7.42
  -3 -10   3   85.64    8.63
  -3  -3  10   67.79    5.46
  -3 -10  -3   77.67    6.66
   3  -3 -10   72.05    7.79
  -3   3  10   69.14    6.75
   3 -10  -3   83.86    7.56
  -3  10  -3   81.62    7.84
  10  -3  -3   78.80    7.45
   3   3  10   64.17    7.04
   3  10  -3   75.87    8.21
  -3   3 -10   70.10    7.11
 -10   3  -3   77.52    7.35
 -10  -3   3   77.99    8.25
   3  10   3   88.80    8.58
 -10   3   3   71.02    8.24
 -10  -3   3   76.63    8.61
  -3  10   3   89.79    8.78
 -10  -3   4    2.18    1.47
 -10   3   4    0.18    1.01
   4 -10   3    2.37    1.37
   4 -10  -3    1.86    1.39
  -4 -10   3    0.90    0.63
  -4 -10  -3    0.97    1.23
   4  10  -3   -1.05    0.90
  -3   4 -10    1.78    1.37
  -3  -4 -10   -1.59    1.82
  10   3  -4    4.00    1.78
   3   4 -10    3.81    1.96
  -4  10  -3    0.36    0.38
  10   3   4    0.61    0.57
   4  10   3    0.34    0.72
 -10  -3   4    1.74    1.25
   3  -4  10   -0.17    0.90
  -3  -4  10    2.26    1.91
  -4 -10  -3    3.01    2.11
   3  -4 -10    1.81    0.82
  10  -3  -4   -0.19    1.20
  10   3  -4    1.14    1.12
  10   3   4    0.48    0.67
   3   4  10    1.05    1.55
 -10   3  -4   -1.04    0.81
 -10  -3  -4    3.81    2.06
 -10  -3  -4   -0.23    1.09
  -4 -10  -3    1.49    1.29
  -3  -4 -10   -0.23    0.48
 -10   3  -4    2.51    1.07
  -4 -10   3    0.39    0.40
  10  -3   4   -0.65    0.76
  -3  -4  10    2.88    1.35
   3  -4  10    1.12    0.93
  -4 -10  -3    1.60    0.63
  -3   4  10    0.89    0.55
   3  -4  10    1.82    1.53
  -3  -4  10   -0.52    0.37
   3  -4 -10    2.00    1.53
   3   4  10    1.01    0.94
   4 -10  -3    0.96    0.58
  -3   4  10    2.62    1.59
  10  -3  -4    2.27    1.52
  -4  10   3    3.35    1.53
  -3   4 -10    1.18    1.06
  -4  10  -3    0.33    0.69
   4  10  -3    2.24    1.62
  -4  10  -3    1.41    1.36
   4  10   3    1.23    1.38
 -10   3   4    1.89    2.25
 -10  -3   4    0.63    2.25
 -10   3  -4    0.27    0.28
 -10  -3   4    1.30    0.55
   5 -10   3   86.33    7.35
   5 -10  -3   83.68    7.04
  -5 -10  -3   94.88    8.47
  -5 -10   3   81.51    7.48
 -10  -3   5   88.16    8.85
 -10   3   5   95.35    9.07
   3   5 -10   98.47    9.50
  10   3  -5   93.37    7.29
  -3   5 -10  105.29    9.63
  -3  -5 -10   97.35    9.43
 -10  -3   5   98.86    7.07
   5 -10  -3   88.79    6.44
 -10  -3   5   96.81    9.30
 -10   3   5   93.85    9.15
   3  -5  10  105.09    9.37
  -3  -5  10  100.62    8.86
  10  -3  -5   89.21    9.01
  -5 -10  -3   90.18    8.79
  10   3  -5   96.93    9.58
   3  -5  10  100.74    9.45
  10   3   5   96.09    8.61
   3   5  10   96.44    8.87
 -10   3  -5   93.69    8.86
 -10  -3  -5  101.08    9.23
 -10   3  -5   99.83    9.78
 -10  -3  -5   91.63   10.08
   5 -10  -3   86.15    8.16
  10  -3   5  104.28    9.33
   5 -10   3   83.84    8.52
   3  -5  10  104.34    8.39
  -3  -5  10  103.45    7.98
  -5 -10   3   84.10    8.90
  -5 -10  -3   86.15    7.66
   5 -10  -3   80.29    7.98
  -5  10  -3   88.05    7.81
  10  -3  -5   96.15    8.80
   3   5  10   98.70    9.04
  -3   5  10  102.95    8.57
   5  10  -3   92.25    8.82
   3  -5 -10  102.20    9.27
  -3   5 -10  104.79    9.42
  -5  10  -3   97.44    8.62
 -10  -3   5   95.33    9.07
 -10   3   5   89.38    9.64
 -10  -3   5   96.09    9.83
   5  10   3   90.38    8.51
  -5  10   3   91.87    8.64
 -10  -3   6    0.77    0.81
 -10   3   6    0.78    1.15
   6 -10   3    2.36    1.07
  -6 -10   3    0.29    1.06
  -6 -10  -3    4.86    1.93
   6  10   3    0.92    0.39
   3   6 -10    1.20    0.42
   6  10  -3    1.32    0.89
  -3   6 -10    0.89    0.91
  -3  -6 -10    0.36    1.62
  -6 -10  -3    1.91    2.47
   6 -10  -3    0.12    0.87
 -10  -3   6    0.98    1.54
 -10   3   6    1.77    1.80
   3  -6  10   -1.49    1.03
  10   3   6    1.94    1.11
   3   6 -10    4.89    2.38
  10  -3  -6    2.85    1.42
   3   6  10    3.72    2.14
  10   3  -6    3.42    2.11
 -10   3  -6    1.49    1.56
 -10  -3  -6   -0.37    0.67
 -10  -3  -6    0.76    2.96
  -6  10  -3    2.08    1.36
  -3  -6 -10    3.50    2.03
  -3  -6  10    3.13    1.36
  -6 -10   3   -1.67    0.76
   6 -10   3    1.34    0.40
   3  -6  10    0.15    1.98
   3  -6  10    2.10    1.55
  10  -3   6    2.55    2.17
  10  -3  -6    0.37    1.40
   3  -6 -10    2.91    1.53
   3   6  10    2.20    1.16
   6 -10  -3    4.48    1.91
  -3   6  10    1.74    1.10
   6 -10  -3    2.23    1.23
  -3   6 -10    1.17    2.30
  -6  10   3    2.52    1.77
   6  10  -3    2.36    1.66
  -6  10  -3    3.07    1.54
 -10   3   6    3.57    1.48
 -10  -3   6    1.33    1.40
   6  10   3    3.39    1.86
 -10  -3   6   -0.18    0.54
 -10  -3   7   12.56    3.58
 -10   3   7   13.22    3.79
  -7 -10  -3   15.32    3.38
  -7 -10   3   15.55    3.07
  -7  10   3   14.49    3.94
   7  10  -3   15.83    3.78
   7  10   3   14.05    3.77
   3  -7  10    9.81    3.10
  -7 -10  -3   12.62    3.42
   7 -10  -3   14.26    3.14
 -10  -3   7   11.92    3.23
 -10   3   7   14.03    3.84
  -7 -10   3   13.20    3.61
  10   3   7   14.04    3.47
   3   7 -10    9.20    2.86
   3   7  10   10.46    3.26
  10  -3  -7   16.65    3.81
  10   3  -7    9.68    3.21
 -10   3  -7   12.71    3.59
 -10  -3  -7   14.84    3.66
  -3  -7 -10    9.76    2.70
  -7  10  -3   13.20    3.37
 -10  -3  -7   13.99    3.84
 -10   3  -7   13.75    3.69
  -3   7 -10    6.17    2.48
  -3  -7  10    9.05    2.87
   7 -10   3   12.77    3.64
  -7 -10   3   12.30    3.48
   3  -7  10    6.32    2.28
   3  -7  10    6.27    2.18
  10  -3   7   15.11    3.64
  10  -3  -7   14.15    3.76
   3  -7 -10   10.41    2.94
   3   7  10   10.11    3.11
   7 -10  -3   13.89    2.97
  -3   7  10    6.85    2.56
   7 -10  -3   12.18    3.06
  -7  10   3    8.71    2.70
   3   7  10    9.51    3.06
   7  10  -3   10.94    2.75
 -10   3   7   10.36    3.24
 -10  -3   7   14.34    4.08
 -10  -3   7   11.60    3.24
  -8 -10   3    9.47    2.57
  -8 -10  -3    8.89    2.63
   8 -10  -3   10.59    2.49
   3   8  10   12.84    3.03
  -8  10  -3    5.84    2.36
  -3  -8  10   11.58    2.94
   3  -8  10   12.24    3.10
   3  -8 -10    8.82    2.40
  -3   8  10   14.69    3.40
   8 -10  -3    9.22    2.79
   3   8  10    8.51    2.52
   8  10  -3    9.47    2.46
   0 -10   4  600.83   20.75
 -10  -4   0  610.14   21.21
 -10   4   0  621.56   21.30
   0 -10  -4  651.08   22.05
  10   4   0  642.40   18.55
   0  10  -4  584.49   19.48
  -4   0 -10  612.68   24.35
 -10  -4   0  629.04   22.52
  10   4   0  636.86   19.89
   4   0  10  655.87   23.28
   4   0 -10  648.37   22.53
  -4   0  10  634.06   19.41
  -4   0 -10  623.66   23.66
 -10   4   0  635.68   21.93
   0 -10   4  608.29   20.38
  10  -4   0  650.94   18.87
   4   0 -10  625.38   23.79
   4   0  10  621.37   21.65
  10  -4   0  655.25   20.96
   0 -10  -4  610.87   16.99
   0  10  -4  615.60   23.02
   0  10   4  617.81   23.44
  -4   0 -10  644.01   18.50
   1 -10   4   31.79    4.91
  -1 -10   4   32.51    4.94
   1 -10  -4   37.14    5.26
 -10  -4   1   26.68    4.40
 -10   4   1   27.88    4.37
  -1 -10  -4   38.34    5.57
  -4  -1 -10   22.21    4.80
  10   4  -1   31.15    4.08
  -1  10  -4   31.04    4.20
  10   4   1   32.89    4.28
  -4   1  10   30.39    3.78
   1  10  -4   31.19    4.60
  -1  10   4   30.78    4.23
 -10  -4   1   33.06    4.99
 -10  -4  -1   31.85    5.31
  -4  -1  10   30.02    4.43
  10   4  -1   34.19    4.88
  -1 -10  -4   29.56    4.35
  10   4   1   26.19    3.66
   4  -1  10   30.08    5.00
  -4   1  10   28.30    4.06
  -1  10   4   30.93    3.50
  -4  -1  10   24.98    4.00
   4  -1 -10   27.25    4.55
   4   1 -10   25.45    4.90
 -10   4  -1   32.05    5.08
 -10   4   1   29.46    4.58
  -1 -10  -4   31.33    4.94
  -4  -1 -10   29.26    5.28
  -4   1 -10   24.54    4.42
   4  -1  10   26.58    4.20
  -1 -10   4   33.54    4.72
  10  -4   1   29.51    4.33
   1 -10   4   29.01    4.62
  10  -4  -1   30.42    3.90
   4   1  10   26.18    4.45
   4   1 -10   30.25    5.27
   4  -1  10   28.53    4.54
  -4   1  10   29.75    4.28
  10  -4  -1   31.05    4.59
   1 -10  -4   30.02    4.16
  -1 -10  -4   30.57    3.40
  -1  10  -4   33.33    5.27
 -10   4  -1   24.94    4.32
  -4  -1 -10   31.22    3.78
   1  10   4   38.63    5.83
  -4   1 -10   32.31    4.44
  -1  10   4   34.66    5.55
   2 -10   4  107.49    8.68
  -2 -10   4   90.16    8.09
 -10  -4   2   91.10    8.30
   2 -10  -4  108.15    8.66
 -10   4   2   96.21    8.66
  -2 -10  -4  104.33    8.99
  -2  10  -4   98.33    7.20
  -2  10   4  125.26    8.06
  -4   2  10   98.91    7.40
   2  10  -4  106.71    8.84
  10   4   2  106.51    7.79
  10   4  -2  103.49    7.54
  -4   2 -10   92.43    9.42
  -4  -2 -10   90.76    9.23
 -10  -4  -2  102.28    9.61
  -4  -2  10   86.70    7.53
  10   4  -2  105.55    8.88
  -2 -10  -4  107.55    8.43
  10   4   2   98.62    7.18
 -10  -4   2  106.33    8.80
  -4  -2  10   90.22    7.99
  -4   2  10   95.09    6.90
   4  -2  10   93.75    8.99
   4  -2 -10   92.92    8.15
   4   2 -10   90.84    8.87
  -2 -10  -4  102.29    8.81
  -4   2 -10   85.38    7.95
  -4  -2 -10  100.85    6.18
 -10   4  -2  104.16    9.30
  -4  -2 -10   87.39    9.44
  -2 -10   4  102.32    7.99
   4  -2  10   89.39    7.73
  10  -4   2   98.56    8.15
   2 -10   4  106.14    8.94
  -2 -10   4  104.70    9.70
  -2  10  -4  115.92    9.62
  -4   2  10   90.08    7.41
   2 -10  -4  104.47    8.21
  10  -4  -2   99.48    8.47
   2  10  -4  106.18    9.81
   4   2  10   90.11    8.29
 -10   4  -2  103.96    8.67
  -4   2 -10  103.32    8.34
   2  10   4  112.22    9.86
   3 -10   4  225.66   12.56
  -3 -10   4  211.83   12.40
 -10  -4   3  216.03   13.16
 -10   4   3  207.26   12.87
   3 -10  -4  225.09   12.33
  10   4   3  222.35   11.57
   4   3 -10  220.78   13.95
  -3  10   4  212.46    9.65
  -3  10  -4  214.74    9.93
  -4   3  10  224.21   11.80
  10   4  -3  202.32   10.74
   3  10  -4  230.49   13.50
  -4   3 -10  227.61   14.78
  -4  -3 -10  215.81   14.40
   3  10   4  203.66   12.74
  10  -4  -3  206.25   13.38
  10   4  -3  216.00   13.12
   4  -3  10  226.23   13.35
  -4  -3  10  228.66   12.47
  -3 -10  -4  215.84   12.36
 -10  -4   3  223.86   12.42
   4  -3 -10  230.72   12.22
   4  -3  10  222.56   13.77
   4   3 -10  217.94   14.32
   4   3  10  223.50   13.70
  -4   3  10  234.35   10.20
  -4   3 -10  235.22   12.40
 -10   4  -3  208.82   13.55
  -4  -3 -10  213.84   15.04
  -3 -10  -4  191.88   12.16
 -10  -4  -3  215.03   14.91
   4  -3  10  227.18   12.53
   3 -10   4  195.87   12.53
  10  -4   3  226.10   12.88
  -3 -10   4  212.83   13.86
  -4  -3  10  221.94   10.11
  -4   3  10  223.07   11.64
  -3  10  -4  220.17   12.93
   3 -10  -4  211.53   12.15
  10  -4  -3  203.62   12.52
   3  10  -4  222.86   14.24
   4   3  10  222.53   13.05
   4  -3 -10  223.53   14.20
 -10   4  -3  215.69   11.93
  -4   3 -10  233.09   13.11
   3  10   4  216.71   13.59
 -10   4   3  212.10   14.02
 -10  -4   3  213.63   14.20
  -3  10   4  204.50   13.30
   4 -10   4  238.25   12.64
  -4 -10   4  231.85   12.82
 -10  -4   4  219.37   13.41
 -10   4   4  218.52   13.48
   4 -10  -4  245.81   12.50
  -4 -10  -4  234.93   13.67
   4   4 -10  223.45   14.11
  10   4   4  237.62   12.38
  10   4  -4  224.31   11.56
  -4   4  10  234.39   12.68
   4  10   4  222.69   13.59
   4  10  -4  225.21   13.63
  -4   4 -10  226.10   14.60
  -4  -4 -10  207.37   13.98
   4  -4  10  231.69   13.71
  10  -4  -4  225.76   14.26
  -4  -4  10  233.00   13.00
  -4 -10  -4  230.38   13.42
 -10  -4   4  237.54   12.30
   4  -4  10  227.74   14.05
  10   4   4  234.67   13.71
  10   4  -4  231.34   14.22
   4  -4 -10  229.79   11.63
   4   4  10  243.73   14.46
  -4 -10  -4  240.12   13.76
 -10   4  -4  236.08   14.70
  -4  -4 -10  223.03   15.62
 -10  -4  -4  215.90   15.29
   4 -10   4  194.34   12.77
   4  -4  10  244.47   13.23
  10  -4   4  242.32   13.75
  -4 -10   4  236.67   14.84
  -4  -4  10  240.47   11.53
  -4   4  10  232.97   12.11
   4 -10  -4  229.12   13.22
  10  -4  -4  229.37   13.62
  -4  10  -4  238.26   13.16
   4  10  -4  230.70   14.40
   4   4  10  219.76   13.19
   4  -4 -10  225.55   14.28
  -4  10  -4  231.16   13.79
  -4   4 -10  240.09   13.97
 -10   4  -4  219.55   11.44
 -10   4   4  228.43   14.77
 -10  -4   4  236.39   15.01
   4  10   4  239.46   14.15
  -4  10   4  229.51   14.06
   5 -10   4    5.44    2.01
 -10  -4   5    5.11    2.54
 -10   4   5    4.03    2.49
  -5 -10  -4    4.75    2.57
   5 -10  -4    4.96    1.39
  -5 -10   4    3.74    1.29
  10   4  -5    4.91    1.77
   4   5 -10    2.57    2.03
  -4   5  10    1.32    1.20
  -4  -5 -10    1.76    1.84
  -4  -5  10    0.98    1.03
  -5 -10  -4    3.38    1.71
 -10  -4   5    3.85    1.71
   4  -5  10    1.60    1.63
   4   5 -10    1.96    2.20
  10  -4  -5    1.76    1.08
   4   5  10    1.87    1.41
  10   4  -5    6.62    2.92
  10   4   5    4.19    2.53
  -5 -10  -4    4.79    2.11
 -10   4  -5    1.75    1.10
 -10  -4  -5    4.03    1.91
 -10  -4  -5    4.14    1.54
 -10   4  -5    4.08    2.14
  -5 -10   4    5.99    2.49
  -4  -5  10    4.38    2.05
  10  -4   5    3.06    1.00
   4  -5  10    2.06    1.29
   4  -5  10    4.12    2.04
   4  -5 -10    3.69    1.73
   4   5  10    1.24    0.98
   5  10  -4    3.82    2.08
   5 -10  -4    3.93    1.84
  -4   5  10    0.42    0.41
  10  -4  -5    2.74    1.33
  -4   5 -10    3.18    1.76
  -5  10   4    4.40    2.37
  -5  10  -4    2.19    1.43
  -5  10  -4    5.70    2.08
 -10   4   5    1.70    1.41
 -10  -4   5    1.69    1.47
   5  10   4    3.60    1.57
  -6 -10  -4  262.25   14.25
   6 -10   4  251.73   12.35
  -6 -10   4  254.16   13.04
 -10  -4   6  235.78   14.38
 -10   4   6  238.13   14.40
   4   6 -10  243.34   15.23
  10   4  -6  242.39   12.63
   6  10   4  230.81   14.16
   6  10  -4  244.30   14.77
 -10  -4   6  240.33   14.56
 -10   4   6  250.83   14.90
   4  -6  10  245.44   14.52
  -6 -10  -4  257.02   15.14
  10  -4  -6  256.06   15.42
  10   4   6  243.56   14.61
  10   4  -6  266.52   16.25
   4   6  10  255.92   15.08
   4   6 -10  238.53   15.80
   4  -6  10  240.14   14.59
 -10   4  -6  255.57   14.64
 -10  -4  -6  267.66   14.99
  -6 -10  -4  239.31   14.27
  -4   6 -10  242.51   14.88
  -4  -6 -10  239.55   14.73
  -4  -6 -10  238.58   16.91
 -10  -4  -6  227.31   16.38
   6 -10   4  253.79   15.23
  10  -4   6  251.81   14.84
   4  -6  10  253.97   13.83
  -4  -6  10  250.82   13.41
  -6 -10   4  238.46   15.41
  -6  10  -4  251.56   12.37
   6 -10  -4  239.60   14.56
   4   6  10  245.10   14.43
  10  -4  -6  237.89   14.61
   6  10  -4  250.73   14.74
  -4   6  10  256.11   13.06
   4  -6 -10  258.09   15.16
  -4   6 -10  257.43   15.35
  -6  10  -4  248.86   14.66
 -10   4   6  249.48   15.81
 -10  -4   6  255.80   16.13
   6  10   4  248.99   13.68
  -6  10   4  248.97   14.30
  -7 -10  -4  124.66    9.77
 -10  -4   7  116.43   10.17
 -10   4   7  115.37   10.30
  -7 -10   4  135.20    9.23
   7  10   4  121.91   10.33
   4   7 -10  131.98   11.30
  -7  10   4  124.72   11.11
   7  10  -4  128.73   10.77
  -4   7  10  141.69   10.30
 -10  -4   7  114.33   10.14
 -10   4   7  110.08   10.04
  10  -4  -7  131.10   11.24
  -7 -10   4  123.01   10.38
  -7 -10  -4  122.07   10.78
  10   4   7  125.46   10.66
  10   4  -7  119.54   11.28
   4   7  10  127.94   10.71
   4  -7  10  134.01   10.78
   4   7 -10  125.22   11.58
 -10  -4  -7  107.78   11.45
 -10   4  -7  129.91   10.62
 -10  -4  -7  122.10   10.32
  -4   7 -10  128.76   10.33
  -4  -7 -10  125.16   12.19
   7 -10   4  126.17   10.85
  10  -4   7  121.08   10.40
  -4  -7  10  129.26   10.00
  -7 -10   4  123.40   11.22
   4  -7  10  139.78   10.49
   7 -10  -4  123.47   10.67
   4   7  10  140.28   11.26
  -4   7  10  132.76    9.71
  10  -4  -7  129.17   11.04
   7  10  -4  124.86   10.29
   4  -7 -10  131.13   10.95
  -4   7 -10  127.42   11.24
 -10   4  -7  121.70   11.13
 -10   4   7  129.56   11.68
 -10  -4   7  124.56   11.43
  -7  10  -4  126.33   10.63
  -7  10   4  126.46    9.95
   0 -10   5  102.07    8.72
 -10  -5   0   90.86    8.08
 -10   5   0   93.71    8.19
   0 -10  -5  105.50    9.16
  10   5   0  101.11    8.03
   0  10  -5  113.64    8.75
  -5   0 -10   70.46    8.50
  -5   0  10   83.33    7.01
   0 -10  -5  103.98    7.30
  10   5   0   98.82    7.72
 -10  -5   0  105.17    9.47
   5   0  10   81.18    8.48
   0  10   5  102.98    7.06
   5   0 -10   85.88    8.47
  -5   0 -10   86.82    9.05
 -10   5   0   96.65    8.57
   0 -10   5  109.13    8.68
   5   0  10   82.80    7.73
  -5   0  10   96.28    7.44
  10  -5   0   96.40    7.60
   5   0 -10   79.48    8.70
   5   0  10   82.74    7.96
  10  -5   0  100.69    8.69
   0 -10  -5  104.53    7.16
   0  10  -5  106.61    9.78
  -5   0 -10   87.81    7.15
   0  10   5  108.39   10.11
  -1 -10  -5   14.19    3.39
   1 -10  -5   13.02    3.39
  -1 -10  -5   11.52    3.52
 -10  -5   1   14.05    3.25
 -10   5   1   10.54    2.52
   1 -10   5   12.33    3.21
  -1  10  -5   13.74    2.99
  10   5   1   15.06    2.99
  10   5  -1   14.78    2.99
   1  10  -5   13.68    3.39
  -5   1  10   12.47    2.45
  -5  -1 -10    8.86    2.68
 -10  -5   1   11.74    3.01
 -10  -5  -1   14.49    3.61
  -5  -1  10   12.13    2.67
  -1 -10  -5   11.51    2.64
   5  -1 -10   10.96    2.88
   5   1 -10   13.93    3.54
   5   1  10   15.48    3.57
   1  10   5    9.91    2.22
  10   5  -1   11.03    2.77
   5  -1  10   11.24    3.07
  -5  -1 -10    9.95    3.05
  -5   1 -10   10.88    2.36
  -5   1 -10   15.37    3.03
  -5  -1 -10   13.58    2.69
 -10   5  -1   13.85    3.27
 -10   5   1   12.83    2.89
  10  -5  -1   14.90    2.81
   5  -1  10   10.98    2.81
  -5   1  10   10.58    2.15
  10  -5   1   12.74    2.85
   1 -10   5   10.94    2.73
  -1 -10   5   10.97    2.61
   5   1  10   14.94    3.39
  -1  10  -5   11.65    3.23
   5  -1 -10   11.19    3.23
   5   1 -10   12.59    3.46
   5  -1  10   17.41    3.80
  10  -5  -1   17.74    3.75
   1 -10  -5   11.17    2.71
   1  10   5   13.58    3.74
  -1  10   5   13.25    3.70
   2 -10   5  175.32   11.37
  -2 -10   5  186.89   11.77
 -10  -5   2  193.90   12.02
 -10   5   2  183.19   11.58
  -2 -10  -5  191.07   12.44
   2 -10  -5  194.22   11.96
  -2  10  -5  190.32   10.38
   2  10  -5  179.88   11.71
  -5   2  10  190.74   10.81
  10   5   2  195.01   11.26
  -5   2 -10  199.06   13.97
  -5  -2 -10  182.86   13.47
  10   5  -2  195.61   11.12
  10  -5  -2  205.50   13.43
  -5  -2  10  197.18   11.03
  -2 -10  -5  192.57   11.07
 -10  -5   2  200.63   12.48
  -5   2  10  205.73    9.53
  10   5  -2  199.65   12.02
   5  -2  10  208.59   13.38
   5  -2 -10  209.80   12.55
   5   2 -10  195.00   13.45
   5   2  10  177.90   12.34
  -5   2 -10  206.17   12.80
  -2 -10  -5  176.44   12.28
  -5  -2 -10  202.92   14.74
 -10   5  -2  198.66   12.97
  -5  -2 -10  205.63    9.43
 -10   5   2  194.67   11.38
   5  -2  10  201.03   12.09
   2 -10   5  178.14   11.66
  -2 -10   5  179.88   12.92
  10  -5   2  204.28   12.07
  -2 -10   5  190.59   10.79
   5   2  10  198.11   12.14
  -5   2  10  201.76   10.67
  10  -5  -2  198.94   12.59
   2 -10  -5  196.60   11.21
  -2  10  -5  188.06   12.40
 -10   5  -2  196.33   11.80
   2  10   5  191.28   13.18
  -5   2 -10  205.37   12.11
   3 -10  -5   60.35    6.51
   3 -10   5   52.37    6.13
  -3 -10   5   57.13    6.53
 -10  -5   3   63.68    7.02
 -10   5   3   60.98    6.72
  10   5   3   67.30    6.66
   5   3 -10   65.72    7.55
  -3  10  -5   49.97    4.98
  -5   3  10   66.83    6.70
   3  10  -5   53.22    6.79
  10   5  -3   62.21    6.33
  -3  10   5   60.06    5.36
 -10  -5  -3   55.28    7.40
  10  -5  -3   65.61    7.62
   5  -3  10   59.08    6.81
  -5  -3  10   76.11    7.07
  -3 -10  -5   54.05    6.23
 -10  -5   3   62.23    6.86
  10   5  -3   62.78    7.00
   5  -3 -10   63.80    6.74
   5  -3  10   74.57    7.97
   5   3 -10   57.95    7.45
  -5   3 -10   60.76    6.59
  -5  -3 -10   60.08    8.15
 -10   5  -3   60.31    7.20
  -5   3 -10   63.05    8.18
  -5  -3 -10   68.86    8.43
  -3 -10  -5   50.95    6.64
 -10  -5  -3   63.73    7.91
   5  -3  10   66.99    7.19
   3 -10   5   62.93    7.12
  10  -5   3   56.85    6.55
  -3 -10   5   52.31    7.17
  -5  -3  10   63.64    5.58
  -3  10  -5   60.99    6.74
  -5   3  10   64.14    6.01
   3 -10  -5   55.33    6.17
  10  -5  -3   61.12    7.09
   5   3  10   64.52    7.08
 -10   5  -3   64.97    6.54
  -5   3 -10   65.03    7.14
   3  10   5   58.11    7.18
  -3  10   5   56.65    7.18
  -4 -10  -5   80.31    8.24
   4 -10  -5   79.40    7.17
   4 -10   5   83.47    7.74
  -4 -10   5   78.06    7.54
 -10  -5   4   78.62    7.91
 -10   5   4   74.22    7.79
   5   4 -10   75.69    8.32
  10   5   4   87.81    7.92
  -5   4  10   76.61    7.49
  10   5  -4   82.86    7.44
   4  10  -5   79.20    8.25
 -10  -5  -4   83.51    9.01
  10  -5  -4   74.82    8.07
   5  -4  10   72.48    7.61
  -5  -4  10   71.35    7.01
  -4 -10  -5   78.39    7.69
 -10  -5   4   79.14    7.53
   4  10  -5   81.41    7.81
  10   5   4   81.52    8.53
  10   5  -4   85.88    8.44
   5  -4 -10   74.61    7.02
   5   4  10   80.82    8.62
   5  -4  10   70.50    7.79
  -5  -4 -10   78.62    9.41
  -5   4 -10   76.08    9.10
  -5  -4 -10   69.55    8.58
  -4 -10  -5   74.88    7.93
 -10  -5  -4   70.10    8.89
   4 -10   5   80.88    8.26
   5  -4  10   85.47    8.18
  10  -5   4   80.24    8.05
  -4 -10   5   83.61    8.90
  -5  -4  10   72.11    6.36
  -5   4  10   71.35    6.41
  -4  10  -5   82.72    7.70
   4 -10  -5   82.98    8.09
  10  -5  -4   77.50    8.18
   5   4  10   68.64    7.40
   5  -4 -10   73.25    8.28
  -4  10  -5   79.30    8.34
 -10   5  -4   85.23    8.88
 -10   5  -4   82.56    6.97
  -5   4 -10   82.91    8.36
 -10   5   4   84.15    8.82
 -10  -5   4   86.94    8.96
   4  10   5   81.39    8.38
  -4  10   5   86.17    8.89
  -5 -10  -5    1.95    1.75
 -10  -5   5    1.75    0.97
 -10   5   5    0.88    1.34
  -5 -10   5   -0.15    1.05
   5 -10   5    2.06    1.11
  10   5  -5    2.25    1.58
  10   5   5    1.73    1.58
   5   5 -10   -0.20    1.78
  -5   5  10    2.07    1.09
 -10   5   5    1.28    0.90
  -5 -10  -5    0.88    0.98
 -10  -5   5   -0.41    1.15
  -5  -5  10    1.93    1.62
  -5   5  10   -0.39    1.15
   5  -5  10    0.35    1.09
   5   5 -10    3.14    1.63
   5  10  -5    1.93    1.07
  10  -5  -5    0.19    0.41
   5   5  10    2.14    2.28
  10   5   5    0.58    1.35
  10   5  -5    2.79    2.44
  -5 -10  -5    2.17    1.37
 -10  -5  -5    2.93    2.71
 -10   5  -5   -0.21    2.01
  -5   5 -10    4.51    2.34
  -5  -5 -10   -0.21    1.41
  -5 -10   5    2.76    2.04
  -5  -5  10    1.83    0.84
   5  -5  10    1.54    1.77
  10  -5   5    0.37    0.68
   5  -5  10    0.93    1.11
   5 -10   5    1.51    0.56
   5  -5 -10   -1.02    1.14
   5   5  10   -0.71    1.29
   5 -10  -5    2.76    1.64
  10  -5  -5    0.58    2.07
  -5   5  10   -0.50    0.53
   5  10   5    1.05    0.97
  -5  10   5    0.58    1.51
  -5  10  -5    1.37    1.59
  -5   5 -10   -1.16    1.82
  -5  10  -5    0.73    0.53
 -10   5   5    0.82    1.29
 -10  -5   5    0.20    0.74
  -6 -10  -5  113.90    9.69
   6 -10   5  110.91    8.46
  -6 -10   5  112.70    8.68
 -10  -5   6  110.87    9.48
 -10   5   6  104.89    9.41
   5   6 -10   99.84    9.83
  10   5  -6  116.32    9.17
  -5   6  10   96.77    9.19
   6  10   5  103.71    9.65
   6  10  -5  112.80    9.94
 -10   5   6  109.56   10.51
  -5  -6  10   99.21    9.18
  -5   6  10  100.06    9.25
   5  -6  10   99.19    9.10
  -6 -10  -5  109.74    9.74
  10  -5  -6  113.31   10.08
  10   5   6  114.17   10.40
  10   5  -6  112.51   10.52
   5   6  10   99.93    9.53
   5  -6  10  102.47    9.53
   5   6 -10  109.86   10.86
 -10  -5  -6  101.24   10.85
 -10   5  -6  111.51    9.59
 -10  -5  -6  115.24    9.64
  -6 -10  -5   99.20    9.78
  -5   6 -10  101.00    9.82
  -5  -6 -10   98.91    9.48
  -5  -6 -10   94.21   10.58
  10  -5   6  109.49    9.90
   5  -6  10   98.52    8.96
  -5  -6  10  109.95    8.94
   6 -10  -5  111.27   10.12
  10  -5  -6  112.90   10.31
   5   6  10   99.08    9.39
   5  -6 -10   97.44    9.59
  -5   6  10  109.27    8.13
  -5   6 -10  103.88    9.96
 -10   5  -6  109.12   10.52
  -6  10  -5  109.22   10.12
 -10   5   6  111.85   10.47
 -10  -5   6  116.22   10.60
   6  10   5  117.33    9.59
  -6  10   5  114.91    9.92
  -5  -7  10   32.76    4.66
  -7 -10   5   32.09    4.41
 -10  -5   7   41.40    5.85
  10   5  -7   37.66    5.14
  -5   7  10   39.34    5.44
 -10  -5   7   37.09    5.60
   5  -7  10   37.93    5.65
 -10   5  -7   42.99    5.81
 -10  -5  -7   38.26    5.40
  -5   7 -10   35.63    5.63
  -5  -7  10   36.67    5.37
   7  10  -5   34.02    5.40
 -10  -5   7   41.84    6.44
  -7  10   5   35.74    5.38
   0 -10  -6  629.52   22.83
   0 -10   6  610.20   21.90
  10   6   0  628.42   20.88
   0  10  -6  609.75   20.81
  -6   0  10  627.34   25.10
  -6   0  10  626.50   18.19
 -10  -6   0  608.82   23.45
   6   0  10  603.81   22.92
   0  10   6  619.24   17.57
   6   0 -10  637.06   23.82
  -6   0 -10  629.92   25.18
  -6   0 -10  629.64   26.31
 -10   6   0  609.05   21.41
  10  -6   0  606.93   19.72
   6   0  10  614.04   21.95
   0 -10   6  593.13   19.87
   6   0 -10  660.01   25.35
   6   0  10  635.26   21.58
   0 -10  -6  619.58   17.40
  -6   0 -10  661.52   20.44
   0  10   6  655.15   25.26
   1 -10  -6   12.94    3.36
  -1 -10  -6    9.36    3.30
 -10  -6   1   10.36    2.49
 -10   6   1    9.32    2.43
   1 -10   6   13.13    3.47
  -1 -10  -6   12.74    3.46
  10   6   1   10.98    2.68
   1  10  -6   11.17    2.58
  10   6  -1   11.22    2.95
  -1  10  -6   12.37    2.85
 -10  -6   1   12.81    3.21
 -10  -6  -1   13.12    3.62
  -6  -1  10    9.93    3.17
  -6   1  10   15.77    2.86
  -6  -1  10   12.41    2.73
   6  -1 -10    9.67    2.73
   6   1 -10   12.55    3.45
   6   1  10   11.07    2.92
   6  -1  10   10.06    2.85
   1  10   6   14.96    2.93
  -6   1 -10   15.16    4.02
  -6  -1 -10   15.34    4.30
  -6   1 -10    9.94    2.88
  -6  -1 -10   10.56    2.39
 -10   6  -1   14.08    3.50
  -6  -1 -10    8.57    3.24
 -10   6   1   11.39    3.04
  10  -6   1    9.59    2.60
  -1 -10   6   15.48    3.20
   6  -1  10   10.16    2.51
   1 -10   6   13.47    2.93
  10  -6  -1   13.46    2.87
   6   1  10   11.68    2.75
   6  -1 -10   11.67    3.09
   6   1 -10   14.80    3.87
   6  -1  10   13.53    2.97
  10  -6  -1   12.23    3.36
   1 -10  -6   13.78    2.98
   1  10   6    9.27    2.48
  -1  10   6   11.82    3.29
  -2 -10  -6  105.74    9.55
   2 -10  -6   97.32    8.69
   2 -10   6   95.43    8.60
  -2 -10   6   95.01    8.50
 -10  -6   2   90.57    7.94
 -10   6   2   87.18    7.80
  -2  10  -6   91.89    7.47
   2  10  -6   89.65    8.54
  -6   2  10   81.42    7.46
 -10   6   2  101.28    9.54
  10   6   2   95.73    8.34
  10   6  -2   98.12    8.27
  -6  -2  10   89.10    9.52
  -6   2  10   94.28    9.79
  10  -6  -2   89.31    8.94
  -6  -2  10   83.80    6.87
  -2 -10  -6   96.27    7.62
 -10  -6   2   92.02    8.81
   6  -2  10   81.88    8.45
   2  10   6   99.36    8.13
  10   6  -2   92.90    8.00
   6  -2 -10   94.33    8.76
   6   2 -10   81.78    8.77
   6   2  10   83.74    8.70
  -6   2 -10   81.64    8.38
  -2 -10  -6   84.35    8.98
  -6  -2 -10   88.29    9.95
  -6   2 -10   86.94    9.93
  -6  -2 -10   84.68    9.63
 -10   6  -2   91.10    8.90
  -6  -2 -10   85.32    6.47
 -10   6   2   82.41    7.30
   6  -2  10   80.68    8.07
   2 -10   6   94.63    8.54
  -2 -10   6   97.73    7.46
  10  -6   2   94.19    8.48
   6   2  10   78.74    7.67
  10  -6  -2   98.99    9.21
   2 -10  -6   94.63    8.01
  -2  10  -6   95.27    8.99
   6  -2 -10   71.80    8.51
 -10   6  -2   82.98    7.74
   2  10   6  104.62    9.99
  -6   2 -10   82.60    7.97
   3 -10   6  107.74    9.00
   3 -10  -6  117.28    9.28
  -3 -10   6  101.16    8.64
 -10  -6   3  100.66    8.48
 -10   6   3  111.37    8.90
   6   3 -10  111.20    9.78
  -3  10  -6  104.86    7.56
   3  10  -6  106.09    9.61
  -6   3  10  122.20    9.48
 -10   6   3  111.33   10.27
  10   6  -3  117.14    9.09
  10   6   3  111.40    9.06
 -10  -6  -3  110.09   10.53
  -6  -3  10  105.78   10.29
  -6   3  10  116.44   10.87
  10  -6  -3  106.65    9.88
   6  -3  10  115.85    9.35
  -6  -3  10  112.67    8.21
  -3 -10  -6  106.96    8.38
 -10  -6   3   99.97    8.96
   3  10   6  105.75    9.03
  10   6  -3  116.09    9.44
   6  -3 -10  118.17    9.60
   6  -3  10  114.05    9.89
   6   3  10  105.77    9.72
  -6  -3 -10  110.66   11.32
  -6   3 -10  113.49   11.20
  -6  -3 -10  103.37   10.70
  -3 -10  -6   96.47    9.52
 -10  -6  -3  112.07   10.65
  -6   3 -10  105.25    9.06
   6  -3  10  115.71    9.76
   3 -10   6  101.28    8.96
  10  -6   3  110.50    9.52
  -6   3  10  115.36    7.49
  10  -6  -3  105.21    9.71
   3 -10  -6  100.70    8.55
  -3  10  -6  107.06    9.32
   6   3  10  112.30    9.25
 -10   6  -3  105.26    8.17
   3  10   6  110.32   10.05
  -6   3 -10  111.99    9.50
  -3  10   6  105.54   10.16
 -10   6  -3  108.02    9.81
   4 -10   6  255.04   13.66
  -4 -10  -6  256.18   15.01
  -4 -10   6  249.62   13.47
   4 -10  -6  272.91   13.69
 -10  -6   4  246.07   13.49
 -10   6   4  246.21   13.51
   6   4 -10  251.41   15.08
  10   6   4  246.81   13.74
   4  10  -6  240.62   14.76
  -6   4  10  248.45   13.94
  10   6  -4  234.63   13.08
  -6  -4  10  252.42   15.61
  -6   4  10  263.31   16.07
 -10  -6  -4  247.18   15.79
  10  -6  -4  254.74   15.08
   6  -4  10  255.47   13.87
  -4 -10  -6  257.69   13.71
 -10  -6   4  251.83   13.69
   4  10  -6  264.46   14.86
  10   6   4  256.67   15.39
   4  10   6  254.57   14.45
  10   6  -4  240.58   14.25
   6  -4 -10  260.85   13.77
   6   4 -10  237.12   15.53
   6  -4  10  252.31   14.68
  -6  -4 -10  255.76   17.60
  -6   4 -10  229.56   15.74
  -6  -4 -10  261.86   16.54
  -4 -10  -6  239.72   15.21
 -10  -6  -4  253.43   16.45
   4 -10   6  262.80   15.06
   6  -4  10  273.02   15.01
  10  -6   4  264.24   14.93
  -4  10  -6  257.74   13.72
  -4  10   6  257.74   13.14
  10  -6  -4  240.02   14.85
   4 -10  -6  272.38   14.83
   6   4  10  245.39   13.93
  -4  10  -6  255.05   15.71
  -6   4 -10  261.88   15.21
   4  10   6  272.86   15.54
 -10   6  -4  244.34   15.27
  -4  10   6  252.22   15.56
  -5 -10   6    6.66    2.18
  -6  -5  10    4.29    1.50
  -6   5  10    2.57    1.09
   5 -10   6    5.98    1.88
 -10  -6   5    6.42    2.35
 -10   6   5    6.70    2.58
  10   6  -5    2.45    0.77
  -5 -10  -6    8.77    2.74
  10   6   5    5.19    2.33
   6   5 -10    4.81    2.35
  -6   5  10    6.67    2.68
 -10   6   5    6.98    3.33
  -5 -10  -6    6.87    2.70
 -10  -6   5    5.22    1.69
 -10  -6  -5    6.16    2.96
  -6  -5  10    5.80    2.52
  -6   5  10    5.44    2.16
   6  -5  10    5.69    1.82
  10   6  -5    7.24    2.69
   6   5 -10    5.05    2.81
   5  10  -6    7.92    2.53
  10  -6  -5    8.04    3.03
   6   5  10    5.25    2.24
   5  10   6    6.31    1.84
  10   6   5    4.11    1.62
   6  -5 -10    6.45    2.02
  -5 -10  -6    4.48    2.41
  -6   5 -10    5.45    2.47
 -10  -6  -5    2.18    1.44
  -6   5 -10    1.77    1.32
  -6  -5 -10    3.28    0.80
 -10   6  -5    4.44    2.03
  -5 -10   6    6.03    2.12
  -6  -5  10    3.68    1.60
   6  -5  10    3.84    2.14
  10  -6   5    3.65    1.85
   6  -5  10    1.84    1.50
   5 -10   6    9.55    2.97
   6  -5 -10    6.25    2.44
   6   5  10    4.46    1.72
  -5  10   6    8.19    2.33
   5 -10  -6    6.41    2.17
  10  -6  -5    6.10    2.26
 -10  -6   5    4.02    2.57
   5  10   6    6.09    1.50
  -5  10   6    5.25    2.36
  -5  10  -6    8.70    2.89
  -5  10  -6    6.62    1.60
 -10   6   5    7.75    2.88
  10   6  -6  235.49   13.57
  -6   6  10  246.31   14.85
  10   6   6  262.90   14.37
  -6  -6  10  233.56   14.19
  -6   6  10  239.26   14.49
   6  -6  10  229.99   13.50
  -6 -10  -6  254.87   14.75
  10  -6  -6  240.40   14.65
  10   6  -6  245.12   15.46
   6  -6  10  247.59   14.38
  -6 -10  -6  234.58   15.29
  -6   6 -10  224.07   14.68
  -6  -6 -10  232.74   14.84
  -6  -6  10  237.14   13.27
 -10   6   6  229.77   14.61
 -10  -6   6  232.01   14.54
  -6  10   6  261.45   15.36
  -6  -6  10  236.88   13.63
  -6   6  10  249.55   14.16
   6 -10   6  244.26   12.82
  -6 -10   6  253.71   12.95
 -10  -6   6  225.37   13.32
 -10   6   6  231.60   13.61
  -7   0  10   31.29    5.47
   0 -10   7   23.08    4.32
  10   7   0   31.11    4.91
   0 -10  -7   24.60    4.37
   0  10  -7   21.41    4.19
  -7   0  10   26.55    5.54
 -10  -7   0   33.49    5.67
   7   0  10   32.67    5.45
   7   0 -10   32.75    5.57
  -7   0 -10   37.30    6.15
 -10   7   0   30.81    4.89
  -7   0 -10   33.31    6.04
   0 -10   7   23.80    3.94
  10  -7   0   34.28    4.92
   7   0  10   36.96    5.72
   7   0 -10   32.74    5.90
   7   0  10   33.15    4.87
   0  10   7   23.21    4.97
  -7   0 -10   35.52    5.08
  -7   1  10   91.93    9.51
   1 -10   7   88.29    8.39
  -1 -10  -7  103.31    9.64
   1 -10  -7   96.34    8.93
  10   7  -1   93.36    8.45
  -1  10  -7   88.21    7.93
   1  10  -7   85.33    8.29
  10   7   1   88.45    8.24
  -7  -1  10   84.67    9.49
 -10  -7   1   93.40    9.19
 -10  -7  -1   91.12    9.47
   7   1  10   89.69    8.87
   7  -1  10   90.83    8.91
   1  10   7   94.10    7.45
   7  -1 -10   83.44    8.85
   7   1 -10   85.17    9.26
  -7   1 -10   90.58    9.42
  -7  -1 -10   90.11   10.08
  -7  -1 -10   87.09   10.03
 -10   7  -1   90.25    8.52
  -7  -1 -10   96.15    7.67
  -1 -10  -7   85.81    9.53
 -10   7   1   82.45    7.50
  10  -7   1   93.91    8.42
  -1 -10   7   93.00    7.48
   7  -1  10   97.27    8.93
  10  -7  -1   84.16    7.35
   1 -10   7   89.74    7.98
  -1 -10   7   95.97    9.58
   7  -1 -10   98.67    9.98
   7   1 -10   82.80    9.07
   7   1  10   97.18    8.40
  -1  10   7   88.71    8.67
  10  -7  -1   89.99    8.90
   1 -10  -7   94.70    7.48
  -7   1 -10   94.49    8.52
   1  10   7  106.89   10.37
  -1  10   7  103.57   10.37
  -7  -2  10    3.03    2.40
  -7   2  10    1.02    1.86
  -2 -10  -7    0.67    1.41
   2 -10   7    2.90    1.72
 -10  -7   2    1.11    1.01
  -2 -10   7   -0.67    0.87
   2  10  -7    0.55    0.66
  10   7   2   -1.52    0.79
  -2 -10  -7    1.75    1.29
   2 -10  -7   -0.35    0.36
  -2  10  -7    0.14    0.42
 -10   7   2    0.99    0.83
  10   7  -2    0.66    0.92
  10  -7  -2    2.70    2.53
 -10  -7   2    0.19    0.98
  -7  -2  10    2.69    2.58
  -7   2  10    2.27    2.13
   7  -2  10   -0.78    1.03
   2  10   7   -0.15    0.62
   7   2 -10   -3.08    2.02
   7  -2  10    0.56    0.96
   7   2  10    2.31    1.85
   7  -2 -10    0.57    0.57
  -7  -2 -10    1.51    0.75
  -7   2 -10    2.53    1.73
  -7   2 -10   -1.39    1.63
  -7   2 -10   -0.25    0.52
  -7  -2 -10    0.73    1.85
 -10   7  -2    0.92    2.23
  10  -7   2    1.03    0.72
   2 -10   7    1.46    1.56
   7  -2  10    1.28    0.86
  -2 -10   7    1.67    1.58
   2 -10  -7    0.44    0.30
   7   2  10    0.16    0.82
   7  -2 -10   -0.44    1.54
  -2 -10   7    1.17    0.25
  10  -7  -2    1.18    1.85
  -2  10   7    3.10    1.45
   2  10   7    2.71    2.23
  -7  -3  10   25.15    4.67
  -7   3  10   19.99    4.34
   3 -10   7   29.98    5.01
  -3 -10   7   31.22    4.91
 -10  -7   3   25.80    4.04
   3 -10  -7   30.41    4.92
   3  10  -7   30.47    5.28
   7   3 -10   21.76    4.15
  10   7  -3   23.15    4.33
  10   7   3   25.09    4.55
  -7   3  10   24.82    4.47
 -10   7   3   25.06    5.16
  10  -7  -3   31.10    5.10
 -10  -7   3   29.62    4.97
 -10  -7  -3   28.53    5.59
  -7  -3  10   23.87    4.71
  -7   3  10   21.24    4.48
   7  -3  10   26.31    4.34
   3  10   7   31.46    4.98
   7  -3  10   24.43    4.68
   7   3  10   23.06    4.98
   7  -3 -10   21.87    4.47
  -3 -10  -7   33.22    5.83
 -10  -7  -3   25.07    4.78
  -7   3 -10   25.89    4.74
  -7  -3 -10   22.96    5.20
  -7   3 -10   26.21    4.76
  -7   3 -10   23.42    5.23
  -7  -3 -10   23.02    5.09
 -10   7  -3   21.55    4.29
   3 -10   7   29.03    4.76
   7  -3  10   26.98    4.91
  -3 -10   7   25.62    4.89
  10  -7   3   25.54    4.77
   7  -3 -10   24.89    5.32
  -3  10   7   33.24    4.91
   3 -10  -7   30.02    4.90
  10  -7  -3   29.04    5.24
  -3  10  -7   35.18    5.30
   7   3  10   22.29    4.00
   3  10   7   29.58    5.12
  -3  10   7   35.73    6.05
  -7  -4  10   18.40    4.34
  -7   4  10   15.03    3.45
   4 -10   7   11.03    2.95
 -10  -7   4   11.68    2.74
  -4 -10   7   11.29    2.83
   4  10  -7   12.58    3.70
  10   7   4   14.11    3.62
  10   7  -4   15.73    3.60
  -4 -10  -7   11.28    3.34
   7   4 -10   16.59    3.76
   4 -10  -7   10.27    2.76
  -7   4  10   13.98    3.15
 -10   7   4   15.03    3.82
 -10  -7   4   16.06    3.40
 -10  -7  -4   16.44    4.09
  -7  -4  10   15.28    3.78
  -7   4  10   16.53    3.77
   7  -4  10   11.21    2.64
  10   7  -4   12.75    3.09
   7   4 -10   12.40    3.34
  10  -7  -4   12.28    3.15
   7   4  10   13.12    3.39
   4  10   7   10.30    2.96
   7  -4 -10   10.86    3.15
  -4 -10  -7    6.55    2.68
 -10  -7  -4    8.79    2.76
  -7   4 -10   13.79    3.49
  -7  -4 -10   15.74    4.15
  -7   4 -10   15.60    4.56
  -7  -4 -10   12.51    3.77
 -10   7  -4   12.29    3.28
  -4 -10   7   11.70    3.92
   7  -4  10   15.56    3.67
   7  -4  10   14.20    3.63
  10  -7   4   12.25    3.19
   4 -10   7   10.19    3.31
   7  -4 -10   12.34    3.91
   4  10   7    9.34    3.10
   7   4  10   13.98    3.32
  10  -7  -4   14.25    3.65
  -4  10   7   12.71    2.86
   4 -10  -7   10.04    3.00
   4  10   7   10.39    2.86
  -4  10   7   10.62    3.25
  -4  10  -7   12.66    3.52
  -4  10  -7    7.88    2.43
  -7   5  10   94.33    9.04
   5 -10   7   74.71    7.49
 -10  -7   5   79.29    7.46
  -7  -5  10   87.30    8.67
  10   7  -5   77.65    7.81
  -7   5  10   94.16    9.20
  -7  -5  10   94.41    9.49
  -7   5  10   95.97    9.72
  -7  -5  10   81.87    8.35
   7  -5  10   83.63    7.70
  10  -7  -5   88.27    8.78
 -10  -7   5   91.35    8.19
   5  10  -7   82.82    8.68
   7  -5  10   86.90    8.51
   7  -5 -10   93.70    8.23
  10   7  -5   77.33    8.11
  -5 -10  -7   76.71    9.08
  -7   5 -10   87.26    9.55
  -7  -5 -10   82.32    9.25
  -7  -5 -10   88.33    8.58
   7   5  10   84.71    8.32
   5  10   7   83.25    8.42
  -8   0  10   35.35    5.73
   0 -10  -8   35.36    5.59
   0 -10   8   34.89    5.41
  10   8   0   35.08    5.33
   0  10  -8   34.73    5.33
  -8   0  10   42.01    6.74
 -10  -8   0   33.17    5.45
  -8   0  10   40.61    6.53
   8   0  10   44.77    6.13
   8   0 -10   39.17    6.06
   0 -10  -8   37.18    6.67
  -8   0 -10   40.31    6.68
  -8   0 -10   41.50    5.66
 -10   8   0   33.28    4.72
  -8   0 -10   38.83    6.81
   8   0  10   42.01    6.04
  10  -8   0   34.37    5.04
   0 -10   8   34.17    4.65
   8   0 -10   40.31    6.12
   0  10   8   40.25    6.18
   8   0  10   44.48    5.60
   0  10   8   37.90    6.33
  -8   1  10  137.21   11.71
  -1 -10  -8  153.04   11.84
   1 -10  -8  152.15   11.46
   1 -10   8  155.21   11.31
  10   8  -1  138.82   10.71
  -1  10  -8  158.81   11.06
   1  10  -8  147.07   11.24
  10   8   1  150.36   11.08
 -10   8   1  133.16   10.84
  -8  -1  10  148.16   12.79
  -8   1  10  136.89   11.84
 -10  -8   1  144.02   11.76
 -10  -8  -1  142.52   11.97
   8   1  10  138.89   10.97
   8  -1  10  136.73   11.02
   8  -1 -10  149.75   12.18
   8   1 -10  156.00   12.83
  -8  -1 -10  136.37   12.71
  -8  -1 -10  138.48   12.91
  -1 -10  -8  160.70   13.29
 -10   8  -1  147.00   10.82
  -8  -1 -10  142.80    9.75
  -8   1 -10  140.30   12.02
   8   1  10  139.19   11.17
  10  -8   1  140.86   10.58
   8  -1  10  141.17   11.13
   1 -10   8  156.40   10.32
  -1 -10   8  153.21   12.21
   8  -1 -10  144.80   12.33
   8   1 -10  146.93   12.10
   8   1  10  142.00    9.93
   1  10   8  163.26   12.39
  -1  10   8  160.03   11.79
  10  -8  -1  139.45   11.57
  -8   1 -10  144.77   10.50
   1  10   8  162.92   12.96
  -1  10   8  156.26   12.92
  -8  -2  10   -2.94    2.65
  -2 -10  -8    2.63    1.59
   2 -10   8    2.11    1.61
  -2 -10   8   -0.86    0.96
  10   8   2   -0.89    2.26
  -2  10  -8    0.45    1.53
 -10   8   2   -1.59    1.32
   2  10  -8    2.09    1.74
  10   8  -2    1.07    0.91
 -10  -8   2   -0.98    1.70
  10  -8  -2    1.90    1.60
  -8  -2  10   -0.70    1.62
  -8   2  10    0.70    0.85
   2  10   8    0.89    0.93
   8  -2  10    1.67    1.29
   8  -2 -10   -0.40    1.12
   8   2  10    1.36    1.00
  -8  -2 -10   -1.04    0.95
  -8   2 -10   -0.21    0.75
  -8   2 -10   -2.31    2.09
  -8  -2 -10    1.77    1.06
  -8   2 -10    1.28    1.48
 -10   8  -2    1.10    0.77
   2 -10   8   -1.60    1.54
  10  -8   2    1.80    1.92
   8  -2  10   -0.57    2.26
  -2 -10   8    2.29    2.05
   2 -10  -8    2.92    2.01
   8   2  10    0.15    2.10
   8  -2 -10    2.48    2.60
  10  -8  -2    0.62    0.43
  -2  10   8    1.93    1.99
   2  10   8    0.64    0.90
   8   3 -10  433.56   19.04
  10  -8  -3  437.41   19.51
 -10  -8   3  404.87   18.85
   3  10   8  459.28   18.69
   8  -3 -10  445.46   20.18
   8  -3  10  401.27   18.46
 -10  -8  -3  399.43   19.28
   3 -10   8  436.49   18.58
   8   3  10  430.71   17.80
  -3  10   8  446.34   18.50
   3 -10  -8  452.02   18.47
  -3  10  -8  453.11   19.09
 -10   8  -3  429.54   19.95
   3  10   8  455.43   20.93
  -4  10   8   11.84    2.99
  -4  10  -8   10.49    2.73
 -11   0   0   25.54    4.93
   0 -11   0   30.76    4.95
   0  11   0   33.97    4.58
  11   0   0   32.64    5.19
   0   0 -11   23.64    4.01
   0   0  11   24.52    4.27
   0   0 -11   27.70    4.90
   0   0  11   25.55    3.26
   0   0  11   24.09    4.24
   0   0 -11   27.74    3.31
 -11   0   0   32.12    5.45
   0   1 -11    9.76    2.56
   0  -1 -11    6.89    2.51
 -11   0  -1    6.22    2.34
   1 -11   0    4.35    1.76
  -1 -11   0    5.46    2.31
 -11   0   1    4.83    2.34
  -1  11   0    6.50    1.65
   1  11   0    6.23    1.92
  11   0   1    7.34    2.48
   0   1  11    8.87    2.53
   0   1 -11    8.10    2.43
   0  -1 -11    8.11    2.39
  11   0  -1    6.41    1.98
   0  -1  11    7.68    2.70
   0  -1  11    8.33    1.98
  11   0   1    4.01    0.41
  -1 -11   0    6.31    2.38
   0   1  11    6.68    2.07
   1  11   0    4.77    2.17
  -1  11   0    7.60    2.52
 -11   0  -1    6.80    2.38
 -11   0   2   87.63    8.80
   2 -11   0   83.03    7.80
  -2  11   0   82.01    6.23
   2  11   0   86.05    7.92
  11   0  -2   84.29    8.57
   0   2 -11  103.20    9.25
   0  -2 -11  100.34    7.37
   0  -2  11   97.29    8.99
   0   2  11   95.45    8.31
   0   2 -11   93.28    7.56
   0  -2 -11   92.75    9.60
  11   0   2   90.15    7.23
   0  -2  11   94.01    6.13
  -2 -11   0   81.09    7.83
   2 -11   0   85.11    8.51
  -2  11   0   82.86    8.54
   0   2  11   92.13    8.60
   2  11   0   79.78    8.65
 -11   0   2   82.86    8.86
 -11   0  -2   85.85    8.57
   3  11   0    7.37    2.44
 -11   0   3   13.60    3.98
 -11   0   3   13.81    3.54
   3  11   0    4.52    2.30
  -3  11   0    8.23    2.55
  11   0   3    6.66    1.39
   0   3 -11    9.94    3.40
   0   3  11   10.74    2.97
  11   0  -3   11.38    3.34
  -3 -11   0    7.03    2.30
   0  -3  11   12.99    3.57
  11   0   3    9.49    2.51
   3 -11   0    5.56    1.70
  11   0  -3    6.87    1.96
   0   3  11   10.59    2.92
   0  -3 -11   10.93    3.63
   3 -11   0    6.08    2.30
  -3 -11   0    9.00    2.81
 -11   0   3    9.36    3.14
   0   4 -11   20.66    4.59
   0  -4 -11   20.13    4.38
   4  11   0   18.92    4.00
 -11   0   4   17.80    4.27
   4  11   0   17.41    4.18
  -4  11   0   23.67    4.34
 -11   0   4   19.20    4.37
   0   4  11   17.59    3.37
  11   0  -4   18.62    4.03
  11   0   4   22.26    3.61
 -11   0  -4   19.47    4.03
  -4 -11   0   14.92    3.62
  11   0   4   26.16    4.49
   4 -11   0   21.73    4.22
   0  -4  11   17.24    2.90
   0   4  11   18.22    4.14
  11   0  -4   24.16    3.87
 -11   0   4   18.88    4.41
  -4 -11   0   25.00    4.60
   0  -4 -11   14.72    4.40
   4 -11   0   17.64    3.42
 -11   0   5   -0.61    1.42
  -5 -11   0   -0.17    0.63
   0  -5 -11    1.25    2.41
   5 -11   0    1.12    1.44
   0   5 -11    1.79    0.93
   0  -5 -11   -0.20    1.20
   5  11   0    1.67    1.41
  -5 -11   0    1.95    1.53
  11   0   5    2.52    1.58
  11   0  -5   -1.29    1.19
   0   5  11    1.59    0.91
 -11   0  -5    0.79    0.83
 -11   0  -5   -0.20    1.01
  -5 -11   0   -0.19    0.79
   0  -5  11   -0.20    0.72
  11   0   5    3.03    2.45
   0  -5  11    0.13    1.08
   5 -11   0   -0.58    0.57
  11   0  -5   -0.30    0.44
   0  -5 -11    0.31    0.46
   0   5  11    0.36    1.21
 -11   0   5    1.23    1.60
   5  11   0   -0.19    0.40
 -11   0   5    2.36    2.27
  -5  11   0   -0.83    0.60
 -11   0   6   26.32    5.12
  -6 -11   0   28.93    4.67
   0   6 -11   23.50    4.48
   0  -6 -11   21.99    4.45
  -6  11   0   23.16    4.01
 -11   0   6   24.85    4.60
  -6 -11   0   23.15    4.69
  11   0  -6   25.72    5.04
  11   0   6   23.59    4.13
   0   6  11   17.17    3.21
 -11   0  -6   26.27    5.02
 -11   0  -6   28.54    5.03
  -6 -11   0   25.00    4.75
  11   0   6   30.37    5.08
   0  -6  11   22.45    4.62
   6 -11   0   24.85    4.92
   0  -6  11   17.27    3.48
  11   0  -6   26.19    4.56
   0  -6 -11   24.91    4.22
   0   6  11   21.05    4.36
 -11   0   6   28.87    5.33
   6  11   0   29.81    4.93
 -11   0   6   23.30    5.07
  -6  11   0   24.11    4.12
   0   7 -11   16.48    3.57
  -7  11   0   10.55    2.64
 -11   0   7   16.03    3.90
   7  11   0   15.17    3.47
  11   0   7   15.00    3.34
 -11   0  -7   16.35    4.21
  -7 -11   0    9.55    3.02
   7 -11   0   15.53    3.67
   0  -7  11   14.23    3.43
  11   0  -7   15.36    3.46
  -7 -11   0   15.54    3.18
   0 -11  -1    2.53    1.77
   0 -11   1    1.45    1.59
   1   0 -11    6.37    2.61
 -11   1   0    3.29    1.67
   0  11   1    3.30    1.69
  -1   0 -11    7.16    2.99
   0  11  -1    2.00    1.28
  11  -1   0    2.51    1.73
   1   0 -11    5.30    2.20
  11   1   0    2.98    1.35
   1   0  11    3.29    1.99
  -1   0 -11    3.70    1.92
  -1   0  11    3.80    1.85
   1   0  11    5.24    1.62
   0 -11  -1    3.38    1.48
  -1   0  11    3.69    1.99
   0 -11   1    0.70    1.21
 -11   1   0    3.63    1.88
   0  11   1    0.20    0.59
  -1   0 -11    2.02    0.86
   1 -11  -1  127.27    9.96
  -1 -11  -1  150.49   11.33
 -11   1  -1  117.69    9.98
 -11   1   1  127.95   10.60
   1 -11   1  125.16    9.68
  -1 -11   1  129.92    9.95
  -1  11  -1  126.42    8.40
   1  11  -1  122.51    9.06
  -1  11   1  121.81    8.12
   1  11   1  131.62    9.48
  -1  -1 -11  135.44   11.92
  11   1   1  136.93   10.01
  11  -1  -1  134.50   10.71
  11   1  -1  123.71    9.95
  -1  -1  11  133.76   10.22
  11   1   1  142.19    8.57
   1   1  11  133.23   10.29
   1  -1  11  126.89   10.25
  -1   1  11  130.69    9.59
   1  -1 -11  138.66    9.54
   1   1 -11  131.57   10.21
  -1  -1 -11  144.53   11.43
   1   1 -11  134.39    9.72
 -11   1  -1  126.78   10.59
  -1   1 -11  134.16    9.80
  11   1   1  139.33    8.30
   1  -1  11  135.60    8.16
  11  -1   1  133.90    8.42
  -1 -11   1  125.12   10.01
  -1 -11  -1  120.03    9.13
   1 -11   1  124.40   10.00
  -1  11  -1  134.69   10.97
  -1   1  11  140.25   10.38
   1  -1  11  134.87   10.61
  11  -1  -1  125.05    8.03
   1  11   1  124.85   10.71
   1  11  -1  125.85   10.77
  -1   1 -11  142.78    8.54
 -11   1   1  120.60   10.45
 -11   1  -1  131.32   10.60
 -11  -1   1  108.90   10.01
 -11  -1  -1  125.99   10.69
   2 -11  -1   81.80    8.06
  -2 -11  -1   73.81    8.10
 -11   1   2   72.31    8.00
   2 -11   1   65.44    6.92
   2  11  -1   63.48    6.75
  -2  11   1   59.45    5.42
   2  11   1   66.27    6.94
  -2  11  -1   61.57    5.50
  -1   2 -11   84.60    9.23
  -1  -2 -11   87.76    9.44
  11   1   2   71.75    7.10
  -1  -2  11   87.28    8.51
  11  -1  -2   77.61    8.43
  11   1  -2   70.65    7.74
   1   2 -11   81.62    8.32
   1   2  11   86.60    8.22
  11   1   2   78.11    6.72
  -1  -2  11   83.62    8.27
  -1   2  11   85.90    7.64
   1  -2 -11   77.86    6.86
   1   2 -11   88.49    7.24
  -1  -2 -11   85.54    9.20
  -1   2 -11   83.57    7.24
 -11   1  -2   70.88    7.98
   2 -11  -1   70.71    7.73
  11   1   2   68.75    6.24
  11  -1   2   68.52    6.48
   1  -2  11   87.22    6.51
  -2 -11   1   67.48    7.56
  -2 -11  -1   70.41    7.07
  -1   2  11   83.52    8.13
   2  11   1   68.15    7.96
  -2  11  -1   70.30    7.87
  11  -1  -2   69.12    6.18
   2  11  -1   66.73    7.79
  -1   2 -11   91.12    7.45
 -11  -1   2   73.65    8.37
 -11   1  -2   76.37    8.00
  -2  11   1   70.68    7.98
   3 -11  -1    2.13    0.97
  -3 -11  -1    2.45    1.42
  -1  -3 -11    2.68    1.76
   3 -11   1    5.57    2.21
  -3 -11   1    5.94    1.93
 -11   1   3    2.91    1.52
  -1   3 -11    6.17    2.86
  -1  -3 -11    4.07    2.42
   3  11   1    5.73    1.87
   3  11  -1    4.41    2.01
  11   1   3    3.40    1.20
   1  -3  11    2.60    1.51
  -1  -3  11    2.16    1.92
  11   1   3    2.35    0.27
   1  -3 -11    2.41    1.26
   1   3 -11    3.36    1.38
  11  -1  -3    5.67    2.60
  11   1  -3    2.49    1.66
  -1   3  11    2.27    0.84
   1   3  11    4.92    2.18
 -11   1  -3    3.68    1.58
  -3 -11  -1    2.73    1.65
   3 -11   1    2.97    1.95
   1  -3  11    2.78    1.47
  -1  -3  11    2.55    1.67
  11   1   3    5.76    2.11
  11  -1   3    2.75    1.10
  -3 -11   1    5.45    2.19
  11  -1  -3    6.91    2.14
   1  -3 -11    1.58    0.91
   3 -11  -1    7.23    2.61
  -1   3  11    4.76    2.42
 -11  -1   3    3.39    2.37
  -3  11  -1    3.92    1.60
 -11   1   3    4.63    2.35
   3  11  -1    3.98    1.67
 -11  -1   3    3.01    1.46
   3  11   1    3.12    1.83
  -3  11  -1    5.82    2.26
  -3  11   1    5.53    2.39
 -11   1   4    2.57    1.66
   4 -11  -1    2.02    1.18
  -4 -11  -1    5.27    1.69
  -1  -4 -11    2.61    1.11
   4 -11   1    0.44    0.92
  -4 -11   1    4.68    1.92
  -1   4 -11    5.40    2.62
  -1  -4 -11    3.99    2.49
   4  11   1    1.77    0.37
   4  11  -1    4.84    2.23
   1  -4  11    2.08    1.43
  -1  -4  11    2.03    1.16
  11   1   4    1.13    1.29
   1   4 -11    2.74    1.53
  11  -1  -4    7.09    2.72
  11   1  -4    0.82    0.43
   1   4  11    2.58    0.48
  -1   4  11    2.87    1.03
  -4 -11   1    1.89    0.79
  -4 -11  -1    5.90    2.32
   4 -11  -1    2.06    1.76
   1  -4  11    1.62    0.55
  11   1   4    4.96    2.26
   1  -4  11    3.12    1.48
  -1  -4  11    3.03    1.86
   4 -11   1    3.62    1.74
  11  -1   4    1.90    1.48
  11  -1  -4    2.75    1.69
   1  -4 -11    4.31    1.88
  -1   4  11    6.21    2.02
  -4  11  -1    2.79    1.28
 -11   1   4    2.04    1.21
   4  11  -1    4.91    2.10
 -11  -1   4    3.44    2.04
   4  11   1    2.30    1.14
  -4  11  -1    1.74    0.52
  -4  11   1    3.19    1.44
 -11  -1   4    3.00    1.19
   5 -11  -1  225.56   12.00
  -5 -11  -1  215.28   13.04
 -11   1   5  205.27   13.91
   5 -11   1  210.26   11.48
  -5 -11   1  226.26   13.29
   5  11  -1  192.96   12.98
  -5  11  -1  216.93   11.66
   5  11   1  195.21   12.98
  -1   5 -11  215.86   14.08
  -1  -5 -11  219.65   14.34
  11  -1  -5  213.20   14.57
  11   1  -5  217.16   14.84
   1  -5  11  226.64   14.24
  -1  -5  11  220.75   13.98
  -5 -11  -1  200.66   13.44
   1   5 -11  232.10   15.54
   1   5  11  224.62   12.90
   1  -5  11  228.72   14.60
  -1   5  11  227.34   11.69
  11   1   5  219.50   12.34
 -11   1  -5  204.07   13.71
  -1  -5 -11  221.37   15.99
 -11   1  -5  217.79   14.32
 -11  -1  -5  212.38   13.89
  11   1   5  209.00   12.80
  11  -1   5  209.46   12.89
   5 -11  -1  214.87   13.71
  -1  -5  11  220.54   11.25
  -5 -11   1  207.86   13.69
   1  -5  11  236.37   11.18
  -5 -11  -1  216.47   13.30
   5 -11   1  205.55   13.66
   1  -5 -11  244.50   13.80
   5  11   1  211.65   13.59
   1   5  11  217.69   13.66
   5  11  -1  211.18   13.81
  11  -1  -5  210.35   12.31
  -1   5  11  234.04   13.94
 -11   1   5  217.92   14.44
 -11  -1   5  211.34   14.13
  -5  11  -1  203.61   12.44
 -11  -1   5  205.76   15.10
  -5  11   1  210.59   12.91
 -11   1   6    5.40    2.86
  -6 -11   1    1.91    1.75
  -6 -11  -1    2.31    1.66
  -1   6 -11    2.42    1.24
  -1  -6 -11    1.52    0.56
   1   6 -11    3.37    2.33
   1  -6 -11    2.12    1.46
  -6  11   1    2.40    1.30
  -6  11  -1    0.83    0.50
  -6 -11  -1    5.84    2.54
 -11   1   6    4.81    2.06
   1  -6  11    5.39    2.30
  -6 -11   1    4.82    2.42
  -1  -6  11    2.56    2.11
   1   6  11    6.61    2.24
  11   1   6    1.94    0.90
  11   1  -6    3.81    1.15
 -11   1  -6    3.45    1.76
 -11   1  -6    4.68    2.49
 -11  -1  -6    4.01    2.04
  -6 -11   1    2.23    1.60
   6 -11   1    5.72    2.96
  -6 -11  -1    5.95    2.03
  11   1   6    2.70    1.60
   1  -6  11    3.67    2.09
  11  -1   6    2.53    1.82
   6 -11  -1    4.18    2.36
  -1  -6  11    3.10    1.94
  11  -1  -6    5.08    2.30
   1  -6 -11    8.19    2.57
   1   6  11    6.48    2.68
  -1   6  11    3.66    1.59
  -6  11   1    3.40    1.60
 -11   1   6    3.55    1.96
   6  11  -1    3.00    1.57
 -11  -1   6    4.42    1.69
   6  11   1    4.11    1.84
 -11  -1   6    4.82    2.26
  -6  11  -1    4.05    1.30
  -1   7 -11    1.19    1.07
   1   7 -11    4.62    2.03
  -7  11   1    2.42    1.62
  -7  11   1    4.52    2.07
 -11   1   7    3.54    1.90
   7  11  -1    3.40    1.76
 -11  -1   7    2.96    1.76
   7  11   1    6.24    2.21
   1   7  11    1.04    1.36
  11   1   7    4.42    1.92
 -11  -1  -7    3.93    1.76
  -7 -11   1    2.97    2.13
   7 -11  -1    4.71    2.24
  -1  -7  11    2.19    0.46
  11  -1  -7    3.33    1.40
   1  -7 -11    4.74    1.82
  -7 -11  -1    4.57    1.84
  -7 -11   1    2.94    1.49
   0 -11  -2   26.23    4.63
 -11  -2   0   27.96    4.96
   0 -11   2   30.19    4.75
 -11   2   0   21.52    4.40
   0  11   2   25.12    3.99
   0  11  -2   25.74    3.91
  -2   0 -11   32.88    6.17
  11  -2   0   27.13    4.95
  11   2   0   27.61    4.42
  -2   0  11   30.15    4.72
   2   0  11   35.38    5.78
   2   0 -11   35.73    5.25
  -2   0 -11   36.30    5.39
   2   0  11   36.87    4.57
   0 -11  -2   29.46    4.32
   0 -11   2   25.86    4.50
   2   0  11   34.86    5.33
  -2   0  11   33.28    5.07
  11  -2   0   31.92    4.21
 -11   2   0   28.14    5.07
  -2   0 -11   33.92    4.04
   0  11   2   24.93    4.90
   1 -11  -2   66.67    7.32
  -1 -11  -2   73.38    7.73
   1 -11   2   63.32    6.81
 -11  -2   1   67.04    7.64
  -1 -11   2   60.84    6.86
 -11   2   1   60.21    7.15
  -1  11   2   56.54    5.62
  -1  11  -2   60.55    5.90
   1  11   2   64.94    6.69
  -2  -1 -11   66.49    8.27
   1  11  -2   61.33    6.42
  11  -2  -1   65.25    7.63
  11   2   1   68.34    6.87
  11   2  -1   67.57    7.17
  -2   1  11   67.05    6.82
   2   1  11   62.23    7.11
  11   2   1   74.98    6.70
  -2  -1  11   61.33    6.81
   2  -1 -11   58.16    6.38
   2   1 -11   72.20    7.71
   2   1 -11   63.30    6.67
  -2   1 -11   60.59    6.86
 -11   2  -1   66.58    7.55
  -2  -1 -11   63.92    7.80
  11   2   1   69.58    5.90
   2  -1  11   64.30    6.01
   1 -11   2   63.13    7.27
  11  -2   1   65.93    6.20
  -1 -11   2   62.81    7.35
  -1 -11  -2   69.25    6.63
   2   1  11   61.15    7.07
  -2   1  11   67.22    7.12
   1  11  -2   61.67    7.65
  -1 -11  -2   69.63    5.36
  11  -2   1   71.47    5.99
   2  -1  11   70.70    7.73
  11  -2  -1   73.22    6.46
  -1  11  -2   63.91    7.69
 -11   2   1   69.43    8.11
 -11   2  -1   62.34    7.31
  -2   1 -11   67.21    6.01
 -11  -2   1   62.76    7.61
   1  11   2   62.08    7.60
   2 -11   2    9.86    2.83
   2 -11  -2    8.40    2.47
  -2 -11  -2   10.71    3.01
   2   2 -11    4.28    1.49
 -11  -2   2    7.14    3.13
 -11   2   2    6.35    2.39
  -2   2 -11    6.09    2.78
  -2  -2 -11    5.00    1.99
  -2  11   2    6.72    1.57
   2  11  -2    7.54    2.10
  -2  11  -2    9.94    2.35
   2  11   2    8.52    2.53
  11   2   2    3.49    1.29
  11  -2  -2    4.47    2.20
  -2  -2  11    5.63    2.18
   2  -2 -11    6.67    2.18
   2   2 -11    6.46    2.33
  11   2  -2    9.47    2.95
  11   2   2    4.78    1.46
   2   2  11    7.76    2.62
  -2   2 -11    6.80    2.12
  -2  -2 -11    4.69    2.37
 -11   2  -2    5.15    2.19
  -2 -11  -2    7.23    1.93
   2 -11   2   12.76    3.62
  11  -2   2    7.98    2.57
  -2   2  11    6.05    1.78
  11   2   2    5.12    1.72
  -2  -2  11    4.61    1.64
   2  -2  11    6.69    1.95
  -2 -11   2   10.84    3.33
  -2   2  11    2.75    1.63
   2  -2 -11    6.79    2.44
  11  -2  -2    6.91    1.91
   2   2  11    6.80    2.76
   2  11  -2    9.71    3.37
  -2  11  -2    6.06    2.10
 -11   2  -2    7.06    2.57
   2  11   2   11.81    3.65
  -2   2 -11    5.16    1.83
  -2  11   2    9.83    2.92
 -11  -2   2    6.61    2.66
   3 -11  -2   36.18    5.33
  -2  -3 -11   21.51    4.94
   3 -11   2   33.87    5.04
 -11  -2   3   33.90    5.56
 -11   2   3   34.39    5.77
  -3 -11   2   33.69    5.17
   3  11  -2   38.37    5.57
  -2   3 -11   30.81    5.43
  -2  -3 -11   25.36    4.90
   3  11   2   35.52    5.48
  11   2   3   35.50    4.73
  11   2  -3   42.77    6.28
   2  -3  11   31.31    5.39
  -2  -3  11   29.92    4.93
  11  -2  -3   36.40    5.73
   2  -3  11   28.61    5.19
   2   3  11   26.86    4.69
  11   2   3   38.79    5.16
  -2  -3  11   26.26    4.70
   2  -3 -11   27.14    3.76
  -2   3  11   28.36    4.21
   2   3 -11   30.81    5.50
 -11   2  -3   35.01    5.74
  11   2   3   34.54    4.63
  11  -2   3   39.68    5.14
   2  -3  11   25.11    3.84
  -3 -11   2   36.60    5.75
  -3 -11  -2   36.38    5.08
  -2   3  11   22.77    4.16
   2  -3 -11   34.23    5.51
   3  11  -2   34.43    5.75
  -3  11  -2   44.01    6.23
  11  -2  -3   35.72    4.89
   2   3  11   26.25    4.57
  -3  11  -2   35.61    4.99
 -11   2   3   33.22    5.77
  -2   3 -11   32.16    4.76
 -11  -2   3   39.37    6.24
 -11   2  -3   36.47    5.29
   3  11   2   37.01    5.85
  -3  11   2   32.94    5.46
 -11   2   3   32.73    5.95
 -11  -2   3   38.13    6.46
   4 -11  -2   34.19    4.81
  -4 -11  -2   36.47    5.36
  -2  -4 -11   33.23    6.02
   4 -11   2   29.85    4.46
 -11  -2   4   35.15    5.76
 -11   2   4   39.62    5.95
  -4 -11   2   33.13    5.00
   4  11  -2   35.52    5.38
  -2   4 -11   31.59    5.33
   4  11   2   28.85    4.85
  -2  -4 -11   35.87    5.84
  11   2  -4   37.93    5.90
  11   2   4   41.76    5.09
   2  -4  11   36.53    5.51
  -2  -4  11   33.99    5.23
  11  -2  -4   34.73    5.79
  -4 -11  -2   32.08    5.25
   2   4  11   38.64    5.66
   2  -4  11   36.34    5.81
  11   2   4   35.18    4.98
  -2  -4  11   40.18    6.00
  -2   4  11   36.63    4.63
   2   4 -11   43.31    6.51
 -11   2  -4   38.87    6.13
   4 -11  -2   36.32    5.61
  11   2   4   33.35    4.81
  11  -2   4   37.08    5.47
   2  -4  11   35.96    4.75
  -4 -11   2   34.53    5.57
  -4 -11  -2   32.63    4.91
   4 -11   2   30.24    5.16
   2  -4 -11   37.28    5.82
  -4  11  -2   36.36    5.43
   4  11  -2   36.65    5.84
  11  -2  -4   37.58    5.19
   2   4  11   35.43    5.41
  -2   4  11   33.08    5.07
  -2   4 -11   40.73    5.56
  -4  11  -2   31.17    4.80
   4  11   2   32.76    5.47
 -11   2   4   38.60    6.45
 -11  -2   4   35.34    6.04
  -4  11   2   31.30    5.18
 -11  -2   4   31.78    5.26
   5 -11  -2   78.50    6.91
  -5 -11  -2   76.36    7.78
   5 -11   2   75.08    7.04
 -11  -2   5   78.77    8.59
 -11   2   5   85.12    9.08
  -5 -11   2   75.94    7.72
   5  11  -2   64.53    7.63
   5  11   2   71.57    7.90
  -2   5 -11   86.51    8.88
  -2  -5 -11   79.13    8.49
   2  -5  11   86.83    8.83
  -2  -5  11   78.29    8.13
  11   2  -5   73.14    8.53
  -5 -11  -2   74.52    8.21
   2  -5  11   82.10    8.76
   2   5  11   85.83    8.20
   2   5 -11   76.85    8.99
  11   2   5   86.97    7.98
 -11   2  -5   80.53    8.57
 -11  -2  -5   76.81    8.37
  -2  -5 -11   86.73    9.97
  11   2   5   78.34    7.74
  11  -2   5   81.86    8.14
  -2  -5  11   85.19    8.76
   2  -5  11   86.41    7.17
  -2  -5  11   84.39    6.89
   5 -11   2   78.54    8.47
  -5 -11   2   69.04    8.08
   5 -11  -2   78.41    8.24
  -5 -11  -2   83.83    7.99
   2  -5 -11   76.74    8.13
   5  11  -2   75.94    8.30
  11  -2  -5   78.65    7.71
   2   5  11   75.15    8.13
  -2   5  11   85.99    8.17
 -11  -2   5   72.34    8.25
  -5  11  -2   74.25    7.27
  -5  11  -2   83.21    7.85
   5  11   2   80.70    8.41
 -11   2   5   80.51    9.27
 -11  -2   5   81.73    9.43
  -5  11   2   76.08    7.90
 -11  -2   6   11.18    3.34
 -11   2   6    8.86    2.67
  -6 -11  -2    7.37    2.66
  -6 -11   2    8.55    2.29
  -2   6 -11    5.08    1.97
  -2  -6 -11    5.53    2.08
   2   6 -11   10.46    3.23
  -6  11   2    7.07    2.62
  -2  -6  11    7.32    2.83
  -6 -11  -2    8.67    2.96
 -11  -2   6    3.55    1.31
 -11   2   6    8.10    2.47
   2  -6  11    3.98    1.62
   2   6  11    7.61    2.35
  11   2   6   12.99    3.39
  11  -2  -6    5.50    2.49
  11   2  -6    7.62    2.78
 -11  -2  -6    9.75    3.54
 -11   2  -6    8.65    2.57
 -11  -2  -6    9.01    2.72
  -6  11  -2    5.08    1.97
 -11   2  -6    6.48    2.74
  -6 -11   2    7.61    3.08
  -6 -11  -2    6.46    2.32
  11   2   6   11.26    3.37
   2  -6  11    6.32    2.53
   2  -6  11    6.28    1.76
   6 -11   2    8.18    2.96
  11  -2   6    9.03    2.79
  -2  -6  11    8.42    2.28
  11  -2  -6   10.37    3.03
   2  -6 -11    9.24    2.82
   6 -11  -2    4.77    1.49
   6 -11  -2    4.91    1.82
  -2   6  11    7.72    2.39
  -6  11   2    7.63    1.98
   6  11  -2    7.99    2.91
 -11  -2   6    9.50    2.97
   6  11   2    6.14    2.39
  -6  11  -2    7.64    2.41
 -11   2   6    5.04    2.85
 -11  -2   6    9.08    3.13
  -7  11   2   13.64    3.11
   7  11  -2   11.23    2.73
 -11  -2   7   12.73    3.24
   2   7  11    7.89    1.95
  11   2   7   16.66    3.53
  -2  -7  11    7.62    2.38
  11  -2  -7   16.83    3.60
   2  -7 -11    9.50    2.64
   7 -11  -2    9.94    2.94
  -7 -11   2   16.17    3.69
  -7 -11  -2   12.34    3.12
   0 -11  -3   71.99    7.53
   0 -11   3   77.05    7.60
 -11  -3   0   80.77    8.22
 -11   3   0   74.57    7.84
   0  11   3   72.70    6.87
   0  11  -3   72.89    6.99
  -3   0 -11   60.99    7.85
  11   3   0   83.12    7.79
  -3   0  11   66.20    6.75
   3   0 -11   68.99    7.46
  -3   0 -11   67.80    7.67
 -11   3   0   75.12    8.02
   3   0  11   61.96    6.32
   0 -11   3   79.36    7.82
  11  -3   0   80.01    6.48
   0  11  -3   72.71    8.36
   3   0  11   65.38    7.37
   0 -11  -3   73.36    5.96
  11  -3   0   82.80    7.23
 -11   3   0   79.88    8.48
   0  11   3   78.73    8.53
  -3   0 -11   66.31    5.77
   1 -11   3   12.31    3.31
  -1 -11   3   12.45    3.14
 -11  -3   1   13.85    3.34
 -11   3   1   12.71    3.55
   1 -11  -3   11.33    3.13
  -1 -11  -3    8.31    2.49
  -3  -1 -11    4.20    1.80
   1  11   3   15.92    3.67
  -1  11  -3   11.40    2.74
   1  11  -3   11.55    2.96
  -1  11   3   11.95    2.56
 -11  -3   1   10.16    3.04
  11  -3  -1   12.84    3.78
   3  -1  11    8.36    2.62
   3  -1 -11    8.01    2.56
   3   1 -11   11.86    3.39
  11   3   1   10.86    2.70
  11   3  -1   15.02    3.67
   3   1  11    9.15    2.93
  -3  -1 -11   10.27    3.42
  -3   1 -11    7.97    2.79
  -3   1 -11    6.89    2.12
 -11   3  -1    8.36    2.50
   1 -11   3   13.04    3.40
  11  -3   1   13.51    2.87
  -3   1  11    7.21    2.31
  -3  -1  11   11.92    3.24
   3  -1  11    6.94    2.18
  -1 -11   3   11.02    3.09
   3   1  11    6.97    2.43
  -3   1  11    9.68    2.60
   3  -1 -11    5.42    2.70
  -1 -11   3   14.74    3.35
   3  -1  11    7.30    2.67
   1 -11  -3   13.64    2.89
  11  -3   1   11.91    2.76
  11  -3  -1   11.99    2.58
 -11   3   1   12.16    3.64
  -1  11  -3    9.02    2.94
 -11   3  -1   11.87    3.16
   1  11   3   10.79    3.30
   2 -11  -3  605.35   21.26
  -2 -11  -3  565.52   21.39
   2 -11   3  573.04   20.78
 -11  -3   2  549.45   21.76
 -11   3   2  544.10   21.63
   2  11   3  550.22   20.44
  -2  11  -3  541.80   16.88
  -2  11   3  568.88   17.01
   2  11  -3  556.95   20.64
  -3   2 -11  563.24   24.01
  -3  -2 -11  550.84   23.73
 -11  -3   2  559.26   20.18
  11  -3  -2  568.03   23.22
  11   3  -2  553.89   21.22
  -3  -2  11  574.63   20.92
  11   3   2  580.50   19.13
  -3  -2  11  596.12   21.29
   3   2  11  589.15   22.50
  11   3   2  564.72   19.83
  -3   2  11  585.64   18.57
   3  -2  11  597.48   23.02
   3  -2 -11  564.09   19.75
   3   2 -11  578.77   23.08
  -3   2 -11  578.59   20.35
 -11   3  -2  566.87   22.55
  -3  -2 -11  594.75   24.56
   2 -11   3  551.12   21.37
   3  -2  11  578.38   19.17
  11  -3   2  576.13   19.55
  -2 -11   3  562.24   22.75
   3   2  11  555.85   21.29
   2  11  -3  571.46   23.17
   3  -2 -11  578.18   23.15
  -3   2  11  574.36   20.35
  11  -3   2  592.70   18.37
   2 -11  -3  569.43   19.01
  11  -3  -2  562.68   19.76
  -2  11  -3  575.44   22.56
 -11   3  -2  549.01   21.02
  -3   2 -11  598.01   19.84
   2  11   3  548.09   22.54
  -2  11   3  573.74   22.94
   3 -11  -3   33.23    4.80
   3 -11   3   31.74    4.74
  -3 -11   3   32.25    5.04
 -11  -3   3   28.43    5.10
 -11   3   3   31.86    5.25
   3  11   3   25.15    4.55
  -3   3 -11   36.67    6.23
  -3  -3 -11   36.46    6.06
   3  11  -3   29.43    4.98
 -11  -3   3   33.55    4.67
  11   3  -3   37.40    5.73
   3  -3  11   36.41    5.53
  -3  -3  11   37.84    5.47
  -3 -11  -3   31.93    4.91
   3  -3  11   41.36    6.09
   3   3  11   36.72    5.45
  -3  -3  11   44.31    6.10
  -3   3  11   42.13    4.76
  11   3   3   33.21    4.93
   3  -3 -11   38.98    4.81
   3   3 -11   34.00    5.77
  -3  -3 -11   33.29    6.08
 -11   3  -3   33.08    5.53
   3  -3  11   39.48    5.00
  11  -3   3   37.09    5.21
  -3 -11   3   30.80    5.54
   3 -11   3   33.00    5.22
   3  -3 -11   40.80    6.21
  -3   3  11   40.50    5.36
   3 -11  -3   33.23    4.82
  11  -3  -3   31.53    4.83
  -3  11  -3   31.35    5.06
   3   3  11   42.33    5.98
  -3  11   3   25.21    4.71
  -3   3 -11   35.75    5.14
 -11   3  -3   34.44    5.13
 -11  -3   3   34.01    5.67
   3  11  -3   27.59    5.20
   3  11   3   32.01    5.42
   4 -11   3  169.23   10.91
   4 -11  -3  178.71   10.88
  -4 -11  -3  169.23   11.77
 -11  -3   4  170.80   12.40
 -11   3   4  159.19   12.02
  -4 -11   3  177.73   11.63
   4  11   3  170.74   11.98
  -3   4  11  177.66   10.67
  -3   4 -11  154.79   12.51
  -3  -4 -11  164.46   12.76
   4  11  -3  163.21   11.86
   3  -4  11  166.76   11.99
  -3  -4  11  166.57   11.68
  -4 -11  -3  174.33   12.02
  11   3  -4  169.40   12.50
   3   4  11  163.83   11.81
   3  -4  11  171.71   12.58
  11   3   4  173.11   11.62
   3   4 -11  170.01   13.14
 -11   3  -4  172.98   12.82
  -3  -4 -11  162.84   13.50
  11  -3   4  168.48   11.57
  -3  -4  11  171.72   12.24
   3  -4  11  169.00   10.60
  -4 -11   3  169.05   12.76
   3  -4 -11  168.50   12.25
  -3   4  11  168.09   11.10
   4  11  -3  171.18   12.54
  -4  11  -3  173.04   11.85
   4 -11  -3  167.75   11.41
  11  -3  -4  175.14   11.67
   3   4  11  161.15   11.60
  -4  11  -3  165.68   11.43
  -3   4 -11  173.26   11.84
 -11  -3   4  169.71   12.69
 -11   3  -4  183.13   11.14
   4  11   3  169.04   12.13
 -11   3   4  169.39   13.33
 -11  -3   4  172.35   13.46
  -4  11   3  166.72   12.06
 -11  -3   5    8.35    3.18
 -11   3   5    4.16    2.63
   5 -11   3    2.01    1.45
   5 -11  -3    2.69    1.26
  -5 -11  -3    4.56    2.60
  -5 -11   3    8.15    2.99
   5  11   3    3.75    2.26
  -3   5 -11   11.15    3.48
  -3  -5 -11   10.85    3.30
   3   5 -11   10.23    3.45
   5  11  -3    5.80    2.50
  -5 -11  -3    3.62    1.83
   3  -5  11    7.12    2.65
  -3  -5  11   11.71    3.07
   3   5  11   11.62    3.55
  11   3   5    3.14    0.90
  11  -3  -5    5.91    2.87
  11   3  -5    2.55    1.78
  -3  -5 -11    9.86    3.90
 -11  -3  -5    8.69    3.94
 -11   3  -5    6.76    3.26
  11  -3   5    4.31    2.38
  -5 -11   3    8.10    3.23
   3  -5  11    9.67    2.95
   3  -5  11   13.75    3.63
   5 -11   3    4.95    2.31
  11  -3  -5    3.92    2.31
   3  -5 -11   10.43    3.27
   3   5  11    8.16    2.81
   5 -11  -3    4.87    2.04
  -3   5  11    7.84    2.42
 -11  -3   5    3.56    2.20
  -5  11   3    3.33    2.09
  -5  11  -3    6.33    2.49
   5  11  -3    3.76    2.08
  -3   5 -11   11.01    3.46
  -5  11  -3    2.71    1.06
   5  11   3    3.08    1.74
 -11   3   5    3.94    2.88
 -11  -3   5    7.63    3.18
 -11  -3   6  112.72   10.38
 -11   3   6  106.77   10.20
  -6 -11   3  106.25    8.77
  -6 -11  -3   95.99    8.82
  -3   6 -11   96.16    9.09
  -3  -6 -11   91.48    9.07
  11  -3  -6   93.39    9.65
   3  -6  11  103.08    9.77
  -6 -11   3  102.29    9.73
  -6 -11  -3   95.89    9.46
   3   6 -11  101.99   10.47
   3  -6  11   87.41    8.97
  11   3  -6   99.13   10.00
  11   3   6  104.28    9.31
   3   6  11   91.21    8.80
 -11   3  -6  104.93    9.89
 -11  -3  -6  104.74    9.82
 -11  -3  -6   98.94   11.12
  11  -3   6  102.10    9.57
   6 -11   3   95.50    9.53
  -3  -6  11   88.53    7.71
   3  -6  11   95.73    8.13
  -6 -11   3   97.78   10.00
  -3   6 -11   87.75    9.00
 -11  -3   6  105.99    9.81
  -6  11  -3  105.90    8.47
 -11   3   6  109.93   10.99
 -11  -3   6  104.84   10.69
  -6  11  -3  104.77    9.11
   6  11   3  102.21    9.00
  -6  11   3  100.56    8.99
   6  11  -3   92.39    9.09
   6 -11  -3  100.29    9.45
   3   6  11   94.88    9.16
  11  -3  -6  100.26    9.31
  -3   6  11  104.55    8.91
   3  -6 -11   90.65    8.95
  -3  -7  11   10.48    2.65
   3  -7  11   10.51    2.81
  -7  11   3    9.10    2.62
   0 -11   4    1.19    0.80
   0 -11  -4    4.02    1.51
   0 -11  -4    1.87    1.82
 -11  -4   0    4.16    2.82
 -11   4   0    1.03    0.72
  -4   0 -11   -0.45    1.17
   0  11  -4    1.31    1.29
   0  11   4    1.16    1.18
 -11  -4   0    1.13    1.31
   4   0  11    2.14    1.35
   4   0 -11    3.27    2.09
  11   4   0    2.24    1.47
  -4   0 -11    2.00    2.01
  -4   0 -11   -0.93    0.24
 -11   4   0    1.43    1.67
   0 -11   4    1.13    1.76
   4   0  11    0.15    1.43
  -4   0  11    0.97    1.13
  11  -4   0    2.43    0.85
   4   0  11    1.57    2.04
  11  -4   0    3.38    1.37
   0 -11  -4    0.11    0.38
 -11   4   0    4.76    2.50
   0  11  -4    1.82    1.80
   0  11   4    0.82    0.86
   1 -11   4    1.18    1.23
  -1 -11   4    0.17    1.01
   1 -11  -4    1.54    1.24
  -1 -11  -4   -1.24    0.65
  -1 -11  -4   -0.50    1.40
 -11  -4   1   -0.18    0.91
 -11   4   1    0.35    0.73
  -4  -1 -11   -1.13    1.25
   1  11   4    2.36    1.65
  -1  11  -4   -0.67    0.49
   1  11  -4    0.78    1.39
  -1  11   4    1.70    0.82
  11  -4  -1   -0.61    1.05
 -11  -4   1    0.18    0.53
 -11  -4  -1    1.78    1.24
  -4  -1  11   -0.91    1.06
  -1 -11  -4   -0.29    1.04
   4  -1 -11    1.53    1.13
   4   1 -11    0.39    0.70
  11   4   1   -0.14    0.96
  11   4  -1   -0.32    0.89
   4  -1  11    0.59    0.58
  -4  -1 -11   -0.21    1.56
  -4   1 -11   -0.66    0.74
  -4   1 -11    0.18    1.09
 -11   4  -1   -0.74    0.96
 -11   4   1    2.04    1.01
  -4   1  11   -1.03    0.76
  11  -4   1    2.05    1.41
  -4  -1  11    1.06    1.42
   4  -1  11   -0.15    0.77
  -1 -11   4    0.81    1.20
   1 -11   4   -0.51    0.94
   4   1  11    0.17    0.52
  -1 -11   4    0.31    0.56
   4  -1  11   -0.89    0.83
  -4   1  11    0.73    0.61
  11  -4   1    1.48    1.58
  11  -4  -1   -0.16    1.34
   1 -11  -4    1.84    1.09
 -11   4  -1    0.18    0.38
  -1  11  -4    0.99    1.31
   1  11   4    2.24    2.18
   2 -11   4   12.63    3.18
   2 -11  -4   14.67    3.32
  -2 -11  -4   13.17    3.35
 -11  -4   2   15.08    3.52
 -11   4   2   15.71    3.65
  -4   2 -11   11.71    3.44
  -4  -2 -11   19.26    4.28
  -2  11  -4   13.63    2.65
   2  11   4    9.22    2.54
  -2  11   4   13.00    2.56
   2  11  -4   11.72    3.22
 -11  -4   2   17.67    3.76
 -11  -4  -2   13.80    3.96
  -4  -2  11   16.93    3.65
  -2 -11  -4   15.77    3.25
   4  -2 -11   15.97    3.50
   4   2 -11   18.56    4.30
   4   2  11   14.42    3.63
  11   4  -2   18.29    3.82
   4  -2  11   18.07    4.28
  -4   2 -11   12.88    3.20
  -4   2 -11   17.54    3.43
 -11   4  -2   13.69    3.41
  -4  -2 -11   13.63    4.37
   2 -11   4   12.76    3.53
  11  -4   2   15.93    3.04
  -4   2  11   17.62    3.02
  -4  -2  11   15.92    3.56
   4  -2  11   18.28    3.52
  -2 -11   4   15.17    3.99
   4   2  11   13.74    3.18
   4  -2 -11   15.79    3.93
  -4   2  11   16.96    3.36
   2 -11  -4   12.98    3.02
  11  -4  -2   17.28    3.71
  -2  11   4   14.54    3.62
   2  11  -4   11.16    3.19
  -2  11  -4   12.40    3.40
 -11   4  -2   11.61    3.14
   2  11   4    8.02    2.63
   3 -11   4    1.62    0.68
  -3 -11   4    2.01    1.36
   3 -11  -4    0.31    0.57
 -11  -4   3    0.92    1.97
 -11   4   3    2.38    1.39
  -4   3 -11    2.90    1.15
  -4  -3 -11    3.98    2.78
   3  11   4    0.35    0.98
   3  11  -4    2.32    1.63
  -3 -11  -4    1.64    1.88
 -11  -4   3    2.03    1.39
   4  -3  11    3.49    1.44
  -4  -3  11    3.37    2.05
  11  -4  -3    2.67    1.29
   4  -3 -11    1.30    0.91
   4   3  11    2.90    1.94
   4   3 -11    8.12    3.08
  11   4   3    1.54    1.61
  11   4  -3    0.55    0.39
  -4  -3 -11    2.39    0.71
  -4   3 -11    0.99    1.34
 -11   4  -3    2.41    1.46
  11  -4   3    2.45    1.46
   4  -3  11    2.16    1.60
   3 -11   4    2.40    0.67
   4  -3  11    3.09    1.84
  -3 -11   4   -0.21    0.44
  -4   3  11    2.45    1.63
   4  -3 -11    3.11    1.74
   3 -11  -4    2.65    1.85
   4   3  11    2.46    1.92
  11  -4  -3    1.21    0.63
  -3  11   4    0.20    1.35
   3  11  -4    3.30    2.41
  -3  11  -4    4.38    2.06
 -11   4  -3    0.63    1.14
   3  11   4    1.18    1.09
   4 -11   4    2.19    1.47
  -4 -11   4    3.13    2.19
  -4 -11  -4    1.82    1.71
   4 -11  -4    1.03    1.03
 -11  -4   4    2.65    1.78
 -11   4   4    1.51    1.78
   4  11  -4    0.94    0.88
  -4   4  11    1.77    1.32
   4  11   4    0.92    1.45
  -4   4 -11   -1.08    1.01
  -4  -4 -11   -1.08    0.79
  -4 -11  -4    2.46    1.61
 -11  -4   4    1.57    1.70
   4  -4  11   -0.74    1.41
  -4  -4  11    0.83    0.70
   4   4  11    1.16    1.58
   4   4 -11   -0.89    0.66
  11  -4  -4   -0.83    1.62
  11   4  -4   -0.20    1.37
  11   4   4    1.08    1.31
  -4  -4 -11    1.49    0.74
 -11   4  -4    2.29    1.45
  -4 -11   4    1.91    2.05
   4  -4  11    2.69    1.20
  11  -4   4    1.57    1.10
   4  -4  11    1.78    1.76
   4 -11   4    2.12    1.28
  -4   4  11    0.87    0.75
   4  -4 -11    1.44    2.03
   4 -11  -4    1.88    1.29
   4   4  11    1.61    1.13
  11  -4  -4    1.08    0.76
 -11   4   4    4.19    1.79
 -11  -4   4    1.32    0.93
  -4   4 -11   -0.18    1.87
  -4  11   4    1.39    0.59
   4  11  -4    2.05    1.36
  -4  11  -4    0.18    0.67
  -4  11  -4    0.68    1.08
 -11   4  -4    0.99    0.42
   4  11   4    2.66    2.04
   5 -11   4    4.95    1.61
  -5 -11  -4    9.21    2.71
  -5 -11   4    5.13    1.84
 -11  -4   5    4.63    2.10
 -11   4   5    5.80    1.86
   4   5 -11   12.18    3.64
   5  11   4    8.54    2.58
   5  11  -4    7.25    2.44
  -4   5  11    7.80    2.48
  -4  -5 -11    9.32    3.01
  -4  -5  11    9.99    2.94
  -5 -11  -4    8.01    2.41
   4  -5  11    9.26    3.00
  11   4   5    5.59    1.92
  11  -4  -5    7.29    2.36
  11   4  -5    8.35    2.91
   4   5  11   12.46    3.30
 -11  -4  -5   11.48    3.26
  -4  -5 -11   10.28    3.28
 -11   4  -5    8.62    3.00
  -4   5 -11   10.95    3.60
  -5 -11   4    5.71    2.31
  11  -4   5    6.28    2.42
   4  -5  11    9.24    2.55
   4  -5  11    8.47    2.68
  11  -4  -5    5.83    2.68
   4  -5 -11   11.86    3.59
   4   5  11    7.80    2.67
   5 -11  -4    6.25    2.41
  -4   5  11   11.06    2.66
  -4   5 -11   11.44    3.25
  -5  11   4    9.68    2.99
  -5  11  -4    8.57    2.53
   5  11  -4    6.45    2.24
  -5  11  -4    4.43    1.29
 -11   4   5    5.65    2.07
   5  11   4    8.96    2.66
 -11  -4   5    9.22    3.02
  -6 -11   4    3.11    1.35
  -4   6  11    4.22    1.99
  -4   6  11    2.23    1.46
  -6  11  -4    2.47    1.13
  -4   6 -11    5.81    2.18
  -4  -6 -11    5.76    3.08
   4  -6  11    2.10    1.07
  -4   6  11    2.53    1.47
   6  11   4    3.44    2.31
  -6  11   4    5.91    2.48
   0 -11   5   30.85    5.03
   0 -11  -5   37.27    5.53
  11   5   0   39.46    4.91
   0  11  -5   29.94    4.82
   0  11   5   34.07    4.91
  -5   0 -11   37.74    6.17
 -11  -5   0   42.15    6.40
  -5   0  11   40.52    5.22
   5   0  11   36.09    5.84
   5   0 -11   35.46    5.73
  -5   0 -11   43.38    6.45
 -11   5   0   38.43    5.61
   0 -11  -5   33.70    5.47
   5   0  11   45.79    5.94
   0 -11   5   27.60    4.38
   5   0 -11   41.19    6.55
   5   0  11   32.83    5.35
  11  -5   0   35.30    5.37
   0  11  -5   28.81    5.32
  -5   0 -11   43.60    5.15
   0  11   5   38.66    6.35
   1 -11   5  298.28   15.57
 -11  -5   1  297.38   15.20
 -11   5   1  277.96   14.77
  -1 -11  -5  317.01   16.54
   1 -11  -5  325.28   16.41
  11   5   1  320.42   14.22
  -1  11  -5  316.56   14.27
   1  11  -5  301.21   15.11
  -1  11   5  322.46   14.33
   1  11   5  312.13   15.37
  -5  -1 -11  295.62   17.73
  11   5  -1  306.29   13.81
 -11  -5   1  324.32   16.85
 -11  -5  -1  323.86   17.62
  11   5  -1  317.11   15.05
  -5  -1  11  316.62   14.45
   5   1  11  307.94   16.81
   1  11   5  327.55   13.89
   5  -1  11  305.11   16.87
   5  -1 -11  316.99   16.31
   5   1 -11  299.46   16.83
  -5   1 -11  323.99   17.21
  -5  -1 -11  324.31   18.46
  -1 -11  -5  297.35   16.15
 -11   5  -1  320.58   16.61
 -11   5   1  299.89   15.12
   1 -11   5  315.27   15.67
   5  -1  11  325.82   15.63
  -5   1  11  307.46   12.93
  -1 -11   5  304.28   17.41
  -1 -11   5  309.74   14.78
  11  -5   1  309.33   14.50
  -1  11  -5  316.18   17.20
   5  -1 -11  316.75   17.90
   5   1  11  315.28   15.94
  11  -5   1  332.65   15.96
  11  -5  -1  321.02   16.27
   1 -11  -5  298.24   13.24
   5  -1  11  309.29   15.98
 -11   5  -1  300.20   15.71
   1  11   5  313.58   17.52
  -1  11   5  327.54   18.05
  -5   1 -11  336.74   14.84
  -2 -11   5   -0.17    0.81
  -2 -11  -5    0.94    1.18
   2 -11  -5    2.21    1.71
 -11  -5   2    2.23    1.69
 -11   5   2    1.71    1.72
   2 -11   5    1.69    1.98
  -2  11   5    1.33    1.14
  11   5   2    1.26    1.50
   2  11  -5    2.42    1.54
   2  11   5   -0.52    0.51
  -2  11  -5    0.76    0.99
  -5  -2 -11    2.28    1.44
  -2 -11  -5    1.17    0.68
 -11  -5   2    2.15    1.68
 -11  -5  -2    1.92    1.73
  11  -5  -2    0.21    2.44
  -5  -2  11    1.01    0.74
   5  -2 -11    0.51    1.38
   5   2 -11    0.21    0.44
   5  -2  11   -0.59    1.44
   2  11   5    0.44    2.03
  11   5  -2    0.83    1.82
  -5  -2 -11    3.10    2.50
  -5   2 -11    2.20    1.28
 -11   5  -2    1.74    2.23
  -2 -11  -5    1.86    1.75
  -5   2 -11   -2.28    1.69
   2 -11   5   -0.88    1.38
  11  -5   2    0.80    0.75
   5  -2  11    1.15    1.61
  -2 -11   5    1.06    1.26
   5   2  11    3.48    1.90
  -5   2  11    1.72    1.50
  11  -5  -2    1.63    1.42
   2 -11  -5   -1.13    2.05
   2  11  -5    2.52    1.46
   2  11   5    3.31    2.25
  -2  11  -5    1.91    1.93
 -11   5  -2    1.84    1.41
   3 -11  -5   74.68    7.43
   3 -11   5   69.71    7.50
  -3 -11   5   70.68    7.50
 -11  -5   3   73.62    7.79
 -11   5   3   72.58    7.72
   3  11  -5   77.61    8.13
   3  11   5   68.41    7.59
 -11  -5   3   84.39    8.09
  11  -5  -3   70.96    8.43
   5  -3  11   63.28    7.28
  -5  -3  11   62.75    6.60
  -3 -11  -5   74.23    7.35
  11   5   3   84.21    8.57
  11   5  -3   66.98    7.59
   5  -3 -11   71.35    7.21
   5  -3  11   65.35    7.94
   5   3 -11   66.42    8.12
   5   3  11   61.24    7.53
  -5  -3 -11   60.85    8.42
  -5   3 -11   62.59    8.39
  -5  -3 -11   64.04    8.43
 -11   5  -3   74.34    8.42
  -3 -11  -5   70.37    7.77
   5  -3  11   56.12    6.72
   3 -11   5   78.36    8.22
  -3 -11   5   71.95    8.69
  11  -5   3   79.64    7.88
   5   3  11   62.07    7.17
   5  -3 -11   69.46    8.27
  -3  11  -5   77.63    8.12
  -5   3  11   66.63    6.33
   3 -11  -5   70.03    7.22
  11  -5  -3   74.23    8.02
   3  11  -5   71.13    8.43
 -11   5  -3   73.47    7.12
  -5   3 -11   65.40    7.19
   3  11   5   72.88    8.35
  -3  11   5   70.95    8.33
   4 -11   5   11.47    2.98
  -4 -11   5   11.23    2.90
  -4 -11  -5    9.03    3.08
   4 -11  -5   10.28    2.89
 -11  -5   4    9.37    3.03
 -11   5   4   11.38    3.20
   5   4 -11   13.18    3.46
   4  11  -5   12.64    3.39
  -5   4  11   10.94    2.92
   4  11   5   11.11    3.19
  -4 -11  -5   10.89    2.84
 -11  -5   4    8.03    2.34
   5  -4  11    9.97    3.25
  -5  -4  11   10.45    2.72
  11  -5  -4   10.94    2.81
  11   5   4    7.44    2.91
  11   5  -4   11.30    3.22
   5   4  11    7.02    2.19
  -5   4 -11   10.04    3.17
  -5  -4 -11   13.57    4.09
 -11   5  -4   12.24    3.60
  -5   4 -11    9.97    3.42
  -5  -4 -11   10.51    2.73
  -4 -11   5   12.24    3.55
   5  -4  11    9.53    2.90
  11  -5   4   11.42    3.04
   4 -11   5    4.23    1.76
   5  -4  11   11.47    3.30
  -5   4  11    6.83    1.79
   4  11  -5    9.59    3.22
   5  -4 -11   12.78    3.37
   5   4  11   12.35    3.59
   4 -11  -5    9.35    2.65
  11  -5  -4   12.18    3.17
   4  11   5    9.33    2.77
  -4  11   5    8.09    2.95
  -4  11  -5   11.10    3.20
  -4  11  -5   10.70    2.79
   5 -11   5  367.88   16.26
  -5 -11   5  375.94   16.68
 -11  -5   5  373.09   17.84
 -11   5   5  375.49   18.04
  -5   5  11  406.37   17.86
  -5  -5  11  393.25   19.31
  -5   5  11  394.17   19.26
   5  -5  11  388.34   18.18
  -5 -11  -5  377.96   17.85
   5  -5  11  387.56   19.04
  11   5   5  379.02   18.76
  11   5  -5  387.61   19.18
  -5   5 -11  384.26   20.05
  -5  -5 -11  356.18   19.20
   5  -5  11  400.93   17.92
  11  -5   5  375.52   18.22
  -5  11  -5  391.46   16.89
  -5   5  11  386.47   15.43
   5 -11  -5  382.67   18.20
  11  -5  -5  381.05   18.67
  -5  11  -5  378.21   18.79
  -5   5 -11  418.97   19.52
 -11   5   5  396.70   19.95
 -11  -5   5  376.62   19.37
   5  11   5  387.85   18.23
  -5  11   5  384.31   18.98
   0 -11  -6    1.51    0.97
   0 -11  -6   -0.62    1.16
   0 -11   6   -0.35    1.44
   0  11  -6    2.54    1.37
  11   6   0    0.46    2.14
 -11  -6   0   -0.21    1.06
  -6   0  11    0.69    1.99
  -6   0  11    1.99    1.50
   6   0 -11   -0.60    2.47
   6   0  11    0.99    0.42
  -6   0 -11   -2.41    1.30
  -6   0 -11    0.67    1.23
  -6   0 -11    1.52    1.76
 -11   6   0    0.52    1.46
   0 -11   6    0.15    2.08
   6   0  11   -1.38    0.36
   0  11  -6    0.21    1.50
   6   0 -11   -1.34    1.41
   6   0  11    0.34    1.14
  11  -6   0    1.84    0.95
   0  11   6   -1.99    1.91
  -1 -11  -6    5.01    2.25
   1 -11  -6    3.11    1.63
  -1 -11  -6    3.29    1.06
 -11   6   1    1.11    0.94
   1 -11   6    1.59    1.53
  11   6  -1    3.02    1.27
   1  11  -6    2.72    0.87
  11   6   1    5.67    2.06
  -1  11  -6    3.38    2.02
 -11  -6   1    4.16    2.57
 -11  -6  -1    5.34    2.50
  -6  -1  11    3.21    1.73
  -6   1  11    2.55    0.99
  -6  -1  11    4.60    2.11
   6  -1 -11    3.83    2.16
   6   1 -11    3.55    1.52
   6  -1  11    3.18    1.62
   6   1  11    5.35    2.57
  -6   1 -11    1.62    1.59
  -6  -1 -11    1.18    0.86
  -6   1 -11    0.15    1.33
  -6  -1 -11   -0.75    0.91
 -11   6  -1    0.92    0.38
 -11   6   1    2.10    1.36
  11  -6   1    2.29    0.96
   1 -11   6    0.66    0.91
   6   1  11    2.94    1.41
   6  -1  11    4.87    2.19
   6   1  11    3.78    2.04
   1  11  -6    3.38    2.17
   6  -1 -11    6.07    2.87
  -1 -11   6    2.30    1.13
  11  -6  -1    5.11    1.86
   1  11   6    1.31    0.65
  -1  11   6    4.23    2.43
 -11   6  -1    3.55    1.12
  -1  11  -6    2.00    1.33
  -2 -11  -6    8.76    2.98
   2 -11  -6   15.41    3.66
  -2 -11  -6   10.83    2.97
 -11  -6   2   11.49    2.90
 -11   6   2   15.69    3.59
   2 -11   6   12.44    3.01
  -2 -11   6   12.07    3.28
  11   6   2   18.29    3.75
   2  11  -6   13.86    3.30
  11   6  -2   11.33    3.01
  -2  11  -6   11.99    2.67
  -2  11   6   12.38    2.81
 -11  -6   2   13.95    3.65
 -11  -6  -2   15.14    3.94
  -6  -2  11   18.64    4.63
  -6   2  11   16.53    4.57
   6  -2  11   13.04    3.26
  11  -6  -2    9.60    3.04
  -6  -2  11   17.54    3.20
   6  -2 -11   13.42    3.49
   6  -2  11   13.34    3.57
   6   2 -11   16.33    3.71
   6   2  11   13.99    3.58
   2  11   6   12.82    2.74
  -6   2 -11   14.96    3.72
  -6   2 -11   16.59    3.61
  -6  -2 -11   14.89    4.33
  -6   2 -11   15.39    3.89
  -6  -2 -11   20.61    4.92
 -11   6  -2   15.70    3.97
   6  -2  11   18.56    3.89
   2 -11   6   13.83    3.44
  11  -6   2   16.26    3.64
   6   2  11   16.42    3.79
   6  -2 -11   14.47    3.94
  11  -6  -2   12.03    3.28
   2 -11  -6   11.91    2.89
   2  11   6   18.77    4.41
  -2  11  -6    9.55    2.47
 -11   6  -2   14.19    3.27
  -3 -11   6    1.02    0.87
   3 -11  -6   -0.67    0.61
 -11  -6   3    1.80    1.82
 -11   6   3    0.83    0.78
   3 -11   6   -0.69    1.02
   3  11  -6    0.76    1.13
  11   6   3    1.59    1.56
  11   6  -3   -0.76    1.10
  11  -6  -3   -1.03    1.15
 -11  -6   3    1.96    1.71
  -6  -3  11    0.22    1.05
  -6   3  11   -0.91    1.06
   6  -3  11    0.87    1.31
  -6  -3  11    2.35    0.71
   6  -3 -11   -0.68    1.28
   6   3 -11    0.22    1.41
   6  -3  11    2.57    1.90
   3  11   6   -1.79    0.48
  11   6  -3    1.38    1.49
  -6   3 -11   -0.36    0.53
  -6   3 -11    1.74    1.96
  -6  -3 -11    1.96    1.03
 -11   6  -3    2.23    2.00
  -3 -11  -6    1.83    0.61
  -6  -3 -11    1.29    0.77
   3 -11   6    0.18    0.94
  11  -6   3    0.18    0.37
   6  -3  11    1.07    0.53
  11  -6  -3   -1.79    1.26
   3 -11  -6    1.11    0.67
   6   3  11    1.75    1.88
   3  11   6   -0.21    1.37
  -3  11   6    2.62    1.52
  -3  11  -6    4.15    2.17
 -11   6  -3   -0.29    0.97
 -11  -6   4    2.51    1.76
 -11   6   4    3.55    1.84
   4 -11  -6   -0.78    0.86
 -11  -6   4   -0.16    0.35
   6  -4  11   -0.17    1.10
   4  11   6   -1.59    1.39
  11   6  -4    2.23    1.17
  -6   4 -11   -0.57    1.74
  -4 -11  -6   -1.02    1.29
  -4  11   6    2.83    1.17
   4 -11  -6    0.87    0.73
   4  11   6    0.20    1.10
  -4  11  -6    2.00    0.70
   7   0 -11   61.51    7.65
  -7   0 -11   52.38    7.52
  -7   0 -11   54.72    6.00
 -11   7   0   60.69    6.75
   0 -11  -7   63.56    8.26
   0 -11   7   63.79    6.66
  11  -7   0   67.17    7.98
   7   0  11   54.23    6.47
  11   7   0   68.68    7.31
   0  11  -7   65.37    7.06
  -1 -11  -7    6.19    2.82
   7  -1 -11    6.47    2.44
  -7  -1 -11    3.40    2.17
  -7   1 -11    3.59    1.40
  -7   1 -11    3.94    1.72
 -11   7  -1    4.51    1.81
   1 -11   7    4.78    1.53
  11  -7   1    6.22    2.37
   7   1  11    3.69    1.90
  -1 -11   7    6.26    2.20
  11  -7  -1    6.41    2.14
  11   7  -1    3.14    1.04
   1 -11  -7    2.08    0.89
  -1  11  -7    4.78    1.89
  11   7   1    5.85    2.30
   1  11  -7    3.86    0.82
 -11  -7   2  265.24   13.43
  11   7   2  294.22   15.08
  11   7  -2  284.02   14.68
   7  -2  11  265.40   14.35
   7  -2 -11  274.09   15.74
  -7   2 -11  286.62   15.97
  -2 -11  -7  250.68   15.91
   7   2  11  280.76   14.96
 -11   7  -2  265.52   13.85
  -7   2 -11  280.46   14.97
  11  -7   2  282.94   14.97
   2 -11   7  254.21   14.15
   3 -11  -7   28.99    4.69
   3  11   7   31.08    4.96
 -12   0   0  150.57   11.84
   0 -12   0  181.08   12.36
   0  12   0  160.74   10.17
  12   0   0  171.00   12.12
   0   0  12  188.04   12.49
   0   0 -12  174.84   12.10
   0 -12   0  160.08   11.24
   0   0  12  183.11   12.55
 -12   0   0  168.14   12.78
 -12   0   1  152.70   11.74
   1 -12   0  174.98   12.02
  -1 -12   0  158.33   11.71
  -1  12   0  143.76    9.11
   1  12   0  137.68    9.92
  12   0   1  150.24   11.21
  12   0  -1  158.46   11.94
   0  -1  12  155.36   11.57
   0   1  12  156.11   11.18
   0  -1 -12  153.51   11.79
   0   1 -12  151.56   10.53
  -1 -12   0  150.52   10.88
   0   1  12  161.21   11.72
  -1  12   0  144.78   11.95
   1  12   0  152.04   12.50
 -12   0  -1  152.91   11.99
   0  -2 -12    4.99    2.58
 -12   0   2    7.07    2.58
   2 -12   0    4.73    2.05
   0   2 -12    4.16    2.99
   0  -2 -12    3.95    2.67
   2  12   0    4.49    1.60
   0  -2  12    4.46    2.67
  12   0   2    5.43    2.24
   0   2  12    3.53    2.00
  12   0  -2    4.76    2.04
   0  -2  12    2.69    0.70
  -2 -12   0    4.23    2.06
   0   2  12    6.47    2.57
   2 -12   0    4.95    2.24
   2  12   0    6.90    2.68
 -12   0   2    5.13    2.25
  -2  12   0    5.74    2.47
  -3 -12   0  153.68   11.80
 -12   0   3  133.27   11.28
   3 -12   0  155.17   11.06
   3  12   0  138.26   10.68
   0   3 -12  121.46   11.53
   0  -3 -12  121.57   11.50
  12   0   3  127.91   10.02
  12   0  -3  133.58   11.36
   0   3  12  119.38    9.50
   0  -3  12  117.83   10.44
   0  -3 -12  106.72   10.70
  12   0   3  132.30    9.36
  -3 -12   0  151.59   11.26
   3 -12   0  145.65   11.69
   0   3  12  120.33   10.11
   3  12   0  146.61   12.07
 -12   0   3  142.36   11.96
  -3  12   0  148.31   11.58
   4 -12   0   46.40    5.86
  -4 -12   0   52.94    6.81
 -12   0   4   44.53    6.31
   4  12   0   40.88    5.92
   0   4 -12   47.53    6.90
   0  -4 -12   46.50    7.09
  12   0  -4   44.67    6.82
   0   4  12   44.18    5.71
   0  -4 -12   44.90    7.31
 -12   0  -4   45.77    6.49
  12   0   4   42.38    5.60
   4 -12   0   48.60    6.76
  -4 -12   0   45.82    6.42
   0   4  12   47.83    6.45
   4  12   0   46.23    6.83
 -12   0   4   55.67    7.47
  -4  12   0   42.40    6.20
 -12   0   4   56.50    8.17
  -5  12   0  122.00    9.40
   0   5 -12  129.30   11.27
   0  -5 -12  128.68   11.32
 -12   0   5  143.32   11.92
  -5  12   0  114.73    9.68
   0   5  12  134.87    9.68
  12   0   5  128.61   10.12
  -5 -12   0  115.75   10.21
   5  12   0  124.43   10.72
   0  -5 -12  136.22   13.07
   5 -12   0  134.38   10.01
  -5 -12   0  117.99    9.88
  -6  12   0   22.27    3.88
   0 -12  -1  127.72   10.64
 -12   1   0  128.54   10.84
   0 -12   1  110.75    9.52
   0  12  -1  111.66    8.62
   0  12   1  110.35    8.43
  -1   0 -12  130.98   11.96
  12  -1   0  127.87   10.78
  12   1   0  128.18   10.31
   1   0 -12  143.47   10.41
  -1   0  12  129.82   10.15
   1   0  12  128.30   10.60
   1   0 -12  128.97   10.42
  -1   0 -12  127.01   10.53
   1   0  12  140.54    8.34
   0 -12   1  115.47    9.83
   0 -12  -1  118.40    9.19
  -1   0  12  130.94   10.53
 -12   1   0  125.76   10.94
 -12  -1   0  124.64   11.16
   1 -12  -1  157.56   11.77
  -1 -12  -1  149.33   11.36
 -12   1   1  125.40   10.91
   1 -12   1  130.43   10.17
  -1 -12   1  135.01   10.63
   1  12  -1  129.71    9.64
  -1  12   1  134.97    8.75
   1  12   1  136.17    9.80
  -1  12  -1  136.40    8.85
  -1  -1 -12  119.92   11.40
  12  -1   1  139.43   11.17
  12  -1  -1  139.18   11.35
  12   1   1  136.50   10.44
  12   1  -1  133.67   10.82
   1  -1  12  124.90   10.61
   1  -1 -12  140.58    9.89
   1   1 -12  129.48   10.42
  -1   1  12  128.55    9.93
  -1  -1  12  122.53   10.07
   1   1  12  123.12   10.23
   1   1 -12  125.82    9.48
  -1   1 -12  126.02    9.83
   1  -1 -12  125.51   10.78
  -1  -1 -12  123.20   10.87
   1 -12   1  127.10   10.65
   1   1  12  126.10    7.98
   1 -12  -1  134.05    9.74
  -1 -12   1  142.83   11.04
  -1 -12  -1  139.87   10.04
   1  12  -1  145.66   12.10
  -1   1  12  125.09   10.28
  -1  12  -1  132.57   11.50
 -12   1   1  131.24   11.35
 -12   1  -1  135.97   11.17
   1  12   1  131.12   11.58
  -1  12   1  130.63   11.34
   2 -12  -1   16.51    3.63
  -2 -12  -1   20.72    4.30
  -1  -2 -12    8.75    3.21
   1  -2 -12    9.53    3.52
   2 -12   1   16.03    3.43
 -12   1   2    9.22    2.76
   2  12   1   12.42    2.87
  -1   2 -12   13.21    4.07
  -1  -2 -12    9.99    3.34
   2  12  -1   13.66    3.11
  12  -1   2   13.93    3.60
  -1  -2  12   10.82    3.47
  12   1   2   13.92    3.01
   1   2  12   11.10    3.08
   1  -2 -12    9.42    2.18
   1   2 -12   11.11    2.89
  12  -1  -2   14.08    3.45
  12   1  -2   12.29    3.52
  -2 -12  -1   14.38    3.27
  12  -1   2   14.70    3.26
  -1   2  12    8.66    2.65
   1  -2  12   11.21    2.95
  -1  -2  12   11.02    3.28
  -2 -12   1   15.89    3.68
  -1   2  12   10.49    2.87
  -1   2 -12    8.31    2.37
   2  12  -1   15.66    3.95
  -2  12  -1   18.66    4.37
   2  12   1   15.55    4.36
  -2  12   1   14.21    3.62
 -12  -1   2   12.82    3.53
 -12   1  -2   15.23    3.86
   3 -12  -1  257.82   14.14
  -3 -12  -1  225.01   14.11
 -12   1   3  223.35   14.59
   3 -12   1  253.82   13.78
  -3 -12   1  252.21   14.54
   3  12  -1  236.65   13.97
   3  12   1  234.04   13.79
  -1   3 -12  246.62   16.19
  -1  -3 -12  233.05   15.73
  12   1  -3  236.59   15.03
  12   1   3  237.54   13.19
   1  -3  12  228.73   14.60
  -1  -3  12  257.88   15.19
  12  -1  -3  233.08   15.06
   1   3 -12  260.44   15.84
  -1  -3  12  251.42   15.03
   1   3  12  262.21   14.55
  -1   3  12  249.45   13.19
   1  -3 -12  255.96   16.58
  -1  -3 -12  241.84   16.23
 -12   1  -3  241.53   15.32
  12   1   3  240.82   12.72
  12  -1   3  244.28   13.02
   3 -12   1  247.85   15.28
  -3 -12   1  235.99   14.45
  -3 -12  -1  255.67   14.17
   3  12  -1  243.91   15.60
  -1   3  12  240.11   14.34
   3  12   1  242.16   15.43
   3 -12  -1  238.42   14.92
  -1   3 -12  276.94   13.74
 -12   1   3  241.47   15.59
 -12  -1   3  217.97   14.76
  -3  12  -1  242.75   14.79
  -3  12   1  238.30   14.77
   4 -12  -1   38.37    5.40
  -4 -12  -1   35.47    5.61
 -12   1   4   33.15    5.74
   4 -12   1   40.32    5.35
  -4 -12   1   39.21    5.77
   4  12  -1   32.82    5.53
   4  12   1   32.86    5.26
  -1   4 -12   41.76    6.41
  -1  -4 -12   40.25    6.32
  12   1   4   35.01    4.84
   1  -4  12   41.04    6.16
  12   1  -4   38.82    6.42
  -1  -4  12   41.95    6.26
  -4 -12  -1   32.63    5.52
  12  -1  -4   36.56    6.06
  -1  -4  12   38.22    5.85
   1   4 -12   43.18    6.80
   1   4  12   34.99    5.28
  -1   4  12   39.12    5.04
   1  -4 -12   41.88    7.45
  -1  -4 -12   42.22    7.01
  12   1   4   41.23    5.50
   4 -12   1   39.25    6.23
  12  -1   4   38.99    5.54
  -4 -12   1   45.79    6.46
  -4 -12  -1   35.75    5.15
   4 -12  -1   38.73    6.08
   4  12  -1   33.57    5.73
  -1   4  12   41.72    5.88
   4  12   1   34.76    5.71
   1   4  12   43.90    6.14
 -12  -1   4   31.57    6.04
 -12   1   4   33.83    5.94
  -4  12  -1   38.62    5.90
  -4  12   1   34.61    5.42
 -12  -1   4   33.10    5.43
  -1   5 -12   56.37    7.45
  -1  -5 -12   57.79    7.57
   1   5 -12   63.54    8.14
   1  -5 -12   69.03    8.57
   5  12   1   79.64    8.48
  -5  12  -1   79.27    8.04
  -5  12   1   76.31    7.90
   1   5  12   64.93    7.07
  12   1   5   81.02    8.28
  12  -1   5   80.34    8.06
  -5 -12   1   86.49    9.05
  -5 -12  -1   73.71    7.91
   5  12  -1   70.54    8.14
   1  -5 -12   64.79    7.29
  -1   5  12   57.49    6.83
  -5 -12   1   76.37    8.25
  -5 -12  -1   75.46    7.86
   5 -12   1   81.66    7.61
   0 -12  -2   71.36    7.68
 -12  -2   0   55.11    7.05
 -12   2   0   54.44    7.19
   0 -12   2   63.91    7.36
   0  12   2   65.37    6.55
   0  12  -2   65.82    6.68
  -2   0 -12   47.85    7.15
  12  -2   0   56.67    7.44
  12   2   0   60.26    6.96
  -2   0  12   49.59    6.18
   2   0  12   39.12    6.03
   2   0 -12   51.61    6.58
  -2   0 -12   42.88    6.25
   2   0 -12   48.58    6.50
   2   0  12   48.77    5.33
   2   0  12   43.33    6.22
   0 -12  -2   61.50    5.61
   0  12  -2   63.11    7.93
 -12   2   0   53.45    7.14
   0  12   2   65.21    8.13
   1 -12   2    0.35    0.90
   2   1 -12    0.46    0.79
  -1 -12   2    3.75    1.35
   1 -12  -2    0.89    1.40
  -1 -12  -2    4.06    2.08
 -12  -2   1    2.17    2.27
 -12   2   1   -1.17    1.16
  -1  12   2    2.01    1.29
  -2  -1 -12    1.87    1.20
   1  12   2   -0.15    1.98
  -1  12  -2    2.05    0.76
   1  12  -2    2.03    1.35
  12  -2   1    2.61    1.52
  12  -2  -1    0.41    1.51
   2  -1 -12    4.08    1.87
   2   1 -12   -1.12    1.04
  12   2   1    2.30    1.38
  12   2  -1   -1.63    1.66
   2   1  12    2.49    1.66
  -2   1 -12    1.69    1.63
  -2  -1 -12    3.10    1.89
   2  -1  12    0.20    1.66
   2   1  12    1.89    0.91
  -2   1  12    3.46    1.48
  -2  -1  12    0.17    1.09
   2  -1  12    1.72    1.00
  -1 -12   2   -0.39    1.41
   2   1  12    3.18    1.47
  -2   1  12    3.84    2.01
   1 -12   2    0.19    1.72
   1 -12  -2    1.77    1.27
 -12   2   1    2.31    1.92
   1  12  -2    0.44    0.65
  -1  12  -2    2.76    2.36
 -12   2  -1    3.77    2.04
   1  12   2    1.49    1.90
   2 -12  -2  101.09    9.06
  -2 -12  -2  100.81    9.34
 -12  -2   2  100.84    9.70
 -12   2   2  110.86   10.19
   2 -12   2  116.14    9.71
   2  12   2   95.19    8.59
  -2   2 -12  107.42   10.82
  -2  -2 -12  114.32   10.95
   2  12  -2   99.53    8.88
  12   2  -2  110.59    9.94
  -2  -2  12  117.33   10.01
  12  -2  -2  107.17   10.23
  12   2   2  111.99    8.99
  -2   2  12  120.73    9.14
   2   2  12  117.71   10.17
  -2  -2  12  116.02    9.97
   2  -2 -12  122.04    8.88
   2   2 -12  114.31   10.37
 -12   2  -2  108.89   10.18
  -2  -2 -12  114.70   11.00
   2  -2  12  119.84    8.34
   2 -12   2   96.56    9.31
  12  -2   2  116.71    8.76
  -2 -12   2  105.85    9.73
   2   2  12  119.47   10.11
  -2   2  12  119.89    9.84
  -2  12  -2  107.18   10.09
   2  12  -2  114.33   10.86
 -12   2   2   96.81    9.76
  -2   2 -12  119.38    8.67
 -12   2  -2  109.66    9.89
 -12  -2   2  117.25   10.81
   2  12   2  106.48   10.22
  -2  12   2  111.57   10.43
   3 -12  -2   26.82    4.69
   3 -12   2   28.84    4.72
  -3 -12   2   30.65    5.08
 -12  -2   3   28.94    5.17
 -12   2   3   28.88    5.31
  -2   3 -12   30.44    5.54
  -2  -3 -12   29.49    5.56
   3  12   2   28.35    4.87
   3  12  -2   31.78    5.16
   2  -3  12   36.04    5.88
  -2  -3  12   36.31    5.65
  -3 -12  -2   29.27    4.98
   2   3 -12   32.47    5.65
  -2  -3  12   31.81    5.24
  -2   3  12   28.56    4.41
   2  -3  12   32.02    5.68
   2   3  12   35.56    5.32
  12  -2  -3   27.33    5.07
  12   2  -3   24.43    4.80
  -2  -3 -12   28.09    5.69
 -12   2  -3   21.94    4.64
  12  -2   3   27.94    4.32
   2  -3  12   33.53    4.34
  12   2   3   25.59    3.97
  -3 -12   2   25.55    4.69
   2   3  12   30.03    5.27
  -2   3  12   35.86    5.40
   2  -3 -12   33.47    5.41
  12  -2  -3   30.13    4.62
  -2   3 -12   32.31    4.89
 -12   2   3   27.46    5.05
   3  12  -2   23.49    4.81
  -3  12  -2   29.66    5.14
   3  12   2   27.35    5.17
  -3  12   2   25.76    4.76
 -12  -2   3   27.57    5.33
   4 -12  -2   48.37    5.78
  -4 -12  -2   50.65    6.63
 -12  -2   4   52.52    7.06
 -12   2   4   48.94    6.79
   4 -12   2   48.22    6.04
  -4 -12   2   56.35    6.82
  -2   4 -12   34.95    5.80
   4  12   2   50.67    6.75
  -2  -4 -12   42.81    6.37
   4  12  -2   44.98    6.35
   2  -4  12   42.57    6.37
  -2  -4  12   46.09    6.43
  12   2  -4   51.28    7.02
  -4 -12  -2   46.37    6.55
  12  -2  -4   46.84    6.93
   2   4 -12   44.18    6.66
  -2  -4  12   49.70    6.73
   2   4  12   44.46    6.07
  12   2   4   50.49    5.99
   2  -4  12   47.60    6.83
 -12   2  -4   45.42    6.77
  -2  -4 -12   40.22    7.09
   4 -12   2   49.96    6.86
  12   2   4   44.61    5.73
  12  -2   4   58.11    6.61
  -4 -12   2   47.42    6.71
  -2   4  12   43.11    5.98
   2  -4 -12   48.50    6.50
  -4  12  -2   48.96    6.42
   4 -12  -2   48.94    6.23
   4  12  -2   49.23    7.08
  12  -2  -4   51.24    6.04
   2   4  12   36.81    5.67
 -12   2   4   46.33    6.99
  -2   4 -12   44.62    5.95
 -12  -2   4   46.63    6.63
   4  12   2   48.53    6.74
 -12   2   4   43.62    7.21
  -4  12   2   47.68    6.52
  -2   5 -12    5.70    2.97
  -2  -5 -12    5.13    1.62
  -5  12   2    1.31    1.88
  -2   5 -12    4.03    1.88
  -5  12  -2    3.92    1.64
   5  12   2    5.04    2.03
  12   2   5    4.57    2.03
   2   5  12    9.18    3.23
  12  -2   5    4.09    2.05
  12   2   5    3.46    1.99
  12  -2  -5    3.02    2.31
   2  -5 -12    5.43    1.80
   5 -12   2    3.28    0.83
   0 -12  -3  361.80   17.45
 -12   3   0  339.37   17.23
   0 -12   3  349.26   17.05
   0  12  -3  343.22   15.21
   0  12   3  354.57   15.41
  -3   0 -12  348.74   19.68
  12   3   0  340.27   16.11
  12  -3   0  368.25   19.05
  -3   0  12  371.80   16.51
   3   0  12  360.45   18.53
   3   0 -12  365.01   17.44
  -3   0 -12  360.70   18.05
   3   0  12  380.23   15.55
   0 -12   3  350.20   16.97
   3   0  12  362.22   17.82
   0  12  -3  361.89   19.23
 -12   3   0  335.56   17.76
   0  12   3  355.95   18.81
   1 -12  -3   12.22    2.95
  -1 -12  -3    9.75    2.78
   1 -12   3   13.52    3.40
  -1 -12   3   12.67    3.16
 -12  -3   1   12.00    2.82
 -12   3   1    9.97    2.73
  -3  -1 -12    8.52    2.85
  -1  12  -3   10.13    2.34
  -1  12   3   12.77    2.69
   1  12  -3   11.21    2.67
   1  12   3   10.13    2.64
  12  -3  -1    8.58    2.88
  -3  -1  12    8.78    2.63
   3  -1 -12   12.14    2.94
   3   1 -12    9.09    3.20
   3   1  12   11.37    3.67
  12   3   1    7.19    2.20
  12   3  -1   12.46    2.97
  -3   1 -12    5.17    1.50
  -3  -1 -12    9.15    2.96
 -12   3  -1    4.36    1.72
   1 -12   3   13.45    3.37
   3   1  12    7.63    2.33
  -3   1  12    9.70    2.45
  -3  -1  12   12.13    2.90
   3  -1  12   10.20    2.61
  -1 -12   3   15.72    3.95
   3   1  12    9.68    3.22
  -3   1  12   11.15    2.94
   1 -12  -3   11.13    2.64
  12  -3  -1    8.17    2.21
 -12   3   1   11.12    3.61
  -1  12  -3    9.98    2.96
 -12   3  -1    9.38    2.63
   1  12   3   13.18    3.65
   2 -12  -3  150.06   10.91
  -2 -12  -3  145.62   11.17
   2 -12   3  138.61   10.74
 -12  -3   2  123.96   10.67
 -12   3   2  137.35   11.18
   2  12  -3  143.55   10.72
   2  12   3  143.23   10.73
  -3   2 -12  129.43   11.79
  -3  -2 -12  124.28   11.54
  12  -3  -2  146.69   12.26
  -3  -2  12  122.32    9.97
  -2 -12  -3  140.26   10.61
  12   3  -2  142.13   11.16
   3   2  12  136.99   11.13
  12   3   2  140.09    9.87
  -3  -2  12  129.17   10.37
  -3   2  12  123.75    8.88
   3  -2 -12  123.06    9.23
   3  -2  12  124.66   10.86
   3   2 -12  115.99   10.66
  -3  -2 -12  115.48   10.99
 -12   3  -2  147.74   11.93
   2 -12   3  132.67   10.95
   3  -2  12  130.38    9.16
  12  -3   2  158.36   10.28
  -2 -12   3  143.60   11.85
   3   2  12  125.62   10.31
   2  12  -3  142.28   12.05
  -3   2  12  131.01   10.02
   3  -2 -12  126.87   11.08
   2 -12  -3  145.27    9.65
  12  -3  -2  152.33   10.38
  -2  12  -3  147.08   11.70
 -12   3   2  142.27   12.00
 -12   3  -2  156.54   11.55
  -3   2 -12  132.50    9.36
   2  12   3  144.21   11.96
  -2  12   3  137.46   11.60
   3 -12  -3   60.23    6.81
   3 -12   3   64.17    7.15
 -12  -3   3   62.99    7.63
 -12   3   3   64.43    7.68
  -3 -12   3   63.30    7.26
   3  12  -3   60.34    7.11
   3  12   3   57.74    6.97
  -3   3 -12   71.94    8.66
  -3  -3 -12   66.42    8.44
   3  -3  12   76.08    8.46
  -3  -3  12   67.02    7.42
  12  -3  -3   61.03    8.09
  -3 -12  -3   64.87    7.37
  12   3  -3   68.53    7.98
  -3  -3  12   67.11    7.59
   3  -3  12   65.71    7.88
   3   3  12   66.14    7.77
  12   3   3   65.58    6.98
   3   3 -12   62.94    8.03
 -12   3  -3   65.17    7.83
  -3  -3 -12   72.77    9.03
   3 -12   3   58.13    7.36
   3  -3  12   69.74    6.87
  12  -3   3   64.71    6.92
  -3 -12   3   61.87    8.05
   3   3  12   72.99    7.99
   3  -3 -12   68.54    8.13
  -3   3  12   71.28    7.37
  -3  12  -3   56.95    7.22
   3  12  -3   64.35    8.09
   3 -12  -3   60.58    6.61
  12  -3  -3   65.17    6.96
  -3  12  -3   67.72    7.33
  -3   3 -12   70.19    7.26
 -12   3  -3   63.73    7.13
   3  12   3   63.08    7.86
  -3  12   3   60.82    7.60
   4 -12   3  192.87   12.03
   4 -12  -3  201.80   11.97
 -12  -3   4  193.20   13.55
 -12   3   4  182.79   13.17
  -4 -12   3  194.21   12.66
  -3   4 -12  183.78   13.86
  -3  -4 -12  181.65   13.73
  12   3  -4  183.60   13.31
  -3  -4  12  185.23   12.52
  -4 -12  -3  182.03   12.58
   3   4  12  194.81   13.15
  12   3   4  191.49   12.30
  12   3   4  200.41   12.15
  12  -3   4  196.93   12.59
   3  -4  12  208.05   11.70
  -4 -12   3  207.08   14.40
  -3  -4 -12  170.57   13.99
  -4  12  -3  201.05   13.08
   3  -4 -12  193.64   13.55
  -3   4  12  203.21   12.56
   4  12  -3  198.10   14.04
   4 -12  -3  192.92   12.40
  12  -3  -4  196.38   12.55
  -4  12  -3  196.88   12.47
  -3   4 -12  200.72   12.85
   4  12   3  191.38   13.40
  -4  12   3  186.64   13.17
   3  -5  12    6.77    2.14
  -5  12  -3   12.92    3.19
   5 -12   3   11.78    2.85
   0 -12   4    5.94    2.24
   0 -12  -4    6.52    2.68
   0  12   4    8.44    2.33
  -4   0 -12   10.77    3.86
   0  12  -4    5.80    1.95
  12  -4   0    6.18    2.41
  -4   0  12   10.32    3.04
   4   0 -12   11.91    3.32
 -12   4   0    7.76    2.42
  -4   0 -12    9.24    3.05
   4   0  12   10.98    2.75
  -4   0  12   12.91    3.10
   4   0  12   10.24    2.95
   0 -12   4   10.34    2.64
  12  -4   0    8.11    2.72
   0  12   4    8.49    3.23
 -12   4   0    5.05    2.16
   0  12  -4    8.63    3.07
   1 -12   4   60.44    7.11
  -1 -12   4   62.55    7.19
 -12  -4   1   61.38    7.26
 -12   4   1   69.18    7.64
   1 -12  -4   68.72    7.62
  -1 -12  -4   63.61    7.43
   1  12   4   66.69    7.06
  -1  12  -4   61.12    6.18
   1  12  -4   64.59    6.99
  -4  -1 -12   71.17    8.73
  -1  12   4   72.18    6.68
  12  -4  -1   62.70    7.99
  12   4  -1   65.33    7.14
  -4  -1  12   71.71    7.18
  -1 -12  -4   67.69    6.89
  -4  -1  12   69.75    7.15
  -4   1  12   69.02    6.73
   4   1  12   64.76    7.76
   4  -1  12   71.20    8.28
   4  -1 -12   74.60    7.83
   4   1 -12   67.69    7.96
  -4   1 -12   64.38    7.43
  -4  -1 -12   67.83    8.62
 -12   4  -1   62.77    7.62
   4   1  12   67.35    6.86
   4  -1  12   73.80    7.21
   1 -12   4   63.57    7.38
  -1 -12   4   53.63    7.09
   4   1  12   65.84    7.52
  -1  12  -4   70.71    8.49
  12  -4  -1   69.05    7.20
 -12   4   1   68.87    8.12
 -12   4  -1   72.46    8.05
   1  12   4   63.70    7.94
   2 -12   4    4.22    2.53
   2 -12  -4    1.05    0.64
  -2 -12  -4    3.06    1.84
 -12  -4   2   -0.19    1.38
 -12   4   2   -0.19    1.76
  -4   2 -12    2.14    0.87
  -4  -2 -12    1.66    0.70
   2  12   4    0.69    0.63
   2  12  -4    1.04    0.63
   4  -2  12    4.44    1.28
  -4  -2  12    3.28    1.69
  -2 -12  -4    1.93    1.39
   4  -2 -12    2.59    0.48
   4   2 -12    1.05    0.44
  12   4   2    0.49    0.49
  12   4  -2    1.63    1.37
   4  -2  12    1.25    1.16
   4   2  12    1.82    1.90
  -4   2 -12    2.68    1.13
  -4  -2 -12    2.58    0.70
 -12   4  -2    2.25    1.55
   2 -12   4    4.86    2.19
  12  -4   2    3.94    2.18
  -4  -2  12    0.68    2.08
   4  -2  12    1.53    1.57
  -2 -12   4    1.72    1.19
   4   2  12    2.21    1.34
   4  -2 -12    4.58    2.75
  -4   2  12    1.84    1.55
   2 -12  -4    2.54    1.39
  12  -4  -2    0.17    1.19
  -2  12   4    0.22    1.11
 -12   4   2    4.54    2.49
   2  12  -4    2.42    1.22
  -2  12  -4    2.86    1.13
 -12   4  -2    1.09    0.85
   2  12   4    1.70    0.45
   3 -12   4   21.17    4.06
 -12  -4   3   16.97    3.97
 -12   4   3   13.42    3.12
   3 -12  -4   22.50    3.85
   3  12   4   16.72    3.72
   3  12  -4   18.20    3.88
  -4   3 -12   16.33    4.49
  -4  -3 -12   14.42    4.23
  -3 -12  -4   17.28    3.73
   4  -3  12   13.17    3.57
  -4  -3  12   12.81    3.08
   4   3 -12   17.86    4.34
  12   4  -3   15.78    3.40
  12   4   3   17.73    3.63
  -4   3 -12   14.84    3.25
  -4  -3 -12   13.03    4.41
   4  -3  12   13.30    3.15
  12  -4   3   16.67    3.57
  -4   3  12    9.61    2.77
   4  -3 -12   13.16    3.98
   3 -12  -4   17.88    3.48
  12  -4  -3   14.86    3.34
  -3  12  -4   19.59    4.27
  -3  12  -4   17.22    4.00
 -12   4  -3   14.72    3.26
   3  12   4   13.24    3.16
  -4  12  -4    1.48    1.69
  -4  12  -4    2.52    1.26
  12   4   4    2.34    1.61
  -4   4 -12    3.92    1.87
   4  -4  12    4.04    1.46
  12  -4  -4   -0.18    0.38
  -4   4  12    1.98    1.20
   4 -12  -4    3.26    2.11
   0 -12  -5   18.34    4.09
   0  12  -5   19.12    3.56
   0  12   5   22.17    3.98
 -12  -5   0   21.56    4.56
  -5   0  12   25.85    4.08
   5   0 -12   25.49    4.64
  -5   0 -12   21.35    4.64
 -12   5   0   26.14    4.83
   5   0  12   24.40    4.24
   0 -12   5   18.63    3.44
   5   0  12   23.34    4.73
  12  -5   0   23.71    4.21
 -12   5   0   21.31    4.18
   1 -12  -5  217.77   13.68
 -12   5   1  197.89   12.72
  -1  12   5  226.08   11.97
   1  12   5  219.16   13.02
  -1  12  -5  208.23   11.69
   1  12  -5  216.24   12.87
 -12  -5   1  218.16   13.94
  -5   1  12  205.36   11.74
  -5  -1  12  217.46   12.27
   5  -1 -12  205.62   13.24
   5   1 -12  213.80   14.32
  -5   1 -12  208.88   13.76
  -5  -1 -12  215.77   15.17
 -12   5  -1  221.50   14.16
   5   1  12  194.47   12.14
   1 -12   5  220.54   13.46
   5  -1  12  200.66   12.41
   5   1  12  200.58   13.03
  -1 -12   5  219.07   12.69
  12  -5   1  235.60   13.39
  12  -5  -1  222.89   13.60
 -12   5   1  196.45   13.82
 -12   5  -1  228.08   14.12
   2 -12  -5   -1.43    1.06
 -12  -5   2    0.18    1.01
 -12   5   2    2.16    1.36
 -12  -5   2    0.73    1.64
  -5  -2  12   -1.52    1.43
   5  -2 -12   -0.51    1.38
   2  12   5    3.31    1.79
  -5   2 -12   -0.15    0.46
  12  -5   2    1.42    1.10
   5  -2  12    0.49    0.69
  12  -5  -2    1.48    1.46
 -12   5  -2    1.75    1.47
 -12  -5   3  324.38   16.15
  -5  -3  12  362.11   16.24
   3  12   5  348.41   16.09
  12   5  -3  351.01   17.32
 -12   5  -3  369.67   16.53
  -5   3 -12  358.51   16.76
   3 -12  -5  332.96   15.61
  -5   3  12  358.41   15.19
  -6   1 -12   24.28    4.78
   0   0  13  153.38   11.54
   0   0 -13  145.50   11.06
   0 -13   0  186.05   12.27
   0  13   0  164.65   10.61
  13   0   0  165.31   12.32
  13   0   1    8.41    2.54
  13   0  -1    9.74    2.59
   0   1  13    8.68    2.58
   0  -1  13   16.01    3.95
   1 -13   0    7.97    2.52
  -1 -13   0   10.12    3.23
   1  13   0    6.45    1.87
   0  -1 -13   11.90    3.54
   0   2  13  466.09   19.39
   0  -2 -13  434.05   21.18
  -2 -13   0  442.30   19.26
   2  13   0  425.51   18.41
  13   0   2  442.09   19.55
  13   1   0    6.77    2.50
  -1   0 -13   15.55    3.67
   1   0  13   19.30    4.29
  -1   0  13   18.08    4.00
   0 -13   1   12.55    3.54
   0  13   1   12.99    3.26
   0  13  -1    8.04    2.26
  13  -1   0   13.03    3.98
  13  -1   1    9.88    2.78
  13   1   1    8.15    2.25
  13   1  -1    4.68    2.24
  -1  -1 -13    4.50    2.69
   1   1  13    9.69    2.73
  -1   1  13    5.52    2.37
  -1  -1  13    6.57    2.40
  -1 -13   1    7.21    2.11
   1  13  -1    9.48    2.53
   1  13   1    6.78    2.65
   1  -1 -13    4.80    2.55
  13   1   2   12.15    3.18
  -1  -2 -13    9.10    3.33
  -1   2  13   12.57    3.29
  -2 -13   1   12.34    2.92
   1  -2 -13    9.17    2.94
   2  13  -1   14.24    3.36
   2  13   1   18.43    4.07
  -1   3  13    9.60    2.80
  -2   0  13    1.03    0.72
   0  13  -2    2.02    0.61
   0  13   2    1.29    0.52
   2   0 -13    4.74    2.15
  13   2   0    2.89    1.82
  -2   0 -13    2.66    2.00
   2  -1 -13  334.83   15.79
   2   1 -13  350.57   17.63
  -2   1  13  328.75   15.81
  13   2  -1  320.23   16.84
  13   2   1  322.76   15.99
  -2  -1 -13  313.75   17.41
   2  -1 -13  315.35   16.93
   1  13   2  305.84   15.01
   1  13  -2  308.68   15.08
  -2   2  13   22.72    4.09
   2 -13  -2   22.82    4.11
   2  -2 -13   24.84    4.73
  -3   0  13    2.25    0.48
   3   0  13    2.70    1.42
  -3   0 -13    1.38    0.59
   0  13   3    4.77    1.85
   0  13  -3    4.36    1.37
   3   1  13   50.50    5.53
   3  -1 -13   50.09    6.91
  -3   1  13   54.39    6.08
   3  -1 -13   55.90    6.56
   0   0   0    0.00    0.00


TITL asrs14b001 in Fm-3
REM Fm-3 (#202 in standard setting)
CELL 0.71073  15.509994  15.509994  15.509994  90.0000  90.0000  90.0000
ZERR    1.00   0.000077   0.000077   0.000077   0.0000   0.0000   0.0000
LATT  4
SYMM -x,-y, z
SYMM -x, y,-z
SYMM  x,-y,-z
SYMM  z, x, y
SYMM  z,-x,-y
SYMM -z,-x, y
SYMM -z, x,-y
SYMM  y, z, x
SYMM -y, z,-x
SYMM  y,-z,-x
SYMM -y,-z, x
SFAC Al Si Ru
UNIT 176.00 16.00 56.00
SIZE 0.03 0.03 0.04
TREF
HKLF 4
END
_computing_structure_solution     'SHELXT 2018/2 (Sheldrick, 2018)'
;
_shelx_hkl_checksum              20985
loop_
_space_group_symop_id
_space_group_symop_operation_xyz
1 'x, y, z'
2 '-x, -y, z'
3 '-x, y, -z'
4 'x, -y, -z'
5 'z, x, y'
6 'z, -x, -y'
7 '-z, -x, y'
8 '-z, x, -y'
9 'y, z, x'
10 '-y, z, -x'
11 'y, -z, -x'
12 '-y, -z, x'
13 '-x, -y, -z'
14 'x, y, -z'
15 'x, -y, z'
16 '-x, y, z'
17 '-z, -x, -y'
18 '-z, x, y'
19 'z, x, -y'
20 'z, -x, y'
21 '-y, -z, -x'
22 'y, -z, x'
23 '-y, z, x'
24 'y, z, -x'
loop_
_atom_site_label
_atom_site_type_symbol
_atom_site_fract_x
_atom_site_fract_y
_atom_site_fract_z
_atom_site_U_iso_or_equiv
_atom_site_adp_type
_atom_site_occupancy
_atom_site_site_symmetry_order
_atom_site_calc_flag
_atom_site_refinement_flags_posn
_atom_site_refinement_flags_adp
_atom_site_refinement_flags_occupancy
_atom_site_disorder_assembly
_atom_site_disorder_group
Ru1 Ru 0.000000 0.000000 0.000000 0.00720(13) Uani 0.880(3) 24 d S T . . .
Si2 Si 0.500000 0.500000 0.500000 0.0073(2) Uani 1 24 d S T P . .
Ru3 Ru 0.29963(2) 0.500000 0.000000 0.01291(7) Uani 1 4 d S T P . .
Al4 Al 0.500000 0.31558(9) 0.19038(8) 0.01919(13) Uani 1 2 d S T P . .
Al5A Al 0.3806(5) 0.000000 0.000000 0.0220(8) Uani 0.442(7) 4 d S T . . .
Al5B Al 0.461(3) 0.000000 0.000000 0.009(5) Uiso 0.046(6) 4 d S . . . .
Al6A Al 0.1800(7) 0.1800(7) 0.1800(7) 0.0177(18) Uani 0.26(2) 3 d S T . . .
Al6B Al 0.1386(15) 0.2445(15) 0.1545(8) 0.054(3) Uani 0.211(9) 1 d . . . . .
Al6C Al 0.000000 0.287(7) 0.125(7) 0.07(2) Uiso 0.030(6) 2 d S . . . .
Si6D Si 0.000000 0.1579(15) 0.2523(15) 0.030(3) Uani 0.066(4) 2 d S T . . .
loop_
_atom_site_aniso_label
_atom_site_aniso_U_11
_atom_site_aniso_U_22
_atom_site_aniso_U_33
_atom_site_aniso_U_23
_atom_site_aniso_U_13
_atom_site_aniso_U_12
Ru1 0.00720(13) 0.00720(13) 0.00720(13) 0.000 0.000 0.000
Si2 0.0073(2) 0.0073(2) 0.0073(2) 0.000 0.000 0.000
Ru3 0.00636(8) 0.02476(11) 0.00762(8) 0.000 0.000 0.000
Al4 0.0277(3) 0.0152(2) 0.0147(2) 0.0078(2) 0.000 0.000
Al5A 0.034(2) 0.0199(10) 0.0124(9) 0.000 0.000 0.000
Al6A 0.0177(18) 0.0177(18) 0.0177(18) 0.0062(11) 0.0062(11) 0.0062(11)
Al6B 0.087(6) 0.039(5) 0.035(2) -0.025(2) 0.018(3) -0.044(5)
Si6D 0.033(6) 0.028(5) 0.029(6) -0.017(4) 0.000 0.000
loop_
_atom_type_symbol
_atom_type_description
_atom_type_scat_dispersion_real
_atom_type_scat_dispersion_imag
_atom_type_scat_source
Al Al 0.0645 0.0514 'International Tables Vol C Tables 4.2.6.8 and 6.1.1.4'
Ru Ru -1.2594 0.8363 'International Tables Vol C Tables 4.2.6.8 and 6.1.1.4'
Si Si 0.0817 0.0704 'International Tables Vol C Tables 4.2.6.8 and 6.1.1.4'
loop_
_geom_angle_atom_site_label_1
_geom_angle_atom_site_label_2
_geom_angle_atom_site_label_3
_geom_angle
_geom_angle_site_symmetry_1
_geom_angle_site_symmetry_3
Si6D Ru1 Si6D 180.0(3) 21 9
Si6D Ru1 Si6D 63.27(15) 21 17
Si6D Ru1 Si6D 116.73(15) 9 17
Si6D Ru1 Si6D 116.73(15) 21 5
Si6D Ru1 Si6D 63.27(15) 9 5
Si6D Ru1 Si6D 180.0(5) 17 5
Si6D Ru1 Si6D 63.27(15) 21 13
Si6D Ru1 Si6D 116.73(15) 9 13
Si6D Ru1 Si6D 63.27(15) 17 13
Si6D Ru1 Si6D 116.73(15) 5 13
Si6D Ru1 Si6D 116.73(15) 21 .
Si6D Ru1 Si6D 63.27(15) 9 .
Si6D Ru1 Si6D 116.73(16) 17 .
Si6D Ru1 Si6D 63.27(15) 5 .
Si6D Ru1 Si6D 180.0 13 .
Si6D Ru1 Si6D 64.1(6) 21 22
Si6D Ru1 Si6D 115.9(6) 9 22
Si6D Ru1 Si6D 116.73(15) 17 22
Si6D Ru1 Si6D 63.27(15) 5 22
Si6D Ru1 Si6D 63.27(15) 13 22
Si6D Ru1 Si6D 116.73(15) . 22
Si6D Ru1 Si6D 115.9(6) 21 10
Si6D Ru1 Si6D 64.1(6) 9 10
Si6D Ru1 Si6D 63.27(15) 17 10
Si6D Ru1 Si6D 116.73(15) 5 10
Si6D Ru1 Si6D 116.73(15) 13 10
Si6D Ru1 Si6D 63.27(15) . 10
Si6D Ru1 Si6D 180.0(5) 22 10
Si6D Ru1 Si6D 63.27(15) 21 18
Si6D Ru1 Si6D 116.73(15) 9 18
Si6D Ru1 Si6D 64.1(6) 17 18
Si6D Ru1 Si6D 115.9(6) 5 18
Si6D Ru1 Si6D 116.73(15) 13 18
Si6D Ru1 Si6D 63.27(15) . 18
Si6D Ru1 Si6D 116.73(15) 22 18
Si6D Ru1 Si6D 63.27(15) 10 18
Si6D Ru1 Si6D 116.73(15) 21 6
Si6D Ru1 Si6D 63.27(15) 9 6
Si6D Ru1 Si6D 115.9(6) 17 6
Si6D Ru1 Si6D 64.1(6) 5 6
Si6D Ru1 Si6D 63.27(15) 13 6
Si6D Ru1 Si6D 116.73(15) . 6
Si6D Ru1 Si6D 63.27(15) 22 6
Si6D Ru1 Si6D 116.73(15) 10 6
Si6D Ru1 Si6D 180.0(3) 18 6
Si6D Ru1 Si6D 116.73(15) 21 14
Si6D Ru1 Si6D 63.27(15) 9 14
Si6D Ru1 Si6D 63.27(15) 17 14
Si6D Ru1 Si6D 116.73(15) 5 14
Si6D Ru1 Si6D 64.1(6) 13 14
Si6D Ru1 Si6D 115.9(6) . 14
Si6D Ru1 Si6D 116.73(15) 22 14
Si6D Ru1 Si6D 63.27(15) 10 14
Si6D Ru1 Si6D 116.73(15) 18 14
Si6D Ru1 Si6D 63.27(15) 6 14
Si6D Ru1 Si6D 63.27(15) 21 2
Si6D Ru1 Si6D 116.73(15) 9 2
Si6D Ru1 Si6D 116.73(15) 17 2
Si6D Ru1 Si6D 63.27(15) 5 2
Si6D Ru1 Si6D 115.9(6) 13 2
Si6D Ru1 Si6D 64.1(6) . 2
Si6D Ru1 Si6D 63.27(15) 22 2
Si6D Ru1 Si6D 116.73(15) 10 2
Si6D Ru1 Si6D 63.27(15) 18 2
Si6D Ru1 Si6D 116.73(15) 6 2
Si6D Ru1 Si6D 180.0(5) 14 2
Al4 Si2 Al4 180.0 21_666 9
Al4 Si2 Al4 63.918(7) 21_666 17_666
Al4 Si2 Al4 116.082(7) 9 17_666
Al4 Si2 Al4 116.082(7) 21_666 5
Al4 Si2 Al4 63.918(7) 9 5
Al4 Si2 Al4 180.0 17_666 5
Al4 Si2 Al4 63.918(7) 21_666 13_666
Al4 Si2 Al4 116.082(7) 9 13_666
Al4 Si2 Al4 63.918(7) 17_666 13_666
Al4 Si2 Al4 116.082(7) 5 13_666
Al4 Si2 Al4 61.56(3) 21_666 22_565
Al4 Si2 Al4 118.44(3) 9 22_565
Al4 Si2 Al4 116.082(7) 17_666 22_565
Al4 Si2 Al4 63.918(7) 5 22_565
Al4 Si2 Al4 63.918(7) 13_666 22_565
Al4 Si2 Al4 118.44(3) 21_666 10_656
Al4 Si2 Al4 61.56(3) 9 10_656
Al4 Si2 Al4 63.918(7) 17_666 10_656
Al4 Si2 Al4 116.082(7) 5 10_656
Al4 Si2 Al4 116.082(7) 13_666 10_656
Al4 Si2 Al4 180.0 22_565 10_656
Al4 Si2 Al4 116.082(7) 21_666 6_566
Al4 Si2 Al4 63.918(7) 9 6_566
Al4 Si2 Al4 118.44(3) 17_666 6_566
Al4 Si2 Al4 61.56(3) 5 6_566
Al4 Si2 Al4 63.918(7) 13_666 6_566
Al4 Si2 Al4 63.918(7) 22_565 6_566
Al4 Si2 Al4 116.082(7) 10_656 6_566
Al4 Si2 Al4 63.918(7) 21_666 18_655
Al4 Si2 Al4 116.082(7) 9 18_655
Al4 Si2 Al4 61.56(3) 17_666 18_655
Al4 Si2 Al4 118.44(3) 5 18_655
Al4 Si2 Al4 116.082(7) 13_666 18_655
Al4 Si2 Al4 116.082(7) 22_565 18_655
Al4 Si2 Al4 63.918(7) 10_656 18_655
Al4 Si2 Al4 180.0 6_566 18_655
Al4 Si2 Al4 63.918(7) 21_666 2_665
Al4 Si2 Al4 116.082(7) 9 2_665
Al4 Si2 Al4 116.082(7) 17_666 2_665
Al4 Si2 Al4 63.918(7) 5 2_665
Al4 Si2 Al4 118.44(3) 13_666 2_665
Al4 Si2 Al4 63.918(7) 22_565 2_665
Al4 Si2 Al4 116.082(7) 10_656 2_665
Al4 Si2 Al4 116.082(7) 6_566 2_665
Al4 Si2 Al4 63.918(7) 18_655 2_665
Al4 Si2 Al4 116.082(7) 21_666 14_556
Al4 Si2 Al4 63.918(7) 9 14_556
Al4 Si2 Al4 63.918(7) 17_666 14_556
Al4 Si2 Al4 116.082(7) 5 14_556
Al4 Si2 Al4 61.56(3) 13_666 14_556
Al4 Si2 Al4 116.082(7) 22_565 14_556
Al4 Si2 Al4 63.918(7) 10_656 14_556
Al4 Si2 Al4 63.918(7) 6_566 14_556
Al4 Si2 Al4 116.082(7) 18_655 14_556
Al4 Si2 Al4 180.0 2_665 14_556
Al4 Si2 Al4 116.082(7) 21_666 .
Al4 Si2 Al4 63.918(7) 9 .
Al4 Si2 Al4 116.082(7) 17_666 .
Al4 Si2 Al4 63.918(7) 5 .
Al4 Si2 Al4 180.0 13_666 .
Al4 Si2 Al4 116.082(7) 22_565 .
Al4 Si2 Al4 63.918(7) 10_656 .
Al4 Si2 Al4 116.082(7) 6_566 .
Al4 Si2 Al4 63.918(7) 18_655 .
Al4 Si2 Al4 61.56(3) 2_665 .
Al4 Si2 Al4 118.44(3) 14_556 .
Si6D Ru3 Si6D 120.5(7) 9 22_565
Si6D Ru3 Al5B 52.8(6) 9 5
Si6D Ru3 Al5B 67.6(6) 22_565 5
Si6D Ru3 Al5B 67.6(6) 9 17_565
Si6D Ru3 Al5B 52.8(6) 22_565 17_565
Al5B Ru3 Al5B 14.8(11) 5 17_565
Si6D Ru3 Al5A 38.5(3) 9 5
Si6D Ru3 Al5A 82.0(3) 22_565 5
Al5B Ru3 Al5A 14.3(5) 5 5
Al5B Ru3 Al5A 29.1(6) 17_565 5
Si6D Ru3 Al5A 82.0(3) 9 17_565
Si6D Ru3 Al5A 38.5(3) 22_565 17_565
Al5B Ru3 Al5A 29.1(6) 5 17_565
Al5B Ru3 Al5A 14.3(5) 17_565 17_565
Al5A Ru3 Al5A 43.46(16) 5 17_565
Si6D Ru3 Al4 79.5(3) 9 .
Si6D Ru3 Al4 141.37(13) 22_565 .
Al5B Ru3 Al4 121.8(4) 5 .
Al5B Ru3 Al4 132.0(3) 17_565 .
Al5A Ru3 Al4 110.78(6) 5 .
Al5A Ru3 Al4 139.97(4) 17_565 .
Si6D Ru3 Al4 141.37(13) 9 2_665
Si6D Ru3 Al4 79.5(3) 22_565 2_665
Al5B Ru3 Al4 132.0(3) 5 2_665
Al5B Ru3 Al4 121.8(4) 17_565 2_665
Al5A Ru3 Al4 139.97(4) 5 2_665
Al5A Ru3 Al4 110.78(7) 17_565 2_665
Al4 Ru3 Al4 67.43(3) . 2_665
Si6D Ru3 Al4 79.5(3) 9 14
Si6D Ru3 Al4 141.37(13) 22_565 14
Al5B Ru3 Al4 121.8(4) 5 14
Al5B Ru3 Al4 132.0(3) 17_565 14
Al5A Ru3 Al4 110.78(7) 5 14
Al5A Ru3 Al4 139.97(4) 17_565 14
Al4 Ru3 Al4 69.92(3) . 14
Al4 Ru3 Al4 105.826(18) 2_665 14
Si6D Ru3 Al4 141.37(13) 9 13_665
Si6D Ru3 Al4 79.5(3) 22_565 13_665
Al5B Ru3 Al4 132.0(3) 5 13_665
Al5B Ru3 Al4 121.8(4) 17_565 13_665
Al5A Ru3 Al4 139.97(4) 5 13_665
Al5A Ru3 Al4 110.78(7) 17_565 13_665
Al4 Ru3 Al4 105.826(18) . 13_665
Al4 Ru3 Al4 69.92(3) 2_665 13_665
Al4 Ru3 Al4 67.42(3) 14 13_665
Si6D Ru3 Al4 80.65(10) 9 6_565
Si6D Ru3 Al4 80.65(9) 22_565 6_565
Al5B Ru3 Al4 71.07(3) 5 6_565
Al5B Ru3 Al4 71.07(3) 17_565 6_565
Al5A Ru3 Al4 72.308(18) 5 6_565
Al5A Ru3 Al4 72.308(18) 17_565 6_565
Al4 Ru3 Al4 137.622(8) . 6_565
Al4 Ru3 Al4 137.623(8) 2_665 6_565
Al4 Ru3 Al4 69.87(2) 14 6_565
Al4 Ru3 Al4 69.87(2) 13_665 6_565
Si6D Ru3 Al4 80.65(9) 9 5
Si6D Ru3 Al4 80.65(10) 22_565 5
Al5B Ru3 Al4 71.07(3) 5 5
Al5B Ru3 Al4 71.07(3) 17_565 5
Al5A Ru3 Al4 72.308(18) 5 5
Al5A Ru3 Al4 72.308(17) 17_565 5
Al4 Ru3 Al4 69.87(2) . 5
Al4 Ru3 Al4 69.87(2) 2_665 5
Al4 Ru3 Al4 137.623(8) 14 5
Al4 Ru3 Al4 137.623(8) 13_665 5
Al4 Ru3 Al4 141.81(3) 6_565 5
Al6B Al4 Al6B 113.0(7) 9 23_655
Al6B Al4 Ru3 134.2(3) 9 13_665
Al6B Al4 Ru3 72.07(11) 23_655 13_665
Al6B Al4 Ru3 72.07(11) 9 .
Al6B Al4 Ru3 134.2(3) 23_655 .
Ru3 Al4 Ru3 74.173(18) 13_665 .
Al6B Al4 Ru3 63.80(13) 9 9
Al6B Al4 Ru3 63.80(13) 23_655 9
Ru3 Al4 Ru3 135.393(18) 13_665 9
Ru3 Al4 Ru3 135.393(18) . 9
Al6B Al4 Al6C 25.5(8) 9 9
Al6B Al4 Al6C 97.6(13) 23_655 9
Ru3 Al4 Al6C 111.4(7) 13_665 9
Ru3 Al4 Al6C 67.4(12) . 9
Ru3 Al4 Al6C 69.9(10) 9 9
Al6B Al4 Al6C 97.6(13) 9 10_655
Al6B Al4 Al6C 25.5(8) 23_655 10_655
Ru3 Al4 Al6C 67.4(12) 13_665 10_655
Ru3 Al4 Al6C 111.4(7) . 10_655
Ru3 Al4 Al6C 69.9(10) 9 10_655
Al6C Al4 Al6C 77(2) 9 10_655
Al6B Al4 Al6A 123.9(2) 9 16_655
Al6B Al4 Al6A 12.2(5) 23_655 16_655
Ru3 Al4 Al6A 69.17(2) 13_665 16_655
Ru3 Al4 Al6A 138.97(8) . 16_655
Ru3 Al4 Al6A 68.98(2) 9 16_655
Al6C Al4 Al6A 109.8(12) 9 16_655
Al6C Al4 Al6A 36.5(9) 10_655 16_655
Al6B Al4 Al6A 12.2(5) 9 .
Al6B Al4 Al6A 123.9(2) 23_655 .
Ru3 Al4 Al6A 138.97(8) 13_665 .
Ru3 Al4 Al6A 69.17(2) . .
Ru3 Al4 Al6A 68.98(2) 9 .
Al6C Al4 Al6A 36.5(9) 9 .
Al6C Al4 Al6A 109.8(12) 10_655 .
Al6A Al4 Al6A 133.96(15) 16_655 .
Al6B Al4 Si2 114.5(4) 9 .
Al6B Al4 Si2 114.5(4) 23_655 .
Ru3 Al4 Si2 102.02(2) 13_665 .
Ru3 Al4 Si2 102.02(2) . .
Ru3 Al4 Si2 101.68(2) 9 .
Al6C Al4 Si2 139.4(9) 9 .
Al6C Al4 Si2 139.4(9) 10_655 .
Al6A Al4 Si2 103.01(13) 16_655 .
Al6A Al4 Si2 103.01(13) . .
Al6B Al4 Al4 121.7(2) 9 2_665
Al6B Al4 Al4 121.7(2) 23_655 2_665
Ru3 Al4 Al4 56.287(14) 13_665 2_665
Ru3 Al4 Al4 56.287(14) . 2_665
Ru3 Al4 Al4 160.904(15) 9 2_665
Al6C Al4 Al4 123.7(12) 9 2_665
Al6C Al4 Al4 123.7(12) 10_655 2_665
Al6A Al4 Al4 112.95(6) 16_655 2_665
Al6A Al4 Al4 112.95(6) . 2_665
Si2 Al4 Al4 59.220(13) . 2_665
Al6B Al4 Al6B 21.3(5) 9 .
Al6B Al4 Al6B 134.17(15) 23_655 .
Ru3 Al4 Al6B 129.8(2) 13_665 .
Ru3 Al4 Al6B 57.5(3) . .
Ru3 Al4 Al6B 81.4(3) 9 .
Al6C Al4 Al6B 39.9(11) 9 .
Al6C Al4 Al6B 116.5(12) 10_655 .
Al6A Al4 Al6B 145.2(3) 16_655 .
Al6A Al4 Al6B 12.4(3) . .
Si2 Al4 Al6B 100.47(9) . .
Al4 Al4 Al6B 101.1(3) 2_665 .
Al5B Al5A Al6C 127(3) . 22
Al5B Al5A Al6C 127(3) . 9
Al6C Al5A Al6C 106(5) 22 9
Al5B Al5A Al5B 0.0 . 13_655
Al6C Al5A Al5B 127(3) 22 13_655
Al6C Al5A Al5B 127(3) 9 13_655
Al5B Al5A Si6D 129.1(4) . 6
Al6C Al5A Si6D 67.7(15) 22 6
Al6C Al5A Si6D 67.7(15) 9 6
Al5B Al5A Si6D 129.1(4) 13_655 6
Al5B Al5A Si6D 129.1(4) . 5
Al6C Al5A Si6D 67.7(15) 22 5
Al6C Al5A Si6D 67.7(15) 9 5
Al5B Al5A Si6D 129.1(4) 13_655 5
Si6D Al5A Si6D 101.8(7) 6 5
Al5B Al5A Al5A 0.0 . 13_655
Al6C Al5A Al5A 127(3) 22 13_655
Al6C Al5A Al5A 127(3) 9 13_655
Al5B Al5A Al5A 0.0 13_655 13_655
Si6D Al5A Al5A 129.1(4) 6 13_655
Si6D Al5A Al5A 129.1(4) 5 13_655
Al5B Al5A Al6B 123.26(15) . 11
Al6C Al5A Al6B 34.2(3) 22 11
Al6C Al5A Al6B 100(2) 9 11
Al5B Al5A Al6B 123.26(15) 13_655 11
Si6D Al5A Al6B 38.8(2) 6 11
Si6D Al5A Al6B 95.0(3) 5 11
Al5A Al5A Al6B 123.26(15) 13_655 11
Al5B Al5A Al6B 123.26(15) . 22
Al6C Al5A Al6B 34.2(3) 22 22
Al6C Al5A Al6B 100(2) 9 22
Al5B Al5A Al6B 123.26(15) 13_655 22
Si6D Al5A Al6B 95.0(3) 6 22
Si6D Al5A Al6B 38.8(2) 5 22
Al5A Al5A Al6B 123.26(15) 13_655 22
Al6B Al5A Al6B 67.9(3) 11 22
Al5B Al5A Al6B 123.26(15) . 9
Al6C Al5A Al6B 100(2) 22 9
Al6C Al5A Al6B 34.2(3) 9 9
Al5B Al5A Al6B 123.26(15) 13_655 9
Si6D Al5A Al6B 95.0(3) 6 9
Si6D Al5A Al6B 38.8(2) 5 9
Al5A Al5A Al6B 123.26(15) 13_655 9
Al6B Al5A Al6B 113.5(3) 11 9
Al6B Al5A Al6B 77.0(4) 22 9
Al5B Al5A Al6B 123.26(15) . 24
Al6C Al5A Al6B 100(2) 22 24
Al6C Al5A Al6B 34.2(3) 9 24
Al5B Al5A Al6B 123.26(15) 13_655 24
Si6D Al5A Al6B 38.8(2) 6 24
Si6D Al5A Al6B 95.0(3) 5 24
Al5A Al5A Al6B 123.26(15) 13_655 24
Al6B Al5A Al6B 77.0(4) 11 24
Al6B Al5A Al6B 113.5(3) 22 24
Al6B Al5A Al6B 67.9(3) 9 24
Al5B Al5A Ru3 68.27(8) . 9
Al6C Al5A Ru3 102.9(8) 22 9
Al6C Al5A Ru3 102.9(8) 9 9
Al5B Al5A Ru3 68.27(8) 13_655 9
Si6D Al5A Ru3 162.6(4) 6 9
Si6D Al5A Ru3 60.8(4) 5 9
Al5A Al5A Ru3 68.27(8) 13_655 9
Al6B Al5A Ru3 136.20(19) 11 9
Al6B Al5A Ru3 71.60(12) 22 9
Al6B Al5A Ru3 71.60(12) 9 9
Al6B Al5A Ru3 136.20(19) 24 9
Al5B Al5B Al5A 180.0 13_655 .
Al5B Al5B Al5A 0.0 13_655 13_655
Al5A Al5B Al5A 180.0 . 13_655
Al5B Al5B Al6C 144(2) 13_655 22
Al5A Al5B Al6C 36(2) . 22
Al5A Al5B Al6C 144(2) 13_655 22
Al5B Al5B Al6C 144(2) 13_655 9
Al5A Al5B Al6C 36(2) . 9
Al5A Al5B Al6C 144(2) 13_655 9
Al6C Al5B Al6C 71(4) 22 9
Al5B Al5B Si6D 142.9(5) 13_655 6
Al5A Al5B Si6D 37.1(5) . 6
Al5A Al5B Si6D 142.9(5) 13_655 6
Al6C Al5B Si6D 49.6(13) 22 6
Al6C Al5B Si6D 49.6(13) 9 6
Al5B Al5B Si6D 142.9(5) 13_655 5
Al5A Al5B Si6D 37.1(5) . 5
Al5A Al5B Si6D 142.9(5) 13_655 5
Al6C Al5B Si6D 49.6(13) 22 5
Al6C Al5B Si6D 49.6(13) 9 5
Si6D Al5B Si6D 74.2(9) 6 5
Al5B Al5B Al6C 26.3(15) 13_655 10_655
Al5A Al5B Al6C 153.7(15) . 10_655
Al5A Al5B Al6C 26.3(15) 13_655 10_655
Al6C Al5B Al6C 170.7(9) 22 10_655
Al6C Al5B Al6C 118(3) 9 10_655
Si6D Al5B Al6C 135.6(8) 6 10_655
Si6D Al5B Al6C 135.6(8) 5 10_655
Al5B Al5B Al6C 26.3(15) 13_655 21_655
Al5A Al5B Al6C 153.7(15) . 21_655
Al5A Al5B Al6C 26.3(15) 13_655 21_655
Al6C Al5B Al6C 118(3) 22 21_655
Al6C Al5B Al6C 170.7(9) 9 21_655
Si6D Al5B Al6C 135.6(8) 6 21_655
Si6D Al5B Al6C 135.6(8) 5 21_655
Al6C Al5B Al6C 53(3) 10_655 21_655
Al5B Al5B Al6B 136.2(4) 13_655 11
Al5A Al5B Al6B 43.8(4) . 11
Al5A Al5B Al6B 136.2(4) 13_655 11
Al6C Al5B Al6B 27.5(3) 22 11
Al6C Al5B Al6B 73.3(18) 9 11
Si6D Al5B Al6B 31.3(3) 6 11
Si6D Al5B Al6B 72.7(7) 5 11
Al6C Al5B Al6B 151.1(6) 10_655 11
Al6C Al5B Al6B 114.7(13) 21_655 11
Al5B Al5B Al6B 136.2(4) 13_655 24
Al5A Al5B Al6B 43.8(4) . 24
Al5A Al5B Al6B 136.2(4) 13_655 24
Al6C Al5B Al6B 73.3(18) 22 24
Al6C Al5B Al6B 27.5(3) 9 24
Si6D Al5B Al6B 31.3(3) 6 24
Si6D Al5B Al6B 72.7(7) 5 24
Al6C Al5B Al6B 114.7(13) 10_655 24
Al6C Al5B Al6B 151.1(6) 21_655 24
Al6B Al5B Al6B 62.0(5) 11 24
Al5B Al5B Al6B 136.2(4) 13_655 22
Al5A Al5B Al6B 43.8(4) . 22
Al5A Al5B Al6B 136.2(4) 13_655 22
Al6C Al5B Al6B 27.5(3) 22 22
Al6C Al5B Al6B 73.3(18) 9 22
Si6D Al5B Al6B 72.7(7) 6 22
Si6D Al5B Al6B 31.3(3) 5 22
Al6C Al5B Al6B 151.1(6) 10_655 22
Al6C Al5B Al6B 114.7(13) 21_655 22
Al6B Al5B Al6B 55.0(5) 11 22
Al6B Al5B Al6B 87.6(8) 24 22
Al6B Al6A Al6B 119.97(7) . 9
Al6B Al6A Al6B 119.97(8) . 5
Al6B Al6A Al6B 119.97(7) 9 5
Al6B Al6A Si6D 74.6(8) . .
Al6B Al6A Si6D 152.8(14) 9 .
Al6B Al6A Si6D 49.8(7) 5 .
Al6B Al6A Si6D 49.8(7) . 9
Al6B Al6A Si6D 74.6(8) 9 9
Al6B Al6A Si6D 152.8(14) 5 9
Si6D Al6A Si6D 106.2(6) . 9
Al6B Al6A Si6D 152.8(14) . 5
Al6B Al6A Si6D 49.8(7) 9 5
Al6B Al6A Si6D 74.6(8) 5 5
Si6D Al6A Si6D 106.2(6) . 5
Si6D Al6A Si6D 106.2(6) 9 5
Al6B Al6A Al6C 134(2) . 5
Al6B Al6A Al6C 101.1(18) 9 5
Al6B Al6A Al6C 26(2) 5 5
Si6D Al6A Al6C 59.2(19) . 5
Si6D Al6A Al6C 137.1(19) 9 5
Si6D Al6A Al6C 51.9(17) 5 5
Al6B Al6A Al6C 101.1(18) . 9
Al6B Al6A Al6C 26(2) 9 9
Al6B Al6A Al6C 134(2) 5 9
Si6D Al6A Al6C 137.1(19) . 9
Si6D Al6A Al6C 51.9(17) 9 9
Si6D Al6A Al6C 59.2(19) 5 9
Al6C Al6A Al6C 108.9(19) 5 9
Al6B Al6A Al6C 26(2) . .
Al6B Al6A Al6C 134(2) 9 .
Al6B Al6A Al6C 101.1(18) 5 .
Si6D Al6A Al6C 51.9(17) . .
Si6D Al6A Al6C 59.2(19) 9 .
Si6D Al6A Al6C 137.1(19) 5 .
Al6C Al6A Al6C 108.9(19) 5 .
Al6C Al6A Al6C 108.9(19) 9 .
Al6B Al6A Ru1 88.9(12) . .
Al6B Al6A Ru1 88.9(12) 9 .
Al6B Al6A Ru1 88.9(12) 5 .
Si6D Al6A Ru1 67.4(5) . .
Si6D Al6A Ru1 67.4(5) 9 .
Si6D Al6A Ru1 67.4(5) 5 .
Al6C Al6A Ru1 69.9(19) 5 .
Al6C Al6A Ru1 69.9(18) 9 .
Al6C Al6A Ru1 69.9(18) . .
Al6B Al6A Al5A 125.8(5) . .
Al6B Al6A Al5A 17.3(9) 9 .
Al6B Al6A Al5A 110.7(6) 5 .
Si6D Al6A Al5A 135.5(6) . .
Si6D Al6A Al5A 76.3(5) 9 .
Si6D Al6A Al5A 36.5(5) 5 .
Al6C Al6A Al5A 88.2(17) 5 .
Al6C Al6A Al5A 24.7(17) 9 .
Al6C Al6A Al5A 130(2) . .
Ru1 Al6A Al5A 73.5(2) . .
Al6B Al6A Al5A 17.3(9) . 5
Al6B Al6A Al5A 110.7(6) 9 5
Al6B Al6A Al5A 125.8(5) 5 5
Si6D Al6A Al5A 76.3(5) . 5
Si6D Al6A Al5A 36.5(5) 9 5
Si6D Al6A Al5A 135.5(6) 5 5
Al6C Al6A Al5A 130(2) 5 5
Al6C Al6A Al5A 88.2(17) 9 5
Al6C Al6A Al5A 24.7(17) . 5
Ru1 Al6A Al5A 73.5(2) . 5
Al5A Al6A Al5A 112.26(19) . 5
Al6A Al6B Al6B 30.02(4) . 5
Al6A Al6B Al6B 30.02(4) . 9
Al6B Al6B Al6B 60.0 5 9
Al6A Al6B Al6C 140(3) . .
Al6B Al6B Al6C 117(3) 5 .
Al6B Al6B Al6C 150(3) 9 .
Al6A Al6B Si6D 106.9(9) . 9
Al6B Al6B Si6D 131.4(10) 5 9
Al6B Al6B Si6D 80.0(12) 9 9
Al6C Al6B Si6D 84(3) . 9
Al6A Al6B Si6D 81.3(5) . .
Al6B Al6B Si6D 53.7(7) 5 .
Al6B Al6B Si6D 108.5(7) 9 .
Al6C Al6B Si6D 63(3) . .
Si6D Al6B Si6D 128.4(9) 9 .
Al6A Al6B Al6C 60.0(13) . 9
Al6B Al6B Al6C 88.1(15) 5 9
Al6B Al6B Al6C 32.6(14) 9 9
Al6C Al6B Al6C 125(4) . 9
Si6D Al6B Al6C 47.5(13) 9 9
Si6D Al6B Al6C 122.8(18) . 9
Al6A Al6B Al5A 157.1(10) . 5
Al6B Al6B Al5A 151.5(4) 5 5
Al6B Al6B Al5A 134.8(5) 9 5
Al6C Al6B Al5A 36(3) . 5
Si6D Al6B Al5A 54.9(9) 9 5
Si6D Al6B Al5A 99.4(8) . 5
Al6C Al6B Al5A 102.3(12) 9 5
Al6A Al6B Si6D 19.3(9) . 5
Al6B Al6B Si6D 42.1(5) 5 5
Al6B Al6B Si6D 25.7(4) 9 5
Al6C Al6B Si6D 131(3) . 5
Si6D Al6B Si6D 90.3(8) 9 5
Si6D Al6B Si6D 83.6(6) . 5
Al6C Al6B Si6D 46.5(14) 9 5
Al5A Al6B Si6D 137.8(3) 5 5
Al6A Al6B Al6B 120.9(9) . 16
Al6B Al6B Al6B 96.5(3) 5 16
Al6B Al6B Al6B 139.20(19) 9 16
Al6C Al6B Al6B 20(3) . 16
Si6D Al6B Al6B 97.1(8) 9 16
Si6D Al6B Al6B 43.3(7) . 16
Al6C Al6B Al6B 127.1(15) 9 16
Al5A Al6B Al6B 56.05(15) 5 16
Si6D Al6B Al6B 114.9(3) 5 16
Al6A Al6B Al6C 34.3(17) . 5
Al6B Al6B Al6C 15.2(14) 5 5
Al6B Al6B Al6C 61.7(15) 9 5
Al6C Al6B Al6C 107(3) . 5
Si6D Al6B Al6C 121.4(15) 9 5
Si6D Al6B Al6C 47.2(16) . 5
Al6C Al6B Al6C 84.3(14) 9 5
Al5A Al6B Al6C 138.6(15) 5 5
Si6D Al6B Al6C 38.5(15) 5 5
Al6B Al6B Al6C 87.2(15) 16 5
Al6A Al6B Al5B 167.5(7) . 5
Al6B Al6B Al5B 158.5(5) 5 5
Al6B Al6B Al5B 139.1(5) 9 5
Al6C Al6B Al5B 42(3) . 5
Si6D Al6B Al5B 60.7(9) 9 5
Si6D Al6B Al5B 104.9(9) . 5
Al6C Al6B Al5B 107.9(13) 9 5
Al5A Al6B Al5B 13.0(3) 5 5
Si6D Al6B Al5B 148.9(5) 5 5
Al6B Al6B Al5B 62.5(3) 16 5
Al6C Al6B Al5B 148.9(16) 5 5
Al6B Al6C Al6B 139(5) 16 .
Al6B Al6C Al5A 109(3) 16 5
Al6B Al6C Al5A 109(3) . 5
Al6B Al6C Si6D 70(3) 16 .
Al6B Al6C Si6D 70(3) . .
Al5A Al6C Si6D 172(5) 5 .
Al6B Al6C Si6D 49.4(13) 16 10
Al6B Al6C Si6D 143(5) . 10
Al5A Al6C Si6D 67(2) 5 10
Si6D Al6C Si6D 108(3) . 10
Al6B Al6C Si6D 143(5) 16 9
Al6B Al6C Si6D 49.4(13) . 9
Al5A Al6C Si6D 67(2) 5 9
Si6D Al6C Si6D 108(3) . 9
Si6D Al6C Si6D 101(3) 10 9
Al6B Al6C Al5B 110(3) 16 5
Al6B Al6C Al5B 110(3) . 5
Al5A Al6C Al5B 17.4(11) 5 5
Si6D Al6C Al5B 171(4) . 5
Si6D Al6C Al5B 77(2) 10 5
Si6D Al6C Al5B 77(2) 9 5
Al6B Al6C Al6A 126(4) 16 .
Al6B Al6C Al6A 13.7(11) . .
Al5A Al6C Al6A 120(2) 5 .
Si6D Al6C Al6A 58.0(17) . .
Si6D Al6C Al6A 136(4) 10 .
Si6D Al6C Al6A 55.2(8) 9 .
Al5B Al6C Al6A 123.3(17) 5 .
Al6B Al6C Al6A 13.7(11) 16 16
Al6B Al6C Al6A 126(4) . 16
Al5A Al6C Al6A 120(2) 5 16
Si6D Al6C Al6A 58.0(17) . 16
Si6D Al6C Al6A 55.2(8) 10 16
Si6D Al6C Al6A 136(4) 9 16
Al5B Al6C Al6A 123.3(17) 5 16
Al6A Al6C Al6A 113(3) . 16
Al6B Al6C Al6B 30.6(17) 16 18
Al6B Al6C Al6B 109(4) . 18
Al5A Al6C Al6B 138.9(17) 5 18
Si6D Al6C Al6B 39.4(13) . 18
Si6D Al6C Al6B 73.1(13) 10 18
Si6D Al6C Al6B 133(4) 9 18
Al5B Al6C Al6B 140.8(13) 5 18
Al6A Al6C Al6B 96(3) . 18
Al6A Al6C Al6B 18.9(7) 16 18
Al6B Al6C Al6B 109(4) 16 5
Al6B Al6C Al6B 30.6(17) . 5
Al5A Al6C Al6B 138.9(17) 5 5
Si6D Al6C Al6B 39.4(13) . 5
Si6D Al6C Al6B 133(4) 10 5
Si6D Al6C Al6B 73.1(13) 9 5
Al5B Al6C Al6B 140.8(13) 5 5
Al6A Al6C Al6B 18.9(7) . 5
Al6A Al6C Al6B 96(3) 16 5
Al6B Al6C Al6B 78(2) 18 5
Al6B Al6C Al6C 102(3) 16 14
Al6B Al6C Al6C 102(3) . 14
Al5A Al6C Al6C 37(3) 5 14
Si6D Al6C Al6C 135(2) . 14
Si6D Al6C Al6C 52.3(17) 10 14
Si6D Al6C Al6C 52.3(17) 9 14
Al5B Al6C Al6C 54(2) 5 14
Al6A Al6C Al6C 104.8(19) . 14
Al6A Al6C Al6C 104.8(19) 16 14
Al6B Al6C Al6C 119.2(16) 18 14
Al6B Al6C Al6C 119.2(16) 5 14
Al6B Si6D Al6B 164.6(12) 18 5
Al6B Si6D Al6C 93.0(10) 18 .
Al6B Si6D Al6C 93.0(10) 5 .
Al6B Si6D Al6B 138.8(10) 18 .
Al6B Si6D Al6B 46.3(15) 5 .
Al6C Si6D Al6B 46.8(7) . .
Al6B Si6D Al6B 46.3(15) 18 16
Al6B Si6D Al6B 138.8(10) 5 16
Al6C Si6D Al6B 46.8(7) . 16
Al6B Si6D Al6B 93.4(15) . 16
Al6B Si6D Al6A 155.4(12) 18 .
Al6B Si6D Al6A 23.3(7) 5 .
Al6C Si6D Al6A 70.1(6) . .
Al6B Si6D Al6A 24.1(6) . .
Al6B Si6D Al6A 115.4(9) 16 .
Al6B Si6D Al6A 23.3(7) 18 16
Al6B Si6D Al6A 155.4(12) 5 16
Al6C Si6D Al6A 70.1(6) . 16
Al6B Si6D Al6A 115.4(9) . 16
Al6B Si6D Al6A 24.1(6) 16 16
Al6A Si6D Al6A 134.5(9) . 16
Al6B Si6D Al5A 86.3(10) 18 9
Al6B Si6D Al5A 86.3(10) 5 9
Al6C Si6D Al5A 174(2) . 9
Al6B Si6D Al5A 132.6(8) . 9
Al6B Si6D Al5A 132.6(8) 16 9
Al6A Si6D Al5A 108.7(5) . 9
Al6A Si6D Al5A 108.7(5) 16 9
Al6B Si6D Al6C 46.1(18) 18 18
Al6B Si6D Al6C 121(2) 5 18
Al6C Si6D Al6C 132(3) . 18
Al6B Si6D Al6C 152(2) . 18
Al6B Si6D Al6C 90(2) 16 18
Al6A Si6D Al6C 135.5(18) . 18
Al6A Si6D Al6C 65.5(19) 16 18
Al5A Si6D Al6C 45(2) 9 18
Al6B Si6D Al6C 121(2) 18 5
Al6B Si6D Al6C 46.1(18) 5 5
Al6C Si6D Al6C 132(3) . 5
Al6B Si6D Al6C 90(2) . 5
Al6B Si6D Al6C 152(2) 16 5
Al6A Si6D Al6C 65.5(19) . 5
Al6A Si6D Al6C 135.5(18) 16 5
Al5A Si6D Al6C 45(2) 9 5
Al6C Si6D Al6C 75(3) 18 5
Al6B Si6D Al5B 88.0(10) 18 9
Al6B Si6D Al5B 88.0(10) 5 9
Al6C Si6D Al5B 172(2) . 9
Al6B Si6D Al5B 133.1(7) . 9
Al6B Si6D Al5B 133.1(7) 16 9
Al6A Si6D Al5B 111.3(5) . 9
Al6A Si6D Al5B 111.3(5) 16 9
Al5A Si6D Al5B 13.8(3) 9 9
Al6C Si6D Al5B 53(2) 18 9
Al6C Si6D Al5B 53(2) 5 9
Al6B Si6D Al6B 22.9(8) 18 23
Al6B Si6D Al6B 151.2(8) 5 23
Al6C Si6D Al6B 73.3(8) . 23
Al6B Si6D Al6B 116.7(9) . 23
Al6B Si6D Al6B 29.5(7) 16 23
Al6A Si6D Al6B 133.0(7) . 23
Al6A Si6D Al6B 7.9(5) 16 23
Al5A Si6D Al6B 104.8(4) 9 23
Al6C Si6D Al6B 60.4(19) 18 23
Al6C Si6D Al6B 128.0(17) 5 23
Al5B Si6D Al6B 109.2(4) 9 23
loop_
_geom_bond_atom_site_label_1
_geom_bond_atom_site_label_2
_geom_bond_distance
_geom_bond_site_symmetry_2
Ru1 Si6D 2.308(10) 21
Ru1 Si6D 2.308(10) 9
Ru1 Si6D 2.308(10) 17
Ru1 Si6D 2.308(10) 5
Ru1 Si6D 2.308(10) 13
Ru1 Si6D 2.308(10) .
Ru1 Si6D 2.308(10) 22
Ru1 Si6D 2.308(10) 10
Ru1 Si6D 2.308(10) 18
Ru1 Si6D 2.308(10) 6
Ru1 Si6D 2.308(10) 14
Ru1 Si6D 2.308(10) 2
Si2 Al4 2.7947(7) 21_666
Si2 Al4 2.7947(7) 9
Si2 Al4 2.7947(7) 17_666
Si2 Al4 2.7947(7) 5
Si2 Al4 2.7947(7) 13_666
Si2 Al4 2.7947(7) 22_565
Si2 Al4 2.7947(7) 10_656
Si2 Al4 2.7947(7) 6_566
Si2 Al4 2.7947(7) 18_655
Si2 Al4 2.7947(7) 2_665
Si2 Al4 2.7947(7) 14_556
Si2 Al4 2.7947(7) .
Ru3 Si6D 2.213(10) 9
Ru3 Si6D 2.213(10) 22_565
Ru3 Al5B 2.343(3) 5
Ru3 Al5B 2.343(3) 17_565
Ru3 Al5A 2.5014(14) 5
Ru3 Al5A 2.5014(14) 17_565
Ru3 Al4 2.5767(5) .
Ru3 Al4 2.5767(5) 2_665
Ru3 Al4 2.5767(5) 14
Ru3 Al4 2.5767(5) 13_665
Ru3 Al4 2.5898(7) 6_565
Ru3 Al4 2.5898(7) 5
Al4 Al6B 2.377(5) 9
Al4 Al6B 2.377(5) 23_655
Al4 Al6C 2.67(5) 9
Al4 Al6C 2.67(5) 10_655
Al4 Al6A 2.696(8) 16_655
Al4 Al6A 2.696(8) .
Al4 Al4 2.8603(13) 2_665
Al4 Al6B 2.870(10) .
Al5A Al5B 0.62(2) .
Al5A Al6C 1.21(6) 22
Al5A Al6C 1.21(6) 9
Al5A Al5B 1.23(2) 13_655
Al5A Si6D 1.578(13) 6
Al5A Si6D 1.578(13) 5
Al5A Al5A 1.852(8) 13_655
Al5A Al6B 1.925(16) 11
Al5A Al6B 1.925(16) 22
Al5A Al6B 1.925(16) 9
Al5A Al6B 1.925(16) 24
Al5B Al5B 0.61(4) 13_655
Al5B Al6C 1.66(6) 22
Al5B Al6C 1.66(6) 9
Al5B Si6D 2.03(2) 6
Al5B Si6D 2.03(2) 5
Al5B Al6C 2.18(6) 10_655
Al5B Al6C 2.18(6) 21_655
Al5B Al6B 2.33(2) 11
Al5B Al6B 2.33(2) 24
Al5B Al6B 2.33(2) 22
Al6A Al6B 0.626(17) .
Al6A Al6B 0.626(17) 9
Al6A Al6B 0.626(17) 5
Al6A Si6D 1.514(6) .
Al6A Si6D 1.514(6) 9
Al6A Si6D 1.514(6) 5
Al6A Al6C 1.68(3) 5
Al6A Al6C 1.68(3) 9
Al6A Al6C 1.68(3) .
Al6B Al6B 1.08(3) 5
Al6B Al6B 1.08(3) 9
Al6B Al6C 1.15(2) .
Al6B Si6D 1.209(6) 9
Al6B Si6D 1.477(10) .
Al6B Al6C 1.90(5) 9
Al6B Si6D 2.091(16) 5
Al6B Al6B 2.15(2) 16
Al6B Al6C 2.16(3) 5
Al6C Si6D 1.40(6) .
Al6C Si6D 1.58(4) 10
Al6C Si6D 1.58(4) 9
Al6C Al6C 1.94(11) 14
