#------------------------------------------------------------------------------
#$Date: 2024-02-04 14:18:02 +0200 (Sun, 04 Feb 2024) $
#$Revision: 289573 $
#$URL: file:///home/coder/svn-repositories/cod/cif/1/57/06/1570610.cif $
#------------------------------------------------------------------------------
#
# This file is available in the Crystallography Open Database (COD),
# http://www.crystallography.net/
#
# All data on this site have been placed in the public domain by the
# contributors.
#
data_1570610
loop_
_publ_author_name
'Ren, Zhen'
'Sun, Jun-Jun'
'Xu, Long'
'Luo, Peng'
'Ma, Zi-Wei'
'Li, Si'
'Si, Yu-Bing'
'Dong, Xi-Yan'
'Pan, Fangfang'
_publ_section_title
;
 X-ray-triggered through-space charge transfer and photochromism in silver
 nanoclusters.
;
_journal_issue                   5
_journal_name_full               Nanoscale
_journal_page_first              2662
_journal_page_last               2671
_journal_paper_doi               10.1039/d3nr05409h
_journal_volume                  16
_journal_year                    2024
_chemical_formula_moiety         'C72 H108 Ag14, Cl'
_chemical_formula_sum            'C72 H109 Ag14 Cl O'
_chemical_formula_weight         2536.22
_space_group_crystal_system      trigonal
_space_group_IT_number           148
_space_group_name_Hall           '-R 3'
_space_group_name_H-M_alt        'R -3 :H'
_atom_sites_solution_hydrogens   mixed
_audit_block_doi                 10.5517/ccdc.csd.cc2gp1nw
_audit_creation_date             2023-07-25
_audit_creation_method
;
Olex2 1.5
(compiled 2023.03.06 svn.rbb2c1857 for OlexSys, GUI svn.r6748)
;
_audit_update_record
;
2023-07-25 deposited with the CCDC.	2023-12-28 downloaded from the CCDC.
;
_cell_angle_alpha                90
_cell_angle_beta                 90
_cell_angle_gamma                120
_cell_formula_units_Z            3
_cell_length_a                   16.3155(3)
_cell_length_b                   16.3155(3)
_cell_length_c                   29.6131(5)
_cell_measurement_reflns_used    3881
_cell_measurement_temperature    200.00(10)
_cell_measurement_theta_max      73.0970
_cell_measurement_theta_min      4.3300
_cell_volume                     6826.8(2)
_computing_cell_refinement       'CrysAlisPro 1.171.39.27b (Rigaku OD, 2015)'
_computing_data_collection       'CrysAlisPro 1.171.39.27b (Rigaku OD, 2015)'
_computing_data_reduction        'CrysAlisPro 1.171.39.27b (Rigaku OD, 2015)'
_computing_molecular_graphics    'Olex2 1.5 (Dolomanov et al., 2009)'
_computing_publication_material  'Olex2 1.5 (Dolomanov et al., 2009)'
_computing_structure_refinement  'SHELXL 2018/3 (Sheldrick, 2015)'
_computing_structure_solution    'SHELXT 2014/5 (Sheldrick, 2014)'
_diffrn_ambient_temperature      199.99(10)
_diffrn_measured_fraction_theta_full 0.993
_diffrn_measured_fraction_theta_max 0.956
_diffrn_measurement_details
;
List of Runs (angles in degrees, time in seconds):

  # Type    Start    End  Width  t~exp~   \w     \q     \k     \f   Frames
#--------------------------------------------------------------------------
  1  \w    -12.00  44.00   0.50    0.50    --    0.00  38.00-150.00  112
  2  \w     53.00  85.00   0.50    0.50    --    0.00  38.00-150.00   64
  3  \w     11.00 113.00   0.50    4.50    --   95.80 -82.00 150.00  204
  4  \w    115.00 171.00   0.50    4.50    --   95.80  45.00 -60.00  112
  5  \w     26.00 119.00   0.50    4.50    --   95.80 -61.00 150.00  186
  6  \w     83.00 134.00   0.50    4.50    --   95.80  45.00 -30.00  102
;
_diffrn_measurement_device       'four-circle diffractometer'
_diffrn_measurement_device_type  'XtaLAB AFC12 (RINC): Kappa single'
_diffrn_measurement_method       '\w scans'
_diffrn_radiation_type           CuK\a
_diffrn_radiation_wavelength     1.54184
_diffrn_reflns_av_R_equivalents  0.0282
_diffrn_reflns_av_unetI/netI     0.0330
_diffrn_reflns_Laue_measured_fraction_full 0.993
_diffrn_reflns_Laue_measured_fraction_max 0.956
_diffrn_reflns_limit_h_max       11
_diffrn_reflns_limit_h_min       -12
_diffrn_reflns_limit_k_max       19
_diffrn_reflns_limit_k_min       -10
_diffrn_reflns_limit_l_max       35
_diffrn_reflns_limit_l_min       -33
_diffrn_reflns_number            6732
_diffrn_reflns_point_group_measured_fraction_full 0.993
_diffrn_reflns_point_group_measured_fraction_max 0.956
_diffrn_reflns_theta_full        67.684
_diffrn_reflns_theta_max         74.288
_diffrn_reflns_theta_min         3.466
_exptl_absorpt_coefficient_mu    24.077
_exptl_absorpt_correction_T_max  1.00000
_exptl_absorpt_correction_T_min  0.09778
_exptl_absorpt_correction_type   multi-scan
_exptl_absorpt_process_details
;
CrysAlisPro 1.171.39.27b (Rigaku Oxford Diffraction, 2015)
Empirical absorption correction using spherical harmonics,
 implemented in SCALE3 ABSPACK scaling algorithm.
;
_exptl_crystal_colour            violet
_exptl_crystal_colour_primary    colourless
_exptl_crystal_density_diffrn    1.851
_exptl_crystal_description       rhombohedral
_exptl_crystal_F_000             3672
_exptl_crystal_size_max          0.25
_exptl_crystal_size_mid          0.2
_exptl_crystal_size_min          0.2
_refine_diff_density_max         0.959
_refine_diff_density_min         -1.011
_refine_diff_density_rms         0.119
_refine_ls_extinction_method     none
_refine_ls_goodness_of_fit_ref   1.064
_refine_ls_hydrogen_treatment    constr
_refine_ls_matrix_type           full
_refine_ls_number_parameters     219
_refine_ls_number_reflns         2964
_refine_ls_number_restraints     167
_refine_ls_restrained_S_all      1.091
_refine_ls_R_factor_all          0.0559
_refine_ls_R_factor_gt           0.0495
_refine_ls_shift/su_max          0.003
_refine_ls_shift/su_mean         0.000
_refine_ls_structure_factor_coef Fsqd
_refine_ls_weighting_details
'w=1/[\s^2^(Fo^2^)+(0.0838P)^2^+20.3275P] where P=(Fo^2^+2Fc^2^)/3'
_refine_ls_weighting_scheme      calc
_refine_ls_wR_factor_gt          0.1393
_refine_ls_wR_factor_ref         0.1438
_reflns_Friedel_coverage         0.000
_reflns_number_gt                2482
_reflns_number_total             2964
_reflns_threshold_expression     'I > 2\s(I)'
_cod_data_source_file            d3nr05409h2.cif
_cod_data_source_block           cl@ag14-cu-ray_sq
_cod_depositor_comments
'Adding full bibliography for 1570610--1570618.cif.'
_cod_original_cell_volume        6826.8(3)
_cod_original_sg_symbol_H-M      'R -3'
_cod_database_code               1570610
_shelx_shelxl_version_number     2018/3
_shelx_space_group_comment
;
The symmetry employed for this shelxl refinement is uniquely defined
by the following loop, which should always be used as a source of
symmetry information in preference to the above space-group names.
They are only intended as comments.
;
_shelx_estimated_absorpt_t_max   0.086
_shelx_estimated_absorpt_t_min   0.065
_olex2_refinement_description
;
1. Fixed Uiso
 At 1.5 times of:
  All C(H,H,H) groups
2. Restrained distances
 C5A-C3 = C4A-C3 = C6A-C3 = C11A-C9A = C10A-C9A = C12A-C9A
 1.53 with sigma of 0.01
 C9-C11 = C9-C10 = C9-C12 = C6-C3 = C5-C3 = C4-C3
 1.53 with sigma of 0.01
 C8A-C9A = C9-C8
 1.5 with sigma of 0.02
 C4A-C5A \\sim C4A-C6A \\sim C5A-C6A \\sim C11A-C12A \\sim C12A-C10A \\sim
C10A-C11A
 with sigma of 0.02
 C10-C11 \\sim C10-C12 \\sim C11-C12 \\sim C4-C5 \\sim C4-C6 \\sim C5-C6
 with sigma of 0.02
3. Uiso/Uaniso restraints and constraints
Uanis(C4A) \\sim Ueq, Uanis(C5A) \\sim Ueq, Uanis(C6A) \\sim Ueq, Uanis(C7A)
\\sim Ueq, Uanis(C8A) \\sim Ueq, Uanis(C9A) \\sim Ueq, Uanis(C10A) \\sim Ueq,
Uanis(C11A) \\sim Ueq, Uanis(C12A) \\sim Ueq: with sigma of 0.01 and sigma for
terminal atoms of 0.02
Uanis(C3) \\sim Ueq, Uanis(C4) \\sim Ueq, Uanis(C5) \\sim Ueq, Uanis(C6) \\sim
Ueq, Uanis(C7) \\sim Ueq, Uanis(C8) \\sim Ueq, Uanis(C9) \\sim Ueq, Uanis(C10)
\\sim Ueq, Uanis(C11) \\sim Ueq, Uanis(C12) \\sim Ueq: with sigma of 0.01 and
sigma for terminal atoms of 0.02
Uanis(Ag3) = Uanis(Ag3A)
Uanis(C7A) = Uanis(C7)
4. Rigid body (RIGU) restrains
 C4A, C3, C6
 with sigma for 1-2 distances of 0.0001 and sigma for 1-3 distances of 0.0001
 C9, C12
 with sigma for 1-2 distances of 0.0001 and sigma for 1-3 distances of 0.0001
5. Others
 Sof(Ag3A)=1-FVAR(1)
 Sof(Ag3)=FVAR(1)
 Sof(C4A)=Sof(H4AA)=Sof(H4AB)=Sof(H4AC)=Sof(C5A)=Sof(H5AA)=Sof(H5AB)=Sof(H5AC)=
 Sof(C6A)=Sof(H6AA)=Sof(H6AB)=Sof(H6AC)=1-FVAR(2)
 Sof(C4)=Sof(H4A)=Sof(H4B)=Sof(H4C)=Sof(C5)=Sof(H5A)=Sof(H5B)=Sof(H5C)=Sof(C6)=
 Sof(H6A)=Sof(H6B)=Sof(H6C)=FVAR(2)
 Sof(C7A)=Sof(C8A)=Sof(C9A)=Sof(C10A)=Sof(H10D)=Sof(H10E)=Sof(H10F)=Sof(C11A)=
 Sof(H11D)=Sof(H11E)=Sof(H11F)=Sof(C12A)=Sof(H12D)=Sof(H12E)=Sof(H12F)=1-FVAR(3)
 Sof(C7)=Sof(C8)=Sof(C9)=Sof(C10)=Sof(H10A)=Sof(H10B)=Sof(H10C)=Sof(C11)=
 Sof(H11A)=Sof(H11B)=Sof(H11C)=Sof(C12)=Sof(H12A)=Sof(H12B)=Sof(H12C)=FVAR(3)
6.a Riding coordinates:
 C4(H4A,H4B,H4C), C5(H5A,H5B,H5C), C6(H6A,H6B,H6C), C4A(H4AA,H4AB,H4AC),
 C10A(H10D,H10E,H10F), C11A(H11D,H11E,H11F)
6.b Idealised Me refined as rotating group:
 C10(H10A,H10B,H10C), C11(H11A,H11B,H11C), C12(H12A,H12B,H12C), C5A(H5AA,H5AB,
 H5AC), C6A(H6AA,H6AB,H6AC), C12A(H12D,H12E,H12F)
;
_smtbx_masks_special_details
;
A solvent mask was calculated and 225 electrons were 
found in a volume of 783\%A^3^ in 2 voids per unit cell. 
This is consistent with the presence of 
3[OH] and 10[CH3OH] per Unit Cell 
which account for 207 electrons 
per unit cell.
;
_shelx_res_file
;
TITL hy_a.res in R-3
    cl@ag14-cu-ray_sq.res
    created by SHELXL-2018/3 at 19:08:05 on 25-Jul-2023
REM Old TITL hy in R-3
REM SHELXT solution in R-3
REM R1 0.190, Rweak 0.013, Alpha 0.022, Orientation as input
REM Formula found by SHELXT: C18 N6 O7 Ag14
CELL 1.54184 16.3155 16.3155 29.6131 90 90 120
ZERR 3 0.0003 0.0003 0.0005 0 0 0
LATT 3
SYMM -Y,+X-Y,+Z
SYMM +Y-X,-X,+Z
SFAC C H Ag Cl O
UNIT 216 327 42 3 3
DFIX 1.53 0.01 C5A C3 C4A C3 C6A C3 C11A C9A C10A C9A C12A C9A
DFIX 1.53 0.01 C9 C11 C9 C10 C9 C12 C6 C3 C5 C3 C4 C3
ISOR 0.01 0.02 C4A C5A C6A C7A C8A C9A C10A C11A C12A
ISOR 0.01 0.02 C3 C4 C5 C6 C7 C8 C9 C10 C11 C12
SADI C4A C5A C4A C6A C5A C6A C11A C12A C12A C10A C10A C11A
SADI C10 C11 C10 C12 C11 C12 C4 C5 C4 C6 C5 C6
DFIX 1.5 C8A C9A C9 C8
EADP Ag3 Ag3A
EADP C7A C7
RIGU 0.0001 0.0001 C4A C3 C6
RIGU 0.0001 0.0001 C9 C12

L.S. 20 0 13
PLAN  10
SIZE 0.2 0.2 0.25
TEMP -73
CONF
BOND $H
MORE -1
ABIN
fmap 2
acta
REM <olex2.extras>
REM <HklSrc "%.\\cl@ag14-cu-ray_sq.hkl">
REM </olex2.extras>

WGHT    0.083800   20.327499
FVAR       0.08490   0.83580   0.46856   0.61699
AG1   3    0.479676    0.635608    0.603222    11.00000    0.08193    0.07743 =
         0.06549    0.01653    0.01850    0.04911
AG2   3    0.333333    0.666667    0.562070    10.33333    0.08404    0.08404 =
         0.05107    0.00000    0.00000    0.04202
CL1   4    0.333333    0.666667    0.666667    10.16667    0.04862    0.04862 =
         0.03561    0.00000    0.00000    0.02431
C1    1    0.463425    0.523773    0.642733    11.00000    0.07033    0.06664 =
         0.07877   -0.00041    0.00643    0.04240
C2    1    0.472519    0.464374    0.661058    11.00000    0.08455    0.07871 =
         0.10136    0.02334    0.02795    0.05510
C3    1    0.485921    0.389813    0.681987    11.00000    0.15073    0.13234 =
         0.15547    0.04251    0.03417    0.10585
PART 1
AG3   3    0.524452    0.826905    0.631070    21.00000    0.06660    0.07165 =
         0.07025    0.00741    0.00743    0.03696
C4    1    0.511051    0.341957    0.644368    31.00000    0.20770    0.14976 =
         0.20033    0.03268    0.02783    0.13597
AFIX   3
H4A   2    0.487451    0.352397    0.616558    31.00000   -1.50000
H4B   2    0.484611    0.275187    0.649078    31.00000   -1.50000
H4C   2    0.578771    0.371807    0.642928    31.00000   -1.50000
AFIX   0
C5    1    0.401474    0.320458    0.709593    31.00000    0.15725    0.11545 =
         0.14231    0.05438    0.03457    0.07564
AFIX   3
H5A   2    0.401704    0.332318    0.741363    31.00000   -1.50000
H5B   2    0.390994    0.257668    0.705063    31.00000   -1.50000
H5C   2    0.351914    0.326218    0.695183    31.00000   -1.50000
AFIX   0
C6    1    0.573493    0.449228    0.711864    31.00000    0.19219    0.17304 =
         0.21914    0.02628   -0.01561    0.10892
AFIX   3
H6A   2    0.574613    0.404438    0.732524    31.00000   -1.50000
H6B   2    0.556713    0.489918    0.727864    31.00000   -1.50000
H6C   2    0.634943    0.486538    0.698544    31.00000   -1.50000
AFIX   0
C7    1    0.492002    0.739018    0.558289    41.00000    0.05673    0.06464 =
         0.05070    0.00734    0.00835    0.02159
C8    1    0.516559    0.795645    0.528833    41.00000    0.08138    0.09250 =
         0.06155    0.01634    0.01292    0.04106
C9    1    0.545539    0.860110    0.488517    41.00000    0.12619    0.12465 =
         0.10267    0.02345    0.01027    0.05136
C10   1    0.579582    0.816489    0.452466    41.00000    0.22260    0.19284 =
         0.12873    0.04305    0.05337    0.08189
AFIX 137
H10A  2    0.625239    0.801228    0.465891    41.00000   -1.50000
H10B  2    0.609887    0.861770    0.427757    41.00000   -1.50000
H10C  2    0.525384    0.758583    0.440705    41.00000   -1.50000
AFIX   0
C11   1    0.458815    0.864737    0.472863    41.00000    0.20460    0.20315 =
         0.15516    0.09512   -0.01300    0.08985
AFIX 137
H11A  2    0.413698    0.804677    0.458550    41.00000   -1.50000
H11B  2    0.478248    0.916395    0.451064    41.00000   -1.50000
H11C  2    0.428814    0.876109    0.498924    41.00000   -1.50000
AFIX   0
C12   1    0.626266    0.957121    0.503118    41.00000    0.17762    0.14611 =
         0.14707    0.00819    0.00381    0.02500
AFIX 137
H12A  2    0.652507    0.950953    0.531849    41.00000   -1.50000
H12B  2    0.602050    1.000893    0.506834    41.00000   -1.50000
H12C  2    0.675933    0.981636    0.480019    41.00000   -1.50000
AFIX   0
PART 2
AG3A  3    0.560869    0.849635    0.623384   -21.00000    0.06660    0.07165 =
         0.07025    0.00741    0.00743    0.03696
C4A   1    0.401583    0.294768    0.666865   -31.00000    0.20538    0.15765 =
         0.26515    0.01768   -0.00627    0.08703
AFIX   3
H4AA  2    0.416703    0.246078    0.673015   -31.00000   -1.50000
H4AB  2    0.388263    0.294528    0.635275   -31.00000   -1.50000
H4AC  2    0.347043    0.283258    0.684155   -31.00000   -1.50000
AFIX   0
C5A   1    0.479984    0.392713    0.733843   -31.00000    0.19218    0.15626 =
         0.15928    0.07379    0.00683    0.10998
AFIX 137
H5AA  2    0.529878    0.454182    0.744958   -31.00000   -1.50000
H5AB  2    0.488292    0.342229    0.747006   -31.00000   -1.50000
H5AC  2    0.418006    0.383574    0.742546   -31.00000   -1.50000
AFIX   0
C6A   1    0.576071    0.394010    0.667324   -31.00000    0.11306    0.13621 =
         0.17775    0.03296    0.01654    0.09704
AFIX 137
H6AA  2    0.567695    0.330205    0.667894   -31.00000   -1.50000
H6AB  2    0.627364    0.435072    0.687917   -31.00000   -1.50000
H6AC  2    0.591977    0.419493    0.636595   -31.00000   -1.50000
AFIX   0
C7A   1    0.514766    0.758243    0.565977   -41.00000    0.05673    0.06464 =
         0.05070    0.00734    0.00835    0.02159
C8A   1    0.550460    0.817406    0.539226   -41.00000    0.08278    0.07947 =
         0.06320    0.00394    0.01208    0.03676
C9A   1    0.587821    0.883350    0.501053   -41.00000    0.12827    0.12352 =
         0.11361    0.01783    0.00337    0.05060
C10A  1    0.613794    0.978839    0.521907   -41.00000    0.20421    0.10930 =
         0.13288    0.06292    0.02550    0.06004
AFIX   3
H10D  2    0.564514    0.992859    0.515197   -41.00000   -1.50000
H10E  2    0.672074    1.026269    0.508657   -41.00000   -1.50000
H10F  2    0.621234    0.978279    0.554057   -41.00000   -1.50000
AFIX   0
C11A  1    0.677246    0.884682    0.484772   -41.00000    0.14535    0.17738 =
         0.14778    0.06567    0.04586    0.06903
AFIX   3
H11D  2    0.665446    0.821692    0.479342   -41.00000   -1.50000
H11E  2    0.723406    0.913492    0.508352   -41.00000   -1.50000
H11F  2    0.700666    0.921442    0.457632   -41.00000   -1.50000
AFIX   0
C12A  1    0.522462    0.864490    0.460749   -41.00000    0.15593    0.16917 =
         0.13656    0.03782   -0.00590    0.08164
AFIX 137
H12D  2    0.478181    0.886861    0.467628   -41.00000   -1.50000
H12E  2    0.486952    0.796394    0.454517   -41.00000   -1.50000
H12F  2    0.560277    0.898101    0.434216   -41.00000   -1.50000
AFIX   0
HKLF 4




REM  hy_a.res in R-3
REM wR2 = 0.1438, GooF = S = 1.064, Restrained GooF = 1.091 for all data
REM R1 = 0.0495 for 2482 Fo > 4sig(Fo) and 0.0559 for all 2964 data
REM 219 parameters refined using 167 restraints

END

WGHT      0.0838     20.3277

REM Highest difference peak  0.959,  deepest hole -1.011,  1-sigma level  0.119
Q1    1   0.4804  0.6437  0.6317  11.00000  0.05    0.96
Q2    1   0.3333  0.6667  0.5324  10.33333  0.05    0.94
Q3    1   0.5393  0.8335  0.6586  11.00000  0.05    0.82
Q4    1   0.4346  0.2990  0.6274  11.00000  0.05    0.64
Q5    1   0.3333  0.6667  0.5928  10.33333  0.05    0.62
Q6    1   0.5318  0.8295  0.5996  11.00000  0.05    0.59
Q7    1   0.5412  0.3697  0.6553  11.00000  0.05    0.57
Q8    1   0.4223  0.6021  0.5971  11.00000  0.05    0.56
Q9    1   0.4776  0.6311  0.5701  11.00000  0.05    0.48
Q10   1   0.4492  0.5755  0.6097  11.00000  0.05    0.47
;
_shelx_res_checksum              20351
_shelx_hkl_file
;
   0   0  -3 4144.16  144.86
   0   0   6   45.83    2.20
   0   0   9 2091.04   73.76
   0   0  12 1371.03   48.84
   0   0  15   34.05    2.10
   0   0  15   40.45    2.49
   0   0  18  216.98    8.68
   0   0  18  201.78    9.02
   0   0  21   27.45    3.08
   0   0  21   26.19    2.70
   0   0  24  154.07    8.49
   0   0  24  170.37    8.96
   0   0  27  152.26    9.21
   0   0  27  163.80    9.41
   0   0  30  456.16   20.53
   0   0  30  491.81   21.30
   0   0  33   56.50    5.86
   0   1  32   44.17    5.13
   1  -1  32   42.46    5.03
   0   1  32   33.73    4.68
  -1   0  32   50.03    6.38
   1  -1  29  292.72   14.72
   0   1  29  358.13   15.56
   0   1  29  310.68   15.45
  -1   0  29  332.34   15.35
  -1   0  29  347.01   16.24
   1  -1  29  363.94   17.17
  -1   0  26   10.78    3.88
  -1   0  26    2.01    3.00
   1  -1  26    5.14    3.76
   0   1  26    3.46    3.18
   0   1  26    3.05    3.44
   1  -1  26    5.05    2.68
   1  -1  23  173.24    8.69
  -1   0  23  159.45    8.62
   0   1  23  166.07    8.71
   1  -1  23  149.74    7.94
   0   1  23  151.12    7.93
  -1   0  23  153.84    7.75
   1  -1  20   17.93    2.37
   1  -1  20   16.58    2.32
   0   1  20   16.34    2.19
   0   1  20   19.00    2.66
  -1   0  20   20.62    2.62
  -1   0  20   19.46    2.16
   1  -1  17   57.73    3.41
  -1   0  17   56.79    3.04
   0   1  17   58.93    3.27
   0   1  17   61.74    3.75
   1  -1  17   58.34    3.24
  -1   0  17   62.84    3.51
   0   1  14  250.61   10.09
   0   1  14  240.04    9.16
  -1   0  14  224.02    8.97
  -1   0  14  252.16    9.30
  -1   0  14  231.18    9.90
   0  -1 -11  378.26   15.57
   0   1  11  429.05   15.57
  -1   0   8  956.33   34.95
   0  -1  -8  943.20   34.85
   0   1   8  980.29   34.63
  -1   0   5  367.11   13.80
   0   1   5  368.83   13.64
   0  -1  -2 5909.21  212.77
   0   1   2 6190.31  212.77
   1  -1   2 6130.43  212.55
   0  -1   1 8724.17  304.72
  -1   1   4    2.01    0.79
  -1   0  -4    1.78    0.33
   1  -1  -4    3.06    0.95
   0  -1   7 2049.14   71.12
   1  -1  -7 1959.78   71.82
  -1   1  10  354.13   13.96
  -1   1  13  453.46   17.74
   0  -1  16    9.13    1.18
   0  -1  16    9.92    1.37
   1   0  16    7.51    1.30
  -1   1  16    8.68    1.55
  -1   1  16    9.38    1.37
   1   0  16    7.72    1.46
   0  -1  19  184.19    7.99
  -1   1  19  196.93    8.62
   1   0  19  181.33    8.38
   0  -1  19  188.73    8.34
   1   0  19  194.06    8.36
  -1   1  19  178.61    7.81
   1   0  22   60.51    4.45
  -1   1  22   56.28    4.73
   0  -1  22   58.57    4.25
  -1   1  22   56.41    3.81
   1   0  22   57.76    4.38
   0  -1  22   49.69    4.18
  -1   1  25   54.87    5.52
   1   0  25   48.09    5.08
   1   0  25   51.60    4.56
   0  -1  25   54.91    4.78
  -1   1  25   59.72    4.64
   0  -1  25   53.31    5.07
   1   0  28  222.37   12.40
  -1   1  28  244.83   11.33
   1   0  28  224.29   11.33
  -1   1  28  220.01   12.18
   0  -1  28  215.47   12.56
   0  -1  28  237.80   12.06
  -1   1  31  103.40    7.93
   0  -1  31  134.67    8.81
   1   0  31  110.95    7.54
  -1   1  31  130.28    7.81
   1   0  31  144.10    9.56
  -1   1  34    1.92    2.90
   1   1  33   13.58    3.27
  -2   1  33   18.86    4.18
  -2   1  30   13.94    4.70
   1   1  30    6.47    3.01
  -2   1  30   12.50    3.55
   1  -2  30   18.93    4.06
   1   1  30   13.28    4.46
  -2   1  27    8.00    4.05
   1   1  27    5.39    3.62
   1  -2  27    4.32    4.05
   1  -2  27    6.71    3.34
   1   1  27    6.37    2.91
   1  -2  24   36.59    3.69
   1   1  24   33.35    3.74
   1  -2  24   38.51    4.19
   1   1  24   26.66    3.91
  -2   1  24   32.17    4.12
   1  -2  21  184.45    8.54
   1   1  21  187.15    8.88
  -2   1  21  185.92    8.79
   1   1  21  158.17    8.52
   1  -2  21  189.40    8.58
   1   1  18  547.95   21.40
   1   1  18  539.95   21.19
  -2   1  18  597.23   21.13
   1  -2  18  524.01   20.90
   1  -2  18  567.51   20.83
  -2   1  15   32.09    2.14
   1  -2  15   30.65    2.05
   1  -2  15   26.98    1.83
  -2   1  15   30.19    1.75
   1   1  15   28.92    2.22
  -2   1  15   24.40    2.44
   1   1  15   28.47    2.37
  -1  -1 -12  307.82   12.36
   1   1   9   37.43    2.37
  -2   1   9   34.07    2.71
   1   1   6  896.61   32.03
  -1  -1  -6  887.02   31.81
   1  -2   6  861.61   31.22
  -2   1   6  964.14   32.66
   1  -2   3    2.22    0.58
  -1   2  -3    3.55    0.55
  -1  -1  -3    5.30    0.88
  -2   1   3    4.08    1.03
   1  -2   0 1681.67   59.55
  -1   2   3   55.50    2.88
  -2   1  -6  267.39    9.80
  -1   2   6  283.22   10.90
   1  -2  -6  280.48   11.14
  -1   2   9 1246.35   44.17
   1  -2  -9 1190.97   44.39
  -1  -1   9 1203.99   43.73
  -1  -1  12  151.17    7.00
   1  -2 -12  148.08    7.54
  -1   2  12  171.07    7.62
  -1  -1  15   18.49    1.64
  -1  -1  15   18.47    1.61
  -1   2  15   19.13    2.01
   2  -1  15   20.08    1.66
  -1  -1  15   18.31    1.43
  -1   2  18    2.56    1.83
   2  -1  18    2.13    1.30
  -1  -1  18    1.15    1.40
  -1  -1  18    1.64    1.20
   2  -1  18    1.39    1.28
   2  -1  21   78.39    4.86
  -1  -1  21   74.89    4.83
  -1   2  21   68.16    5.12
  -1   2  21   74.71    4.29
   2  -1  21   72.76    4.44
  -1  -1  21   75.05    4.34
  -1  -1  24  130.41    7.00
  -1   2  24  119.91    7.76
  -1  -1  24  117.58    7.50
   2  -1  24  130.55    7.78
  -1   2  24  132.19    6.62
   2  -1  24  116.48    6.61
   2  -1  27   72.12    6.28
  -1  -1  27   54.98    5.41
  -1  -1  27   71.19    6.24
  -1   2  27   65.95    5.14
   2  -1  27   50.77    4.27
  -1   2  27   53.16    5.63
   2  -1  30  136.38    9.61
  -1   2  30   89.42    7.17
  -1   2  30  117.32    6.82
  -1  -1  30  131.39    9.58
   2  -1  30   92.13    6.35
  -1   2  33    0.27    2.45
  -1   2  33    1.77    2.75
  -1  -1  33   -0.82    4.81
  -2   0  34    8.88    3.69
   0   2  34   11.15    2.50
   0   2  31    5.64    3.18
   0   2  31    6.89    3.41
   2  -2  31    6.02    2.95
  -2   0  31   15.09    5.54
   0   2  28   71.79    6.18
   2  -2  28   86.36    7.75
   0   2  28   84.14    6.15
  -2   0  28   71.80    5.63
  -2   0  28   67.10    6.76
   2  -2  28   66.37    5.10
   2  -2  25   17.97    2.70
   2  -2  25   12.26    3.35
   0   2  25   15.61    3.56
  -2   0  25   11.45    3.73
   0   2  25   14.03    2.99
   2  -2  22   64.01    4.74
  -2   0  22   66.08    4.80
   2  -2  22   59.60    4.19
   0   2  22   68.17    4.52
   0   2  22   70.76    5.40
   0   2  19    9.08    1.85
   0   2  19    5.74    2.36
  -2   0  19    8.47    1.94
   2  -2  19    6.61    1.61
   2  -2  19    6.10    1.72
   2  -2  16   68.61    3.52
   0   2  16   68.20    4.15
   2  -2  16   64.25    3.38
   0   2  16   66.81    3.52
  -2   0  16   69.11    3.51
  -2   0  13    1.11    0.88
   0   2  13    1.53    0.87
   0  -2 -13    1.07    1.09
   0   2  10 1098.14   38.85
  -2   0  10 1028.61   39.00
   0  -2 -10 1049.85   38.95
   0   2   7    1.07    0.77
   0  -2  -7    2.08    0.89
  -2   2  -4  433.62   15.88
   0   2   4  436.47   16.51
   0  -2  -4  460.30   16.61
   2  -2   1   19.91    1.67
  -2   2  -1   20.47    1.54
   0  -2   2    0.69    0.74
   0  -2   5 1366.85   48.29
  -2   0  -5 1365.78   48.13
   2  -2  -5 1298.07   49.03
  -2   0  -8   70.81    3.28
   2  -2  -8   76.78    4.49
   0  -2   8   77.89    3.69
  -2   2  11    5.46    1.40
  -2   0 -11    6.30    0.82
   0  -2  11    5.88    0.88
   0  -2  14   69.21    3.24
   2   0  14   77.61    3.66
  -2   2  14   68.58    3.11
  -2   2  14   64.57    4.41
  -2   2  14   68.48    3.47
   0  -2  14   69.06    3.34
   0  -2  17  247.24    9.89
   0  -2  17  256.27   10.15
  -2   2  17  245.80   10.26
  -2   2  17  240.77    9.67
   2   0  17  245.68   10.23
   2   0  17  275.85   10.58
   2   0  20  330.60   13.66
  -2   2  20  342.38   14.02
   2   0  20  333.89   14.14
   0  -2  20  343.97   13.55
   0  -2  20  326.80   13.70
   2   0  23   10.42    2.24
   0  -2  23   12.10    2.74
   0  -2  23   10.57    2.71
   2   0  23   11.71    3.18
  -2   2  23   10.25    3.21
   2   0  26    2.82    3.41
  -2   2  26    2.10    3.49
   0  -2  26    8.99    3.55
   2   0  26    2.64    2.11
   0  -2  26    1.67    3.32
   2   0  29   12.81    2.83
   2   0  29   16.28    4.59
  -2   2  29    8.72    4.20
   0  -2  29   17.44    5.04
   2   0  32    9.35    4.62
  -2   2  32    8.16    3.41
   0  -2  32    8.62    4.79
  -2   2  32    7.46    2.75
  -2   2  35    5.20    1.87
  -3   2  34   17.54    2.80
  -3   2  31  106.39    6.82
   1  -3  31  117.46    7.56
   2   1  31   93.23    6.17
   2   1  31  115.07    7.64
   2   1  28   66.32    6.36
   1  -3  28   64.32    5.46
  -3   2  28   57.52    5.68
   2   1  28   52.28    4.61
  -3   2  25   21.14    3.64
   1  -3  25   27.46    3.73
   2   1  25   18.91    2.96
  -3   2  25   20.35    2.56
   1  -3  25   21.11    3.99
   2   1  25   20.35    4.01
   1  -3  22  481.91   19.93
   2   1  22  478.45   20.00
  -3   2  22  525.52   19.15
  -3   2  22  492.95   20.10
   2   1  22  436.83   20.45
   1  -3  19 1915.39   69.94
   1  -3  19 1983.99   69.90
  -3   2  19 2012.24   70.00
  -3   2  19 1997.38   69.31
   2   1  19 1783.63   70.56
   2   1  19 1971.40   70.29
   2   1  16  146.09    6.98
   1  -3  16  146.43    6.39
   2   1  16  146.94    6.76
  -3   2  16  157.45    6.00
   1  -3  16  143.66    6.23
  -3   2  16  134.14    7.67
  -2  -1 -13  340.57   13.18
  -3   2  13  317.83   11.86
  -3   2  13  328.27   14.12
  -2  -1 -10   24.32    1.89
   1  -3  10   23.46    1.34
  -3   2  10   25.60    2.53
  -3   2   7   34.34    2.80
  -2  -1  -7   31.67    2.12
   1  -3   7   31.29    1.92
  -1   3  -4   63.98    3.14
   1  -3   4   66.36    3.34
  -2  -1  -4   64.84    3.72
  -3   2   4   66.74    4.11
   1  -3   1  619.74   24.62
  -1   3  -1  701.85   24.39
  -3   2  -2   48.40    2.82
  -3   2  -5  357.07   13.58
  -1   3   5  374.62   14.31
  -1   3   8 6119.46  213.28
   1  -3  -8 5989.37  213.62
   1  -3 -11 6715.25  235.30
  -2  -1  11 6658.46  234.63
  -1   3  11 6624.87  234.81
   1  -3 -14  115.06    6.77
  -1   3  14  114.45    6.40
  -1   3  14  107.61    5.29
  -2  -1  14  101.18    5.94
  -2  -1  14  117.34    4.87
   3  -2  17  441.94   16.19
   3  -2  17  430.74   16.21
  -2  -1  17  439.79   16.19
  -1   3  20  353.90   16.50
   3  -2  20  434.04   15.94
   3  -2  20  368.80   15.99
  -2  -1  20  449.63   16.24
   3  -2  23  248.89   11.40
  -1   3  23  232.61   11.61
  -2  -1  23  214.75   10.29
  -2  -1  23  255.33   11.29
   3  -2  23  251.13   10.52
   3  -2  26   22.75    3.89
  -2  -1  26   12.22    3.05
  -2  -1  26   24.43    4.33
  -1   3  26   22.94    4.06
  -1   3  26   19.32    2.94
   3  -2  26   15.82    2.55
  -2  -1  29  102.75    8.53
   3  -2  29  105.95    7.85
  -1   3  29   94.09    5.96
  -1   3  32    1.68    2.26
  -1   3  32    2.53    2.42
  -2  -1  32    2.10    5.61
  -1   3  35    4.01    1.29
  -3   1  35    1.51    1.97
  -3   1  32   61.29    5.61
   1   2  32   58.58    4.92
   2  -3  29   13.80    3.17
  -3   1  29   11.83    4.19
   1   2  29   10.14    3.18
   1   2  29   15.10    3.73
   1   2  26    7.63    2.92
   2  -3  26   14.26    3.09
   1   2  26   10.85    3.28
   2  -3  26    7.87    3.64
  -3   1  26   10.21    3.61
   2  -3  23   32.97    3.27
  -3   1  23   32.44    2.97
  -3   1  23   28.67    3.55
   2  -3  23   34.79    3.75
   1   2  23   28.34    3.71
   1   2  23   38.56    4.18
   1   2  20  691.63   26.43
  -3   1  20  688.70   25.96
   1   2  20  708.09   26.88
  -3   1  20  688.58   25.42
   2  -3  20  685.69   26.03
   2  -3  20  673.24   25.91
  -3   1  17  127.14    5.71
   2  -3  17  139.76    6.10
   1   2  17  142.96    6.59
   1   2  17  151.42    7.16
   2  -3  17  140.80    6.18
  -3   1  14  232.84    9.51
   1   2  14  270.00   10.76
   2  -3  14  266.91    9.81
  -1  -2 -14  277.72   11.64
   1   2  14  259.18   10.18
  -3   1  11   19.88    2.39
  -1  -2  -8   24.07    2.12
  -3   1   8   29.42    2.67
  -3   1   5 1009.89   34.75
  -1  -2  -5  886.26   34.10
   1   2   5  976.28   34.39
   2  -3   5  910.85   33.74
  -2   3  -5  938.13   33.37
  -2   3  -2  699.32   24.60
  -1  -2  -2  639.05   25.14
  -1  -2   1  476.34   18.42
  -2   3   4 1078.70   40.97
   2  -3  -4 1189.74   41.51
  -2   3   7 1619.49   60.34
   2  -3  -7 1639.37   60.85
  -3   1  -7 1711.30   59.32
   2  -3 -10 3590.39  115.51
  -2   3  10 3663.11  114.99
  -1  -2  13  327.88   14.96
  -2   3  13  347.19   15.88
  -2   3  13  401.16   14.41
  -1  -2  13  379.77   14.00
  -1  -2  13  393.73   14.12
  -2   3  13  385.44   13.91
   3  -1  16   44.28    2.63
   3  -1  16   43.52    2.85
  -1  -2  16   48.20    2.73
  -2   3  16   42.68    3.67
  -2   3  16   45.29    3.00
  -2   3  16   41.71    2.33
  -1  -2  16   45.12    2.53
   3  -1  19   13.76    1.75
  -2   3  19   11.09    2.32
  -1  -2  19    9.07    1.68
   3  -1  19   11.53    2.16
  -1  -2  19    9.81    1.91
   3  -1  22   97.10    5.95
  -1  -2  22   98.26    5.53
  -1  -2  22  104.88    5.93
  -2   3  22   94.32    6.07
   3  -1  22   95.68    5.30
  -2   3  25   14.67    3.66
  -1  -2  25    9.75    3.35
   3  -1  25    9.78    2.06
  -1  -2  25   10.46    3.07
   3  -1  25   14.58    3.57
  -2   3  28   33.67    4.49
   3  -1  28   38.61    5.09
  -1  -2  28   41.41    6.06
  -1  -2  31   -3.20    5.63
  -2   3  31   -1.53    2.93
   3  -1  31   -0.85    3.95
  -2   3  34    9.79    2.18
  -3   0  33   30.55    4.92
   0   3  33   24.55    2.89
  -3   0  30    9.86    4.92
   0   3  30    5.78    3.08
   0   3  30    5.54    3.04
   0   3  27   22.61    3.79
  -3   0  27   27.86    4.45
   3  -3  27   29.20    4.63
   0   3  27   29.50    3.71
   3  -3  27   29.27    3.25
   0   3  24    3.79    2.91
  -3   0  24    3.76    2.68
   3  -3  24    5.95    2.19
   3  -3  24    4.97    2.83
   0   3  24    3.64    2.40
   0   3  21   50.09    4.46
   3  -3  21   40.58    3.53
  -3   0  21   32.58    2.89
   3  -3  21   48.61    3.35
  -3   0  21   40.53    3.53
   0   3  21   45.20    3.46
   0   3  18  100.56    6.17
   0   3  18   92.49    5.15
  -3   0  18  111.54    5.29
   3  -3  18  126.77    5.41
   3  -3  18  111.77    5.37
  -3   0  18  108.45    4.94
  -3   0  15  181.42    9.21
   3  -3  15  192.50    7.53
   0  -3 -15  197.86    9.90
  -3   0  15  181.95    7.35
   0   3  15  206.80    9.80
   0   3  15  199.15    7.70
   0   3  12 1194.26   43.46
   0  -3 -12 1186.32   43.55
  -3   0  12 1111.31   43.37
  -3   0   9 3458.44  122.59
   0   3   9 3433.85  122.40
  -3   3  -6   16.15    1.10
   0   3   6   15.30    1.74
   0  -3  -6   14.93    1.73
   3  -3   3 1885.72   71.46
   0  -3  -3 2019.91   71.60
   0   3   3 2107.27   71.57
   3  -3   0  737.90   26.88
   0  -3   0  693.05   26.32
  -3   3   0  751.94   26.35
   0   3   0  660.95   26.17
   0  -3   3  762.21   28.29
   3  -3  -6   58.77    4.28
   0  -3   6   66.33    3.73
  -3   0  -6   68.40    3.75
   3  -3  -9  118.30    6.83
  -3   0  -9  124.17    5.47
   0  -3   9  126.88    5.94
   0  -3  12    8.84    1.13
   0  -3  12    6.93    1.05
  -3   3  15   59.75    4.62
   3   0  15   69.04    4.02
   0  -3  15   71.01    3.51
   0  -3  15   68.02    3.36
  -3   3  15   73.43    3.18
  -3   3  18  693.76   26.80
  -3   3  18  750.56   26.22
   0  -3  18  745.86   26.86
   3   0  18  701.38   26.72
   0  -3  18  726.27   26.62
   3   0  18  698.80   27.43
  -3   3  21  428.31   17.10
  -3   3  21  431.49   16.13
   3   0  21  413.93   17.69
   3   0  21  399.81   16.62
   0  -3  21  414.96   17.02
   0  -3  21  451.75   16.93
  -3   3  24    2.57    2.65
  -3   3  24    3.52    1.69
   0  -3  24    2.58    2.53
   3   0  24    2.08    1.65
   0  -3  24    5.56    2.99
   3   0  24    5.10    3.08
  -3   3  27   15.79    3.67
   3   0  27   11.32    2.27
  -3   3  27   15.46    2.55
   0  -3  27   22.78    4.53
   3   0  27   16.71    4.24
   3   0  30   40.91    5.29
  -3   3  30   45.12    4.55
   0  -3  30   43.88    6.06
  -3   3  33   28.11    3.17
  -4   3  35    2.76    1.35
  -4   3  32   64.80    4.58
   3   1  32   74.07    5.78
   3   1  29  129.18    8.12
   1  -4  29  132.94    7.98
  -4   3  29  113.62    6.00
  -4   3  29  130.03    7.30
   3   1  26   35.87    3.43
   1  -4  26   43.92    4.63
  -4   3  26   40.31    3.02
  -4   3  26   43.82    4.10
   3   1  26   39.94    4.71
   3   1  23  123.16    7.95
   1  -4  23  140.63    7.49
  -4   3  23  137.04    6.07
   3   1  23  116.23    6.55
   1  -4  20 1794.39   66.91
   3   1  20 1946.88   68.26
   3   1  20 1738.47   66.77
  -4   3  20 1899.42   66.01
   1  -4  20 1938.83   66.96
   3   1  17  623.42   23.51
   1  -4  17  589.91   22.15
   3   1  17  602.84   22.51
  -4   3  17  603.70   21.69
   1  -4  17  587.45   22.25
  -4   3  17  585.21   22.11
   1  -4  14  521.00   19.08
  -4   3  14  533.23   19.00
  -3  -1 -14  502.34   20.20
   3   1  14  458.68   19.86
  -4   3  14  533.77   18.72
   1  -4  14  515.24   19.02
  -4   3  14  513.34   21.52
  -3  -1 -11  431.87   16.53
   1  -4  11  408.19   15.95
   1  -4   8   86.33    4.62
  -4   3   8  100.21    5.70
  -3  -1  -8   95.09    4.92
  -4   3   5   62.48    4.25
   1  -4   5   60.13    3.67
  -3  -1  -5   65.83    4.19
  -1   4  -2  612.74   22.60
   1  -4   2  587.65   22.86
  -4   3  -1 1777.92   63.38
   1  -4  -1 1742.04   63.52
  -4   3  -4 1423.76   52.51
  -1   4   4 1479.33   52.98
   1  -4  -4 1500.41   53.40
  -1   4   7 1906.27   68.71
   1  -4 -10 9437.19  334.30
  -1   4  10 9542.96  333.86
  -1   4  13 1000.00   35.13
   1  -4 -13  994.24   38.25
  -1   4  13  981.17   35.76
  -1   4  13 1017.59   37.76
  -3  -1  13  965.82   35.05
  -3  -1  13  951.82   37.45
  -3  -1  16  386.52   14.64
   4  -3  16  389.08   14.84
   1  -4 -16  434.30   18.51
  -1   4  16  385.41   15.47
   4  -3  19  510.26   20.50
  -1   4  19  553.49   21.27
  -3  -1  19  547.31   20.38
   4  -3  22  280.45   12.69
  -3  -1  22  302.73   12.65
  -1   4  22  308.15   13.40
  -3  -1  25    0.90    2.84
   4  -3  25    0.85    2.35
  -1   4  25   -0.38    2.90
  -1   4  28   97.33    6.43
  -1   4  28   82.08    5.50
   4  -3  28   99.29    6.83
  -3  -1  28  107.28    7.71
  -1   4  31   -1.78    2.32
  -1   4  31   -0.07    2.39
  -3  -1  31    3.36    5.25
  -1   4  34   17.30    1.97
  -1   4  34   19.69    2.14
  -4   2  33   49.32    4.07
   2   2  33   45.62    4.13
   2   2  30  107.25    6.67
  -4   2  30  115.41    6.07
  -4   2  30  128.97    7.33
  -4   2  27   57.77    4.97
   2   2  27   54.85    4.70
  -4   2  27   59.67    3.92
   2   2  27   65.39    5.53
   2  -4  27   58.94    4.85
  -4   2  24   15.16    2.91
   2   2  24   13.16    2.84
   2   2  24   12.96    3.45
   2  -4  24   22.08    3.27
  -4   2  24   13.43    2.01
   2   2  21 1313.58   50.86
  -4   2  21 1403.85   49.19
   2  -4  21 1398.53   50.04
   2  -4  21 1335.98   50.10
   2   2  21 1354.98   50.47
   2  -4  18 1251.48   46.24
   2   2  18 1210.25   47.08
   2   2  18 1347.03   47.11
   2  -4  18 1269.53   46.24
  -4   2  18 1307.63   45.69
   2  -4  15  116.78    5.36
   2  -4  15  124.59    5.45
  -4   2  15  126.05    5.37
   2   2  15  122.48    6.17
  -4   2  15  126.24    5.12
  -4   2  12  592.45   24.78
  -4   2  12  627.79   22.39
  -2  -2  -9   13.45    1.64
   2  -4   9   12.70    1.34
  -2  -2  -6   24.70    2.23
  -2   4  -6   26.93    1.80
  -4   2   6   29.37    2.75
  -2   4  -3  107.63    5.01
   2  -4   3  109.38    5.40
  -2  -2  -3  120.52    6.07
  -2   4   0 1075.95   39.57
  -4   2   0 1125.51   40.06
   2  -4   0 1073.66   39.98
  -2   4   6  527.57   20.59
  -4   2  -6  495.94   19.68
  -4   2  -9 9053.37  301.32
  -4   2  -9 8040.92  301.31
  -2   4   9 8970.59  303.35
   2  -4  -9 8844.36  304.06
  -2  -2  12 3373.97  120.89
  -2   4  12 3418.70  123.38
   2  -4 -12 3523.10  124.08
  -2   4  12 3496.58  120.74
  -2   4  15   61.75    3.18
   4  -2  15   59.81    3.42
  -2   4  15   62.73    4.87
   2  -4 -15   57.49    5.10
  -2   4  15   64.63    3.75
  -2   4  18  565.84   20.69
  -2  -2  18  538.49   20.08
  -2   4  18  559.91   19.66
  -2   4  21  470.07   17.16
  -2   4  21  476.78   18.42
  -2  -2  21  483.88   18.00
   4  -2  21  420.28   17.86
  -2  -2  21  412.02   17.42
  -2  -2  24   48.77    4.56
   4  -2  24   51.09    4.45
  -2   4  24   49.03    4.57
  -2   4  27   71.05    5.54
   4  -2  27   69.45    5.68
  -2  -2  27   75.82    7.04
  -2  -2  30   39.63    7.32
  -2   4  30   27.29    3.69
  -2   4  33   16.77    2.32
  -4   1  34   13.18    2.69
   1   3  34   11.31    2.18
  -4   1  31   22.77    4.17
   1   3  31   15.44    3.01
  -4   1  28    0.11    2.11
   1   3  28   -1.08    2.84
  -4   1  28    1.43    3.25
   1   3  28    1.27    2.56
   1   3  25    0.25    2.57
  -4   1  25    2.41    2.67
   1   3  25    0.71    2.73
  -4   1  25    0.79    1.77
   3  -4  25    5.51    2.41
   1   3  22  111.85    7.12
   3  -4  22  137.08    6.60
   3  -4  22  113.48    6.63
   1   3  22  128.21    6.91
  -4   1  22  110.92    5.63
  -4   1  19  340.55   13.68
   1   3  19  345.32   15.32
   3  -4  19  350.58   14.33
   1   3  19  354.18   14.65
  -4   1  16  107.86    4.88
   1   3  16  101.31    5.28
   3  -4  16  118.02    5.03
  -4   1  16  104.49    4.69
   3  -4  16  100.92    4.90
  -4   1  13  232.86    8.87
  -4   1  13  232.44    8.78
  -1  -3 -13  239.69   10.95
   1   3  13  229.47    9.37
   1   3  13  218.62    9.92
  -4   1  13  239.28   11.31
  -1  -3 -10  252.63   11.35
  -4   1  10  272.27   11.98
  -3   4  -7    4.41    0.66
   3  -4   7    2.32    0.90
  -3   4  -4   34.24    2.18
  -1  -3  -4   38.55    2.90
   3  -4   4   32.48    2.67
   3  -4   1   10.22    1.71
  -3   4  -1   10.47    1.37
  -1  -3   2  213.88    9.39
   3  -4  -2  184.70    9.18
  -3   4   5   30.35    2.74
  -1  -3   5   24.23    2.67
  -1  -3   8  852.82   33.45
  -3   4   8  881.54   33.50
  -4   1  -8  913.18   32.60
   3  -4  -8  865.63   34.15
  -3   4  11  694.36   27.02
  -1  -3  11  693.59   26.84
  -4   1 -11  679.37   24.68
   3  -4 -11  669.33   27.53
  -1  -3  14  118.75    6.54
  -3   4  14  124.11    5.00
   4  -1  14  116.35    5.56
  -3   4  14  119.95    7.18
  -1  -3  14  121.01    5.30
  -1  -3  14  129.15    5.29
  -1  -3  17   11.19    1.50
   4  -1  17    8.48    1.68
  -1  -3  17   10.74    1.54
  -3   4  17   12.49    1.25
  -1  -3  20    4.39    1.66
  -1  -3  20    2.88    1.94
  -3   4  20    1.82    1.16
  -3   4  20    3.45    1.89
  -1  -3  23   37.38    4.09
  -3   4  23   38.57    2.80
   4  -1  23   33.29    3.57
  -3   4  23   37.46    3.78
   4  -1  26    4.89    2.95
  -3   4  26    5.56    2.80
  -3   4  26    5.46    1.79
  -3   4  29   25.60    2.85
   4  -1  29   30.68    4.23
  -1  -3  29   33.99    6.39
  -3   4  29   27.26    3.71
  -3   4  32    3.45    1.90
  -3   4  32    3.41    2.14
  -3   4  35    2.27    1.15
   0   4  32   -0.06    2.01
  -4   0  32   -0.09    3.62
   0   4  32    2.23    2.04
   0   4  29   60.80    5.10
   0   4  29   68.03    4.64
  -4   0  29   69.95    6.05
  -4   0  26   17.43    3.40
   0   4  26   17.71    3.53
   0   4  26   17.81    2.97
   0   4  23   10.01    2.96
   0   4  23    8.62    2.29
   4  -4  23   11.02    2.68
  -4   0  23    8.92    1.80
   0   4  20   17.08    2.27
   4  -4  20   16.79    2.26
   0   4  20   15.87    3.07
  -4   0  20   11.71    1.76
  -4   0  17  159.34    6.63
   0   4  17  149.65    6.87
  -4   0  17  155.15    6.77
   0   4  17  173.84    7.92
   4  -4  17  162.70    6.95
   0   4  14   73.79    5.25
   0  -4 -14   72.81    5.41
   0   4  14   64.88    4.08
  -4   0  14   68.03    3.21
  -4   0  14   63.11    3.10
  -4   0  14   72.24    5.19
   0   4  11 1076.01   41.00
  -4   0  11 1089.48   41.14
  -4   4  -8  973.12   34.43
   0   4   8  943.81   36.21
   0  -4  -8  961.43   36.41
   0  -4  -5   62.44    4.06
  -4   4  -5   60.50    3.26
   0   4   5   60.78    3.93
   4  -4   2   44.14    3.50
   4  -4  -1  148.23    7.80
   0  -4   1  152.66    7.42
   0  -4   4   75.33    4.54
   0  -4   7    7.55    1.52
   4  -4  -7    7.73    1.93
   0  -4  10  288.50   12.32
  -4   0 -10  286.01   11.76
  -4   4  10  282.50   13.01
   0  -4  13  725.09   28.10
  -4   4  13  747.08   29.55
  -4   0 -13  736.17   27.44
  -4   4  13  746.83   26.49
   0  -4  13  721.47   26.82
   4   0  13  767.70   27.61
  -4   4  13  758.00   26.80
   0  -4  16    8.92    1.37
   0  -4  16   10.03    1.55
   4   0  16    9.58    2.04
  -4   4  16    7.10    1.71
  -4   4  16   10.14    1.02
  -4   4  16    9.98    1.43
   0  -4  19  587.29   22.19
  -4   4  19  572.93   21.29
   4   0  19  601.91   22.98
   0  -4  22   80.56    5.40
   4   0  22   78.51    5.48
  -4   4  22   76.30    3.92
  -4   4  25    6.37    1.68
   0  -4  25    9.66    3.56
  -4   4  25    6.25    2.50
   4   0  25    7.18    2.87
  -4   4  28    1.25    2.73
  -4   4  28    1.93    1.79
   4   0  28    0.33    3.02
   0  -4  28   -1.47    4.23
  -4   4  31    3.55    2.38
  -4   4  31    2.73    1.78
   4   0  31    4.83    3.35
  -4   4  34    1.45    1.51
  -5   4  33    1.26    1.65
  -5   4  30    4.65    1.68
   4   1  30    4.18    3.04
  -5   4  30    2.81    2.38
  -5   4  27    7.54    1.69
   4   1  27    5.08    2.98
  -5   4  24    3.51    1.39
   4   1  24    7.51    3.07
   4   1  21  299.77   13.44
  -5   4  21  281.98   11.76
   1  -5  21  273.73   12.44
  -5   4  21  294.25   11.18
  -5   4  18  410.55   15.39
  -5   4  18  400.00   14.92
   1  -5  18  374.95   15.68
  -5   4  15  301.82   11.49
  -5   4  15  283.70   14.06
   4   1  15  323.11   13.04
  -5   4  15  304.89   11.18
   1  -5  15  287.83   11.66
   1  -5  12  345.09   14.61
  -4  -1 -12  329.39   14.58
  -5   4  12  354.59   13.02
  -5   4  12  353.12   12.80
   4   1  12  383.51   14.52
   1  -5  12  347.84   13.20
   1  -5   9    3.42    1.14
  -4  -1  -9    4.72    1.35
   1  -5   6  129.80    6.93
  -4  -1  -6  144.36    7.83
  -5   4   6  145.65    7.71
   1  -5   3    4.76    1.37
  -1   5   0    5.33    1.31
   1  -5   0    2.07    1.20
  -5   4   0    2.95    1.35
  -5   4  -3  442.76   17.53
  -1   5   6  200.38    9.61
   1  -5  -6  215.74   10.17
  -5   4  -9 1583.76   56.71
  -1   5   9 1666.22   59.08
  -1   5  12  525.89   19.45
  -1   5  12  531.07   22.25
  -4  -1  12  552.55   19.40
  -4  -1  12  541.31   19.41
   1  -5 -12  536.67   22.71
  -1   5  12  490.24   19.91
  -4  -1  12  562.05   22.44
  -1   5  15   85.22    3.92
  -4  -1  15   83.57    3.90
  -4  -1  15   80.68    3.91
  -1   5  15   84.29    4.55
  -1   5  15   87.27    6.33
   1  -5 -15   92.47    6.84
  -1   5  18   43.93    3.44
   5  -4  18   46.57    2.91
   5  -4  21   20.06    2.52
  -4  -1  21   16.39    2.12
  -1   5  21   19.71    3.00
  -4  -1  24    3.56    2.80
   5  -4  24    8.18    2.31
  -1   5  24    8.90    2.78
  -4  -1  27   31.46    4.58
  -1   5  27   30.89    3.70
  -1   5  30    8.96    2.55
  -4  -1  30   13.33    4.62
  -1   5  33   15.11    1.87
  -1   5  33   13.28    1.79
  -5   3  34    3.77    1.64
   3   2  31   48.75    4.44
  -5   3  31   37.28    3.54
   3   2  28   35.53    4.52
  -5   3  28   35.22    2.75
   3   2  25   23.95    4.05
   3   2  25   27.89    3.02
  -5   3  25   23.95    2.30
   2  -5  25   26.30    3.65
   3   2  22  164.97    9.89
   2  -5  22  218.93    9.52
  -5   3  22  197.99    8.13
   3   2  22  180.37    8.98
   3   2  19  890.95   36.06
   3   2  19  938.28   35.23
  -5   3  19  952.75   34.50
   2  -5  19  946.57   34.94
  -5   3  19  963.32   34.08
   3   2  16    3.21    2.24
   2  -5  16    8.01    1.54
  -5   3  16    6.60    1.75
  -5   3  16    8.31    1.01
   3   2  16    8.15    1.91
  -5   3  13  459.85   16.64
  -3  -2 -13  458.70   18.89
   2  -5  13  459.20   17.00
  -5   3  13  454.89   16.82
   3   2  13  474.27   18.14
  -3  -2 -10   61.02    4.26
  -5   3  10   80.92    5.29
   2  -5   7  393.93   16.36
  -3  -2  -7  415.45   16.96
  -5   3   7  420.82   17.49
   2  -5   4  141.61    7.04
  -3  -2  -4  145.63    7.84
  -2   5  -4  142.90    6.55
  -2   5  -1   74.40    4.19
  -5   3   1   76.65    4.78
   2  -5   1   72.88    4.61
   2  -5  -2  852.37   38.40
  -5   3  -2 1235.23   38.74
  -5   3  -5  442.44   17.50
  -2   5   5  454.26   18.07
  -2   5   8 2536.60   92.71
  -5   3  -8 2583.62   91.33
   2  -5  -8 2604.68   93.57
  -2   5  11 3889.17  138.37
  -3  -2  11 3876.98  135.54
   2  -5 -11 3958.00  139.35
  -2   5  11 3841.56  135.48
  -2   5  14   14.23    2.25
  -3  -2  14   14.24    2.22
  -2   5  14   16.84    1.74
  -3  -2  14   14.51    1.35
   2  -5 -14   13.10    2.50
  -2   5  14   13.10    1.16
  -2   5  17  190.43    7.65
  -2   5  17  200.79    8.42
   5  -3  17  184.50    7.97
   5  -3  20  160.09    7.35
  -2   5  20  147.60    6.55
  -2   5  20  158.05    7.63
  -3  -2  20  151.54    7.11
  -2   5  23   59.71    4.61
   5  -3  23   53.64    4.10
  -3  -2  23   55.26    4.54
  -2   5  23   57.37    3.51
  -2   5  26   18.06    2.98
   5  -3  26   13.17    2.73
  -3  -2  26   23.37    4.44
  -2   5  29   37.04    3.75
  -3  -2  29   42.00    6.19
  -2   5  32   16.06    2.30
  -5   2  35    1.34    1.25
  -5   2  32   11.80    2.71
   2   3  32    8.00    2.62
   2   3  29    1.56    2.38
  -5   2  29    2.02    2.88
   2   3  29    1.22    2.72
   2   3  26    7.94    3.13
  -5   2  26    7.64    1.81
   2   3  26    8.75    2.75
   3  -5  23   27.31    3.36
   2   3  23   27.13    3.58
  -5   2  23   23.01    2.31
  -5   2  20  501.49   20.71
   2   3  20  530.91   22.03
   2   3  20  569.52   22.07
  -5   2  20  548.48   20.45
   2   3  17   67.20    4.70
   2   3  17   73.88    4.52
  -5   2  17   64.33    3.56
  -5   2  17   71.04    3.41
   3  -5  17   66.53    3.80
   3  -5  17   79.33    3.95
   3  -5  14  544.59   19.14
   2   3  14  473.40   20.19
   3  -5  14  526.91   19.12
  -5   2  14  473.33   21.64
  -5   2  14  531.50   18.84
   2   3  14  530.33   19.87
  -5   2  14  495.16   18.92
  -2  -3 -11  302.35   13.61
  -5   2  11  303.64   14.29
   2   3  11  322.75   12.41
   3  -5   8   40.28    3.09
  -5   2   8   38.30    3.51
  -2  -3  -8   36.87    3.12
  -5   2   5    9.99    1.93
   3  -5   5   10.46    1.69
  -3   5  -5   10.60    1.24
  -2  -3  -5   10.01    1.80
  -2  -3  -2 1090.55   40.03
  -3   5  -2 1037.35   38.61
  -3   5   1  332.27   13.06
   3  -5  -1  339.83   13.71
   3  -5  -7   83.21    5.90
  -3   5   7   87.13    5.34
   3  -5 -10 1294.87   48.52
  -5   2 -10 1203.24   45.47
  -3   5  10 1267.15   47.49
  -5   2 -10 1312.73   45.46
  -2  -3  13    0.30    0.84
  -2  -3  13    3.42    1.45
  -3   5  13    0.91    0.54
  -3   5  13    0.12    0.92
   3  -5 -13    4.18    1.67
  -3   5  16  117.20    7.52
  -2  -3  16  124.69    5.45
  -3   5  16  122.18    5.02
   5  -2  16  117.81    5.48
  -2  -3  19   72.39    4.15
  -3   5  19   75.50    4.24
   5  -2  19   65.26    3.98
  -3   5  19   67.63    3.44
  -3   5  22   83.24    4.25
   5  -2  22   77.92    4.92
  -3   5  22   86.62    5.24
  -2  -3  22   87.43    5.48
  -2  -3  25    4.65    3.79
  -3   5  25    0.26    1.40
  -3   5  25    0.58    2.43
   5  -2  25   -0.41    2.01
  -3   5  28  115.34    5.90
  -2  -3  28  134.62    9.46
   5  -2  28  118.15    7.01
  -3   5  28  123.43    6.80
  -3   5  31    8.58    2.27
  -3   5  31    9.11    1.91
  -3   5  34    5.55    1.32
  -3   5  34    6.37    1.41
   1   4  33   -1.29    1.66
  -5   1  33    0.82    2.15
   1   4  30   85.01    5.00
  -5   1  30   81.83    5.47
   1   4  27   28.82    3.84
   1   4  27   43.96    3.91
  -5   1  24    3.96    1.72
   1   4  24    3.50    2.77
   1   4  24    2.58    2.31
   1   4  21   16.82    2.61
  -5   1  21   15.90    2.15
  -5   1  21   15.44    1.88
   1   4  21   13.60    3.08
   1   4  18   59.97    4.53
  -5   1  18   59.32    3.24
  -5   1  18   59.22    3.44
   1   4  18   65.60    3.88
   4  -5  18   65.77    3.78
  -5   1  15  235.74    9.46
  -5   1  15  237.37    9.36
   4  -5  15  256.94    9.68
   1   4  15  242.53   10.70
   1   4  15  244.27   10.01
  -5   1  15  257.11   12.63
  -5   1  12  304.04   11.29
  -5   1  12  294.83   11.24
   1   4  12  315.00   12.50
   1   4  12  303.21   11.81
  -5   1  12  318.90   14.36
  -1  -4  -9  137.15    7.63
  -5   1   9  164.37    8.48
   4  -5   6  156.72    8.18
  -1  -4  -6  185.07    8.65
  -4   5  -6  172.12    7.29
  -1  -4  -3 1095.96   41.88
   4  -5   3 1146.58   42.05
  -4   5  -3 1113.00   40.74
  -1  -4   0 6017.58  212.81
  -4   5   0 6051.44  211.82
   4  -5   0 5944.09  212.79
  -1  -4   3  573.01   21.86
   4  -5  -3  490.51   21.73
  -4   5   6  183.38    8.80
  -1  -4   6  161.13    8.79
   4  -5  -6  176.21    9.53
  -1  -4   9  200.18   10.33
   4  -5  -9  204.54   11.04
  -4   5   9  209.43   10.35
  -5   1  -9  221.11    9.63
  -5   1 -12  443.36   16.72
  -1  -4  12  450.54   16.21
  -1  -4  12  433.19   18.77
  -4   5  12  458.48   19.10
   4  -5 -12  443.42   19.81
  -4   5  12  445.72   16.14
  -4   5  12  426.91   15.82
  -1  -4  15  162.96    6.99
  -4   5  15  163.11    6.51
  -4   5  15  159.16    9.27
  -4   5  15  164.82    6.91
  -4   5  18   31.08    1.96
   5  -1  18   34.84    2.83
  -1  -4  18   39.58    2.93
   5  -1  21    0.73    1.64
  -4   5  21   -0.03    1.10
  -4   5  24   17.77    1.82
   5  -1  24   17.77    2.72
  -1  -4  24   23.59    3.92
  -4   5  24   17.40    2.84
  -1  -4  27   68.13    6.60
  -4   5  27   65.13    4.67
  -4   5  27   61.66    3.78
   5  -1  27   64.54    4.91
  -4   5  30   99.40    5.48
   5  -1  30  109.39    6.57
  -4   5  33    0.13    1.31
  -4   5  33    2.11    1.52
   0   5  34    0.50    1.20
   0   5  31   40.45    3.31
  -5   0  31   42.98    4.15
   0   5  31   47.93    3.44
   0   5  28  127.56    6.32
   0   5  28  109.17    6.70
   0   5  25    3.13    2.57
   0   5  25    5.09    2.13
   0   5  22    8.45    2.48
   0   5  22    8.80    2.11
  -5   0  19   18.72    1.95
   0   5  19   22.49    2.92
   5  -5  19   23.63    2.39
  -5   0  19   20.96    2.18
   0   5  16   47.36    3.43
  -5   0  16   39.08    2.49
  -5   0  16   49.06    2.67
   0   5  13  117.76    5.80
  -5   0  13  133.92    7.92
  -5   0  13  119.87    5.00
   0   5  13  129.61    7.70
  -5   0  13  114.04    4.96
   0  -5 -13  130.62    7.90
   0  -5 -10   19.92    2.72
  -5   0  10   24.17    3.13
   0   5  10   19.80    2.74
   0  -5  -7  340.45   15.19
  -5   5  -7  344.67   13.58
   0   5   7  363.08   15.23
  -5   5  -4   11.28    1.57
   0  -5  -4   11.38    1.97
   0   5   4    9.17    1.75
   5  -5   1 3406.68  115.89
   0  -5  -1 3051.28  115.24
   0  -5   2 2224.15   79.31
   5  -5  -2 2126.31   79.81
   0  -5   5    4.76    1.55
   5  -5  -8  492.16   22.22
   0  -5   8  480.56   20.91
  -5   0  -8  542.69   21.26
  -5   5   8  534.40   21.41
  -5   5  11  626.91   24.19
   0  -5  11  571.12   23.48
  -5   5  11  564.27   20.75
  -5   0 -11  560.92   22.47
   0  -5  11  590.06   21.03
  -5   5  14  601.85   24.62
  -5   5  14  571.90   21.26
   0  -5  14  565.89   21.46
  -5   5  14  575.93   20.97
  -5   5  17   60.13    3.34
  -5   5  17   61.01    3.00
   5   0  17   69.78    4.35
  -5   5  20  116.94    5.50
   5   0  20  109.44    6.20
   0  -5  20  109.56    6.07
  -5   5  20  111.79    4.90
   5   0  23   11.29    2.49
  -5   5  23   10.51    1.47
   0  -5  23   13.68    3.34
   5   0  26    0.45    2.36
  -5   5  26    1.21    1.33
   0  -5  26   -0.45    3.79
  -5   5  29   88.34    4.56
  -5   5  29   95.11    5.43
  -5   5  32   18.01    2.18
  -5   5  35    2.61    0.84
  -6   5  34    2.28    1.03
   5   1  31   10.87    2.75
  -6   5  28   28.82    2.22
   5   1  28   34.67    3.96
  -6   5  25   13.63    2.25
   5   1  25   14.73    2.91
  -6   5  25    9.26    1.52
  -6   5  22   34.16    2.33
  -6   5  22   31.13    2.69
   5   1  22   33.77    3.81
  -6   5  19   25.36    2.11
   1  -6  19   20.52    2.77
  -6   5  19   21.22    1.63
   5   1  19   23.22    3.17
   5   1  16    4.97    2.12
  -6   5  16    4.91    0.78
  -6   5  16    4.70    1.06
  -6   5  13   35.71    1.77
   5   1  13   39.12    3.31
  -6   5  13   32.69    1.93
  -6   5  13   37.40    3.89
   1  -6  10  739.81   28.58
  -6   5  10  701.00   25.18
  -5  -1 -10  702.84   28.13
   1  -6   7   67.47    4.97
  -5  -1  -7   73.23    5.56
   1  -6   4   17.76    2.57
  -6   5   1  415.67   16.84
   1  -6   1  387.83   17.14
  -1   6  -1  382.28   16.31
   1  -6  -2   13.39    2.38
   1  -6  -5  491.02   20.77
  -1   6   5  483.56   20.01
  -1   6   8   86.91    5.60
  -1   6   8   84.69    4.27
  -6   5  -8   83.91    4.39
  -1   6   8   79.92    3.75
  -1   6  11   12.36    1.65
  -1   6  11   12.44    1.31
  -1   6  11   14.21    2.34
  -5  -1  11   13.72    1.15
  -1   6  14  151.33    9.04
  -1   6  14  133.89    5.79
  -1   6  14  134.67    6.31
  -5  -1  14  134.96    5.68
   1  -6 -14  143.98    9.42
  -5  -1  14  152.75    9.03
  -1   6  17   54.30    3.57
  -1   6  17   51.73    3.00
  -5  -1  17   53.35    3.00
  -5  -1  20  226.41    9.90
  -1   6  20  260.84   10.72
  -1   6  23    0.21    2.18
  -1   6  26    1.92    2.33
  -1   6  29   10.45    2.28
  -5  -1  29    9.65    3.56
  -1   6  32    3.27    1.42
  -6   4  35    0.14    0.72
   4   2  32    5.20    2.45
   4   2  29    3.16    2.71
  -6   4  29    2.32    1.41
   4   2  26    4.00    3.01
  -6   4  26    4.43    2.10
  -6   4  26    3.65    1.39
   4   2  23   66.90    5.49
  -6   4  23   72.10    4.28
  -6   4  23   74.54    3.79
  -6   4  20    6.30    1.58
  -6   4  20    8.25    1.31
   2  -6  20    4.15    2.20
   2  -6  17    7.51    1.86
   4   2  17    6.97    2.50
  -6   4  17    8.90    1.31
  -6   4  17   10.22    1.12
  -6   4  14   34.19    1.81
  -6   4  14   31.58    1.98
   4   2  14   31.97    3.31
  -6   4  11 1153.65   41.37
  -4  -2 -11 1171.91   44.27
   4   2  11 1215.66   42.94
  -6   4   8 1969.57   72.65
   2  -6   8 1948.11   72.03
  -4  -2  -8 1992.49   72.58
  -4  -2  -5   13.68    2.58
   2  -6   5   16.95    2.25
   2  -6   2   61.15    4.55
  -6   4   2   67.17    4.78
  -2   6  -2   62.09    4.03
  -6   4  -1  472.34   18.52
  -2   6   1  461.36   18.13
  -6   4  -4 1585.63   57.91
  -6   4  -7   79.53    4.53
  -2   6   7   80.85    5.32
  -2   6  10  480.13   19.97
  -6   4 -10  475.53   17.52
  -4  -2  10  484.84   17.04
  -2   6  10  431.76   17.53
   2  -6 -10  494.20   20.98
  -2   6  10  461.60   17.01
  -4  -2  13    1.72    0.79
  -2   6  13    3.10    0.78
  -2   6  13    2.60    1.30
  -2   6  13    1.99    1.08
   2  -6 -13    3.73    1.74
  -2   6  16    1.03    1.34
  -2   6  16    0.53    0.79
  -4  -2  16    0.32    1.11
  -2   6  19  227.53    9.87
  -2   6  19  225.30    9.07
  -2   6  22   66.52    4.57
  -2   6  22   65.83    3.80
  -2   6  25    3.44    2.37
  -2   6  25    1.92    1.56
  -4  -2  25    8.67    3.30
  -2   6  28   -0.41    1.90
  -2   6  28    1.03    2.21
  -4  -2  28    1.93    4.03
  -2   6  31   25.02    2.55
  -2   6  34   14.54    1.33
   3   3  33    4.83    1.93
   3   3  30   13.33    3.07
  -6   3  27    1.43    1.33
   3   3  27    1.40    1.96
   3   3  27    0.09    2.59
  -6   3  24   73.93    3.97
  -6   3  24   78.18    4.55
   3   3  24   77.35    5.83
   3   3  24   68.42    4.94
   3   3  21    0.09    2.62
  -6   3  21    3.63    1.70
   3   3  21    2.54    2.07
  -6   3  21    1.13    1.16
  -6   3  18   12.28    1.65
   3  -6  18   12.70    2.12
  -6   3  18   11.99    1.37
   3   3  18   10.90    2.69
   3   3  18    8.36    2.44
   3  -6  15  134.40    5.90
   3   3  15  130.49    6.73
  -6   3  15  133.88    5.39
   3   3  15  132.27    6.76
  -6   3  15  123.78    5.47
  -6   3  12    9.00    0.89
  -6   3  12    8.09    0.96
  -3  -3 -12    9.39    1.98
  -6   3  12    9.31    2.15
   3   3  12    8.79    1.86
   3   3  12    8.05    2.09
  -6   3   9  512.01   21.03
   3  -6   9  450.07   20.02
  -3  -3  -9  503.04   20.47
  -3   6  -6   12.21    1.56
  -6   3   6   15.28    2.49
  -3   6  -3   30.43    2.53
  -3  -3  -3   35.98    3.72
  -3   6   0  186.63    8.96
  -6   3   0  210.63    9.71
  -6   3  -3  492.85   19.77
  -3   6   6  478.88   19.47
  -6   3  -6  440.54   18.63
  -3   6   9  343.41   13.31
  -3  -3   9  358.90   12.98
  -3   6   9  342.81   15.54
  -6   3  -9  350.39   14.24
   3  -6  -9  346.22   16.70
  -3   6  12   14.39    1.43
  -3   6  12   14.48    2.40
   3  -6 -12   16.78    2.89
  -3  -3  12   14.44    1.32
  -3   6  12   11.55    0.98
   3  -6 -15   21.89    3.39
  -3   6  15   19.20    2.81
  -3   6  15   15.68    1.25
  -3   6  18   51.98    3.51
  -3  -3  18   55.74    3.38
  -3   6  18   55.46    2.85
  -3   6  21   36.27    3.33
  -3   6  21   37.87    2.57
  -3   6  24    2.29    2.29
   6  -3  24    4.02    1.84
  -3   6  24    2.29    1.44
  -3  -3  24    8.39    3.33
  -3  -3  27   22.58    4.80
  -3   6  27   25.67    3.08
  -3   6  27   19.19    2.29
  -3   6  30    2.46    1.63
  -3   6  30    1.81    1.98
  -3   6  33   21.07    1.93
  -3   6  33   19.18    1.87
   2   4  34   -0.32    1.22
  -6   2  34    9.37    1.54
   2   4  31   64.15    4.32
   2   4  28  100.73    6.38
   2   4  28  132.04    6.66
   2   4  25   32.78    3.65
  -6   2  25   30.48    2.99
   2   4  25   22.96    3.35
  -6   2  25   26.30    2.41
  -6   2  22   12.88    2.10
  -6   2  22   13.75    1.78
   2   4  22   15.66    2.95
   2   4  22   12.76    3.03
  -6   2  19   44.92    2.98
   2   4  19   40.89    4.06
  -6   2  19   50.94    2.87
   2   4  19   53.39    3.91
  -6   2  16    5.83    1.01
  -6   2  16    4.72    1.10
   2   4  16    5.15    1.99
   2   4  13  339.02   13.78
  -6   2  13  327.59   15.82
  -6   2  13  339.51   12.32
   2   4  13  328.34   13.13
  -6   2  13  320.24   12.35
  -2  -4 -13  343.57   15.70
  -2  -4 -10  310.29   14.62
   2   4  10  316.47   12.65
   4  -6   7  566.03   24.13
  -6   2   7  656.48   25.03
  -4   6  -7  595.83   22.54
  -2  -4  -7  584.16   24.34
  -2  -4  -4    1.03    1.26
  -4   6  -4    2.20    0.96
   4  -6   4    0.75    1.25
  -4   6  -1 4840.22  171.01
   4  -6   1 4825.37  172.30
  -4   6   2 1866.48   68.46
   4  -6  -2 1922.80   69.88
  -2  -4   2 1871.39   69.73
  -2  -4   5  276.75   13.46
   4  -6  -8  246.49   12.45
  -4   6   8  235.25   11.21
   4  -6 -11  277.76   13.80
  -4   6  11  257.37    9.62
  -6   2 -11  261.68   10.50
  -4   6  11  239.07    9.23
  -6   2 -11  272.85   10.84
  -4   6  11  276.99   12.67
  -2  -4  11  233.10   12.76
  -2  -4  14   59.90    3.16
  -4   6  14   64.83    3.16
  -4   6  14   62.53    2.79
  -4   6  14   63.14    5.21
   4  -6 -14   65.38    5.91
  -2  -4  17   22.46    2.10
  -4   6  17   19.43    1.96
  -4   6  17   21.18    1.47
   6  -2  20   10.70    1.75
  -4   6  20   12.96    1.42
  -2  -4  20   15.07    2.53
  -2  -4  23   46.33    4.27
   6  -2  23   42.33    3.38
  -4   6  23   36.31    2.53
   6  -2  26   11.35    2.28
  -4   6  26   10.28    1.77
  -2  -4  26    9.86    4.12
  -4   6  26   11.36    2.57
  -4   6  29  155.90    7.03
  -4   6  29  173.86    7.76
  -4   6  32   13.77    1.98
  -4   6  32   11.75    1.59
  -4   6  35    3.27    0.74
   1   5  32   57.05    3.54
   1   5  29  240.29   11.31
   1   5  29  276.68   11.09
   1   5  26    3.66    2.34
   1   5  26    4.79    2.50
  -6   1  26    2.67    2.31
  -6   1  23   53.22    3.76
   1   5  23   64.53    4.84
   1   5  23   68.23    4.29
   1   5  20    9.66    2.10
  -6   1  20    8.80    1.74
  -6   1  20    9.40    1.51
   1   5  20    9.79    2.48
  -6   1  17   65.98    3.63
   1   5  17   75.98    4.77
   1   5  17   78.66    4.17
  -6   1  17   74.74    3.63
   1   5  14  145.74    6.48
  -6   1  14  140.16    5.98
   1   5  14  150.22    7.04
  -6   1  14  148.80    5.98
  -6   1  14  153.68    9.29
  -6   1  11  704.60   26.98
   1   5  11  596.69   23.07
  -6   1  11  635.30   22.54
   1   5  11  650.30   23.70
  -1  -5 -11  639.74   26.14
  -6   1  11  611.73   22.50
  -1  -5  -8 1143.36   46.48
  -5   6  -8 1209.61   44.41
  -1  -5  -5  103.08    6.46
   5  -6   5   89.09    6.17
  -5   6  -5   93.73    5.00
   5  -6   2 5705.15  207.67
  -5   6  -2 5917.46  206.04
  -5   6   1 9968.89  351.04
   5  -6  -1 9995.65  352.40
  -1  -5   1 9999.00  352.35
  -1  -5   4  259.85   12.64
   5  -6  -4  255.66   13.05
  -1  -5   7  982.67   40.62
   5  -6  -7 1047.65   41.64
  -5   6   7 1109.31   40.37
  -1  -5  10 1000.61   34.67
  -6   1 -10  965.47   36.50
   5  -6 -10  977.36   39.20
  -5   6  10  944.11   34.37
  -1  -5  10  892.72   37.94
  -5   6  10 1032.53   38.02
  -5   6  13  403.37   14.70
  -1  -5  13  399.98   15.22
  -5   6  13  444.60   18.66
  -5   6  13  408.50   14.99
   6  -1  16   10.95    1.55
  -5   6  16   10.51    1.32
  -5   6  16   12.09    1.06
  -1  -5  19   58.08    3.86
   6  -1  19   54.74    3.57
  -5   6  19   60.63    3.32
  -5   6  19   56.32    2.85
  -1  -5  22   44.40    4.22
   6  -1  22   43.22    3.38
  -5   6  22   43.86    2.59
   6  -1  25   12.71    2.37
  -5   6  25   13.71    1.68
  -1  -5  25   16.60    4.11
  -5   6  28  194.54    8.26
   6  -1  28  215.40    9.72
  -5   6  31  119.58    5.46
  -5   6  31  136.83    6.01
  -5   6  34    2.60    1.02
   0   6  33    9.93    1.43
   0   6  30  107.47    5.18
   0   6  30  100.09    5.39
   0   6  27   29.44    2.88
   0   6  27   27.63    3.13
  -6   0  24   70.26    4.69
   0   6  24   82.09    5.22
   0   6  24   78.60    4.61
   0   6  21    1.84    2.21
  -6   0  21    2.73    1.67
  -6   0  18  121.12    5.61
   0   6  18  132.83    6.47
   0   6  15    8.83    1.80
  -6   0  15   10.10    1.25
   0   6  12  192.96    8.37
  -6   0  12  187.67    7.47
   0   6   9  256.72   10.64
   0   6   9  272.76   13.13
  -6   6  -9  275.77   11.12
   0  -6  -9  273.93   13.61
   0   6   9  272.74   11.15
  -6   0   9  285.85   10.22
   0  -6  -6  168.37    9.50
  -6   6  -6  165.72    7.93
   0   6   6  174.55    7.11
   0   6   6  174.76    9.11
  -6   6  -3  890.30   33.62
   6  -6   0 5288.58  199.66
   0  -6   0 5596.37  199.54
  -6   6   0 5805.95  198.26
   0  -6   3  665.83   26.85
   6  -6  -3  629.66   27.15
   0  -6   6  507.29   21.80
   0  -6   9  298.97   14.49
  -6   6   9  310.76   14.29
  -6   6   9  290.70   10.85
  -6   0  -9  312.71   13.99
  -6   6  12  244.60   12.17
  -6   6  12  223.79    8.79
  -6   6  12  236.79    8.60
  -6   6  15    1.16    0.54
  -6   6  15    1.43    0.87
   0  -6  15   -0.24    1.37
  -6   6  18   81.68    3.65
  -6   6  18   80.20    3.96
   6   0  18   79.65    4.72
   0  -6  18   81.95    4.75
  -6   6  21    0.29    1.40
  -6   6  21    0.67    0.89
   6   0  21    0.41    1.72
  -6   6  24   57.53    3.12
   6   0  24   51.96    4.05
  -6   6  24   57.48    3.70
  -6   6  27   29.29    2.18
   6   0  27   34.05    3.49
  -6   6  30  100.21    4.52
  -1   7 -32    0.87    1.09
  -7   6  32   -0.56    1.18
  -7   6  29   20.99    1.71
  -7   6  29   24.71    2.24
   6   1  26    0.16    1.97
  -7   6  26   -0.34    1.07
  -7   6  26    0.93    1.56
  -7   6  23   41.46    3.00
   6   1  23   43.57    3.86
  -7   6  23   46.30    2.62
   6   1  20    3.11    2.14
  -7   6  20    3.45    1.02
  -7   6  20    4.48    1.46
  -7   6  17    7.07    0.88
   6   1  17    4.55    2.11
  -7   6  17    5.87    1.17
  -7   6  14    1.03    0.50
   6   1  14    0.55    1.61
  -7   6  14    1.07    0.73
  -7   6  11  525.15   23.66
  -7   6  11  538.86   19.93
  -6  -1 -11  530.07   23.07
  -6  -1  -8  173.03    9.82
   1  -7   8  154.03    9.57
   1  -7   5  480.36   21.20
   1  -7   2   22.66    3.22
   1  -7  -1  121.09    7.85
  -1   7   1  108.92    5.19
  -1   7   1  116.85    6.81
  -1   7   4    4.52    1.25
  -1   7   7    0.38    0.87
  -7   6  -7    0.22    0.75
  -1   7   7    2.47    1.21
  -1   7   7    0.63    1.03
  -1   7   7   -0.06    1.41
   1  -7  -7    0.31    1.33
  -1   7  10    9.44    1.30
  -1   7  10   11.43    1.68
  -1   7  10    9.51    2.12
  -6  -1  10   12.29    1.11
  -1   7  13  136.99    5.78
  -1   7  13  127.55    6.19
  -1   7  13  130.03    6.25
  -6  -1  13  134.43    5.61
  -6  -1  16    8.34    1.42
  -1   7  16    7.67    1.74
  -1   7  16    8.25    1.39
  -1   7  19  406.81   15.46
  -6  -1  19  374.24   14.78
  -1   7  19  375.77   14.74
  -6  -1  22   16.79    2.35
  -1   7  22   10.71    2.41
  -6  -1  25   28.82    3.24
  -1   7  25   31.80    3.08
  -1   7  28    0.48    1.79
  -1   7  31   -0.37    1.25
   5   2  30    9.12    2.53
  -7   5  30   10.05    1.73
  -7   5  27   22.55    1.89
   5   2  27   22.47    3.32
  -7   5  27   23.20    2.33
  -7   5  24   43.94    2.99
  -7   5  24   42.44    2.64
   5   2  24   44.22    4.40
   5   2  21  202.45   10.45
  -7   5  21  207.55    8.32
  -7   5  21  206.91    8.63
   5   2  18  167.78    8.77
  -7   5  18  157.36    6.88
  -7   5  18  170.46    6.72
   5   2  15   39.93    3.79
  -7   5  15   34.64    2.16
  -7   5  15   36.40    1.92
   5   2  12 1551.35   59.08
  -5  -2 -12 1599.31   60.92
  -7   5  12 1617.09   57.22
  -7   5  12 1664.85   57.42
  -5  -2  -9 4930.89  178.45
   5   2   9 4981.53  175.98
   2  -7   9 5019.03  178.70
   2  -7   6   93.92    6.61
  -5  -2  -6  109.70    7.49
  -2   7  -3  699.40   28.45
   2  -7   3  747.36   29.90
  -7   5   3  789.63   29.95
   2  -7   0  413.99   18.44
  -7   5   0  419.21   17.70
  -2   7   0  392.64   17.15
  -7   5  -3  434.64   18.00
   2  -7  -3  421.38   19.35
  -2   7   6  198.02   10.06
  -2   7   6  178.92    7.99
  -2   7   9   16.37    2.52
  -2   7   9   13.28    1.65
  -2   7   9   15.30    1.28
  -5  -2   9   14.28    1.20
  -7   5  -9   13.32    1.68
  -2   7  12  256.18    9.98
   2  -7 -12  277.32   14.56
  -2   7  12  250.76   10.57
  -5  -2  12  269.71   10.02
  -2   7  12  275.17   13.58
  -5  -2  15   41.38    2.48
  -2   7  15   39.41    2.30
  -2   7  15   37.27    2.74
  -5  -2  18  709.39   26.82
  -2   7  18  756.58   27.26
  -2   7  18  731.16   26.61
  -5  -2  21  651.95   26.50
  -2   7  21  717.17   26.19
  -2   7  24    1.16    1.97
  -2   7  24    0.93    1.51
  -2   7  27   24.42    2.74
  -2   7  27   21.93    2.32
  -2   7  30   42.63    3.05
  -2   7  30   42.95    2.89
  -2   7  33   22.92    1.74
  -2   7  33   16.58    1.51
  -3   7 -31    1.36    0.79
  -7   4  31    3.65    1.58
   4   3  31    4.83    2.25
   4   3  28   55.24    4.46
  -7   4  28   49.34    3.31
  -7   4  25   14.20    2.05
   4   3  25   10.52    3.04
  -7   4  25   12.24    1.57
  -7   4  22  251.65   10.37
   4   3  22  250.69   11.99
  -7   4  22  255.25   10.04
   4   3  19  136.82    7.02
   4   3  19  136.16    7.75
  -7   4  19  138.73    6.09
  -7   4  19  138.14    5.86
  -7   4  16   75.62    3.78
  -7   4  16   82.80    3.62
   4   3  16   81.41    4.81
   4   3  16   81.00    5.26
   4   3  13  643.51   24.79
  -7   4  13  636.17   23.33
  -7   4  13  654.79   23.20
   4   3  13  647.20   24.79
  -7   4  10 4522.48  157.27
   4   3  10 4517.69  158.73
  -7   4  10 4467.10  161.55
   3  -7  10 4242.69  161.61
  -4  -3 -10 4464.88  161.49
  -4  -3  -7 1275.61   48.66
  -7   4   7 1228.05   48.13
  -4  -3  -4  507.50   22.17
  -3   7  -4  496.51   19.95
  -3   7  -1  171.19    8.35
  -7   4   1  190.86    9.37
  -7   4  -2  335.80   15.23
  -3   7   2  358.46   15.17
  -7   4  -5  347.75   14.99
  -3   7   8    0.48    0.92
  -3   7   8    0.73    1.04
  -3   7   8    1.73    0.60
  -4  -3   8    1.19    0.74
  -7   4  -8    0.88    0.91
   3  -7  -8   -1.18    1.62
  -3   7  11   13.17    1.05
  -3   7  11   13.79    2.43
  -4  -3  11   13.32    1.29
  -3   7  11   12.23    1.45
   3  -7 -11   14.73    2.97
  -3   7  11   11.50    1.50
  -4  -3  14  171.18    6.93
  -3   7  14  167.15    6.65
  -3   7  17  255.94    9.87
  -3   7  20  879.00   32.18
  -3   7  20  910.56   32.96
  -3   7  23   71.91    4.41
  -3   7  23   59.27    3.51
  -4  -3  26    1.58    3.28
  -3   7  26    2.60    2.07
  -3   7  26    2.46    1.42
  -3   7  29   21.74    2.47
  -3   7  29   20.47    2.11
  -3   7  32   56.47    2.98
  -3   7  32   48.79    2.95
   3   4  32    4.56    1.83
  -7   3  32    3.54    1.45
  -7   3  29  102.83    4.74
   3   4  29  124.54    5.82
   3   4  26    1.71    2.42
   3   4  26   -0.08    1.86
  -7   3  26    0.73    1.65
  -7   3  23  154.19    7.01
  -7   3  23  153.91    6.74
   3   4  23  147.65    8.05
  -7   3  20   20.52    2.12
  -7   3  20   21.25    1.80
   3   4  20   22.23    3.18
   3   4  20   17.29    3.03
  -7   3  17    0.74    0.81
   3   4  17   -0.33    1.85
  -7   3  17    1.16    1.05
   3   4  17    1.72    1.96
   3   4  14    4.65    1.98
   3   4  14    4.17    1.73
  -7   3  14    7.46    0.91
  -7   3  14    6.18    1.00
   3   4  11  304.33   12.53
  -3  -4 -11  299.52   15.01
  -7   3  11  311.75   11.52
  -7   3  11  314.43   11.44
  -7   3  11  296.18   15.24
  -3  -4  -8   70.94    5.78
   3   4   8   74.55    4.16
  -7   3   8   86.54    6.27
   4  -7   8   73.29    5.98
  -3  -4  -5  701.64   28.43
  -4   7  -5  662.38   25.75
   4  -7   5  668.86   27.89
  -3  -4  -2   55.15    5.15
   4  -7   2   56.04    4.96
  -4   7  -2   54.77    3.88
  -7   3   2   67.04    4.94
  -7   3  -1  733.63   27.47
  -4   7   1  676.18   26.80
   4  -7  -1  717.56   28.60
  -7   3  -4  218.47   10.18
   4  -7  -4  225.65   11.95
  -4   7   7  119.79    5.07
   4  -7  -7  132.19    8.76
  -4   7   7  125.86    7.38
  -7   3  -7  110.78    6.36
  -4   7   7  121.25    5.74
  -3  -4  10   12.88    2.78
  -3  -4  10   16.60    1.44
  -7   3 -10   17.92    2.10
  -4   7  10   15.16    2.51
  -4   7  10   16.16    1.40
  -4   7  10   16.26    1.05
  -4   7  13   66.39    3.28
   4  -7 -13   70.57    6.40
  -4   7  13   66.67    5.53
  -4   7  13   63.28    2.83
  -4   7  16   17.86    1.31
  -4   7  16   17.67    1.71
  -3  -4  19  258.28   10.63
  -4   7  19  253.75    9.84
  -4   7  22   11.44    1.54
  -3  -4  22   13.89    2.97
  -4   7  25   10.35    1.50
  -3  -4  25   12.50    3.58
  -4   7  25   13.11    2.46
  -4   7  28   25.26    2.79
  -4   7  28   26.56    2.27
  -4   7  31    1.95    1.29
  -4   7  31    1.30    1.51
  -4   7  34    6.29    0.92
   2   5  33    3.90    1.31
   2   5  30  167.19    7.31
  -7   2  30  149.14    6.86
  -7   2  27   59.80    3.83
   2   5  27   57.97    4.43
   2   5  27   71.91    4.48
  -7   2  24   93.74    5.03
   2   5  24   91.13    6.06
   2   5  21    6.95    2.16
  -7   2  21    5.49    1.65
   2   5  21    7.69    2.75
  -7   2  18  110.41    4.91
  -7   2  18  105.07    5.00
   2   5  18  108.90    6.23
   2   5  18  108.87    5.66
  -7   2  15    7.82    1.04
   2   5  15    8.84    1.71
  -7   2  15    7.10    1.12
   2   5  12  131.22    6.27
  -7   2  12  141.21    9.18
  -7   2  12  137.59    5.55
  -7   2  12  138.39    5.61
   2   5  12  145.59    6.79
  -2  -5 -12  144.42    9.05
  -2  -5  -9  545.91   24.64
   2   5   9  565.84   21.63
  -5   7  -9  583.91   22.27
   2   5   6  830.03   30.36
   5  -7   6  861.45   33.99
  -2  -5  -6  846.78   33.82
  -5   7  -6  763.81   31.00
  -2  -5  -3  437.42   19.59
   5  -7   3  418.30   19.31
  -5   7  -3  430.54   17.47
  -5   7   0 6247.21  220.88
  -2  -5   0 6353.83  222.98
   5  -7   0 6145.39  222.75
   5  -7  -3  922.49   36.30
  -5   7   3  931.06   34.53
  -5   7   6  517.26   18.61
  -5   7   6  499.11   19.21
  -2  -5   6  493.52   22.46
   5  -7  -9  292.80   15.00
  -5   7   9  257.10    9.83
  -2  -5   9  261.46   13.92
  -5   7   9  272.51   13.04
   5  -7 -12   98.67    7.81
  -2  -5  12   95.88    7.21
  -5   7  12   99.84    6.79
  -5   7  12   90.74    3.96
  -5   7  12   87.63    3.63
  -2  -5  15    4.32    1.34
  -5   7  15    5.59    0.72
  -5   7  15    5.90    1.07
  -2  -5  18   80.04    4.52
  -5   7  18   82.44    4.10
  -5   7  18   81.83    3.67
  -5   7  21   15.00    1.46
  -2  -5  21   18.05    2.95
  -5   7  21   13.92    1.99
  -5   7  24  110.65    4.98
  -5   7  27   43.44    2.72
  -5   7  30  133.97    5.68
  -5   7  30  126.55    6.06
  -5   7  33    3.07    1.05
   1   6  34    0.84    0.73
   1   6  31   90.96    4.32
  -7   1  31   83.12    4.17
  -7   1  28  116.92    5.96
   1   6  28  122.51    6.46
   1   6  28  134.50    6.20
  -7   1  25   37.93    3.11
   1   6  25   39.22    3.68
   1   6  25   39.45    3.26
  -7   1  22   75.70    4.36
   1   6  22   87.28    5.32
   1   6  22   87.88    4.87
   1   6  19   58.02    3.53
  -7   1  19   47.62    3.08
   1   6  19   59.07    4.17
  -7   1  16   71.49    3.58
   1   6  16   71.68    4.46
   1   6  16   73.24    4.04
   1   6  13   70.69    4.08
   1   6  13   64.80    3.73
   1   6  13   73.20    4.25
  -7   1  13   70.32    3.27
  -1  -6 -10  318.95   16.58
   1   6  10  327.97   13.76
  -6   7 -10  350.60   13.24
  -7   1  10  348.77   12.76
   1   6   7  542.29   20.28
  -1  -6  -7  533.07   23.40
  -6   7  -7  522.08   20.83
  -1  -6  -4  123.60    7.82
   6  -7   4  111.31    7.61
   6  -7   1 5588.98  198.11
  -6   7  -1 5424.35  195.87
  -1  -6  -1 5651.96  198.20
  -6   7   2 2974.35  105.17
  -1  -6   2 2973.42  106.90
   6  -7  -2 2767.01  106.64
   6  -7  -5  302.67   15.94
  -1  -6   5  324.93   15.67
  -6   7   8  981.26   36.81
   6  -7  -8  960.77   38.78
  -6   7   8  916.79   32.86
  -1  -6   8  912.27   37.56
  -6   7  11  335.54   15.19
  -6   7  11  300.13   11.31
  -1  -6  11  318.89   15.96
  -6   7  11  303.67   11.06
  -6   7  14    1.05    0.53
  -6   7  14    0.73    0.75
  -6   7  17   97.16    4.45
  -6   7  17   97.04    4.11
  -6   7  20   15.59    1.39
  -6   7  20   15.23    1.79
  -6   7  23  114.45    4.95
  -6   7  23  112.25    5.55
  -6   7  26    1.07    1.13
  -6   7  26    1.05    1.78
  -6   7  29  128.86    5.49
   0   7  32    8.39    1.10
   0   7  32   13.20    1.49
  -7   0  29   60.66    3.59
   0   7  29   52.67    3.31
  -7   0  26    7.75    2.07
   0   7  26    6.10    2.00
  -7   0  23  144.66    6.96
   0   7  23  170.91    7.77
  -7   0  20    3.04    1.66
   0   7  20    1.44    1.81
   0   7  17   16.86    2.32
  -7   0  17   15.76    1.78
   0   7  14    1.76    1.50
  -7   0  14    0.06    0.88
   0   7  11   34.77    2.39
  -7   0  11   36.41    2.03
  -7   0  11   38.79    4.74
   0   7  11   31.35    2.62
   0   7   8   40.82    2.91
  -7   7  -8   44.98    3.25
   0   7   8   39.35    2.56
  -7   0   8   38.02    1.95
   0  -7  -8   39.00    4.46
   0   7   5    2.08    1.23
   0  -7  -5    1.52    1.41
   0   7   5    2.93    1.66
  -7   7  -5    0.43    0.82
  -7   7  -2  713.92   28.26
   0   7   2  722.31   26.61
   0  -7  -2  723.81   30.53
   0  -7   1  655.05   28.42
  -7   7   1  725.19   27.12
   0   7  -1  646.30   24.81
   0  -7   4  172.65   10.66
  -7   7   4  191.58   10.03
   0  -7   7  623.97   27.42
  -7   7   7  633.15   26.35
   0  -7  10   31.62    4.21
  -7   0 -10   28.12    3.20
  -7   7  10   28.24    1.57
  -7   7  13    2.08    0.51
  -7   7  13    1.12    0.64
  -7   7  16   42.16    2.42
  -7   7  16   43.78    2.18
   7   0  19  201.67    8.67
  -7   7  19  194.60    7.52
  -7   7  19  180.38    7.82
   7   0  22    2.73    1.60
  -7   7  22    3.61    1.46
  -7   7  22    0.51    0.96
  -7   7  25   21.49    1.73
  -7   7  25   21.50    2.15
  -7   7  28    9.66    1.26
  -7   7  28    9.83    1.72
  -7   7  31    5.57    1.28
  -8   7  33   14.27    1.04
  -8   7  30    7.08    1.23
  -8   7  27    1.04    0.79
  -8   7  27   -0.10    1.21
   7   1  24    2.08    1.70
  -8   7  24    2.96    1.41
  -8   7  24    1.93    0.91
  -8   7  21  107.27    4.45
  -8   7  21   90.06    4.62
   7   1  21   96.49    5.65
  -8   7  18   72.92    3.33
   7   1  18   72.97    4.67
  -8   7  18   69.06    3.59
  -8   7  15   19.22    1.29
  -8   7  15   21.69    1.58
   7   1  12   13.17    2.03
  -8   7  12   12.63    1.10
   1  -8   9  198.74   12.03
  -8   7   9  183.07    6.96
  -7  -1  -9  176.31   10.54
   1  -8   6  357.59   17.43
  -7  -1  -6  307.42   16.18
   1  -8   3  461.76   21.20
  -1   8  -3  435.12   17.26
   1  -8   0   38.39    4.58
  -1   8   0   40.04    2.96
  -1   8   3   13.05    1.73
  -1   8   3   16.47    2.11
  -8   7  -3   11.36    1.99
   1  -8  -3   13.45    2.94
  -1   8   6  132.53    6.34
  -1   8   6  145.07    6.96
   1  -8  -6  153.27    9.98
  -1   8   6  133.84    5.90
  -8   7  -6  139.55    7.50
  -1   8   6  135.92    8.43
  -1   8   9  728.24   27.03
  -1   8   9  738.06   26.48
  -7  -1   9  716.30   25.99
  -1   8  12   90.78    4.88
  -1   8  12   93.84    4.47
  -7  -1  12   98.91    4.28
  -1   8  15   10.29    1.95
  -7  -1  15   12.80    1.57
  -1   8  15   14.48    1.69
  -1   8  18   19.61    2.36
  -7  -1  18   22.29    2.20
  -1   8  18   20.41    2.05
  -1   8  21   12.37    1.91
  -7  -1  21   10.20    2.04
  -1   8  21    9.54    2.10
  -1   8  24   54.16    3.48
  -1   8  24   56.38    3.73
  -7  -1  24   49.45    3.51
  -7  -1  27   -0.68    1.99
  -1   8  27    1.13    1.54
  -1   8  30    0.82    1.25
  -2   8 -31    2.98    1.16
  -8   6  31    5.36    1.19
  -8   6  28   30.48    2.27
   6   2  28   35.24    3.38
  -8   6  25    5.99    1.48
   6   2  25    6.51    2.40
  -8   6  25    5.83    1.10
  -8   6  22   23.52    1.78
   6   2  22   23.69    3.29
  -8   6  22   22.72    2.09
  -8   6  19   79.71    3.91
  -8   6  19   74.70    3.59
   6   2  19   81.77    5.60
  -8   6  16  165.12    6.45
  -8   6  16  157.28    6.64
   6   2  16  170.24    8.54
  -8   6  13  127.37    5.21
   6   2  13  124.78    6.92
   6   2  10 2518.17   90.72
  -8   6  10 2528.68   88.60
  -6  -2 -10 2486.91   93.50
  -6  -2  -7  277.54   15.59
   2  -8   7  275.36   15.63
  -2   8  -4  931.92   33.06
   2  -8   4  882.33   36.55
   2  -8   1  441.29   20.15
  -2   8  -1  400.10   16.11
  -2   8  -1  430.95   18.29
  -2   8  -1  430.42   16.60
  -8   6   1  467.60   18.95
  -2   8   2   49.11    4.39
  -2   8   2   52.92    3.49
   2  -8  -2   50.04    5.23
  -2   8   5    3.52    0.91
  -2   8   5    3.72    1.68
  -2   8   5    1.79    1.17
  -2   8   8   52.21    4.72
  -2   8   8   43.10    2.90
  -2   8   8   44.22    2.44
  -6  -2   8   40.85    2.22
  -8   6  -8   50.39    3.76
  -2   8   8   47.09    3.22
  -2   8  11   55.85    3.42
  -2   8  11   57.66    2.99
  -6  -2  11   60.50    2.93
  -6  -2  14  244.23    9.37
  -2   8  14  230.54    9.81
  -2   8  14  237.16    9.34
  -2   8  17  153.01    6.96
  -6  -2  17  149.60    6.53
  -2   8  17  150.79    6.38
  -2   8  20  674.72   24.02
  -6  -2  20  601.16   23.54
  -2   8  20  632.25   23.36
  -2   8  23   15.04    1.95
  -2   8  23   15.29    2.34
  -6  -2  23   12.08    2.54
  -2   8  26   23.10    2.14
  -2   8  26   21.45    2.42
  -2   8  29   18.50    2.07
  -2   8  29   20.00    1.95
  -2   8  32   12.01    1.27
  -2   8  32   14.39    1.39
  -8   5  32    9.95    1.19
  -8   5  29   42.00    2.54
  -3   8 -29   36.32    3.02
   5   3  26   26.53    3.57
  -8   5  26   24.49    2.20
   5   3  23   87.49    6.11
  -8   5  23   83.45    4.33
  -8   5  23   83.54    4.01
  -8   5  20  254.68    9.85
  -8   5  20  261.37   10.11
  -8   5  17  267.56    9.95
  -8   5  17  263.15   10.20
   5   3  14   35.42    3.49
  -8   5  14   39.70    2.15
  -8   5  14   33.70    1.86
  -8   5  11 3835.84  133.86
  -5  -3 -11 3776.25  139.02
   5   3  11 3778.13  135.65
   5   3   8 3775.98  130.40
  -5  -3  -8 3536.61  133.94
  -8   5   8 3552.80  133.18
  -3   8  -5  184.75    8.36
  -5  -3  -5  210.55   11.71
  -3   8  -2  632.97   22.97
  -8   5   2  666.53   26.40
  -3   8  -2  619.85   25.07
  -3   8   1  115.71    6.90
  -3   8   1  109.16    5.06
  -8   5  -1  118.45    7.24
  -3   8   1  120.10    5.77
  -3   8   4   18.69    1.76
  -3   8   4   23.07    2.45
  -8   5  -4   24.14    2.83
  -3   8   7    6.56    0.87
  -3   8   7    7.33    1.68
  -3   8   7    9.16    2.06
  -8   5  -7    9.03    1.69
   3  -8  -7   13.01    2.85
  -3   8  10   31.41    2.35
  -5  -3  10   36.29    2.06
  -3   8  10   27.64    3.57
  -3   8  10   32.19    1.85
  -5  -3  13  569.35   21.13
  -3   8  13  581.63   20.93
  -3   8  16    5.06    1.05
  -5  -3  16    2.04    1.31
  -3   8  19 1123.78   41.05
  -5  -3  19 1136.47   40.95
  -3   8  19 1129.35   40.53
  -3   8  22  386.22   14.96
  -3   8  22  365.74   14.27
  -3   8  25    0.33    1.22
  -3   8  25    0.83    1.89
  -3   8  28   42.25    3.08
  -3   8  28   43.77    2.75
  -3   8  31   61.91    3.16
  -3   8  31   57.67    3.19
  -8   4  33   11.90    1.12
   4   4  30   28.30    2.87
  -8   4  30   23.12    1.97
  -8   4  27   38.40    2.64
   4   4  27   44.01    3.90
  -8   4  24   48.41    3.17
   4   4  24   59.18    4.71
  -8   4  21   71.70    3.65
  -8   4  21   73.07    3.95
   4   4  21   83.09    5.40
   4   4  21   75.62    4.99
  -8   4  18   15.14    1.42
  -8   4  18   14.59    1.67
   4   4  18   12.83    2.76
   4   4  18   15.63    2.50
  -8   4  15    5.69    0.86
   4   4  15    4.21    1.95
  -8   4  15    2.67    0.88
   4   4  15    1.45    1.93
   4   4  12 1157.76   43.01
   4   4  12 1123.32   43.42
  -8   4  12 1204.85   41.72
  -4  -4 -12 1107.66   46.57
   4   4   9 1859.23   68.92
  -4  -4  -9 1936.60   73.19
  -8   4   9 1934.16   67.55
  -8   4   9 1942.84   72.74
  -4  -4  -6   11.36    2.84
  -4   8  -6   11.76    1.87
   4   4   6   15.13    2.26
  -4   8  -6   14.11    1.77
   4  -8   6   10.24    2.56
  -4   8  -3  654.56   26.76
  -4   8  -3  700.91   24.90
  -8   4   3  702.83   28.50
  -4   8  -3  668.43   25.42
   4  -8   3  702.15   29.27
  -4  -4  -3  664.89   29.31
  -8   4   0    1.62    1.46
  -4   8   0    1.76    0.85
  -4   8   0    2.62    1.26
   4  -8   0    1.52    1.71
  -8   4  -3   16.40    2.43
  -4   8   3   13.10    1.34
   4  -8  -3   14.14    3.00
  -4  -4   3   10.35    2.46
  -4   8   3   15.99    2.31
  -4   8   6    5.10    1.54
  -4   8   6    4.20    1.04
  -8   4  -6    4.79    1.53
  -4  -4   6    4.35    1.89
  -4   8   9   96.10    3.92
   4  -8  -9  112.69    8.58
  -8   4  -9  104.39    6.09
  -4   8   9   96.53    6.82
  -4  -4  12   76.62    3.56
  -4   8  12   71.32    3.54
  -4   8  12   70.42    3.11
  -4   8  15   69.11    3.47
  -4  -4  15   63.68    3.43
  -4   8  15   61.28    2.91
  -4   8  18  310.80   11.74
  -4   8  21  274.97   10.66
  -4   8  24   -0.03    1.07
  -4   8  24    2.96    1.99
  -4   8  27    1.79    1.67
  -4   8  27    1.31    1.28
  -4   8  30   10.69    1.51
  -4   8  30    9.60    1.68
  -4   8  33   14.98    1.22
  -4   8  33   14.48    1.27
  -8   3  31    6.02    1.28
   3   5  31    7.19    1.74
  -8   3  28   39.68    2.72
   3   5  28   44.60    3.49
  -8   3  25   18.79    1.97
   3   5  25   17.15    2.84
   3   5  25   13.65    2.55
  -8   3  22    7.73    1.68
   3   5  22   12.17    2.59
   3   5  22    7.69    2.40
  -8   3  19   99.07    4.77
   3   5  19   96.06    6.02
   3   5  19   99.24    5.64
   3   5  16  108.36    5.81
  -8   3  16  110.65    4.87
   3   5  16  106.56    6.18
   3   5  13   15.25    2.09
   3   5  13   15.39    2.35
  -8   3  13   16.46    1.36
   3   5  10   24.58    2.41
  -8   3  10   30.70    4.07
  -8   3  10   27.30    1.58
  -3  -5 -10   27.20    3.95
  -5   8  -7  503.43   18.44
  -5   8  -7  488.36   17.84
  -8   3   7  529.77   22.45
   3   5   7  460.35   18.48
   5  -8   7  491.54   22.98
  -3  -5  -7  497.05   22.76
  -5   8  -7  454.19   19.44
  -5   8  -4  773.44   30.09
  -8   3   4  718.27   31.67
  -5   8  -4  791.68   28.68
   5  -8   4  827.41   33.44
  -3  -5  -4  797.74   33.20
  -8   3   1  141.51    8.49
  -5   8  -1  149.80    6.43
   5  -8   1  142.18    9.38
  -5   8  -1  135.05    7.63
  -5   8   2  233.84    8.74
  -3  -5   2  191.60   11.99
  -8   3  -2  225.93   11.22
   5  -8  -2  238.15   13.10
  -5   8   2  209.87   10.85
  -5   8   2  219.61    9.40
  -5   8   5   61.04    3.01
  -8   3  -5   63.91    4.74
   5  -8  -5   70.82    6.58
  -3  -5   5   51.05    5.25
  -5   8   8  124.88    5.32
  -8   3  -8  135.09    7.42
   5  -8  -8  137.85    9.80
  -5   8   8  120.82    7.85
  -5   8   8  124.75    4.79
  -5   8  11  181.17    6.74
  -5   8  11  178.57    7.11
  -5   8  14    2.80    0.96
  -5   8  14    0.02    0.49
  -5   8  17   15.79    1.68
  -5   8  17   15.56    1.24
  -5   8  20    2.44    0.90
  -5   8  20    2.30    1.48
  -5   8  23   91.13    4.23
  -5   8  26    1.40    1.10
  -5   8  29   29.16    2.61
  -5   8  29   34.89    2.24
  -5   8  32   -0.08    0.80
  -5   8  32   -0.76    1.08
   2   6  32    1.21    1.20
  -8   2  29   35.34    2.48
   2   6  29   32.08    2.66
   2   6  29   39.22    2.88
  -8   2  26    3.59    1.65
   2   6  26   -0.96    1.88
   2   6  26    0.20    1.82
  -8   2  23   31.43    2.66
   2   6  23   36.72    3.65
   2   6  23   39.63    3.30
  -6   8 -23   34.48    2.90
  -8   2  20   75.13    4.02
   2   6  20   78.00    4.64
   2   6  20   81.75    5.23
   2   6  17  175.67    8.50
  -8   2  17  179.92    7.41
   2   6  17  181.22    8.07
   2   6  14    0.19    1.53
  -6   8 -14   -0.61    0.98
  -8   2  14    0.19    0.73
   2   6  14   -0.55    1.34
   2   6  11   91.13    5.00
  -6   8 -11   99.06    4.62
   2   6  11   83.98    4.60
  -8   2  11   95.01    3.99
   2   6   8  481.36   19.34
  -2  -6  -8  495.32   23.34
   2   6   8  477.99   18.97
  -6   8  -8  486.96   20.07
  -6   8  -8  539.24   18.96
   2   6   5  855.50   31.53
   6  -8   5  891.98   36.43
  -2  -6  -5  922.85   36.48
  -6   8  -5  811.00   32.62
  -6   8  -5  859.98   31.16
   2   6   2  232.49    9.93
  -6   8  -2  257.76    9.79
   6  -8   2  271.81   14.04
  -6   8  -2  221.02   11.17
  -6   8   1  967.46   35.22
   6  -8  -1  960.07   39.61
  -6   8   1  993.65   37.45
  -2  -6   1  941.98   39.47
  -6   8   4   12.54    1.12
  -2  -6   4   11.06    2.63
  -6   8   4   14.42    2.40
   6  -8  -4   15.94    3.20
  -6   8   4   10.26    1.46
  -6   8   7   39.44    2.18
  -2  -6   7   36.03    4.57
  -6   8   7   39.00    4.06
  -6   8   7   42.29    2.08
  -6   8  10   63.93    2.90
  -6   8  10   60.07    2.55
  -2  -6  10   59.63    6.13
  -6   8  13   69.85    3.31
  -6   8  13   71.68    3.01
  -6   8  16   14.06    1.10
  -6   8  16   12.08    1.40
  -6   8  19    0.79    1.20
  -6   8  19    1.58    0.81
  -6   8  22  130.24    5.61
  -6   8  22  141.58    6.24
  -6   8  25   58.45    3.50
  -6   8  25   51.57    2.84
  -6   8  28   60.87    3.10
  -6   8  31   31.27    1.83
   1   7  33    0.20    0.72
   1   7  30   16.96    1.76
   1   7  30   20.57    1.93
   1   7  27   12.24    1.94
  -8   1  27   11.33    1.79
   1   7  27   10.93    2.03
  -8   1  24   54.22    3.43
   1   7  24   56.80    4.01
   1   7  24   52.10    3.57
   1   7  21   38.29    3.45
  -8   1  21   37.39    2.83
   1   7  21   41.02    3.07
   1   7  18   13.47    2.02
  -8   1  18   12.17    1.67
   1   7  18   13.68    2.34
   1   7  15   -0.51    1.51
  -7   8 -15    3.26    1.02
  -8   1  15   -0.18    1.05
  -7   8 -12   25.19    1.96
  -8   1  12   21.42    1.60
   1   7  12   22.68    2.25
   1   7   9   72.15    4.22
  -8   1   9   71.34    3.19
   1   7   6   90.08    4.92
  -7   8  -6   95.48    4.54
  -1  -7  -6   95.11    7.81
  -7   8  -6   88.64    5.68
  -7   8  -3    1.80    1.09
   1   7   3    4.04    1.52
   1   7   3    2.41    1.26
  -7   8  -3    2.01    0.89
  -7   8   0  382.02   14.63
  -1  -7   0  407.39   19.45
   1   7   0  366.76   14.94
   7  -8   0  411.84   19.30
  -7   8   0  412.38   17.09
   1   7   0  382.52   15.10
  -7   8   3   11.15    1.25
   1   7  -3    1.89    1.17
  -1  -7   3    1.94    1.59
   7  -8  -3    2.37    1.83
  -7   8   3   12.84    2.19
  -7   8   3    1.51    0.58
   7  -8  -6  329.69   17.51
  -1  -7   6  348.30   17.42
  -7   8   6  322.56   11.87
  -8   1  -9   27.49    3.15
  -1  -7   9   39.07    4.99
  -7   8   9   36.73    1.85
  -7   8  12   13.04    1.15
  -7   8  15   21.47    1.32
  -7   8  15   20.12    1.56
  -7   8  18  184.69    7.79
  -7   8  18  197.12    7.48
  -7   8  21   18.91    1.48
  -7   8  21   17.66    1.83
  -7   8  24   58.05    2.95
  -7   8  24   54.31    3.34
  -7   8  27    1.71    0.88
  -7   8  27    1.10    1.46
  -7   8  30   20.69    1.77
  -7   8  30   15.98    1.26
   1   7 -33   -0.56    0.98
  -7   8  33    0.57    0.66
   0   8  31    1.21    0.81
   0   8  31    1.54    1.01
   0   8  28   20.64    2.12
  -8   0  25   16.85    2.04
   0   8  25   14.61    2.21
   0   8  22  168.41    7.54
  -8   0  22  150.27    6.91
  -8   0  19   58.16    3.34
   0   8  19   58.82    3.79
  -8   0  16   22.21    1.91
   0   8  16   19.32    2.35
   0   8  13  224.12    9.26
  -8   0  13  236.71    8.91
   0   8  13  213.43    9.57
   0   8  10 1523.51   55.37
   0   8  10 1542.37   54.96
  -8   0  10 1537.27   54.29
   0   8   7  584.40   23.32
   0   8   7  667.14   24.08
  -8   8  -7  638.61   22.80
   0   8   7  600.03   22.93
   0   8   4   61.73    4.20
  -8   8  -4   70.69    3.37
   0   8   4   60.22    3.70
  -8   8  -4   59.83    4.65
  -8   8  -1   70.66    5.16
   0   8   1   66.29    4.09
   0   8   1   68.62    3.93
  -8   8  -1   67.10    3.39
   0  -8   2   79.63    7.00
   0   8  -2   69.40    4.06
  -8   8   2   81.49    5.73
  -8   8   2   67.37    3.38
  -8   8   5  282.09   14.43
   0  -8   5  314.07   16.60
  -8   8   8   57.69    2.55
   0  -8   8   67.28    6.69
  -8   0  -8   54.89    5.10
  -8   8  11   12.63    1.04
  -8   8  14   43.35    2.30
  -8   8  17  170.99    6.54
  -8   8  17  160.94    6.81
  -8   8  20  455.68   16.49
  -8   8  20  436.07   16.74
  -8   8  23   27.82    1.84
  -8   8  23   30.39    2.29
  -8   8  26   11.87    1.17
  -8   8  26   13.19    1.62
  -8   8  29   12.77    1.43
   0   8 -32   10.84    1.56
  -8   8  32   12.16    1.03
  -1   9 -31   25.91    2.15
  -9   8  31   26.01    1.47
  -1   9 -28    9.17    2.23
  -9   8  28   13.14    1.34
  -9   8  25    2.10    0.73
  -9   8  25    3.02    1.16
  -9   8  22  244.54    9.50
  -9   8  22  255.77    9.82
  -9   8  19  479.37   17.79
  -9   8  16    5.85    1.03
  -9   8  13  130.00    5.30
  -9   8  10    2.61    0.60
  -1   9  -7    2.87    1.52
   1  -9   7    1.87    1.89
   1  -9   4  147.07   10.64
  -1   9  -4  137.73    6.87
  -1   9  -1  206.73    9.29
  -9   8   1  222.41   11.54
  -9   8  -2  366.14   13.27
  -9   8  -2  373.85   16.36
  -1   9   2  334.29   13.98
  -1   9   2  335.74   14.46
  -9   8  -5    7.55    1.74
  -1   9   5    6.43    1.37
  -1   9   5    6.50    1.97
  -1   9   8 1290.54   48.04
  -1   9   8 1313.07   47.52
  -1   9   8 1383.38   48.38
  -8  -1  11 1333.90   47.54
  -1   9  11 1355.29   47.99
  -1   9  11 1322.38   48.47
  -1   9  14   39.86    2.71
  -1   9  14   41.75    3.15
  -8  -1  14   45.34    2.61
  -8  -1  17   33.19    2.48
  -1   9  17   35.35    2.94
  -1   9  17   38.27    2.62
  -8  -1  20   78.15    4.25
  -1   9  20   91.28    4.79
  -1   9  20   89.45    4.44
  -8  -1  23   61.20    3.70
  -1   9  23   64.74    3.98
  -1   9  23   71.04    3.75
  -1   9  26   -0.93    1.35
  -1   9  26   -0.21    1.40
  -1   9  29   12.32    1.51
  -9   7  32   12.76    0.95
  -2   9 -29    0.35    1.54
  -9   7  29    1.52    0.92
  -9   7  26   19.01    1.73
   7   2  26   19.25    2.42
   7   2  23   43.62    3.62
  -9   7  23   35.42    2.13
  -9   7  23   40.00    2.52
   7   2  20   71.14    4.83
  -9   7  20   65.75    3.42
  -9   7  20   63.01    3.10
   7   2  17    6.12    2.21
  -9   7  17    3.42    1.02
  -9   7  14   89.46    4.00
   7   2  14   99.16    5.80
   7   2  11  125.00    6.78
  -9   7  11  118.32    4.82
   7   2   8  232.04   11.11
   2  -9   5  242.90   14.57
  -2   9  -5  224.63   10.54
  -2   9  -2  110.81    5.51
  -2   9  -2  110.36    5.82
   2  -9   2  123.35    9.18
  -2   9   1    0.75    1.35
   2  -9  -1    5.96    2.42
  -2   9   4    1.14    0.94
  -2   9   4    1.03    1.18
  -2   9   4    1.03    1.62
  -2   9   7  214.11    9.16
  -2   9   7  199.06    8.70
  -2   9   7  196.84    8.10
  -2   9  10  198.85    8.52
  -2   9  10  193.46    7.93
  -2   9  13   26.69    1.99
  -2   9  13   24.78    2.35
  -7  -2  13   27.01    1.96
  -2   9  13   27.43    2.56
  -7  -2  16   14.06    1.75
  -2   9  16   15.94    1.67
  -2   9  16   16.98    2.15
  -7  -2  19   48.70    3.17
  -2   9  19   49.91    3.37
  -2   9  19   50.33    2.94
  -2   9  22    1.28    1.25
  -7  -2  22   -0.76    1.71
  -2   9  22    0.63    1.52
  -2   9  25   11.09    1.61
  -2   9  25   10.49    1.88
  -2   9  28    0.58    1.22
  -2   9  28    1.57    1.34
  -2   9  31    0.29    0.88
  -2   9  31   -0.18    0.85
  -3   9 -30    5.26    1.26
  -9   6  30    6.98    1.11
  -3   9 -27   57.96    4.24
  -9   6  27   63.56    3.23
   6   3  27   65.94    4.40
   6   3  24    1.73    2.17
  -9   6  24    0.70    1.13
  -9   6  21   27.09    1.83
  -9   6  21   27.19    2.14
  -9   6  18   98.51    4.24
  -9   6  18   99.47    4.48
   6   3  18   93.26    6.23
  -9   6  15  180.81    7.17
   6   3  15  170.39    9.00
   6   3  12  224.89   11.37
  -9   6  12  262.54    9.64
   6   3   9 1170.67   43.28
  -6  -3  -9 1123.16   46.80
   6   3   6   12.44    2.91
  -6  -3  -6    1.90    1.70
  -3   9  -3  244.78    9.78
  -3   9  -3  223.32   10.19
  -6  -3  -3  209.58   13.06
  -3   9   0   73.25    5.41
  -3   9   0   66.30    3.56
  -3   9   0   61.97    4.04
  -9   6   0   71.50    5.55
  -3   9   3  109.65    5.89
  -3   9   3  110.09    4.74
  -3   9   3  112.44    5.22
  -9   6  -3  112.23    7.12
  -3   9   3  113.70    7.46
  -3   9   6   55.89    3.72
  -3   9   6   50.59    2.63
  -3   9   9    2.92    1.30
  -3   9   9    2.07    0.83
  -3   9  12  387.71   13.97
  -3   9  12  379.22   14.66
  -3   9  12  347.54   14.44
  -3   9  15  245.42    9.54
  -6  -3  15  246.66    9.80
  -6  -3  18  213.81    8.93
  -3   9  18  216.16    8.58
  -6  -3  21  209.34    9.30
  -3   9  21  232.17    9.46
  -3   9  21  218.46    8.84
  -3   9  24    1.55    1.20
  -3   9  24    3.02    1.71
  -3   9  27    4.80    1.32
  -3   9  27    7.12    1.65
  -3   9  30    7.35    1.27
  -3   9  30    6.00    1.31
   5   4  31    1.30    1.16
  -9   5  31    0.67    0.82
  -4   9 -28   36.91    2.93
  -9   5  28   37.76    2.36
   5   4  25    1.29    2.35
  -9   5  25    0.39    1.15
  -9   5  22   36.28    2.52
   5   4  22   37.11    3.96
  -9   5  19   36.13    2.14
  -9   5  19   34.33    2.36
   5   4  19   37.26    3.96
  -9   5  16  131.46    5.48
  -9   5  16  139.20    5.75
   5   4  16  141.13    7.43
  -9   5  13   17.68    1.36
   5   4  13   12.55    2.58
  -4   9 -10 1093.66   38.69
   5   4  10  997.14   38.82
  -5  -4  -7   99.80    8.13
   5   4   7   89.60    5.36
  -4   9  -7   91.01    5.00
   4  -9   7   92.80    8.44
  -4   9  -7   88.94    4.47
  -4   9  -4  417.80   18.74
  -4   9  -4  456.28   16.72
  -5  -4  -4  431.69   21.43
   4  -9   4  460.93   21.97
  -4   9  -4  426.91   17.31
  -9   5   4  453.19   20.60
  -4   9  -1   29.98    2.08
  -4   9  -1   26.42    3.04
  -9   5   1   28.82    3.56
   4  -9   1   32.87    4.47
  -5  -4  -1   29.00    3.96
  -4   9   2   44.03    2.23
  -4   9   2   47.19    3.39
  -5  -4   2   36.88    4.51
  -4   9   2   47.96    2.71
   4  -9  -2   59.76    6.18
  -4   9   2   56.76    4.61
  -9   5  -2   43.87    4.30
  -5  -4   5   19.23    3.37
  -4   9   5   21.29    1.86
  -4   9   5   22.04    1.37
  -9   5  -5   20.06    2.80
  -4   9   5   23.38    2.48
  -4   9   8  127.07    5.09
  -4   9  11   13.73    1.70
  -4   9  11   11.24    1.49
  -4   9  11   12.97    1.11
  -4   9  14  384.87   14.92
  -4   9  14  392.19   14.36
  -4   9  17   13.54    1.31
  -4   9  20  274.98   10.58
  -4   9  23   20.84    1.80
  -4   9  26    0.96    1.09
  -4   9  26    2.63    1.61
  -4   9  29    3.74    1.15
  -4   9  29    1.14    1.33
  -4   9  32   12.02    1.08
  -4   9  32   10.62    1.16
  -9   4  32   11.00    1.00
   4   5  32   15.82    1.40
  -9   4  29    2.71    1.11
   4   5  29    2.29    1.71
  -5   9 -26    0.19    1.48
   4   5  26    0.06    1.88
  -9   4  26   -0.76    1.25
  -5   9 -23    0.95    1.79
  -9   4  23    2.79    1.32
   4   5  23    1.23    2.22
   4   5  20  131.07    7.11
  -9   4  20  126.42    5.76
   4   5  20  131.90    6.97
  -9   4  17   32.61    2.15
   4   5  17   28.69    3.29
   4   5  17   31.55    3.28
   4   5  14    3.22    1.97
   4   5  14    4.61    1.78
  -9   4  14    6.42    1.01
  -9   4  11   89.41    3.74
  -5   9 -11   89.22    4.72
   4   5   8    5.26    1.87
  -5   9  -8    5.68    1.06
  -4  -5  -8    4.96    2.34
  -5   9  -8    8.05    1.63
   4   5   5  594.72   21.12
  -5   9  -5  552.33   20.19
  -9   4   5  484.65   24.05
   5  -9   5  577.86   26.72
  -5   9  -5  503.29   22.18
  -5   9  -5  537.35   20.82
  -4  -5  -5  554.61   25.83
  -5   9  -2  412.96   14.93
  -4  -5  -2  348.47   19.15
  -5   9  -2  382.76   17.21
   4   5   2  401.44   15.56
  -9   4   2  427.09   18.85
  -5   9  -2  377.16   15.50
   5  -9   2  431.34   20.68
  -5   9   1    8.93    1.12
  -4  -5   1    5.37    1.96
  -9   4  -1    6.39    1.93
   5  -9  -1   10.66    2.86
  -5   9   1    9.73    1.91
  -5   9   1    9.98    1.71
  -5   9   4   59.62    3.08
  -9   4  -4   60.12    4.93
   5  -9  -4   70.91    7.05
  -5   9   4   62.18    5.11
  -5   9   7  351.48   14.14
  -5   9   7  358.32   12.92
  -5   9   7  362.58   13.54
  -9   4  -7  390.85   16.59
  -5   9  10  929.33   34.31
  -5   9  10  989.18   34.18
  -5   9  10  939.41   33.68
  -5   9  13    6.68    0.78
  -5   9  13    7.65    1.26
  -5   9  16   32.95    2.30
  -5   9  16   32.40    1.86
  -5   9  19    3.94    0.94
  -5   9  19    4.14    1.47
  -5   9  22   21.93    1.69
  -5   9  25    5.93    1.24
  -5   9  28    5.69    1.18
  -5   9  31    2.27    0.80
  -5   9  31    1.49    1.05
   3   6  30   12.45    1.75
  -9   3  30    7.56    1.18
   3   6  27    1.36    1.73
  -9   3  27    3.75    1.38
  -6   9 -24    0.25    1.41
   3   6  24   -0.75    1.84
  -9   3  24    0.90    1.28
   3   6  24   -0.42    1.74
  -6   9 -21  312.81   12.57
  -9   3  21  303.77   11.69
   3   6  21  299.75   12.55
   3   6  21  273.42   12.95
  -9   3  18  462.42   17.05
   3   6  18  428.89   18.35
  -6   9 -18  453.12   17.74
   3   6  18  466.86   17.94
   3   6  15   15.30    2.42
  -6   9 -15   20.69    2.03
  -9   3  15   17.39    1.49
   3   6  15   14.07    2.15
  -6   9 -12   32.38    2.38
  -9   3  12   25.82    1.62
   3   6   9    6.58    1.66
   3   6   9    7.95    1.75
  -6   9  -9    9.67    1.57
   3   6   6  360.07   14.54
  -6   9  -6  344.50   15.81
   3   6   6  361.12   14.62
  -6   9  -6  369.12   13.69
   6  -9   6  408.73   20.56
  -3  -6  -6  392.33   19.91
  -6   9  -6  370.74   14.33
  -6   9  -3  266.56   10.00
  -9   3   3  292.22   14.27
   3   6   3  249.27   10.75
   6  -9   3  285.54   15.65
  -6   9  -3  254.73   10.54
  -3  -6  -3  254.10   14.91
  -6   9  -3  255.29   12.24
  -9   3   0   21.64    3.05
  -6   9   0   15.75    1.32
  -6   9   0   17.42    2.49
   6  -9   0   14.98    3.24
  -3  -6   0   19.51    3.44
  -6   9   0   15.38    1.78
  -9   3  -3   98.31    6.74
  -6   9   3  101.65    4.32
  -6   9   3   93.62    4.86
  -3  -6   3   79.64    7.20
   6  -9  -3   97.70    8.29
  -6   9   3   97.65    6.61
  -6   9   6   29.67    1.90
  -6   9   6   28.00    2.34
  -3  -6   6   27.14    4.15
  -6   9   9 1545.62   53.61
  -6   9   9 1552.77   53.40
  -6   9   9 1479.21   53.01
  -6   9  12  716.46   25.15
  -6   9  12  682.18   24.72
  -6   9  15    0.68    0.92
  -6   9  18   56.09    2.73
  -6   9  18   58.00    3.19
  -6   9  21  157.74    6.76
  -6   9  21  151.03    6.19
  -6   9  24   76.87    4.07
  -6   9  24   68.63    3.37
  -6   9  27   15.51    1.46
  -6   9  27   14.91    1.98
  -6   9  30   19.55    1.39
  -6   9  33    2.29    0.59
   2   7  31   12.84    1.47
   2   7  28    1.81    1.46
  -9   2  28   -0.54    1.11
   2   7  28    0.77    1.25
   2   7  25    0.38    1.62
  -9   2  25    1.26    1.35
   2   7  25   -0.42    1.70
   2   7  22   41.90    3.26
  -9   2  22   44.48    2.84
   2   7  22   43.13    3.68
  -9   2  19  209.37    8.38
  -7   9 -19  208.99    8.86
   2   7  19  196.65    9.34
   2   7  19  198.86    8.88
  -7   9 -16   11.61    1.63
   2   7  16   15.44    2.09
   2   7  16   14.86    2.42
   2   7  13   23.31    2.34
   2   7  13   21.27    2.17
  -7   9 -13   18.82    1.81
  -9   2  13   16.10    1.44
   2   7  10   35.30    2.85
   2   7  10   30.94    2.61
  -7   9 -10   36.52    2.45
  -9   2  10   31.86    1.78
  -7   9  -7    7.86    1.26
   2   7   7    8.94    1.71
   2   7   7    8.48    1.66
   2   7   4  174.58    7.50
  -7   9  -4  157.03    7.03
  -7   9  -4  153.74    8.62
  -7   9  -1   11.35    1.07
  -7   9  -1    8.45    1.37
   2   7   1   12.43    1.72
  -7   9  -1   12.95    2.11
  -2  -7  -1   12.26    3.00
   7  -9   1   13.80    3.22
   2   7   1   10.91    1.67
  -7   9   2   41.26    2.13
  -7   9   2   33.92    2.46
   2   7  -2   37.45    2.69
  -7   9   2   44.96    4.11
   7  -9  -2   40.79    5.17
  -2  -7   2   41.24    5.07
  -7   9   5  101.41    4.33
  -7   9   5  102.75    4.15
  -7   9   8  217.45    8.26
  -7   9  11  483.70   17.64
  -7   9  14   22.46    1.63
  -7   9  14   22.24    1.33
  -7   9  17    1.35    0.62
  -7   9  17    0.15    1.12
  -7   9  20    5.92    0.94
  -7   9  20    5.80    1.39
  -7   9  23   74.75    3.86
  -7   9  23   68.34    3.30
  -7   9  26    0.78    0.78
  -7   9  26   -0.46    1.32
  -7   9  29   24.22    1.54
  -7   9  29   30.30    2.07
   2   7 -32   -0.28    1.53
  -7   9  32   -0.23    0.68
   1   8  32    4.93    0.82
   1   8  29    4.33    1.29
   1   8  29    2.01    1.03
   1   8  26    6.50    1.61
  -9   1  26    4.92    1.36
   1   8  26    6.87    1.74
   1   8  23    4.67    1.76
  -9   1  23    3.91    1.47
   1   8  23    7.22    1.88
  -9   1  20   19.97    2.00
   1   8  20   22.28    2.54
   1   8  20   18.59    2.22
  -9   1  17   26.45    2.03
   1   8  17   25.51    2.73
   1   8  14    8.48    1.90
  -8   9 -14   11.02    1.40
  -9   1  14   10.35    1.29
   1   8  11  535.59   21.26
  -9   1  11  543.46   20.16
  -8   9 -11  599.12   20.89
   1   8   8  531.56   21.37
  -8   9  -8  579.14   20.87
   1   8   5   33.41    2.69
   1   8   5   35.16    3.24
  -8   9  -5   31.23    3.29
  -8   9  -5   30.69    2.20
  -8   9  -2  148.64    6.44
   1   8   2  145.39    6.85
   1   8   2  148.33    7.21
  -8   9  -2  157.84    8.60
   1   8  -1   30.38    2.58
  -8   9   1   33.59    1.76
  -8   9   1   27.88    2.05
   1   8  -1   28.48    2.53
  -8   9   1   31.82    3.53
  -8   9   4   68.90    3.10
   1   8  -4   67.42    4.01
  -8   9   7    3.63    0.60
  -8   9  10    5.71    0.81
  -8   9  13   23.18    1.55
  -8   9  16    3.29    0.67
  -8   9  16    3.42    1.04
  -8   9  19  231.13    8.80
  -8   9  19  229.37    9.12
  -8   9  22   43.06    2.36
  -8   9  22   44.93    2.71
  -8   9  25   10.15    1.06
  -8   9  25   10.24    1.49
  -8   9  28    2.10    0.64
  -8   9  28    1.74    1.09
   1   8 -31    4.06    1.77
  -8   9  31    2.63    0.75
   0   9  30    1.61    0.74
   0   9  27   25.13    2.12
   0   9  24    6.41    1.64
  -9   0  21  116.99    5.40
   0   9  21  121.36    5.92
  -9   0  18  127.96    5.58
   0   9  18  123.50    6.10
   0   9  18  116.51    5.71
   0   9  15   11.30    2.06
  -9   0  15    8.82    1.35
   0   9  15   11.23    1.73
   0   9  12  782.26   29.47
   0   9  12  831.51   29.16
  -9   0  12  775.49   28.53
   0   9   9 1787.09   66.03
   0   9   9 1878.02   65.61
   0   9   6   37.28    3.24
  -9   9  -6   38.36    2.37
   0   9   6   35.44    2.96
   0   9   6   33.18    2.61
   0   9   3  622.80   23.61
  -9   9  -3  616.07   25.32
   0   9   3  586.14   22.96
  -9   9  -3  610.51   22.33
  -9   9   0  227.47    8.92
   0   9   0  227.84    9.77
   0   9   0  218.67    9.84
   0   9  -3   19.40    2.28
   0   9  -3   21.10    2.27
   0   9  -6    2.53    1.55
  -9   9   9   -0.12    0.46
  -9   9  12  161.07    6.35
  -9   9  15   64.75    3.10
  -9   9  18  367.04   13.83
  -9   9  21  477.95   17.73
  -9   9  24    6.36    0.83
  -9   9  24    5.93    1.25
  -9   9  27   25.81    1.79
   0   9 -30   23.46    2.51
  -9   9  30   24.38    1.43
 -10   9  29   10.85    0.92
  -1  10 -29   12.14    1.98
  -1  10 -26    7.02    2.16
 -10   9  26    8.36    1.05
 -10   9  23   33.06    2.06
 -10   9  20  313.91   11.94
 -10   9  17   65.94    3.22
 -10   9  14   98.75    4.25
  -1  10 -11    2.94    1.78
 -10   9  11    2.90    0.66
  -1  10  -8  158.42    7.87
  -1  10  -5   42.38    3.45
  -1  10  -5   40.18    3.47
  -1  10  -2    2.03    1.47
  -1  10   1  265.19   10.69
  -1  10   1  229.87   10.79
  -1  10   4  468.18   17.88
  -1  10   4  441.00   18.35
  -1  10   4  455.58   17.36
  -1  10   7  121.35    6.05
  -1  10   7  109.70    5.85
  -1  10   7  110.29    5.31
  -1  10  10 1167.84   43.00
  -1  10  10 1187.32   42.52
  -1  10  13  255.06   10.05
  -1  10  13  238.07   10.37
  -1  10  13  249.46   10.54
  -1  10  16    7.41    1.49
  -1  10  16    6.18    1.76
  -1  10  19   52.94    3.46
  -1  10  19   57.25    3.22
  -1  10  22   40.71    2.94
  -1  10  22   43.42    2.74
  -1  10  25   -0.46    1.17
  -1  10  25    0.15    1.19
  -1  10  28   24.47    1.84
  -1  10  28   26.45    1.79
  -1  10  31    0.32    0.47
 -10   8  30    1.44    0.59
  -2  10 -30    0.53    1.12
  -2  10 -27    1.41    1.78
 -10   8  27    1.72    0.82
  -2  10 -24    4.22    2.20
 -10   8  24    4.86    1.08
 -10   8  21   93.57    4.29
 -10   8  18   62.27    3.16
   8   2  18   65.94    4.47
 -10   8  15   62.03    3.08
   8   2  15   78.87    4.76
 -10   8  12   86.71    3.85
   8   2  12  115.90    5.95
  -2  10  -9   13.44    2.43
   8   2   9   19.25    2.73
  -2  10  -6    8.64    2.18
  -2  10  -6    5.10    1.82
  -2  10  -3    1.76    1.72
  -2  10  -3    4.48    1.72
  -2  10   0   38.77    3.22
  -2  10   3   46.95    3.61
  -2  10   3   41.87    2.66
  -2  10   3   38.60    3.00
  -2  10   6    8.67    1.41
  -2  10   6   10.09    2.01
  -2  10   9  297.41   12.11
  -2  10   9  292.78   11.49
  -2  10  12   96.26    4.60
  -2  10  12  101.76    5.13
  -2  10  15   -0.57    1.67
  -2  10  15    3.39    1.16
  -2  10  18    2.21    1.18
  -2  10  18    3.56    1.60
  -2  10  21   17.67    2.13
  -2  10  21   15.62    1.72
  -2  10  24   16.52    2.06
  -2  10  24   17.83    1.78
  -2  10  27   12.74    1.44
  -2  10  27   11.56    1.57
  -2  10  30   14.55    1.28
  -2  10  30   16.61    1.30
 -10   7  31    3.11    0.56
  -3  10 -28   42.06    3.14
 -10   7  28   39.94    2.13
   7   3  25    7.90    1.95
  -3  10 -25    6.30    2.04
 -10   7  25    8.76    1.19
   7   3  22    2.82    2.11
 -10   7  22    0.27    1.07
   7   3  19    0.18    2.15
 -10   7  19    0.50    0.97
 -10   7  16   73.95    3.55
   7   3  16   87.10    5.62
   7   3  13  191.87    9.25
 -10   7  13  175.14    6.98
  -3  10 -10    5.28    2.00
   7   3  10    5.38    2.41
   7   3   7   25.37    3.43
  -3  10  -7   21.81    2.40
  -3  10  -4   17.09    2.12
  -3  10  -4   11.20    2.10
  -3  10  -1  606.82   22.90
  -3  10  -1  610.32   23.56
  -3  10   2  510.55   19.96
  -3  10   2  554.07   20.86
  -3  10   5    3.39    0.95
  -3  10   5    9.98    1.98
  -3  10   8    7.79    1.14
  -3  10   8    8.06    1.66
  -3  10   8    6.69    1.73
  -3  10  11   70.67    3.46
  -3  10  11   72.66    4.08
  -3  10  14  161.43    6.64
  -3  10  17    2.57    1.01
  -3  10  20   26.49    2.46
  -3  10  20   23.98    1.94
  -3  10  23    4.05    1.17
  -3  10  23    2.14    1.44
  -3  10  26   -1.36    1.15
  -3  10  26    0.56    1.31
  -3  10  29   21.59    1.81
  -3  10  29   24.96    1.73
 -10   6  29   39.50    2.02
   6   4  29   44.61    2.73
   6   4  26   12.82    2.33
  -4  10 -26   13.64    2.30
 -10   6  26   14.92    1.41
  -4  10 -23    2.35    1.91
 -10   6  23    2.08    1.07
   6   4  20    2.33    2.48
 -10   6  20   -0.06    1.06
 -10   6  17   31.62    2.06
   6   4  17   33.40    3.75
   6   4  14  214.24   10.27
  -4  10 -14  197.78    9.48
 -10   6  14  216.30    8.25
  -4  10 -11    3.79    1.62
   6   4  11    2.95    2.27
   6   4   8    3.51    2.07
  -4  10  -8    5.00    1.83
  -4  10  -8    4.08    1.36
  -4  10  -5    6.96    1.45
  -4  10  -5   10.68    2.20
   4 -10   5    5.66    2.57
  -4  10  -2  341.78   13.07
  -4  10  -2  307.70   15.47
  -4  10   1 1154.96   41.98
  -4  10   1 1204.64   42.58
  -4  10   1 1186.05   43.42
 -10   6  -1 1233.94   46.53
  -4  10   4  138.04    6.80
  -4  10   4  130.37    5.94
  -4  10   4  127.58    5.29
 -10   6  -4  129.22    8.13
  -4  10   7    0.65    1.48
  -4  10   7    0.88    0.67
  -4  10  10   46.27    2.36
  -4  10  13  368.60   14.42
  -4  10  13  375.27   13.83
  -4  10  16   63.23    3.68
  -4  10  16   64.24    3.08
  -4  10  19   52.03    2.78
  -4  10  22   11.72    1.38
  -4  10  25   -0.85    1.03
  -4  10  25    1.93    1.57
  -4  10  28   12.47    1.66
  -4  10  28   12.54    1.36
  -4  10  31    2.96    0.85
  -4  10  31    3.24    0.73
 -10   5  30    0.29    0.65
   5   5  30    1.52    1.10
  -5  10 -27    0.52    1.25
   5   5  27    2.56    1.76
 -10   5  27    2.06    0.99
  -5  10 -24    3.06    1.84
   5   5  24    1.96    2.17
 -10   5  24    2.37    1.07
  -5  10 -21   46.42    3.68
 -10   5  21   43.25    2.64
   5   5  21   44.19    4.08
  -5  10 -18   45.46    3.62
 -10   5  18   53.27    2.82
   5   5  18   52.35    4.19
  -5  10 -15  122.88    5.58
  -5  10 -15  122.22    6.23
 -10   5  15  122.09    5.16
   5   5  15  120.85    6.72
   5   5  15  124.28    6.75
   5   5  12   58.48    4.30
  -5  10 -12   61.73    3.35
  -5  10 -12   63.02    3.99
   5   5  12   55.76    4.36
  -5  10  -9   18.34    1.69
  -5  10  -9   18.30    2.28
   5   5   9   14.95    2.48
  -5  10  -6    2.44    1.50
  -5  10  -6    3.87    1.11
   5   5   6    3.09    1.94
  -5  10  -3    0.30    1.46
   5   5   3    1.39    1.31
  -5  10  -3    4.44    1.03
  -5  10  -3    0.39    0.83
   5 -10   3   -0.29    1.76
  -5  10   0   68.33    3.48
  -5  10   3    4.96    1.17
 -10   5  -3    3.36    1.62
  -5  10   6   14.12    1.06
  -5  10   6   13.55    1.97
  -5  10   9  399.13   14.71
  -5  10   9  416.69   15.47
  -5  10  12   19.97    1.76
  -5  10  12   18.03    1.26
  -5  10  15  110.02    4.85
  -5  10  15   98.83    4.26
  -5  10  18    2.24    0.82
  -5  10  18    5.53    1.45
  -5  10  21    2.23    0.89
  -5  10  21    2.44    1.62
  -5  10  24    1.60    0.93
  -5  10  27    8.09    1.16
  -5  10  30    1.65    0.98
  -5  10  30    1.45    0.74
   4   6  31   23.15    1.66
 -10   4  28   20.10    1.53
   4   6  28   27.66    2.36
   4   6  25    5.98    1.98
 -10   4  25    5.93    1.24
  -6  10 -25    3.28    1.49
  -6  10 -22  165.01    7.63
 -10   4  22  152.34    6.48
   4   6  22  166.22    7.70
 -10   4  19  591.31   21.05
   4   6  19  582.11   22.21
  -6  10 -19  582.89   22.10
  -6  10 -16    7.68    1.72
   4   6  16    7.71    2.07
 -10   4  16    7.04    1.09
   4   6  16    8.09    2.20
   4   6  13  151.04    7.65
  -6  10 -13  173.70    7.62
 -10   4  13  167.70    6.53
   4   6  13  156.57    8.11
  -6  10 -10    2.92    0.80
  -6  10 -10    4.11    1.38
   4   6  10    2.16    1.68
   4   6   7    3.23    1.79
  -6  10  -7    2.57    0.82
   4   6   7    2.71    1.50
  -6  10  -7    3.14    1.41
  -6  10  -4   19.73    1.56
   4   6   4   17.99    2.09
  -6  10  -4   19.15    2.07
  -6  10  -4   19.10    2.66
   6 -10   4   21.70    4.39
  -6  10  -1   98.94    5.19
  -6  10  -1  100.89    4.57
  -6  10  -1   98.36    6.69
   4   6   1  107.00    5.28
  -6  10   2  422.40   17.45
  -6  10   2  461.05   16.78
 -10   4  -2  477.03   20.72
  -6  10   5   76.57    3.72
 -10   4  -5   82.71    6.25
  -6  10   8 1194.82   42.44
  -6  10   8 1175.86   42.24
  -6  10  11 1413.51   48.59
  -6  10  11 1339.54   48.12
  -6  10  14   13.01    1.49
  -6  10  14   12.53    1.01
  -6  10  17   98.45    4.62
  -6  10  17  100.21    4.18
  -6  10  20  126.84    5.74
  -6  10  20  126.53    5.22
  -6  10  23   46.09    2.98
  -6  10  23   44.58    2.40
  -6  10  26    4.13    0.95
  -6  10  26    6.27    1.46
  -6  10  29   14.76    1.18
   3   7  29   42.61    2.64
   3   7  26    4.47    1.63
 -10   3  26    2.70    1.09
  -7  10 -23  105.51    5.29
 -10   3  23   97.45    4.58
   3   7  23   94.14    5.41
   3   7  23  104.76    5.33
  -7  10 -20  642.25   23.60
 -10   3  20  638.88   22.68
   3   7  20  576.24   23.87
   3   7  20  596.43   23.34
  -7  10 -17  150.94    7.24
 -10   3  17  165.59    6.58
   3   7  17  154.55    7.82
   3   7  17  160.62    7.39
   3   7  14  102.07    5.49
  -7  10 -14  111.31    5.44
 -10   3  14  115.18    4.70
   3   7  14   98.95    5.81
   3   7  11   45.01    3.29
  -7  10 -11   43.96    2.95
  -7  10  -8   21.12    2.05
   3   7   8   18.10    2.29
   3   7   8   16.53    2.16
  -7  10  -5    1.80    0.67
  -7  10  -5    0.90    1.13
   3   7   5    0.87    1.30
  -7  10  -2   31.13    1.86
   3   7   2   26.46    2.45
  -7  10  -2   32.59    3.46
  -7  10  -2   27.12    2.32
  -7  10   1  266.33    9.88
  -7  10   1  242.18   10.40
   3   7  -1  248.91   10.64
  -7  10   4  334.63   12.13
  -7  10   4  313.62   12.63
   3   7  -4  301.19   12.81
  -7  10   7  367.45   13.66
  -7  10   7  359.69   13.44
  -7  10  10 1617.73   57.24
  -7  10  13  247.97    9.31
  -7  10  13  237.19    8.94
  -7  10  16   49.36    2.82
  -7  10  16   55.69    2.52
  -7  10  19  102.20    4.67
  -7  10  19  101.68    4.29
  -7  10  22   95.12    4.34
  -7  10  22   84.06    3.80
  -7  10  25    0.38    0.73
  -7  10  25   -0.72    1.19
  -7  10  28   38.24    1.98
  -7  10  28   42.32    2.44
   3   7 -31    0.70    1.81
  -7  10  31   -0.09    0.65
   2   8  30    9.91    1.21
   2   8  27    3.08    1.34
   2   8  27    0.70    1.05
 -10   2  24   25.77    1.90
   2   8  24   25.20    2.47
   2   8  24   24.49    2.38
 -10   2  21  102.35    4.65
   2   8  21   99.95    5.47
   2   8  21   98.10    5.04
  -8  10 -18   30.19    2.42
 -10   2  18   32.93    2.20
   2   8  18   29.54    2.96
   2   8  18   32.38    2.76
   2   8  15   96.89    5.04
 -10   2  15  100.47    4.37
   2   8  15   89.63    5.26
  -8  10 -15   98.44    4.86
   2   8  12   19.88    2.18
   2   8  12   12.14    1.89
  -8  10 -12   18.10    1.77
 -10   2  12    9.06    1.05
   2   8   9  135.42    6.84
  -8  10  -9  146.85    6.44
  -8  10  -6   11.98    1.54
   2   8   6   11.55    2.01
   2   8   3   12.38    1.85
  -8  10  -3   10.96    1.48
   2   8   3    8.59    1.98
  -8  10   0    6.07    0.82
   2   8   0    3.09    1.34
   2   8   0    2.79    1.45
  -8  10   0    2.38    1.06
  -8  10   3   34.92    1.93
   2   8  -3   28.68    2.56
  -8  10   3   32.42    2.26
  -8  10   6   21.41    1.33
  -8  10   9  278.21   10.40
  -8  10  12   49.46    2.48
  -8  10  15   37.90    2.17
  -8  10  18    1.83    0.64
  -8  10  18   -0.28    0.98
  -8  10  21    1.00    0.70
  -8  10  21    0.61    1.07
  -8  10  24    5.28    0.81
  -8  10  24    4.12    1.20
  -8  10  27    7.64    0.79
  -8  10  27    7.80    1.28
   2   8 -30    4.77    1.95
  -8  10  30    3.80    0.83
   1   9  31    0.34    0.59
   1   9  28   21.11    1.65
   1   9  28   23.51    1.74
   1   9  25   13.62    1.77
   1   9  25   16.89    1.83
 -10   1  22    0.36    1.07
   1   9  22   -0.20    1.52
 -10   1  19   39.91    2.48
   1   9  19   37.57    2.97
 -10   1  16  135.79    5.57
   1   9  16  118.65    6.26
   1   9  13    3.76    1.52
 -10   1  13   26.60    1.58
   1   9  10  447.39   18.20
  -9  10 -10  481.58   17.75
   1   9   7   85.08    4.96
   1   9   7   87.90    4.72
   1   9   7   98.50    5.28
  -9  10  -7   88.71    4.43
   1   9   4  113.93    5.84
  -9  10  -4  115.92    5.33
   1   9   4  118.02    6.44
  -9  10  -1    7.43    1.17
   1   9   1    5.12    1.67
   1   9  -2   32.26    2.81
   1   9  -2   31.13    2.73
   1   9  -5   32.87    2.88
  -9  10   8    5.34    0.70
  -9  10  11   47.26    2.33
  -9  10  14  221.97    8.57
  -9  10  17   11.00    1.32
  -9  10  20  216.00    8.53
  -9  10  23    5.95    1.18
  -9  10  26    5.05    1.05
   1   9 -29    0.57    1.12
  -9  10  29    0.88    0.68
   1   9 -29    1.45    1.61
   0  10  29   11.13    0.97
   0  10  26   17.94    1.73
   0  10  23    4.15    1.40
   0  10  20   29.04    2.57
   0  10  20   31.21    2.39
   0  10  17   68.28    4.12
   0  10  17   71.83    3.85
   0  10  14    1.49    1.72
   0  10  14    1.82    1.42
   0  10  11  408.93   16.28
   0  10  11  415.54   15.95
   0  10   8  215.81    9.49
   0  10   8  211.11    8.98
   0  10   5  245.56   10.77
   0  10   5  226.80   10.29
   0  10   5  232.60    9.93
 -10  10  -5  252.54    9.61
   0  10   2  265.92   11.42
 -10  10  -2  277.99   10.56
   0  10   2  259.90   11.74
   0  10  -1    3.51    1.64
   0  10  -1    2.67    1.77
   0  10  -4   64.30    4.37
   0  10  -4   69.48    4.41
   0  10  -7   91.54    5.43
   0  10 -10    1.03    1.85
 -10  10  13  164.94    6.51
 -10  10  16    2.40    0.84
 -10  10  19  277.13   10.59
 -10  10  22   66.39    3.18
   0  10 -25    5.72    2.08
 -10  10  25    7.66    1.02
   0  10 -28    8.25    2.02
 -10  10  28    6.80    0.80
   0  10 -28    9.09    1.27
  -1  11 -27    0.59    1.57
 -11  10  27    2.53    0.54
  -1  11 -24    8.85    1.72
  -1  11 -24    9.09    2.18
 -11  10  24   11.47    1.03
 -11  10  21    4.62    0.90
 -11  10  18    9.24    1.08
  -1  11 -15   24.62    3.38
 -11  10  15   33.09    1.87
  -1  11 -12    7.07    2.24
  -1  11  -9  242.83   10.78
  -1  11  -9  233.59   11.07
  -1  11  -6  112.74    6.44
  -1  11  -6  117.11    6.40
  -1  11  -3    1.34    1.75
  -1  11   0   31.30    2.95
  -1  11   0   28.22    2.93
  -1  11   3  422.42   16.30
  -1  11   3  432.10   16.86
  -1  11   3  410.55   17.20
  -1  11   6  157.93    7.64
  -1  11   6  166.28    7.12
  -1  11   6  154.53    7.61
  -1  11   9   88.99    5.04
  -1  11   9   97.08    4.72
  -1  11  12   64.72    4.04
  -1  11  12   73.41    3.82
  -1  11  15    0.05    1.53
  -1  11  15   -0.18    1.20
  -1  11  18    4.26    1.29
  -1  11  18    3.64    1.56
  -1  11  21    7.92    1.38
  -1  11  21    7.46    1.60
  -1  11  24   -0.22    1.06
  -1  11  24    0.68    1.14
  -1  11  27    4.30    0.95
  -1  11  27    5.02    0.98
  -2  11 -28    1.13    1.39
 -11   9  28    1.13    0.50
  -2  11 -25    7.56    1.46
  -2  11 -25    6.63    2.10
 -11   9  25    8.66    0.94
 -11   9  22    3.67    0.87
  -2  11 -22    2.34    1.99
  -2  11 -19    7.75    2.47
 -11   9  19   11.22    1.18
 -11   9  16    2.56    0.80
  -2  11 -10   35.53    3.69
  -2  11 -10   42.63    3.48
  -2  11  -7   64.26    4.66
  -2  11  -7   56.50    4.10
  -2  11  -4    3.20    1.82
  -2  11  -4    5.68    1.91
  -2  11  -1   85.44    5.18
  -2  11   2   24.41    2.83
  -2  11   2   27.09    2.25
  -2  11   5  269.14   11.31
  -2  11   5  270.70   10.64
  -2  11   5  252.99   11.43
  -2  11   8    3.48    1.67
  -2  11   8    0.66    1.12
  -2  11  11   81.88    4.58
  -2  11  11   79.91    4.06
  -2  11  14   16.09    2.22
  -2  11  14   17.14    1.73
  -2  11  17    4.17    1.16
  -2  11  17    2.38    1.51
  -2  11  20    2.51    1.13
  -2  11  20    1.35    1.54
  -2  11  23    5.51    1.24
  -2  11  23    5.08    1.43
  -2  11  26    1.66    0.96
  -2  11  26    1.84    1.13
  -2  11  29   15.63    1.19
  -2  11  29   17.33    1.21
  -3  11 -29   23.03    1.89
 -11   8  29   21.00    1.13
  -3  11 -26   -0.06    1.62
 -11   8  26    2.69    0.75
  -3  11 -23   16.87    1.95
  -3  11 -23   12.71    2.44
 -11   8  23   16.99    1.35
  -3  11 -20    1.05    1.94
   8   3  20    1.92    1.69
 -11   8  20    1.20    0.84
  -3  11 -17    5.54    2.18
 -11   8  17    8.45    1.07
   8   3  17    9.74    2.26
  -3  11 -14   28.44    3.22
   8   3  14   41.44    3.70
   8   3  11   93.36    5.68
  -3  11 -11   76.43    4.64
   8   3   8   82.07    5.55
  -3  11  -8   68.68    4.36
  -3  11  -5   26.71    2.83
   8   3   5   39.98    4.19
  -3  11  -5   35.28    3.35
  -3  11  -2  512.33   19.99
  -3  11  -2  521.80   20.62
  -3  11   1  832.56   31.40
  -3  11   1  866.20   32.17
  -3  11   4    9.81    1.34
  -3  11   4    1.17    1.87
  -3  11   7  155.81    7.26
  -3  11   7  154.45    7.10
  -3  11   7  145.51    6.30
  -3  11  10   28.24    2.52
  -3  11  10   29.80    2.06
  -3  11  13    7.19    1.63
  -3  11  13    6.29    1.16
  -3  11  16    5.44    1.08
  -3  11  19    4.07    1.14
  -3  11  19    5.16    1.72
  -3  11  22   13.68    1.51
  -3  11  22   13.41    1.81
  -3  11  25    3.02    1.07
  -3  11  25    2.17    1.18
  -3  11  28   49.60    2.59
  -3  11  28   46.67    2.38
  -4  11 -27   26.40    2.46
 -11   7  27   27.15    1.56
  -4  11 -24   13.95    2.36
   7   4  24   13.74    2.19
 -11   7  24   13.37    1.22
  -4  11 -21    1.12    1.20
  -4  11 -21    0.44    1.81
   7   4  21    2.76    2.06
 -11   7  21   -1.01    0.89
  -4  11 -18   31.24    2.50
  -4  11 -18   25.89    2.93
 -11   7  18   29.34    1.87
   7   4  18   31.33    3.54
  -4  11 -15   21.01    2.14
  -4  11 -15   19.42    2.70
 -11   7  15   22.76    1.51
   7   4  15   24.15    3.25
   7   4  12  176.54    8.92
  -4  11 -12  173.26    7.70
  -4  11 -12  168.85    8.37
   7   4   9  238.50   11.26
  -4  11  -9  240.82   10.06
  -4  11  -9  231.73   10.79
  -4  11  -6   95.15    5.11
   7   4   6  103.22    6.37
  -4  11  -3  482.31   18.57
  -4  11   0 2260.61   80.49
  -4  11   0 2258.73   81.41
  -4  11   3  539.51   20.82
  -4  11   3  564.91   21.72
  -4  11   3  550.02   20.11
  -4  11   6  104.47    4.53
  -4  11   6  104.88    5.66
  -4  11   9  195.36    7.68
  -4  11  12  165.35    7.42
  -4  11  12  159.95    7.30
  -4  11  12  172.46    6.73
  -4  11  15   31.78    2.49
  -4  11  15   30.55    1.89
  -4  11  18    8.83    1.19
  -4  11  21    0.11    0.85
  -4  11  24   18.15    1.95
  -4  11  24   16.52    1.49
  -4  11  27   22.85    1.85
  -4  11  27   23.42    1.60
  -4  11  30   58.03    2.46
  -4  11  30   51.58    2.55
 -11   6  28   14.60    1.05
  -5  11 -28   11.14    1.36
   6   5  25   11.35    2.07
 -11   6  25    9.83    1.10
  -5  11 -25    8.92    1.91
  -5  11 -22    0.92    1.81
   6   5  22    1.10    2.06
 -11   6  22    0.78    0.84
  -5  11 -19   77.78    5.07
 -11   6  19   90.47    3.98
   6   5  19   91.92    5.64
  -5  11 -16    1.49    1.77
  -5  11 -16    1.82    1.08
   6   5  16    2.91    2.26
 -11   6  16    1.84    0.79
   6   5  13  164.21    8.23
  -5  11 -13  157.78    6.95
  -5  11 -13  155.22    7.66
   6   5  10   80.69    5.41
  -5  11 -10   82.42    4.25
  -5  11 -10   86.66    5.18
   6   5   7   13.51    2.69
  -5  11  -7   14.54    1.72
  -5  11  -7   12.50    2.28
  -5  11  -4  143.58    6.35
  -5  11  -4  135.17    7.13
  -5  11  -1 1031.51   36.74
   6   5   1  984.76   37.29
  -5  11   2  371.12   13.67
  -5  11   2  338.78   12.84
  -5  11   5   34.00    2.54
  -5  11   5   35.92    1.88
  -5  11   5   33.00    2.94
  -5  11   8   19.27    1.34
  -5  11   8   23.41    2.07
  -5  11  11    9.10    1.45
  -5  11  11    7.25    0.89
  -5  11  14   65.55    3.53
  -5  11  14   61.95    2.90
  -5  11  17   -0.41    0.75
  -5  11  17    0.56    1.18
  -5  11  20    2.32    0.83
  -5  11  20    2.18    1.47
  -5  11  23    3.51    0.90
  -5  11  26    3.24    0.91
  -5  11  29   25.36    1.49
  -5  11  29   26.75    1.78
   5   6  29    1.26    0.94
  -6  11 -26   13.18    1.72
 -11   5  26   16.37    1.29
  -6  11 -23    2.95    1.67
   5   6  23    1.09    1.95
 -11   5  23    2.57    0.94
  -6  11 -20  215.13    9.78
 -11   5  20  218.26    8.57
   5   6  20  224.45    9.95
 -11   5  17   46.42    2.35
  -6  11 -17   40.94    3.30
   5   6  17   44.45    3.68
   5   6  14  106.95    6.02
  -6  11 -14  111.42    4.98
  -6  11 -14  110.48    5.80
   5   6  14  101.89    6.03
   5   6  11   41.21    3.68
  -6  11 -11   45.28    2.71
  -6  11 -11   51.66    3.58
  -6  11  -8   28.31    2.02
   5   6   8   23.47    2.92
  -6  11  -8   26.33    2.62
  -6  11  -5   72.05    3.52
   5   6   5   61.31    4.56
  -6  11  -5   60.99    4.18
  -6  11  -2   58.30    3.89
  -6  11  -2   59.43    3.17
   5   6   2   53.52    3.65
  -6  11   1   35.95    2.39
  -6  11   1   32.53    3.01
  -6  11   4  307.70   11.96
  -6  11   7   20.02    1.79
  -6  11  10  581.93   20.10
  -6  11  10  535.81   19.80
  -6  11  10  519.84   19.27
  -6  11  13   31.49    2.13
  -6  11  13   26.55    1.52
  -6  11  16   16.56    1.61
  -6  11  16   14.88    1.14
  -6  11  19   17.18    1.31
  -6  11  19   14.11    1.76
  -6  11  22    8.25    1.00
  -6  11  22   10.95    1.58
  -6  11  25    0.04    0.68
  -6  11  25    0.10    1.21
  -6  11  28   13.80    1.08
   5   6 -31    0.38    1.25
   4   7  30   15.18    1.27
 -11   4  27   25.53    1.59
   4   7  27   38.03    2.46
  -7  11 -24    0.76    1.17
   4   7  24    0.87    1.60
 -11   4  24    1.42    0.90
  -7  11 -21  251.14   10.42
 -11   4  21  246.57    9.31
   4   7  21  214.48   10.18
   4   7  21  245.07   10.34
 -11   4  18  220.96    8.41
   4   7  18  204.80    9.61
   4   7  18  218.44    9.53
  -7  11 -18  206.11    9.36
   4   7  15   54.79    4.00
  -7  11 -15   61.79    3.87
 -11   4  15   65.24    2.97
   4   7  15   56.79    4.26
   4   7  12  118.39    6.31
  -7  11 -12  129.36    6.16
   4   7   9   15.45    2.37
   4   7   9   19.06    2.37
  -7  11  -9   14.24    1.97
   4   7   6   58.44    3.97
  -7  11  -6   59.33    3.01
   4   7   6   58.87    4.00
  -7  11  -6   55.80    3.63
  -7  11  -3    7.53    1.62
  -7  11  -3    6.02    0.99
   4   7   3    5.60    1.61
  -7  11   0  175.41    6.84
   4   7   0  156.76    7.50
  -7  11   0  152.72    7.42
  -7  11   3  651.25   25.08
  -7  11   3  705.12   24.50
   4   7  -3  635.26   25.15
  -7  11   6    6.01    1.14
  -7  11   9  966.69   34.63
  -7  11  12  456.05   16.83
  -7  11  15    6.65    0.76
  -7  11  15    7.05    1.10
  -7  11  18   59.02    3.15
  -7  11  18   58.88    2.72
  -7  11  21   47.42    2.72
  -7  11  21   41.05    2.18
  -7  11  24   -0.66    1.25
  -7  11  24    0.06    0.61
  -7  11  27   26.69    1.52
  -7  11  27   28.03    1.94
   4   7 -30   -0.74    1.60
  -7  11  30   -0.15    0.65
   3   8  28    5.96    1.23
   3   8  25    1.99    1.34
 -11   3  25   -0.42    0.84
   3   8  22   84.54    4.73
   3   8  22   91.29    4.70
 -11   3  19  160.21    6.28
   3   8  19  148.32    7.27
  -8  11 -19  143.42    6.93
   3   8  19  152.43    7.02
  -8  11 -16   17.17    1.99
 -11   3  16   20.24    1.52
   3   8  16   20.45    2.39
   3   8  16   17.32    2.40
   3   8  13  214.13    9.54
   3   8  13  221.23    9.50
  -8  11 -13  220.46    9.30
  -8  11 -10    4.01    1.32
   3   8  10    3.56    1.59
   3   8  10    3.08    1.75
   3   8   7   22.85    2.53
   3   8   7   19.67    2.42
  -8  11  -7   22.58    2.19
  -8  11  -4   18.64    1.40
   3   8   4   13.81    2.12
  -8  11  -4   14.70    1.88
  -8  11  -1   30.25    1.86
   3   8   1   26.23    2.58
  -8  11  -1   26.77    2.31
  -8  11   2   63.15    2.94
   3   8  -2   52.01    3.66
  -8  11   2   54.47    3.28
   3   8  -2   54.56    3.64
  -8  11   5   33.82    2.01
   3   8  -5   26.90    2.51
  -8  11   5   30.16    1.72
  -8  11   8  273.78   10.32
  -8  11  11  278.58   10.51
  -8  11  14    6.31    1.00
  -8  11  17   38.56    2.28
  -8  11  20   23.18    1.82
  -8  11  20   25.01    1.49
  -8  11  23    6.80    0.84
  -8  11  23    4.46    1.22
  -8  11  26   16.36    1.49
  -8  11  29   20.63    1.38
   2   9  29    8.96    1.02
   2   9  26   12.00    1.45
   2   9  26    8.59    1.19
   2   9  23    9.54    1.58
   2   9  23    8.07    1.57
 -11   2  20   15.35    1.41
   2   9  20   13.80    1.87
   2   9  20   13.97    1.98
 -11   2  17   20.91    1.59
   2   9  17   19.97    2.39
   2   9  17   18.08    2.27
   2   9  14  189.44    7.94
  -9  11 -14  170.40    7.68
   2   9  14  183.14    8.35
  -9  11 -11   15.88    1.72
   2   9  11    9.63    1.90
  -9  11  -8   12.94    1.62
   2   9   8    8.45    1.93
   2   9   5   -0.73    1.50
  -9  11  -5    0.32    1.04
   2   9   2  183.39    8.47
  -9  11  -2  187.08    7.93
   2   9   2  195.73    8.97
  -9  11   1  299.34   12.16
   2   9  -1  288.55   12.90
   2   9  -1  291.59   12.81
   2   9  -4   27.19    2.59
   2   9  -7    0.60    1.40
  -9  11   7    0.11    0.48
  -9  11  10    2.37    0.67
  -9  11  13  145.33    5.84
  -9  11  16   44.13    2.40
  -9  11  19    6.63    1.09
  -9  11  22    0.36    0.92
  -9  11  25   -0.09    0.81
  -9  11  28   17.67    1.24
   1  10  27   21.01    1.52
   1  10  27   25.57    1.66
   1  10  24   -0.03    1.08
   1  10  21    0.13    1.32
   1  10  18   12.86    1.90
   1  10  15   88.90    4.87
   1  10  12    4.46    1.58
   1  10   9   31.00    2.89
   1  10   9   33.48    2.78
 -10  11  -9   30.82    2.27
   1  10   6   12.52    1.98
 -10  11  -6   15.94    1.59
   1  10   6   14.82    2.15
   1  10   6   12.59    2.18
   1  10   3    3.26    1.70
   1  10   3    8.00    1.93
   1  10   0  354.98   14.11
   1  10   0  331.25   14.21
   1  10  -3  173.54    8.19
   1  10  -3  171.18    8.12
   1  10  -6    1.62    1.66
   1  10  -6    6.65    2.15
   1  10  -9   22.39    2.88
   1  10 -12  168.74    8.78
 -10  11  12  179.19    6.90
 -10  11  15   78.81    3.54
 -10  11  18   67.44    3.19
 -10  11  21   33.62    1.99
 -10  11  24    5.22    0.89
   1  10 -27   -0.08    1.16
 -10  11  27   -0.09    0.59
   0  11  25   -0.08    0.92
   0  11  22    2.58    1.11
   0  11  22    3.41    1.23
   0  11  19   19.76    2.04
   0  11  19   20.20    1.87
   0  11  16    7.23    1.54
   0  11  16    7.71    1.76
   0  11  13    7.39    1.56
   0  11  13    6.15    1.83
   0  11  13    8.78    1.63
   0  11  10   20.34    2.12
   0  11  10   15.87    2.12
   0  11   7    9.27    1.75
   0  11   7    8.67    1.96
   0  11   4   99.05    5.35
   0  11   4   95.12    4.92
   0  11   4   90.71    5.37
   0  11   1    7.60    2.07
   0  11   1    5.14    1.89
   0  11  -2   45.07    3.63
   0  11  -2   44.94    3.59
   0  11  -5    6.86    1.96
   0  11  -8   40.85    3.64
   0  11 -11   10.70    2.56
 -11  11  14   53.33    2.52
   0  11 -14   44.72    4.13
   0  11 -17    1.51    2.23
 -11  11  17    5.34    0.88
 -11  11  20   23.43    1.53
   0  11 -20   18.63    2.88
   0  11 -23    2.68    1.54
 -11  11  23    4.38    0.79
   0  11 -26    1.59    1.65
   0  11 -26    3.32    1.16
 -11  11  26    1.85    0.51
  -1  12 -25    2.57    1.47
  -1  12 -25    1.89    1.00
  -1  12 -22   19.73    2.08
 -12  11  22   20.09    1.21
  -1  12 -19   12.64    2.09
  -1  12 -16   13.34    2.74
  -1  12 -16   11.60    2.22
  -1  12 -13   25.13    3.04
  -1  12 -13   26.03    3.34
  -1  12 -10  430.66   17.39
  -1  12 -10  422.09   17.79
  -1  12  -7  115.08    6.56
  -1  12  -7  115.29    6.40
  -1  12  -4   18.72    2.59
  -1  12  -1   18.50    2.64
  -1  12  -1   16.65    2.52
  -1  12   2   23.93    2.75
  -1  12   2   20.36    2.69
  -1  12   2   26.74    2.37
  -1  12   5   53.66    3.88
  -1  12   5   48.35    3.65
  -1  12   8    1.68    1.68
  -1  12   8    1.28    1.34
  -1  12  11    2.04    1.33
  -1  12  11    3.20    1.32
  -1  12  14   18.06    2.16
  -1  12  14   18.70    1.82
  -1  12  17   42.05    2.94
  -1  12  17   46.99    2.70
  -1  12  20  145.28    6.41
  -1  12  20  151.87    6.22
  -1  12  23   10.73    1.37
  -1  12  23   12.18    1.28
  -1  12  26    1.55    0.69
  -1  12  26    1.67    0.69
  -2  12 -26    0.69    1.39
  -2  12 -23   46.25    2.86
 -12  10  23   43.16    2.00
  -2  12 -20   27.22    2.54
  -2  12 -20   26.23    3.08
 -12  10  20   31.25    1.69
  -2  12 -17    7.22    1.80
  -2  12 -14   16.91    2.46
  -2  12 -11  266.44   11.76
  -2  12 -11  283.67   12.41
  -2  12  -8  281.26   11.88
  -2  12  -8  258.66   12.22
  -2  12  -5    4.78    2.02
  -2  12  -5    0.42    1.95
  -2  12  -2    3.65    2.14
  -2  12   1    2.63    1.38
  -2  12   1    2.33    1.92
  -2  12   4  152.82    7.47
  -2  12   4  158.00    6.80
  -2  12   4  145.96    7.48
  -2  12   7   61.27    4.01
  -2  12   7   63.46    3.53
  -2  12  10    1.36    1.56
  -2  12  10    0.58    1.11
  -2  12  13    3.14    1.23
  -2  12  16   12.38    1.51
  -2  12  16   10.20    1.86
  -2  12  19  108.21    5.24
  -2  12  19  115.96    4.98
  -2  12  22   28.88    2.19
  -2  12  22   31.65    2.00
  -2  12  25    0.08    0.83
  -2  12  25    0.05    0.92
  -2  12  28    0.72    0.54
  -2  12  28    0.49    0.52
  -3  12 -27    4.80    1.41
  -3  12 -24   30.83    2.98
 -12   9  24   35.90    1.75
  -3  12 -21   30.29    2.45
  -3  12 -21   25.83    3.03
 -12   9  21   28.74    1.64
  -3  12 -18    3.24    2.24
  -3  12 -18    4.45    1.46
  -3  12 -15   28.52    3.28
  -3  12 -15   33.25    2.81
  -3  12 -12   25.07    2.67
   9   3  12   37.13    3.27
  -3  12  -9    3.25    2.36
  -3  12  -9    5.83    1.95
  -3  12  -6   38.63    3.44
  -3  12  -6   38.32    3.89
  -3  12  -3    5.94    2.09
   9   3   3    9.96    2.63
  -3  12  -3    7.59    2.33
  -3  12   0  353.06   14.20
  -3  12   0  333.50   14.61
  -3  12   3    7.01    2.08
  -3  12   3   20.32    1.88
  -3  12   6  170.53    8.00
  -3  12   6  174.86    7.29
  -3  12   6  176.89    8.16
  -3  12   9   57.68    3.62
  -3  12   9   52.20    2.97
  -3  12  12    2.80    1.48
  -3  12  12    3.49    0.98
  -3  12  15    3.98    1.08
  -3  12  18   31.14    2.05
  -3  12  21    2.63    1.01
  -3  12  21    3.49    1.37
  -3  12  24    6.15    1.05
  -3  12  24    4.95    1.23
  -3  12  27    6.91    0.86
  -3  12  27    6.88    1.01
  -4  12 -28   22.54    1.76
  -4  12 -25   11.38    1.97
 -12   8  25   11.53    0.90
  -4  12 -22   28.78    3.02
 -12   8  22   31.20    1.73
   8   4  22   32.29    2.66
  -4  12 -19   21.40    2.80
  -4  12 -19   25.46    2.27
 -12   8  19   24.06    1.52
   8   4  19   30.41    2.95
  -4  12 -16   88.96    4.71
  -4  12 -16   75.02    5.19
  -4  12 -13    1.42    1.88
  -4  12 -13   -0.37    1.34
   8   4  13    0.16    1.77
   8   4  10  104.28    6.21
  -4  12 -10  102.80    5.36
  -4  12 -10  100.55    6.14
   8   4   7  286.53   13.25
  -4  12  -7  305.10   12.43
   8   4   4    6.32    2.54
  -4  12  -4    1.07    1.69
  -4  12  -4    2.62    2.12
  -4  12  -1 1200.39   43.80
  -4  12  -1 1197.44   44.68
  -4  12   2  805.05   30.02
  -4  12   2  799.42   29.19
  -4  12   2  822.83   30.92
  -4  12   5   23.30    1.73
  -4  12   5   23.47    2.73
  -4  12   8  179.97    7.22
  -4  12  11   47.04    2.58
  -4  12  11   49.02    3.23
  -4  12  11   50.50    3.25
  -4  12  14    0.50    1.34
  -4  12  14    0.21    0.77
  -4  12  17   11.06    1.19
  -4  12  20    0.23    0.82
  -4  12  23   42.93    2.35
  -4  12  26    0.10    0.71
  -4  12  26    0.57    1.02
  -4  12  29   55.05    2.48
  -5  12 -26    0.14    1.26
 -12   7  26    0.92    0.49
  -5  12 -23   33.20    3.01
 -12   7  23   32.27    1.75
   7   5  23   31.63    2.72
  -5  12 -20   11.08    2.10
 -12   7  20   10.62    1.06
   7   5  20   11.31    2.23
  -5  12 -17   73.83    3.92
  -5  12 -17   66.72    4.62
   7   5  17   70.03    4.86
  -5  12 -14    5.42    1.32
  -5  12 -14    8.15    2.11
   7   5  14    4.87    2.10
   7   5  11   72.63    5.12
  -5  12 -11   78.99    4.17
  -5  12 -11   75.42    5.00
   7   5   8  190.18    9.69
  -5  12  -8  206.09    8.66
  -5  12  -8  200.03    9.61
  -5  12  -5   12.00    2.46
   7   5   5   14.64    2.82
  -5  12  -5   14.44    1.91
  -5  12  -2  736.43   27.38
  -5  12   1 1113.56   39.22
  -5  12   1 1062.64   38.31
   7   5  -1 1082.72   39.62
  -5  12   1 1044.20   40.16
  -5  12   4    9.82    1.07
  -5  12   4   12.89    1.87
  -5  12   4   10.46    2.21
  -5  12   7  166.40    6.54
  -5  12   7  164.30    7.35
  -5  12  10   75.00    3.92
  -5  12  10   73.28    3.31
  -5  12  13   14.83    1.74
  -5  12  13   14.59    1.18
  -5  12  16    5.55    0.87
  -5  12  16    7.98    1.48
  -5  12  19   19.20    1.96
  -5  12  19   17.93    1.37
  -5  12  22    8.80    1.06
  -5  12  25    6.22    0.92
  -5  12  28   25.88    1.43
   6   6  27    0.53    0.92
  -6  12 -24   21.91    2.34
 -12   6  24   24.03    1.46
  -6  12 -21    2.07    1.68
   6   6  21    1.55    1.89
 -12   6  21    3.89    0.83
  -6  12 -18   42.77    3.53
   6   6  18   53.34    3.99
  -6  12 -15   10.16    1.35
  -6  12 -15    8.89    1.99
   6   6  15    7.88    2.38
  -6  12 -12    6.17    1.20
  -6  12 -12    7.13    1.93
   6   6  12    7.19    2.35
  -6  12  -9    5.23    1.23
  -6  12  -9    5.83    2.08
   6   6   9    6.62    2.47
   6   6   6    6.11    2.33
  -6  12  -6    7.29    1.27
  -6  12  -6    7.65    2.12
  -6  12  -3  112.52    5.29
  -6  12  -3  110.85    6.29
  -6  12   0  131.13    5.86
   6   6   0  121.09    6.34
  -6  12   3   42.87    2.82
  -6  12   6  149.95    6.54
  -6  12   6  145.33    7.09
  -6  12   9    0.66    0.99
  -6  12   9    0.61    1.09
  -6  12   9    0.07    0.45
  -6  12  12    0.65    0.50
  -6  12  12    0.52    0.99
  -6  12  15    0.51    0.58
  -6  12  15    0.74    1.00
  -6  12  18   28.75    2.24
  -6  12  18   29.31    1.69
  -6  12  21   13.97    1.66
  -6  12  21   12.78    1.12
  -6  12  24    0.75    0.64
  -6  12  24    1.26    1.19
  -6  12  27    3.43    0.66
  -6  12  27    3.73    1.10
   5   7  28    2.61    0.82
 -12   5  25   17.29    1.18
   5   7  25   22.82    2.04
  -7  12 -22    3.29    1.51
   5   7  22    0.31    1.58
 -12   5  22    0.63    0.70
  -7  12 -19   49.38    3.48
 -12   5  19   48.97    2.44
   5   7  19   52.33    3.63
  -7  12 -16    2.73    1.57
   5   7  16    2.56    1.86
   5   7  16    1.78    1.57
   5   7  13    1.96    1.80
  -7  12 -13    3.63    1.67
   5   7  10  124.07    6.61
  -7  12 -10  124.78    5.45
  -7  12 -10  125.30    6.43
  -7  12  -7  172.45    7.25
   5   7   7  164.66    8.30
  -7  12  -4   21.93    1.81
   5   7   4   19.48    2.38
  -7  12  -4   22.44    2.60
  -7  12  -1   13.30    1.48
  -7  12  -1   11.22    2.03
   5   7   1    9.47    1.88
   5   7  -2  346.37   14.65
  -7  12   2  338.34   14.59
  -7  12   5  335.01   12.86
  -7  12   8   46.76    2.72
  -7  12   8   41.36    2.44
  -7  12  11  107.43    4.72
  -7  12  14    0.24    0.46
  -7  12  14    0.59    0.86
  -7  12  17    1.46    0.56
  -7  12  17    1.50    1.06
  -7  12  20   15.90    1.66
  -7  12  20   14.84    1.16
  -7  12  23    4.99    0.74
  -7  12  23    4.70    1.25
  -7  12  26    5.13    0.68
  -7  12  26    5.22    1.11
   5   7 -29    0.68    1.23
  -7  12  29    0.39    0.61
   4   8  26    9.26    1.38
   4   8  23    0.61    1.36
  -8  12 -20   34.07    2.64
 -12   4  20   32.33    1.82
   4   8  20   30.12    2.54
   4   8  20   32.07    2.73
  -8  12 -17    0.75    1.24
   4   8  17    0.21    1.76
   4   8  17    0.75    1.50
   4   8  14   31.54    2.99
  -8  12 -14   29.67    2.61
   4   8  14   34.15    3.06
  -8  12 -11    9.40    1.76
   4   8  11   11.33    2.27
   4   8   8  105.45    5.78
   4   8   8  101.53    5.68
  -8  12  -8  103.49    5.45
  -8  12  -5   22.06    1.67
   4   8   5   23.64    2.55
   4   8   5   18.82    2.54
  -8  12  -5   19.89    2.34
  -8  12  -2    9.70    1.18
   4   8   2    6.22    1.68
  -8  12  -2    7.32    1.71
  -8  12   1   60.86    2.98
   4   8  -1   51.21    3.66
  -8  12   1   53.29    3.46
  -8  12   4  243.73    9.30
   4   8  -4  221.12   10.10
  -8  12   4  236.87    9.05
  -8  12   7    2.30    0.74
   4   8  -7    1.45    1.37
  -8  12   7    2.66    0.93
  -8  12  10  158.78    6.39
  -8  12  13    4.70    0.91
  -8  12  16    1.88    0.90
  -8  12  19   -0.94    0.95
  -8  12  22    0.93    1.03
  -8  12  25    8.49    1.19
   4   8 -28   10.15    1.84
  -8  12  28    8.61    0.92
   3   9  27    1.31    0.87
   3   9  24    2.57    1.21
   3   9  21    3.71    1.50
   3   9  21    3.80    1.35
  -9  12 -18    3.08    1.14
   3   9  18    2.09    1.51
   3   9  18    3.00    1.52
   3   9  15   51.05    3.33
  -9  12 -15   43.27    2.95
   3   9  15   48.64    3.44
   3   9  12   71.40    4.23
   3   9  12   80.04    4.40
  -9  12 -12   68.76    3.97
   3   9   9    7.15    1.76
  -9  12  -9    6.48    1.49
   3   9   9    6.78    1.96
   3   9   6    5.29    1.91
   3   9   6    4.38    1.77
  -9  12  -6    4.93    1.46
  -9  12  -3  132.04    5.24
  -9  12  -3  122.93    5.89
  -9  12   0  424.85   16.69
   3   9   0  398.15   17.18
  -9  12   3   37.20    2.08
   3   9  -3   30.72    2.92
   3   9  -3   29.61    2.77
   3   9  -6   21.19    2.45
  -9  12   6   22.57    1.40
   3   9  -9   -1.16    1.59
  -9  12   9    0.91    0.57
  -9  12  12   21.78    1.45
  -9  12  15   23.78    1.61
  -9  12  18   -0.10    0.76
  -9  12  21    1.73    0.90
  -9  12  24    1.49    0.84
   3   9 -27   19.83    2.28
  -9  12  27   20.92    1.32
   2  10  28   28.16    1.54
   2  10  25   -0.08    0.97
   2  10  25    0.16    0.76
   2  10  22    3.86    1.27
   2  10  22    3.53    1.21
   2  10  19    3.41    1.37
   2  10  19    3.27    1.41
   2  10  16    9.36    1.91
   2  10  16   10.97    1.90
   2  10  13   82.55    4.37
 -10  12 -13   71.59    3.93
   2  10  13   81.45    4.72
   2  10  10   50.21    3.46
 -10  12 -10   50.01    3.05
   2  10   7   65.24    4.08
 -10  12  -7   50.56    3.21
   2  10   4   40.99    3.35
 -10  12  -4   48.35    2.90
   2  10   1  948.73   36.73
 -10  12  -1 1021.26   36.01
   2  10   1  996.28   37.11
   2  10  -2  642.78   24.20
   2  10  -2  616.81   24.20
   2  10  -5   -0.67    1.76
   2  10  -5    0.20    1.52
   2  10  -8   85.15    5.17
   2  10 -11  123.14    6.70
 -10  12  11  118.94    4.86
   2  10 -14   58.48    4.59
 -10  12  14   60.12    2.84
   2  10 -17    3.57    2.36
 -10  12  17    6.27    0.94
   2  10 -20    4.35    2.18
 -10  12  20    4.37    0.85
   2  10 -23   18.11    2.59
 -10  12  23   15.82    1.24
   2  10 -26    0.33    1.52
   2  10 -26   -0.18    1.39
 -10  12  26    0.07    0.54
   1  11  26   -0.08    0.54
   1  11  23    8.81    1.25
   1  11  20   10.04    1.54
   1  11  17    5.82    1.51
   1  11  14   18.66    2.08
   1  11  14   16.39    2.15
   1  11  11   13.53    1.97
   1  11  11   11.19    1.91
   1  11   8    8.22    1.86
 -11  12  -8    8.92    1.18
   1  11   8    8.85    1.80
   1  11   5    0.14    1.52
   1  11   5    0.69    1.58
   1  11   5   -0.72    1.37
 -11  12  -5    2.02    0.89
   1  11   2  331.34   14.02
   1  11   2  335.59   13.77
   1  11  -1  525.01   21.21
   1  11  -1  560.15   21.21
   1  11  -4    8.72    2.31
   1  11  -4   10.96    2.09
   1  11  -7   58.59    4.24
   1  11  -7   46.93    3.85
   1  11 -10   17.52    2.73
   1  11 -13   32.23    3.51
   1  11 -16    0.85    2.23
 -11  12  16    4.01    0.75
   1  11 -19   34.21    3.51
 -11  12  19   38.95    2.04
   1  11 -22    1.66    1.85
   1  11 -22    1.65    1.66
 -11  12  22    2.62    0.67
   1  11 -25    4.48    1.61
   1  11 -25    5.52    1.40
 -11  12  25    4.42    0.58
   0  12  27    1.15    0.43
   0  12  24    7.11    0.97
   0  12  24    5.69    0.94
   0  12  21   29.36    2.05
   0  12  21   29.58    1.92
   0  12  18   66.25    3.63
   0  12  18   70.07    3.45
   0  12  15    1.11    1.37
   0  12  15    1.60    1.25
   0  12  12    8.63    1.61
   0  12  12    9.89    1.50
   0  12   9    3.02    1.58
   0  12   9    1.97    1.38
   0  12   6    1.15    1.46
   0  12   6   -0.18    1.48
   0  12   3   11.47    1.81
   0  12   3    9.93    2.06
   0  12   3   10.01    1.95
   0  12   0   26.62    2.89
   0  12   0   23.36    2.67
   0  12  -3   25.58    2.84
   0  12  -3   17.94    2.51
   0  12  -6   34.46    3.23
   0  12  -9   56.25    4.38
   0  12 -12   10.90    2.67
   0  12 -12   10.66    2.59
   0  12 -15    0.92    2.12
   0  12 -15    0.67    1.84
   0  12 -18    1.75    2.14
   0  12 -18    1.65    1.72
   0  12 -21    0.26    1.73
   0  12 -21   -0.98    1.49
   0  12 -24    2.88    1.18
   0  12 -27    1.32    1.11
  -1  13 -26    5.42    1.11
  -1  13 -23    1.95    0.92
  -1  13 -20   10.08    2.14
  -1  13 -20    9.17    1.62
  -1  13 -17   18.84    2.27
  -1  13 -17   19.08    2.62
  -1  13 -14    1.75    2.09
  -1  13 -14    2.12    1.80
  -1  13 -11  227.80   10.49
  -1  13 -11  243.16   10.99
  -1  13  -8  168.13    8.33
  -1  13  -8  173.40    8.63
  -1  13  -5   56.43    4.25
  -1  13  -2   91.59    5.37
  -1  13  -2   88.44    5.34
  -1  13   1    3.84    1.47
  -1  13   1    5.01    1.76
  -1  13   1    3.78    1.98
  -1  13   4    0.21    1.32
  -1  13   4    0.81    1.63
  -1  13   4    0.92    1.32
  -1  13   7    8.98    1.74
  -1  13   7    8.02    1.53
  -1  13  10    4.01    1.47
  -1  13  10    3.94    1.37
  -1  13  13   54.90    3.48
  -1  13  13   58.72    3.18
  -1  13  16    1.04    1.05
  -1  13  16    1.92    1.41
  -1  13  19  135.39    5.86
  -1  13  19  141.28    5.70
  -1  13  22   32.98    1.98
  -1  13  22   34.30    1.89
  -1  13  25    3.16    0.57
  -1  13  25    2.49    0.57
  -2  13 -24    4.93    0.84
  -2  13 -24    4.29    1.39
  -2  13 -21   43.18    2.75
  -2  13 -21   38.36    3.33
  -2  13 -18   44.02    3.11
  -2  13 -15   -0.24    2.27
  -2  13 -15    1.08    1.50
  -2  13 -12  252.47   11.34
  -2  13 -12  284.69   12.24
  -2  13  -9  519.90   20.40
  -2  13  -9  515.39   20.98
  -2  13  -6   19.95    2.73
  -2  13  -6   16.21    2.86
  -2  13  -3   50.88    4.03
  -2  13   0    3.05    1.34
  -2  13   0    2.15    1.74
  -2  13   3    1.13    1.18
  -2  13   3    2.09    1.90
  -2  13   3    3.14    1.61
  -2  13   6    3.56    1.64
  -2  13   6   -0.52    1.19
  -2  13   9    1.23    1.56
  -2  13   9    0.36    1.12
  -2  13  12   58.92    3.14
  -2  13  12   56.02    3.47
  -2  13  15   14.58    1.51
  -2  13  15   10.40    1.84
  -2  13  18  117.44    5.39
  -2  13  18  123.53    5.15
  -2  13  21  128.43    5.56
  -2  13  21  134.79    5.40
  -2  13  24    7.23    0.89
  -2  13  24    5.64    0.96
  -3  13 -25    1.43    1.28
  -3  13 -22   45.60    2.63
  -3  13 -22   35.69    3.08
  -3  13 -19   11.67    1.73
  -3  13 -19   10.32    2.29
  -3  13 -16    0.83    1.36
  -3  13 -13   99.13    5.34
  -3  13 -10  186.52    8.74
  -3  13 -10  198.69    9.56
  -3  13  -7    9.63    2.26
  -3  13  -7    8.83    2.65
  -3  13  -4   52.67    3.99
  -3  13  -4   49.26    4.28
  10   3   1    5.06    2.13
  -3  13  -1    4.36    1.42
  -3  13  -1    1.17    1.80
  -3  13  -1    4.01    1.93
  -3  13   2   11.21    2.30
  -3  13   2   14.35    1.69
  -3  13   5   18.69    1.74
  -3  13   5   12.60    2.02
  -3  13   8    4.95    1.77
  -3  13   8    5.25    1.16
  -3  13  11    0.91    1.67
  -3  13  11    1.40    1.47
  -3  13  11    0.94    0.92
  -3  13  14    4.35    1.09
  -3  13  17   28.35    1.91
  -3  13  20   62.01    3.31
  -3  13  20   63.17    3.03
  -3  13  23    2.33    0.81
  -3  13  23    2.38    1.02
  -3  13  26   -0.24    0.52
  -3  13  26    0.27    0.62
  -4  13 -26    1.17    1.09
  -4  13 -23   22.26    2.40
  -4  13 -20    1.75    1.15
  -4  13 -20    0.45    1.68
  -4  13 -17   45.93    2.96
  -4  13 -17   36.61    3.49
  -4  13 -14   39.38    2.99
  -4  13 -14   36.18    3.66
  -4  13 -11    1.82    1.38
   9   4  11    0.28    1.52
   9   4   8   93.29    5.43
  -4  13  -8   81.30    4.82
  -4  13  -5  212.69    9.62
   9   4   5  231.97   10.27
  -4  13  -5  205.44   10.36
   9   4   2   13.45    2.47
  -4  13  -2   12.23    1.54
  -4  13  -2   11.68    2.29
  -4  13  -2   12.28    2.71
  -4  13   1  188.35    8.68
  -4  13   1  191.61    7.82
  -4  13   1  187.98    9.31
  -4  13   4    0.07    1.54
  -4  13   4    2.89    1.77
  -4  13   4    0.95    0.92
  -4  13   7   26.90    1.88
  -4  13  10    3.02    1.57
  -4  13  10    4.03    0.93
  -4  13  13    7.30    1.64
  -4  13  13    7.24    1.03
  -4  13  16   10.39    1.13
  -4  13  16   11.64    1.77
  -4  13  19    6.81    1.03
  -4  13  22   15.57    1.30
  -4  13  25   10.06    1.18
  -4  13  25   10.55    0.96
  -5  13 -24   12.05    1.90
  -5  13 -21    1.41    1.52
   8   5  21    2.10    1.28
  -5  13 -18   78.70    3.96
  -5  13 -18   68.01    4.52
   8   5  18   76.72    4.51
  -5  13 -15   37.16    2.59
  -5  13 -15   31.79    3.19
   8   5  15   36.95    3.28
  -5  13 -12    4.24    1.30
  -5  13 -12    3.70    2.12
   8   5  12    2.87    1.85
   8   5   9   79.15    5.22
  -5  13  -9   86.31    4.58
  -5  13  -9   84.92    5.56
  -5  13  -6  288.93   11.48
   8   5   6  256.86   12.06
   8   5   3    1.31    2.03
  -5  13  -3    1.39    1.52
  -5  13   0  393.98   15.08
  -5  13   0  371.03   14.03
  -5  13   0  362.74   15.97
  -5  13   3   61.56    4.02
  -5  13   3   70.35    3.26
  -5  13   3   71.70    4.70
  -5  13   6   33.66    1.99
  -5  13   6   38.05    2.85
  -5  13   6   36.92    3.01
  -5  13   9    8.45    0.98
  -5  13  12    2.26    1.27
  -5  13  12    6.26    0.87
  -5  13  15    5.33    0.89
  -5  13  15    6.58    1.49
  -5  13  18   12.12    1.65
  -5  13  18   13.85    1.16
  -5  13  21    9.55    1.04
  -5  13  21    9.35    1.45
  -5  13  24   40.72    2.03
   7   6  25    5.20    0.97
  -6  13 -25    5.14    1.26
  -6  13 -22    6.44    1.74
   7   6  22    7.72    1.59
  -6  13 -19    9.97    1.97
   7   6  19   10.36    1.96
  -6  13 -16    4.79    1.12
  -6  13 -16    4.44    1.86
   7   6  16    3.77    1.87
  -6  13 -13    0.35    0.93
  -6  13 -13    1.33    1.83
   7   6  13    1.70    1.87
  -6  13 -10   22.24    1.97
  -6  13 -10   25.24    3.03
   7   6  10   18.52    2.82
   7   6   7   12.89    2.54
  -6  13  -7   16.25    1.80
  -6  13  -7   11.23    2.54
   7   6   4    5.42    2.26
  -6  13  -4    7.61    1.61
  -6  13  -4    5.97    2.38
  -6  13  -1   99.55    5.04
  -6  13   2   41.58    2.91
   7   6  -2   40.56    3.19
  -6  13   5   37.41    2.72
  -6  13   5   36.04    3.07
  -6  13   8   20.37    2.01
  -6  13   8   21.62    1.32
  -6  13  11    1.94    1.12
  -6  13  11    3.33    0.63
  -6  13  14    0.39    0.54
  -6  13  14    0.50    1.07
  -6  13  17   42.04    2.57
  -6  13  17   40.13    2.06
  -6  13  20   50.81    2.79
  -6  13  20   44.98    2.27
  -6  13  23    3.79    0.69
  -6  13  23    3.92    1.10
  -6  13  26    3.37    0.57
  -6  13  26    4.05    0.93
   6   7  26    1.20    0.70
   6   7  23   23.63    2.06
  -7  13 -23   21.50    2.12
  -7  13 -20    7.19    1.74
   6   7  20    7.19    1.78
  -7  13 -17    5.11    1.72
   6   7  17    6.98    2.00
  -7  13 -14    0.19    1.54
   6   7  14    0.62    1.89
  -7  13 -11  243.77    9.79
  -7  13 -11  228.99   10.75
  -7  13  -8  244.35    9.99
   6   7   8  251.85   11.13
  -7  13  -8  266.37   11.27
  -7  13  -5    1.06    1.86
   6   7   5    1.90    2.08
  -7  13  -5    1.48    1.03
  -7  13  -2   11.59    2.53
   6   7   2   13.65    2.11
  -7  13   1   34.94    2.42
   6   7  -1   30.43    2.82
  -7  13   1   30.16    3.08
  -7  13   4  135.37    6.03
  -7  13   7   20.27    1.85
  -7  13   7   18.80    1.62
  -7  13  10    0.40    0.83
  -7  13  13   15.26    1.47
  -7  13  16    6.98    0.76
  -7  13  16    8.07    1.23
  -7  13  19  150.04    6.12
  -7  13  19  143.10    5.65
  -7  13  22   51.34    2.66
  -7  13  22   46.36    2.19
  -7  13  25    0.81    0.83
  -7  13  28    4.07    0.64
   5   8  27   -0.16    0.57
   5   8  24   22.09    1.84
  -8  13 -21   15.55    1.86
   5   8  21   17.83    2.04
  -8  13 -18    3.95    1.39
   5   8  18    6.01    1.72
  -8  13 -15    0.55    1.36
   5   8  15   -0.22    1.81
   5   8  15   -0.64    1.41
   5   8  12  180.40    8.10
  -8  13 -12  168.96    7.86
   5   8  12  162.57    8.01
   5   8   9  406.90   16.22
  -8  13  -9  397.38   16.14
  -8  13  -6   36.38    2.21
   5   8   6   32.63    2.99
   5   8   6   28.28    3.07
  -8  13  -6   31.58    3.05
  -8  13  -3   32.28    2.14
   5   8   3   28.36    2.77
  -8  13  -3   29.55    3.01
  -8  13   0   53.54    2.92
   5   8   0   47.19    3.58
  -8  13   0   57.95    3.76
  -8  13   3  141.26    5.82
  -8  13   3  126.16    6.28
   5   8  -3  127.01    6.62
  -8  13   6   27.99    2.02
   5   8  -6   29.39    2.64
  -8  13   6   27.60    1.78
   5   8  -9   11.99    2.00
  -8  13   9   12.03    1.17
  -8  13  12    1.81    0.71
  -8  13  15    0.58    0.80
  -8  13  18   68.89    3.29
  -8  13  21   90.64    4.03
   5   8 -24   14.71    2.18
  -8  13  24   13.36    1.25
   5   8 -27   -0.04    1.16
  -8  13  27   -0.02    0.59
   4   9  25    8.78    1.20
   4   9  22   20.62    1.93
  -9  13 -19    0.04    1.02
   4   9  19    1.17    1.34
   4   9  19    0.71    1.11
   4   9  16   -0.09    1.56
  -9  13 -16    2.78    1.17
   4   9  16    1.86    1.38
   4   9  13   16.86    2.29
  -9  13 -13   17.65    1.97
   4   9  13   16.89    2.38
   4   9  10   56.26    3.55
   4   9  10   53.57    3.79
  -9  13 -10   52.17    3.50
   4   9   7    1.58    1.80
   4   9   7    2.04    1.52
  -9  13  -7    0.06    1.40
  -9  13  -4   10.85    1.14
   4   9   4   10.14    2.14
  -9  13  -4   10.25    1.87
   4   9   4    9.25    1.89
  -9  13  -1   64.45    3.88
  -9  13  -1   71.50    3.30
   4   9   1   61.51    4.18
  -9  13   2   24.78    1.74
  -9  13   2   23.80    2.22
   4   9  -2   21.51    2.51
   4   9  -5   13.46    1.96
   4   9  -5   13.85    2.42
  -9  13   5   14.26    1.11
   4   9  -8    1.52    1.54
  -9  13   8    1.67    0.64
   4   9 -11    2.36    1.79
  -9  13  11    0.49    0.62
   4   9 -14    5.43    2.19
  -9  13  14    2.52    0.75
  -9  13  17    3.37    0.85
  -9  13  20   13.80    1.29
   4   9 -23   -1.76    1.79
  -9  13  23    0.86    0.77
   4   9 -26    2.32    1.37
  -9  13  26    2.72    0.64
   3  10  26    0.42    0.72
   3  10  23   24.94    1.81
   3  10  20   -0.70    1.10
   3  10  20    0.10    0.96
   3  10  17   12.16    1.76
   3  10  17    9.69    1.62
   3  10  14   -0.26    1.51
 -10  13 -14    0.04    0.89
   3  10  14    0.04    1.45
   3  10  11   22.03    2.15
   3  10  11   23.44    2.47
 -10  13 -11   18.70    1.89
   3  10   8   99.42    5.32
   3  10   8  100.16    5.29
 -10  13  -8   94.04    4.85
   3  10   5   46.41    3.44
 -10  13  -5   42.76    2.91
   3  10   2  273.67   12.21
 -10  13  -2  306.85   11.73
   3  10  -1  624.27   24.42
   3  10  -1  654.90   24.60
   3  10  -4   18.43    2.28
   3  10  -4   16.74    2.53
   3  10  -7   41.68    3.63
   3  10  -7   39.72    3.29
   3  10 -10   39.19    3.48
 -10  13  10   36.19    1.90
   3  10 -13    7.46    2.19
 -10  13  13    8.72    0.91
   3  10 -16    1.72    1.97
 -10  13  16    2.02    0.71
   3  10 -19    2.08    2.01
 -10  13  19    1.74    0.73
   3  10 -22   17.79    2.37
 -10  13  22   17.69    1.26
   3  10 -25    4.91    1.54
   3  10 -25    4.95    1.55
 -10  13  25    3.98    0.63
   2  11  24   17.62    1.21
   2  11  24   22.87    1.52
   2  11  21    3.14    1.06
   2  11  21    4.11    1.04
   2  11  18   19.53    1.87
   2  11  15    0.45    1.24
   2  11  12   21.23    2.08
   2  11   9   74.84    4.31
 -11  13  -9   72.10    3.67
   2  11   6   61.50    4.02
 -11  13  -6   60.12    3.25
   2  11   3  138.59    6.89
   2  11   3  139.38    6.62
   2  11   0  753.86   27.80
   2  11   0  713.58   27.88
   2  11  -3  102.21    5.80
   2  11  -3  107.42    5.72
   2  11  -6   92.41    5.46
   2  11  -6  102.00    5.70
   2  11  -9   91.55    5.57
   2  11  -9   91.37    5.51
   2  11 -12   16.73    2.75
   2  11 -15    5.03    2.24
 -11  13  15    5.19    0.75
   2  11 -18   33.35    3.29
 -11  13  18   31.94    1.76
   2  11 -21    3.79    1.95
   2  11 -21    1.24    1.60
 -11  13  21    2.64    0.64
   2  11 -24   20.19    2.05
   2  11 -24   20.56    2.26
 -11  13  24   20.20    1.09
   1  12  22    8.76    1.04
   1  12  19   21.26    1.76
   1  12  16    8.09    1.45
   1  12  16    8.19    1.52
   1  12  13    1.19    1.45
   1  12  13   -0.04    1.25
   1  12  10    1.09    1.34
   1  12  10    0.32    1.36
   1  12   7    3.26    1.53
   1  12   7    0.74    1.52
   1  12   4   11.45    1.95
   1  12   4   12.11    2.09
   1  12   4   11.06    1.62
   1  12   1  139.63    6.79
   1  12   1  139.17    6.47
   1  12   1  130.34    6.70
   1  12  -2   12.67    2.12
   1  12  -2   13.57    2.38
   1  12  -5  153.78    7.35
   1  12  -5  133.72    7.13
   1  12  -8   65.13    4.56
   1  12  -8   55.63    4.17
   1  12 -11    6.51    2.25
   1  12 -14   -0.16    2.01
   1  12 -14   -0.69    2.20
   1  12 -17   23.53    2.78
   1  12 -17   26.28    3.01
   1  12 -20   14.06    2.34
   1  12 -20   15.41    2.11
   1  12 -23    1.59    1.38
   1  12 -23    3.06    1.24
   1  12 -26   -0.44    0.86
   0  13  23    6.71    0.80
   0  13  23    8.22    0.83
   0  13  20   19.15    1.53
   0  13  20   19.93    1.44
   0  13  17   15.42    1.64
   0  13  17   16.95    1.48
   0  13  14    1.05    1.36
   0  13  14   -0.24    1.10
   0  13  11   11.54    1.62
   0  13  11   10.21    1.64
   0  13   8   46.76    3.34
   0  13   8   53.65    3.15
   0  13   5    9.90    1.74
   0  13   5    8.73    1.85
   0  13   2    0.35    1.32
   0  13   2    1.27    1.57
   0  13   2    0.91    1.28
   0  13  -1   28.19    2.90
   0  13  -1   29.98    2.55
   0  13  -1   23.59    2.70
   0  13  -4  169.49    7.85
   0  13  -4  144.08    7.52
   0  13  -7    9.03    2.16
   0  13 -10   36.33    3.53
   0  13 -13    2.09    2.18
   0  13 -13    0.44    1.73
   0  13 -16   -0.35    1.72
   0  13 -16    0.61    1.70
   0  13 -19    9.76    2.12
   0  13 -19   11.02    1.78
   0  13 -22    3.11    1.12
   0  13 -22    3.89    1.44
   0  13 -25    1.78    0.85
  -1  14 -21    1.25    0.82
  -1  14 -21    1.34    1.22
  -1  14 -18    2.42    1.24
  -1  14 -18    2.28    1.65
  -1  14 -15   11.04    2.12
  -1  14 -15   14.45    1.98
  -1  14 -12   18.82    2.42
  -1  14 -12   14.30    2.45
  -1  14  -9   94.35    5.30
  -1  14  -9   93.08    5.60
  -1  14  -6    1.95    1.86
  -1  14  -3   73.23    3.99
  -1  14  -3   67.56    4.47
  -1  14   0    8.78    1.58
  -1  14   0    9.23    2.18
  -1  14   0    7.38    1.73
  -1  14   3    0.75    1.27
  -1  14   3    0.29    1.64
  -1  14   3    1.60    1.20
  -1  14   6   22.46    2.33
  -1  14   6   25.29    2.10
  -1  14   9   29.45    2.14
  -1  14   9   27.04    2.31
  -1  14  12    2.67    1.42
  -1  14  12    4.24    1.22
  -1  14  15    6.90    1.12
  -1  14  15    6.03    1.35
  -1  14  18   16.62    1.43
  -1  14  18   17.41    1.33
  -1  14  21    8.14    0.90
  -1  14  21    8.80    0.84
  -2  14 -22    1.55    0.77
  -2  14 -19   23.19    1.95
  -2  14 -16   32.82    2.58
  -2  14 -16   30.97    3.07
  -2  14 -13    9.14    1.84
  -2  14 -13    9.84    2.41
  -2  14 -10  186.84    8.66
  -2  14 -10  191.23    9.31
  -2  14  -7   27.89    3.04
  -2  14  -7   28.26    3.22
  -2  14  -4   47.15    3.83
  -2  14  -4   41.10    3.75
  -2  14  -1   15.23    1.79
  -2  14  -1   11.61    2.20
  -2  14   2    3.92    1.39
  -2  14   2    4.61    2.03
  -2  14   2    2.57    1.50
  -2  14   5   12.65    1.61
  -2  14   5   13.43    2.21
  -2  14   8    4.43    1.66
  -2  14   8    4.24    1.21
  -2  14  11   44.70    2.58
  -2  14  11   41.61    2.82
  -2  14  14   85.38    4.39
  -2  14  14   93.37    4.13
  -2  14  17    9.32    1.12
  -2  14  17    7.91    1.32
  -2  14  20   78.98    3.62
  -2  14  20   82.72    3.49
  -2  14  23   12.45    0.99
  -2  14  23   12.62    0.90
  -3  14 -23    2.62    1.29
  -3  14 -20   11.01    1.37
  -3  14 -20    8.66    1.86
  -3  14 -17   13.10    1.74
  -3  14 -14    1.14    1.32
  -3  14 -11  103.35    5.51
  -3  14 -11  112.46    6.41
  -3  14  -8   56.00    3.94
  -3  14  -8   58.64    4.63
  -3  14  -5   14.95    2.91
  -3  14  -5   11.81    2.37
  -3  14  -2   19.42    2.79
  -3  14  -2   21.42    1.97
  -3  14  -2   21.01    3.00
  -3  14   1    2.79    1.18
  -3  14   1    3.23    1.74
  -3  14   4    1.93    1.43
  -3  14   4    2.70    1.13
  -3  14   7   18.13    2.30
  -3  14   7   16.62    1.65
  -3  14  10    0.28    1.37
  -3  14  10    2.45    1.01
  -3  14  13   48.34    2.64
  -3  14  16    4.54    1.00
  -3  14  19   44.86    2.54
  -3  14  19   43.80    2.27
  -3  14  22   21.18    1.52
  -3  14  22   25.20    1.42
  -3  14  25    1.53    0.50
  -4  14 -24    1.12    1.15
  -4  14 -21    2.56    1.49
  -4  14 -18   17.21    1.71
  -4  14 -18   14.56    2.26
  -4  14 -15    1.98    1.23
  -4  14 -15    3.03    1.94
  -4  14 -12   11.40    1.85
  -4  14  -9    3.38    1.65
  -4  14  -6   37.73    3.33
  -4  14  -6   37.38    4.08
  -4  14  -3   61.58    4.27
  -4  14  -3   61.50    3.39
  -4  14  -3   59.74    4.91
  -4  14   0    0.42    0.94
  -4  14   0   -0.16    2.08
  10   4   0    0.07    1.62
  -4  14   0    0.20    1.88
  -4  14   3    2.21    1.82
  -4  14   3    1.20    1.70
  -4  14   3    1.15    0.95
  -4  14   6    4.58    1.00
  -4  14   9  114.76    4.95
  -4  14   9  113.71    5.71
  -4  14  12   38.74    2.80
  -4  14  12   36.74    2.15
  -4  14  15    0.59    0.76
  -4  14  15   -0.50    1.35
  -4  14  18    1.54    0.78
  -4  14  21    0.32    0.65
  -4  14  24    2.47    0.56
  -4  14  24    3.87    0.81
  -5  14 -25    0.48    0.87
  -5  14 -22   10.22    1.76
  -5  14 -19   79.23    4.69
  -5  14 -16   33.37    2.30
  -5  14 -16   27.45    3.01
   9   5  16   29.83    2.43
  -5  14 -13    0.57    1.14
  -5  14 -13    0.37    1.94
   9   5  13    2.19    1.39
  -5  14 -10    5.62    2.46
   9   5  10    5.54    1.74
  -5  14 -10    8.02    1.51
   9   5   7   83.55    5.05
  -5  14  -7   92.95    4.85
  -5  14  -4  141.89    6.78
   9   5   4  129.47    6.91
  -5  14  -1    1.55    0.78
   9   5   1    2.45    1.92
  -5  14  -1    1.09    1.66
  -5  14  -1    0.53    2.32
  -5  14   2    0.83    1.67
  -5  14   2   -0.30    1.77
  -5  14   5    0.59    1.46
  -5  14   5    2.32    1.48
  -5  14   5    1.23    0.72
  -5  14   8   90.29    3.95
  -5  14  11  180.48    7.46
  -5  14  11  170.40    6.83
  -5  14  14   23.32    2.05
  -5  14  14   20.17    1.42
  -5  14  17    0.49    0.64
  -5  14  17    0.15    1.16
  -5  14  20   12.75    1.42
  -5  14  20   11.14    1.02
  -5  14  23   44.37    2.06
  -6  14 -23    0.96    1.23
  -6  14 -20   30.34    2.61
   8   6  20   25.81    2.03
  -6  14 -17   16.51    2.31
   8   6  17   14.51    1.86
  -6  14 -14    3.06    1.05
  -6  14 -14    1.20    1.72
   8   6  14    1.38    1.44
  -6  14 -11    5.85    1.24
  -6  14 -11    3.27    2.12
   8   6  11    2.35    1.74
  -6  14  -8    1.25    2.29
  -6  14  -8    4.77    1.33
   8   6   8    1.90    1.71
  -6  14  -5  112.23    5.44
   8   6   5  102.44    5.83
  -6  14  -5  105.64    6.56
  -6  14  -2   14.76    1.94
   8   6   2   10.99    2.36
  -6  14   1    4.87    1.55
  -6  14   1    5.99    2.16
  -6  14   4    0.49    1.33
  -6  14   4   -0.13    1.68
   8   6  -4    0.99    1.39
  -6  14   7   11.04    1.79
  -6  14  10   62.20    3.33
  -6  14  10   57.06    2.64
  -6  14  13    6.27    0.79
  -6  14  13    7.99    1.42
  -6  14  16    2.81    0.68
  -6  14  16    2.75    1.22
  -6  14  19    9.83    0.92
  -6  14  19    9.81    1.34
  -6  14  22   10.21    1.21
  -6  14  22    9.25    0.83
   8   6 -25   18.38    1.52
  -6  14  25   17.92    1.24
  -7  14 -24    0.15    0.80
   7   7  24    1.04    0.58
  -7  14 -21    4.88    1.48
   7   7  21    4.36    1.15
  -7  14 -18    9.85    1.85
   7   7  18   11.97    1.73
  -7  14 -15   15.41    2.18
   7   7  15   13.92    2.06
   7   7  12   73.30    4.44
  -7  14 -12   73.26    3.66
  -7  14 -12   70.48    4.59
   7   7   9  228.24   10.40
  -7  14  -9  239.16    9.58
  -7  14  -9  248.46   10.84
   7   7   6    0.38    1.83
  -7  14  -6    0.08    1.00
  -7  14  -3   47.91    3.02
  -7  14  -3   46.31    4.13
   7   7   3   45.84    3.71
  -7  14   0    2.05    1.23
  -7  14   0    2.89    2.21
   7   7   0    1.50    1.33
  -7  14   3    0.42    1.20
   7   7  -3    0.13    1.39
  -7  14   6    1.83    0.99
  -7  14   6    1.58    1.12
  -7  14   9    0.67    0.93
   7   7 -12   28.06    2.73
  -7  14  12   21.01    1.72
  -7  14  15    9.00    1.29
  -7  14  18   76.97    3.63
  -7  14  21   57.42    2.86
   7   7 -24    0.61    1.08
  -7  14  24    1.08    0.75
   6   8  25    0.53    0.52
  -8  14 -22   24.80    1.98
   6   8  22   24.71    1.85
  -8  14 -19   48.03    3.23
   6   8  19   53.01    3.14
  -8  14 -16   24.59    2.37
   6   8  16   28.15    2.52
   6   8  13   90.71    4.97
  -8  14 -13   89.38    4.95
   6   8  10  572.82   21.70
  -8  14 -10  551.95   21.72
  -8  14  -7  142.37    6.20
   6   8   7  138.52    7.17
  -8  14  -4   57.42    3.08
   6   8   4   50.40    3.93
  -8  14  -4   57.27    4.12
  -8  14  -1   51.94    2.88
   6   8   1   42.90    3.31
  -8  14  -1   50.59    3.75
  -8  14   2    4.64    1.13
  -8  14   2    5.30    1.79
   6   8  -2    4.29    1.60
  -8  14   5    0.37    0.70
  -8  14   5    0.39    0.96
   6   8  -5   -0.67    1.53
  -8  14   8    0.76    0.73
   6   8 -11   37.30    3.06
  -8  14  11   28.98    1.86
   6   8 -14   69.29    4.33
  -8  14  14   52.94    2.77
   6   8 -17   44.95    3.60
  -8  14  17   38.58    2.22
   6   8 -20  205.99    8.89
  -8  14  20  188.04    7.49
   6   8 -23   39.10    2.79
  -8  14  23   36.64    1.98
  -8  14  26    1.96    0.53
   5   9  23   20.43    1.57
   5   9  20   24.58    2.04
  -9  14 -17    2.16    1.15
   5   9  17    2.67    1.39
   5   9  14   52.87    3.37
  -9  14 -14   49.13    3.18
   5   9  14   45.17    3.05
   5   9  11  285.27   11.67
  -9  14 -11  273.45   11.50
   5   9   8  103.82    5.63
  -9  14  -8  108.45    5.58
  -9  14  -5   59.46    2.92
   5   9   5   55.08    3.76
   5   9   5   55.38    3.99
  -9  14  -5   57.33    3.82
  -9  14  -2   60.30    3.07
   5   9   2   63.67    3.96
   5   9   2   57.04    4.06
  -9  14  -2   60.15    3.87
  -9  14   1   -0.06    0.78
  -9  14   1    0.56    1.34
   5   9  -1    0.56    1.39
  -9  14   4   -0.10    0.53
  -9  14   4    0.36    0.82
   5   9  -4    1.11    1.63
   5   9  -7    3.15    1.88
  -9  14   7    5.96    0.83
   5   9 -10    0.14    1.32
  -9  14  10    0.48    0.61
   5   9 -13   21.85    2.62
  -9  14  13   17.62    1.33
   5   9 -16    2.35    1.88
  -9  14  16    1.91    0.74
   5   9 -19   79.95    4.81
  -9  14  19   77.80    3.44
   5   9 -22   33.38    2.72
  -9  14  22   30.84    1.72
   5   9 -25    2.09    1.05
  -9  14  25   -0.01    0.50
   4  10  24    6.37    0.91
   4  10  21    4.55    1.16
   4  10  18   10.16    1.30
   4  10  18   12.30    1.54
   4  10  15   28.01    2.30
 -10  14 -15   27.87    2.15
   4  10  15   34.98    2.51
   4  10  12   31.14    2.64
 -10  14 -12   27.30    2.23
   4  10  12   29.75    2.58
   4  10   9    0.95    1.13
 -10  14  -9    0.32    1.17
   4  10   9    3.34    1.80
   4  10   6  120.11    6.26
   4  10   6  133.91    6.41
 -10  14  -6  128.37    6.01
   4  10   3   36.96    3.05
   4  10   3   37.51    3.17
 -10  14  -3   38.42    2.74
 -10  14   0   61.87    2.94
   4  10   0   58.14    3.92
   4  10  -3   13.36    2.21
   4  10  -6    2.16    1.38
   4  10  -6    0.27    1.83
   4  10  -9    0.14    1.43
   4  10  -9    0.59    1.92
 -10  14   9    0.41    0.47
   4  10 -12    2.63    1.79
 -10  14  12    1.25    0.59
   4  10 -15    1.74    1.93
 -10  14  15   -0.17    0.59
   4  10 -18    3.84    1.97
 -10  14  18    6.25    0.87
   4  10 -21    2.23    1.59
 -10  14  21    0.49    0.59
   4  10 -24    6.49    1.40
   4  10 -24    6.29    1.53
 -10  14  24    5.88    0.65
   3  11  25    0.67    0.49
   3  11  22    4.42    0.95
   3  11  19   18.57    1.52
   3  11  19   23.69    1.76
   3  11  16   30.64    2.27
   3  11  16   32.45    2.33
   3  11  13    0.58    1.22
   3  11  13    1.05    1.41
   3  11  10   28.79    2.33
   3  11  10   30.47    2.71
 -11  14 -10   30.94    2.11
   3  11   7  149.81    6.88
 -11  14  -7  143.80    6.31
   3  11   4   32.66    2.81
 -11  14  -4   29.73    2.20
   3  11   1  138.46    6.76
   3  11  -2  100.51    5.57
   3  11  -2  107.42    5.61
   3  11  -5   13.03    1.95
   3  11  -5   12.39    2.29
   3  11  -8   17.85    2.34
   3  11  -8   15.97    2.55
   3  11 -11    5.38    1.86
   3  11 -11    4.11    2.34
   3  11 -14   16.45    2.49
   3  11 -14   14.20    2.61
   3  11 -17   12.23    2.36
 -11  14  17   13.46    1.00
   3  11 -20    1.79    1.58
   3  11 -20    0.31    1.60
 -11  14  20    2.33    0.57
   3  11 -23   31.25    2.34
   3  11 -23   28.83    2.35
   2  12  23   15.39    1.11
   2  12  20    2.02    0.81
   2  12  17   16.16    1.56
   2  12  14    0.19    1.14
   2  12  11    0.90    1.00
   2  12   8   11.11    1.71
   2  12   5   15.60    2.08
   2  12   5   11.49    1.95
   2  12   2   46.46    3.39
   2  12   2   49.85    3.28
   2  12  -1   66.81    4.26
   2  12  -1   70.06    4.22
   2  12  -4   27.22    2.88
   2  12  -4   23.96    2.54
   2  12  -7   72.07    4.60
   2  12  -7   63.56    4.28
   2  12 -10    5.45    1.91
   2  12 -10    4.18    2.23
   2  12 -13    4.57    2.10
   2  12 -16   28.57    2.90
   2  12 -19   20.07    2.30
   2  12 -19   20.15    2.33
   2  12 -22    1.76    1.30
   2  12 -22    1.83    1.16
   1  13  21    6.34    0.77
   1  13  21    7.92    0.88
   1  13  18    1.69    0.84
   1  13  18    1.36    0.84
   1  13  15    0.81    1.00
   1  13  15    1.03    1.13
   1  13  12   35.86    2.39
   1  13  12   35.16    2.60
   1  13   9   79.96    4.27
   1  13   9   86.14    4.17
   1  13   6   10.05    1.74
   1  13   6   10.27    1.71
   1  13   3    0.49    1.33
   1  13   3    0.67    1.40
   1  13   0   -0.21    1.48
   1  13   0   -0.93    1.54
   1  13   0    2.10    1.31
   1  13  -3   40.21    3.23
   1  13  -3   35.68    3.03
   1  13  -6   54.44    3.94
   1  13  -6   51.39    3.71
   1  13  -9    1.20    1.63
   1  13  -9    2.09    2.11
   1  13 -12    0.93    1.80
   1  13 -15    0.53    1.76
   1  13 -15    0.28    1.54
   1  13 -18   47.56    3.11
   1  13 -18   44.46    3.26
   1  13 -21   22.05    1.85
   1  13 -21   20.49    2.00
   0  14  22    9.83    0.70
   0  14  19    0.99    0.62
   0  14  19    0.89    0.68
   0  14  16   -1.19    0.81
   0  14  16   -0.59    0.93
   0  14  13   19.49    1.86
   0  14  13   20.93    1.65
   0  14  10  150.18    6.02
   0  14  10  130.92    6.05
   0  14  10  140.96    6.30
   0  14   7   67.25    3.89
   0  14   7   78.62    3.78
   0  14   4    0.55    1.35
   0  14   4    1.13    1.25
   0  14   1   10.50    1.58
   0  14   1   10.07    1.93
   0  14   1   10.60    1.50
   0  14  -2   29.95    2.87
   0  14  -2   32.56    2.43
   0  14  -2   27.38    2.59
   0  14  -5   10.80    2.08
   0  14  -5   13.45    2.24
   0  14  -8   11.39    2.19
   0  14 -11    2.90    1.78
   0  14 -11    3.44    1.84
   0  14 -14    8.00    1.78
   0  14 -14    7.29    1.95
   0  14 -17    5.24    1.42
   0  14 -17    4.07    1.55
   0  14 -20   28.34    1.91
   0  14 -20   29.09    2.25
  -1  15 -19    5.79    0.91
  -1  15 -19    5.00    1.19
  -1  15 -16    3.11    1.16
  -1  15 -16    1.56    1.35
  -1  15 -13    4.73    1.45
  -1  15 -13    3.92    1.67
  -1  15 -10   11.61    1.91
  -1  15 -10    6.03    1.93
  -1  15  -7    5.14    1.27
  -1  15  -7    4.68    1.81
  -1  15  -4    1.82    1.15
  -1  15  -4    0.89    1.41
  -1  15  -1    0.17    1.08
  -1  15  -1    0.22    1.68
  -1  15  -1    0.84    1.12
  -1  15   2    1.13    1.48
  -1  15   2    1.53    1.11
  -1  15   5    0.93    1.28
  -1  15   5    0.58    1.09
  -1  15   8   24.09    1.78
  -1  15   8   20.43    1.86
  -1  15  11   15.48    1.63
  -1  15  11   19.48    1.50
  -1  15  14   -0.22    0.70
  -1  15  14    0.07    0.92
  -1  15  17   -0.48    0.58
  -1  15  17    0.42    0.67
  -1  15  20    0.52    0.35
  -1  15  20    0.39    0.39
  -2  15 -20    0.73    0.63
  -2  15 -20   -0.33    1.10
  -2  15 -17    8.09    1.29
  -2  15 -17    6.06    1.67
  -2  15 -14    9.40    1.58
  -2  15 -14    8.82    2.03
  -2  15 -11    4.45    1.55
  -2  15 -11    3.71    1.94
  -2  15  -8    5.11    1.22
  -2  15  -8    7.45    1.81
  -2  15  -8    5.78    2.00
  -2  15  -5    1.46    1.07
  -2  15  -5    1.16    1.88
  -2  15  -5    0.95    1.72
  -2  15  -2    4.36    1.27
  -2  15  -2    3.74    1.63
  -2  15   1   37.52    3.23
  -2  15   1   40.11    2.50
  -2  15   1   33.44    2.68
  -2  15   4   15.58    2.17
  -2  15   4   16.39    1.70
  -2  15   7    6.53    1.59
  -2  15   7    5.86    1.21
  -2  15  10    2.08    1.18
  -2  15  10    1.38    0.93
  -2  15  13   42.75    2.30
  -2  15  16    7.20    0.90
  -2  15  16    6.68    1.08
  -2  15  19    4.03    0.63
  -2  15  19    4.01    0.79
  -3  15 -21   -0.37    1.14
  -3  15 -18    3.53    1.00
  -3  15 -15   19.69    1.86
  -3  15 -15   15.49    2.33
  -3  15 -12    2.11    1.36
  -3  15 -12   -2.14    2.02
  -3  15  -9    7.48    1.77
  -3  15  -9    7.01    2.23
  -3  15  -6   -0.43    0.97
  -3  15  -6   -1.22    1.77
  -3  15  -6   -0.61    2.00
  -3  15  -3    1.56    0.98
  -3  15  -3    1.54    1.90
  -3  15  -3    1.37    2.00
  -3  15   0   28.28    2.78
  -3  15   0   34.49    2.29
  -3  15   3   23.76    1.87
  -3  15   3   17.42    2.09
  -3  15   6   11.15    1.40
  -3  15   6   10.12    1.97
  -3  15   9    2.19    1.65
  -3  15   9    3.44    1.45
  -3  15   9    2.77    1.01
  -3  15  12   42.51    2.32
  -3  15  15   49.72    2.43
  -3  15  18    1.29    0.65
  -3  15  21    7.77    0.85
  -3  15  21    8.41    0.69
  -4  15 -22    3.77    1.16
  -4  15 -19   13.17    1.25
  -4  15 -19   10.49    1.81
  -4  15 -16    1.65    1.05
  -4  15 -16    3.07    1.68
  -4  15 -13   11.28    1.59
  -4  15 -10    0.48    1.29
  -4  15 -10    0.83    2.11
  -4  15  -7    0.20    0.76
  -4  15  -7    0.22    1.54
  -4  15  -7   -0.16    2.19
  -4  15  -4    1.63    0.92
  -4  15  -4   -0.36    1.73
  -4  15  -4    1.97    2.13
  -4  15  -1    0.95    0.90
  -4  15  -1   -0.38    1.98
  -4  15  -1   -0.22    1.89
  -4  15   2    3.87    2.07
  -4  15   2    4.34    1.71
  -4  15   2    5.67    1.07
  -4  15   5   -0.51    0.95
  -4  15   8   70.51    3.34
  -4  15   8   66.75    4.02
  -4  15  11   41.65    2.78
  -4  15  11   39.03    2.19
  -4  15  14   10.62    1.07
  -4  15  14   11.34    1.56
  -4  15  17   10.38    1.36
  -4  15  17    9.07    0.93
  -4  15  20    0.25    0.50
  -4  15  23    0.49    0.53
  -5  15 -23    9.11    1.26
  -5  15 -20   64.53    3.74
  -5  15 -17   24.26    1.79
  -5  15 -17   21.32    2.42
  -5  15 -14   12.12    1.50
  -5  15 -14   10.72    2.24
  -5  15 -11    4.10    1.32
  -5  15  -8    0.44    1.33
  10   5   8    1.03    1.20
  -5  15  -5    4.50    1.71
  -5  15  -5    4.97    2.59
  10   5   5    5.19    1.54
  10   5   2   21.97    2.39
  -5  15  -2   15.53    2.34
  -5  15  -2   17.94    2.89
  -5  15   1   40.94    3.39
  -5  15   1   45.29    2.41
  -5  15   1   39.10    3.58
  -5  15   4   36.86    2.09
  -5  15   4   37.36    3.06
  -5  15   7   84.10    3.72
  -5  15  10  345.91   13.20
  -5  15  10  334.98   12.56
  -5  15  13   63.27    3.29
  -5  15  13   55.83    2.66
  -5  15  16    3.65    0.72
  -5  15  16    5.54    1.18
  -5  15  19   16.82    1.45
  -5  15  19   17.55    1.13
  -5  15  22   18.91    1.30
  -6  15 -21   56.78    3.33
  -6  15 -18   37.15    2.88
  -6  15 -15    6.30    1.11
  -6  15 -15    5.47    1.83
   9   6  15    4.80    1.21
  -6  15 -12   10.40    1.41
  -6  15 -12    9.19    2.18
   9   6  12    9.14    1.60
  -6  15  -9   10.11    1.59
  -6  15  -9    6.65    2.30
   9   6   9    9.24    1.70
  -6  15  -6    3.35    1.36
   9   6   6    5.32    1.67
  -6  15  -3   26.29    2.46
   9   6   3   21.06    2.52
  -6  15   0   19.46    2.26
   9   6   0   16.86    2.41
  -6  15   0   17.42    2.71
  -6  15   3   26.93    2.52
  -6  15   3   28.03    2.87
  -6  15   6   21.53    2.33
   9   6  -6   28.70    2.72
  -6  15   9  293.83   11.50
  -6  15  12  134.25    5.57
  -6  15  12  119.74    4.88
  -6  15  15    0.14    0.53
  -6  15  15    0.14    1.04
  -6  15  18    5.10    0.67
  -6  15  18    4.95    1.09
  -6  15  21   20.59    1.46
  -6  15  24   14.77    1.00
  -7  15 -22    9.88    1.29
  -7  15 -19    4.12    1.50
   8   7  19    2.81    0.91
  -7  15 -16   17.40    2.16
   8   7  16   16.51    1.69
  -7  15 -13   10.10    1.20
  -7  15 -13    8.17    1.93
   8   7  13    9.69    1.59
   8   7  10   58.80    3.74
  -7  15 -10   63.11    3.25
  -7  15 -10   56.74    4.20
  -7  15  -7   16.62    1.75
  -7  15  -7   15.68    2.83
   8   7   7   13.46    2.11
  -7  15  -4   29.38    2.30
   8   7   4   26.97    2.72
  -7  15  -4   28.24    3.46
   8   7   1    1.91    1.82
  -7  15  -1    1.68    1.24
  -7  15   2    2.17    1.24
  -7  15   5    8.81    1.34
  -7  15   5   11.37    1.68
   8   7  -5   12.89    1.99
   8   7  -8   78.32    4.60
  -7  15   8   61.03    3.33
  -7  15  11   13.88    1.47
  -7  15  14   13.63    1.43
  -7  15  17   -0.17    0.95
  -7  15  20    7.68    1.02
  -7  15  23    3.84    0.69
  -8  15 -20   12.20    1.56
   7   8  20   11.53    1.22
  -8  15 -17   48.84    3.20
   7   8  17   49.89    2.86
  -8  15 -14   10.00    1.77
   7   8  14   12.13    1.67
   7   8  11  137.25    6.46
  -8  15 -11  139.06    6.74
  -8  15  -8  146.31    6.12
   7   8   8  138.97    6.86
  -8  15  -8  149.05    7.32
   7   8   5    8.53    2.01
  -8  15  -5   10.40    1.34
  -8  15  -5   10.87    2.37
  -8  15  -2   28.49    2.06
   7   8   2   23.77    2.68
  -8  15  -2   27.73    2.99
  -8  15   1    6.83    1.25
  -8  15   1    6.66    1.92
   7   8  -1    7.28    1.58
  -8  15   4   19.90    1.78
   7   8  -4   19.78    2.32
  -8  15   4   17.73    1.44
   7   8  -7   13.20    2.27
  -8  15   7    9.96    1.17
  -8  15  10    6.86    1.03
  -8  15  13  104.13    4.45
   7   8 -16    9.97    1.87
  -8  15  16    6.76    1.04
   7   8 -19   87.92    4.42
  -8  15  19   72.54    3.37
   7   8 -22   25.65    1.94
  -8  15  22   25.36    1.47
   6   9  21   12.77    1.19
  -9  15 -18   26.39    2.12
   6   9  18   29.54    2.04
  -9  15 -15    3.60    1.35
   6   9  15    5.58    1.45
   6   9  12  102.29    4.83
  -9  15 -12   93.42    4.78
   6   9   9  198.32    8.58
  -9  15  -9  186.72    8.55
   6   9   6    1.29    1.75
  -9  15  -6    0.19    0.70
  -9  15  -6    1.91    1.60
  -9  15  -3   79.20    3.70
   6   9   3   74.06    4.35
   6   9   3   78.39    4.70
  -9  15  -3   82.72    4.67
  -9  15   0    3.31    0.95
  -9  15   0    3.80    1.68
   6   9   0    5.44    1.58
  -9  15   3    7.22    1.11
   6   9  -3    6.54    1.79
   6   9  -6   10.31    2.10
  -9  15   6    9.38    0.96
   6   9  -9    2.10    1.84
  -9  15   9    1.83    0.66
   6   9 -12   45.05    3.43
   6   9 -15   24.50    2.58
  -9  15  15   23.17    1.48
   6   9 -18   47.97    3.26
  -9  15  18   39.59    2.09
   6   9 -21   61.26    3.63
   6   9 -21   62.38    3.44
  -9  15  21   58.59    2.63
   6   9 -24    0.50    0.91
   5  10  22    1.23    0.70
   5  10  19    3.31    1.01
 -10  15 -16    4.24    1.02
   5  10  16    4.15    1.29
   5  10  13   21.75    2.09
   5  10  13   18.80    1.74
 -10  15 -13   20.34    1.82
   5  10  10   41.14    3.00
 -10  15 -10   41.19    2.73
 -10  15  -7    6.57    1.54
   5  10   7    6.59    1.88
   5  10   4  105.91    5.51
   5  10   4  113.53    5.64
 -10  15  -4  108.13    5.33
 -10  15  -1   18.30    1.37
   5  10   1   18.24    2.13
   5  10   1   17.44    2.43
   5  10  -2    0.06    1.47
   5  10  -5    0.70    1.56
   5  10  -8   33.70    3.20
   5  10 -11   26.47    2.92
   5  10 -11   22.97    2.47
 -10  15  11   19.12    1.26
   5  10 -14    0.85    1.59
   5  10 -14    2.19    2.06
 -10  15  14    1.09    0.60
   5  10 -17    0.88    1.51
   5  10 -17    0.36    1.87
 -10  15  17    0.85    0.60
   5  10 -20    3.57    1.41
   5  10 -20    2.46    1.62
 -10  15  20    4.39    0.65
   5  10 -23    0.56    0.77
   4  11  23    0.50    0.48
   4  11  20   28.12    1.75
   4  11  17   34.44    2.02
   4  11  17   41.30    2.32
   4  11  14    4.69    1.30
   4  11  14    3.64    1.08
   4  11  11    1.84    1.27
 -11  15 -11    2.11    0.86
   4  11  11    1.43    1.40
   4  11   8   29.97    2.26
   4  11   8   30.28    2.63
 -11  15  -8   30.84    2.12
   4  11   5   88.18    4.74
   4  11   5   95.39    4.88
 -11  15  -5   87.97    4.34
   4  11   2    6.61    1.91
   4  11   2    6.57    1.74
   4  11  -1    7.51    1.81
   4  11  -4    1.70    1.61
   4  11  -7   10.76    1.82
   4  11  -7   13.20    2.37
   4  11 -10  114.44    6.14
   4  11 -10  110.17    5.89
   4  11 -13   50.64    3.88
   4  11 -13   49.89    3.63
   4  11 -16    2.73    1.66
   4  11 -16    0.24    1.79
   4  11 -19    4.29    1.50
   4  11 -22   20.38    1.69
   3  12  21    7.79    0.84
   3  12  18   25.23    1.58
   3  12  18   29.53    1.76
   3  12  15    1.15    0.96
   3  12  15    2.04    0.90
   3  12  12    2.59    1.24
   3  12   9    6.13    1.19
   3  12   6   31.62    2.46
   3  12   3    0.75    1.34
   3  12   0   19.13    2.26
   3  12  -3    0.80    1.49
   3  12  -6    1.60    1.35
   3  12  -6    2.03    1.70
   3  12  -9   33.80    3.21
   3  12  -9   32.43    2.87
   3  12 -12   52.78    3.87
   3  12 -12   52.81    3.73
   3  12 -15   11.81    2.05
   3  12 -15   12.31    2.16
   3  12 -18    1.32    1.37
   3  12 -21    6.99    1.24
   3  12 -21    7.44    1.35
   2  13  19    0.60    0.54
   2  13  16    0.74    0.76
   2  13  13    1.84    1.10
   2  13  10   36.54    2.32
   2  13  10   38.91    2.49
   2  13  10   40.66    2.70
   2  13   7    7.31    1.35
   2  13   7    6.89    1.46
   2  13   4    3.18    1.42
   2  13   4    2.63    1.35
   2  13   1    0.12    1.33
   2  13   1   -0.10    1.49
   2  13  -2    1.13    1.42
   2  13  -2    0.87    1.07
   2  13  -2    0.44    1.49
   2  13  -5    7.52    1.62
   2  13  -5    6.48    1.93
   2  13  -8    1.86    1.45
   2  13  -8   -0.42    1.77
   2  13 -11    1.35    1.53
   2  13 -11    0.82    1.87
   2  13 -14    0.35    1.52
   2  13 -17   13.13    1.85
   2  13 -20   15.82    1.58
   2  13 -20   14.85    1.57
   1  14  20   14.24    0.90
   1  14  17   10.52    0.95
   1  14  17    9.42    0.92
   1  14  14    3.89    0.90
   1  14  14    2.95    0.96
   1  14  11  128.46    5.23
   1  14  11  116.90    5.36
   1  14   8  100.75    4.75
   1  14   8  107.50    4.72
   1  14   5    1.51    1.16
   1  14   5    0.89    1.13
   1  14   2   26.07    2.43
   1  14   2   27.39    2.19
   1  14  -1   10.53    1.63
   1  14  -1    8.70    1.83
   1  14  -1    8.81    1.32
   1  14  -4    2.03    1.34
   1  14  -4    2.99    1.60
   1  14  -4    1.57    1.21
   1  14  -7    0.76    1.64
   1  14  -7    1.92    1.41
   1  14 -10    0.86    1.50
   1  14 -13   19.72    2.28
   1  14 -16    1.18    1.29
   1  14 -16    2.01    1.38
   1  14 -19   46.47    2.48
   1  14 -19   40.42    2.54
   0  15  18    5.82    0.62
   0  15  18    6.28    0.60
   0  15  15    0.10    0.55
   0  15  15    0.48    0.65
   0  15  12   57.75    2.95
   0  15  12   62.57    2.82
   0  15   9   93.61    3.99
   0  15   9   84.66    4.17
   0  15   6    0.03    0.97
   0  15   6    1.53    1.02
   0  15   3   36.84    2.68
   0  15   3   45.26    2.56
   0  15   0   14.95    1.59
   0  15   0   11.77    1.85
   0  15  -3    0.16    1.08
   0  15  -3   -1.75    1.56
   0  15  -3    0.37    0.99
   0  15  -6    8.12    1.41
   0  15  -6    9.88    1.92
   0  15  -6    9.46    1.65
   0  15  -9   10.06    1.38
   0  15  -9    7.89    1.73
   0  15 -12    6.35    1.53
   0  15 -12    6.57    1.59
   0  15 -15    4.70    0.84
   0  15 -15    5.21    1.19
   0  15 -15    5.05    1.43
   0  15 -18   12.77    1.17
   0  15 -18   13.25    1.35
  -1  16 -17    0.80    0.63
  -1  16 -14    1.64    0.92
  -1  16 -14    1.46    1.04
  -1  16 -11    0.13    0.59
  -1  16 -11   -1.28    1.18
  -1  16 -11    0.46    1.22
  -1  16  -8    4.94    0.91
  -1  16  -8    4.75    1.33
  -1  16  -5    2.15    0.89
  -1  16  -5    3.43    1.13
  -1  16  -2    6.70    1.57
  -1  16  -2    5.90    1.08
  -1  16  -2    7.47    1.09
  -1  16   1    2.64    1.33
  -1  16   1    0.80    0.88
  -1  16   4   22.36    1.85
  -1  16   4   24.48    1.64
  -1  16   7    5.43    1.06
  -1  16   7    5.66    0.92
  -1  16  10    8.29    1.09
  -1  16  10    9.31    0.90
  -1  16  13    7.38    0.89
  -1  16  13    7.30    0.71
  -1  16  16    1.17    0.36
  -1  16  16    1.05    0.44
  -2  16 -18    0.90    0.85
  -2  16 -15    1.87    0.94
  -2  16 -15    1.26    1.18
  -2  16 -12    2.07    0.59
  -2  16 -12    1.65    1.17
  -2  16 -12    2.18    1.47
  -2  16  -9    2.53    0.79
  -2  16  -9    1.24    1.32
  -2  16  -9    1.39    1.41
  -2  16  -6    1.83    0.86
  -2  16  -6    1.24    1.46
  -2  16  -6    3.41    1.52
  -2  16  -3   18.21    1.51
  -2  16  -3   16.30    1.89
  -2  16   0   75.49    4.14
  -2  16   0   78.19    3.51
  -2  16   3   10.00    1.20
  -2  16   3    9.17    1.59
  -2  16   6    6.45    1.31
  -2  16   6    6.95    1.04
  -2  16   9    2.31    0.78
  -2  16  12    1.87    0.65
  -2  16  15    0.06    0.48
  -2  16  15    0.15    0.61
  -2  16  18    0.15    0.41
  -3  16 -16    1.18    0.81
  -3  16 -16   -0.21    1.24
  -3  16 -13   11.95    1.52
  -3  16 -13   12.61    2.02
  -3  16 -10   10.01    1.65
  -3  16 -10   12.36    2.12
  -3  16  -7    6.35    0.95
  -3  16  -7    6.23    1.64
  -3  16  -7    5.89    1.83
  -3  16  -4   10.46    1.20
  -3  16  -4   10.23    1.97
  -3  16  -4   12.26    1.95
  -3  16  -1  152.00    6.05
  -3  16  -1  134.51    6.57
  -3  16   2  105.72    4.60
  -3  16   5    4.53    1.50
  -3  16   5    3.60    0.92
  -3  16   8    1.33    1.30
  -3  16   8    1.09    1.12
  -3  16   8    1.45    0.78
  -3  16  11   13.33    1.52
  -3  16  11   15.00    1.18
  -3  16  14   22.93    1.35
  -3  16  17    1.60    0.45
  -3  16  20    0.30    0.40
  -4  16 -20    6.06    1.07
  -4  16 -17    0.14    0.70
  -4  16 -14   24.10    1.87
  -4  16 -11   15.41    1.73
  -4  16 -11   14.58    2.33
  -4  16  -8    0.93    1.32
  -4  16  -8    0.67    1.95
  -4  16  -5    8.85    1.83
  -4  16  -5    7.07    2.05
  -4  16  -2   72.26    4.26
  -4  16  -2   67.49    3.21
  -4  16  -2   65.94    4.20
  -4  16   1   45.75    3.37
  -4  16   1   44.57    2.35
  -4  16   1   38.43    2.90
  -4  16   4    0.09    0.77
  -4  16   7    2.53    1.42
  -4  16   7    4.06    1.63
  -4  16   7    2.44    0.81
  -4  16  10    7.78    1.46
  -4  16  10    7.09    0.91
  -4  16  13   10.03    1.29
  -4  16  13    9.91    0.91
  -4  16  16   12.67    1.18
  -4  16  16   13.40    0.92
  -5  16 -21   20.30    1.56
  -5  16 -18   22.12    2.06
  -5  16 -15   11.55    1.24
  -5  16 -15    9.69    1.80
  -5  16 -12   25.14    1.95
  -5  16  -9    0.04    1.19
  -5  16  -6   16.55    2.05
  -5  16  -6   13.15    2.57
  -5  16  -3   10.04    1.87
  -5  16  -3    9.99    2.27
  -5  16   0    4.01    1.72
  -5  16   0    5.21    1.77
  -5  16   3   74.37    4.73
  11   5  -3  124.87    5.39
  -5  16   6    2.31    0.74
  -5  16   9  113.60    5.03
  -5  16   9  104.44    4.35
  -5  16  12   43.72    2.50
  -5  16  12   41.35    2.01
  -5  16  15    2.97    0.56
  -5  16  15    4.41    0.99
  -5  16  18   10.77    1.08
  -5  16  21    3.89    0.59
  -6  16 -19   51.74    3.01
  -6  16 -16    0.09    1.30
  -6  16 -13   24.91    1.79
  -6  16 -13   21.49    2.37
  -6  16 -10    2.53    1.05
  -6  16 -10    3.01    1.98
  10   6   7   29.33    2.26
  -6  16  -7   27.61    2.23
  -6  16  -4    0.97    1.29
  10   6   4    2.11    1.34
  -6  16  -1   14.67    1.91
  10   6   1   15.81    2.04
  -6  16  -1   14.71    2.42
  -6  16   2  116.11    6.22
  10   6  -2  173.74    7.05
  -6  16   5   40.02    2.84
  -6  16   8  107.24    4.91
  10   6 -11  267.11    9.49
  -6  16  11  180.53    8.08
  10   6 -14   12.63    1.93
  -6  16  14    5.74    1.06
  10   6 -17   16.07    1.84
  -6  16  17    9.58    1.12
  10   6 -20   19.04    1.57
  -6  16  20   13.01    1.06
  -7  16 -20   29.40    2.01
  -7  16 -17    0.17    1.19
  -7  16 -14   23.46    2.37
   9   7  14   25.38    1.78
  -7  16 -11    0.39    0.81
  -7  16 -11   -0.17    1.48
   9   7  11    0.84    1.04
   9   7   8   26.64    2.23
  -7  16  -8   26.89    1.98
  -7  16  -8   27.50    3.00
  -7  16  -5    0.46    1.08
  -7  16  -5   -0.21    1.99
   9   7   5    0.24    1.31
   9   7   2    0.63    1.42
  -7  16  -2    0.99    1.18
   9   7  -1    3.60    1.72
  -7  16   1    4.35    1.32
  -7  16   4   10.41    1.38
  -7  16   4   10.41    1.62
   9   7  -7   35.31    2.89
  -7  16   7   25.34    1.92
   9   7 -10  119.65    5.68
  -7  16  10   90.28    4.33
   9   7 -13    2.07    1.69
  -7  16  13    2.83    0.95
   9   7 -16    6.70    1.77
  -7  16  16    4.41    0.94
   9   7 -19    1.13    1.25
  -7  16  19    1.20    0.68
  -7  16  22    5.37    0.61
  -8  16 -18    3.56    1.17
   8   8  18    2.38    0.67
  -8  16 -15   35.40    2.59
   8   8  15   37.88    2.23
  -8  16 -12    3.42    1.52
   8   8  12    4.42    1.20
   8   8   9   20.07    2.00
  -8  16  -9   21.98    1.56
  -8  16  -9   19.32    2.45
  -8  16  -6    0.55    0.81
  -8  16  -6    1.56    1.73
   8   8   6    0.52    1.34
   8   8   3    0.10    1.52
  -8  16  -3   -0.03    0.85
  -8  16  -3    0.57    1.85
  -8  16   0   39.93    2.54
   8   8   0   45.78    3.25
  -8  16   0   36.35    3.16
  -8  16   3   28.90    2.09
  -8  16   3   25.88    1.74
   8   8  -6   10.70    1.92
  -8  16   6    7.76    1.05
   8   8  -9    5.30    1.83
  -8  16   9    3.43    0.87
   8   8 -12   37.20    3.09
  -8  16  12   24.23    1.64
   8   8 -15   43.41    3.22
  -8  16  15   29.76    1.81
   8   8 -18    1.94    1.54
  -8  16  18    1.88    0.72
   8   8 -21    2.53    1.06
  -8  16  21    2.37    0.55
  -9  16 -19    4.19    0.83
   7   9  19    3.96    0.71
  -9  16 -16   28.24    2.08
   7   9  16   29.48    1.90
  -9  16 -13    6.17    1.39
   7   9  13    6.90    1.32
   7   9  10   19.49    1.93
  -9  16 -10   17.20    1.95
  -9  16  -7    3.05    1.45
   7   9   7    1.86    1.46
   7   9   4    4.76    1.69
  -9  16  -4    4.30    0.86
  -9  16  -4    6.03    1.72
  -9  16  -1   17.51    1.45
   7   9   1   19.35    2.28
  -9  16  -1   17.39    2.21
  -9  16   2   56.97    2.96
   7   9  -2   57.98    3.61
   7   9  -5   13.04    1.97
  -9  16   5   10.57    0.99
   7   9  -8    2.04    1.66
  -9  16   8    0.83    0.61
   7   9 -11   31.21    2.93
  -9  16  11   22.66    1.44
   7   9 -14   76.61    4.30
  -9  16  14   57.16    2.71
   7   9 -17   -0.20    1.57
  -9  16  17    0.27    0.60
   7   9 -20   24.75    2.08
  -9  16  20   24.83    1.32
   6  10  20    1.32    0.58
 -10  16 -17    2.09    0.74
   6  10  17    0.63    0.81
 -10  16 -14    2.63    0.94
   6  10  14    3.98    1.10
 -10  16 -11    3.89    1.10
   6  10  11    4.47    1.33
 -10  16  -8    4.29    1.20
   6  10   8    6.50    1.56
   6  10   5    6.55    1.81
 -10  16  -5    7.60    1.46
   6  10   2    2.40    1.69
 -10  16  -2    2.28    0.65
   6  10   2    2.24    1.22
   6  10  -1    4.67    1.82
   6  10  -1    5.65    1.49
   6  10  -4    0.84    1.32
   6  10  -7   13.70    2.19
   6  10 -10   22.35    2.54
 -10  16  10   15.61    1.07
   6  10 -13    3.47    1.97
 -10  16  13    3.88    0.64
   6  10 -16    3.44    1.77
 -10  16  16    3.88    0.62
   6  10 -19    4.05    1.40
 -10  16  19    4.92    0.58
   6  10 -22   -0.65    0.84
   5  11  21   17.49    1.05
   5  11  18   29.13    1.71
   5  11  15    0.18    0.87
 -11  16 -12    3.80    0.85
   5  11  12    2.85    1.17
   5  11  12    2.55    0.89
 -11  16  -9    0.50    0.78
   5  11   9    0.33    1.21
   5  11   6    6.62    1.62
   5  11   3   12.11    1.90
   5  11   3   10.14    1.58
   5  11   0    4.43    1.74
   5  11   0    4.06    1.43
   5  11  -3    8.50    1.77
   5  11  -6    7.21    1.82
   5  11  -9  156.97    7.48
   5  11 -12   91.10    5.14
   5  11 -15    0.32    1.15
   5  11 -15   -0.93    1.57
   5  11 -18    9.24    1.26
   5  11 -18   11.34    1.75
   5  11 -21    8.97    1.19
   4  12  19   47.22    2.19
   4  12  16    4.46    0.90
   4  12  16    3.65    0.65
   4  12  13   11.22    1.22
   4  12  13   14.40    1.42
   4  12  10    3.33    1.09
   4  12  10    1.88    1.23
   4  12   7    1.85    0.87
   4  12   7    1.57    1.31
   4  12   4    6.08    1.58
   4  12   4    5.80    1.24
   4  12   1    3.46    1.36
   4  12  -2    8.36    1.71
   4  12  -5    0.11    1.47
   4  12  -8  106.64    5.61
   4  12 -11  176.52    7.90
   4  12 -11  164.60    7.53
   4  12 -14   18.22    2.27
   4  12 -14   19.24    1.94
   4  12 -17    8.81    1.36
   4  12 -17    8.37    1.56
   3  13  20    8.20    0.65
   3  13  17    0.23    0.62
   3  13  17    0.38    0.43
   3  13  14   10.64    1.04
   3  13  11    0.19    0.87
   3  13   8    8.96    1.13
   3  13   5    0.88    0.98
   3  13   2    0.66    1.15
   3  13  -1    0.26    1.40
   3  13  -1    0.66    1.34
   3  13  -4    2.34    1.44
   3  13  -4   -0.05    1.56
   3  13  -7   11.66    2.00
   3  13 -10   40.06    3.08
   3  13 -10   38.51    2.77
   3  13 -13    3.38    1.27
   3  13 -13    3.15    1.60
   3  13 -16    0.81    0.97
   3  13 -16    1.11    1.11
   2  14  15   11.31    0.92
   2  14  12   12.43    1.22
   2  14  12   12.32    1.17
   2  14   9   68.91    3.23
   2  14   9   64.55    3.34
   2  14   6    5.82    1.09
   2  14   6    5.88    1.21
   2  14   3    6.36    1.38
   2  14   3    5.79    1.26
   2  14   0    0.56    1.09
   2  14   0    1.04    1.28
   2  14  -3   -0.38    1.25
   2  14  -3   -0.97    1.39
   2  14  -6    2.59    1.30
   2  14  -6    0.71    1.48
   2  14  -6    2.19    1.11
   2  14  -9    1.17    1.45
   2  14  -9    1.38    1.20
   2  14 -12   16.77    1.94
   2  14 -12   14.08    1.71
   2  14 -15    8.12    1.28
   2  14 -18    7.31    1.00
   1  15  16    6.84    0.62
   1  15  16    8.37    0.67
   1  15  13   10.04    0.93
   1  15  13   10.02    0.87
   1  15  10   75.14    3.51
   1  15  10   81.23    3.41
   1  15   7   13.77    1.27
   1  15   7   12.84    1.26
   1  15   4   17.01    1.64
   1  15   4   21.79    1.64
   1  15   1   12.39    1.37
   1  15   1   10.73    1.51
   1  15  -2    1.21    1.02
   1  15  -2    0.29    1.32
   1  15  -5    8.54    1.65
   1  15  -5    7.80    1.17
   1  15  -8    5.90    1.17
   1  15  -8    3.14    1.32
   1  15  -8    5.79    1.15
   1  15 -11   10.56    1.23
   1  15 -11   10.07    1.39
   1  15 -14   16.73    1.23
   1  15 -14   17.18    1.52
   1  15 -17    2.54    0.72
   0  16  14    2.78    0.43
   0  16  14    2.58    0.47
   0  16  11   19.44    1.28
   0  16  11   19.17    1.13
   0  16   8    1.18    0.77
   0  16   8    1.76    0.67
   0  16   5   31.20    1.73
   0  16   5   27.47    1.81
   0  16   2   19.37    1.68
   0  16   2   20.99    1.48
   0  16  -1    0.10    1.07
   0  16  -1    0.14    0.81
   0  16  -4    6.09    1.00
   0  16  -4    4.34    1.32
   0  16  -7   11.68    1.49
   0  16  -7   14.80    1.35
   0  16 -10    3.81    0.73
   0  16 -10    2.69    0.87
   0  16 -13    0.87    0.84
   0  16 -13    1.24    0.65
  -1  17 -12    5.83    0.76
  -1  17  -9   13.70    1.28
  -1  17  -9    8.64    0.90
  -1  17  -6    2.39    0.51
  -1  17  -3    0.78    0.92
  -1  17  -3    0.61    0.51
  -1  17   0    2.26    0.92
  -1  17   0    1.67    0.57
  -1  17   3   10.16    0.86
  -1  17   3    9.76    1.09
  -1  17   6   23.14    1.25
  -1  17   9    2.20    0.43
  -1  17   9    2.21    0.63
  -1  17  12    0.34    0.34
  -2  17 -13    0.36    0.61
  -2  17 -13   -0.02    0.71
  -2  17 -10   -0.03    0.86
  -2  17 -10   -0.06    0.87
  -2  17  -7    5.84    1.28
  -2  17  -7    5.67    1.09
  -2  17  -4    0.76    0.85
  -2  17  -4    0.92    0.54
  -2  17  -1   34.12    1.75
  -2  17   2   10.17    0.92
  -2  17   2    9.73    1.29
  -2  17   5   14.11    1.34
  -2  17   5   14.37    1.43
  -2  17   5   13.67    1.00
  -2  17   8   12.91    0.90
  -2  17  11    0.25    0.34
  -2  17  14    1.74    0.43
  -3  17 -14    0.44    0.62
  -3  17 -14    0.70    0.91
  -3  17 -11    9.95    1.26
  -3  17 -11   10.67    1.47
  -3  17  -8   34.92    2.35
  -3  17  -8   38.51    2.60
  -3  17  -5    5.61    1.43
  -3  17  -5    6.53    1.30
  -3  17  -2   68.63    3.60
  -3  17  -2   65.11    2.87
  -3  17   1  111.23    4.48
  -3  17   4    4.46    1.20
  -3  17   4    3.52    0.68
  -3  17   7   12.53    1.32
  -3  17   7   11.75    0.93
  -3  17  10    6.66    0.65
  -3  17  10    6.59    0.98
  -3  17  13    0.54    0.32
  -4  17 -15   -0.11    0.51
  -4  17 -15   -0.07    1.02
  -4  17 -12   11.91    1.25
  -4  17 -12   12.55    1.69
  -4  17  -9   21.71    1.83
  -4  17  -9   22.50    2.19
  -4  17  -6    3.65    1.28
  -4  17  -6    5.50    1.52
  -4  17  -3   48.12    3.00
  -4  17  -3   45.79    2.96
  -4  17   0  141.06    6.32
  -4  17   6    1.94    1.15
  -4  17   6    1.64    0.54
  -4  17   9    2.38    0.52
  -4  17   9    3.16    1.02
  -4  17  12    2.64    0.79
  -4  17  15    0.76    0.56
  -4  17  18    0.11    0.32
  -5  17 -16    0.32    0.89
  -5  17 -13   10.32    1.09
  -5  17 -10    0.59    0.92
  -5  17 -10    0.53    1.40
  -5  17  -7    4.69    1.24
  -5  17  -7    4.02    1.56
  -5  17  -4   26.38    2.18
  -5  17  -4   26.14    2.43
  -5  17  -1   34.96    2.56
  -5  17  -1   34.06    2.66
  -5  17   2    1.45    1.36
  -5  17   5   18.32    1.95
  -5  17   5   15.95    1.72
  -5  17   8    0.30    0.98
  -5  17  11    2.72    0.88
  -5  17  14    1.65    0.73
  -5  17  17    0.30    0.51
  -6  17 -17    3.45    1.01
  -6  17 -14    3.48    1.24
  -6  17 -11    0.62    0.77
  -6  17 -11    1.97    1.45
  -6  17  -8   33.22    2.17
  -6  17  -5   25.00    1.99
  -6  17  -5   24.27    2.53
  -6  17  -2    3.01    1.31
  -6  17  -2    3.77    1.68
  -6  17   1   29.72    2.47
  11   6  -1   42.50    2.64
  -6  17   4   93.81    4.95
  -6  17   4   92.69    4.69
  -6  17   7    2.03    1.06
  11   6  -7    3.06    1.33
  -6  17  10   36.18    2.14
  -6  17  13    4.88    0.90
  -6  17  16    0.68    0.62
  -6  17  19    0.24    0.39
  -7  17 -18    7.10    0.99
  -7  17 -15    1.57    1.10
  -7  17 -12   -0.34    1.20
  -7  17  -9   20.72    1.54
  -7  17  -9   19.20    2.21
  10   7   9   22.24    1.61
  10   7   6   14.74    1.51
  -7  17  -6   13.33    1.40
  -7  17  -3    2.09    1.06
  10   7   3    1.66    1.25
  10   7   0    1.64    1.30
  -7  17   0    2.98    1.18
  -7  17   3   50.11    3.03
  -7  17   3   47.56    2.71
  -7  17   6   16.26    1.47
  -7  17   9   21.00    1.54
  -7  17  12   11.84    1.14
  10   7 -15    0.58    0.94
  -7  17  15   -0.38    0.67
  -7  17  18    0.34    0.48
  -8  17 -16    1.44    0.88
  -8  17 -13    8.55    1.36
   9   8  13    8.83    0.96
  -8  17 -10    0.34    1.28
   9   8  10    0.31    0.83
  -8  17  -7    0.56    0.67
  -8  17  -7    0.58    1.44
   9   8   7    0.65    0.98
  -8  17  -4    0.85    0.82
  -8  17  -4    1.76    1.46
   9   8   4    0.32    1.21
  -8  17  -1   46.96    2.74
   9   8   1   62.95    3.45
  -8  17   2   23.94    1.83
  -8  17   2   18.76    1.41
  -8  17   5    1.64    0.74
  -8  17   8   -0.10    0.69
   9   8 -11    0.57    1.26
  -8  17  11    0.26    0.63
   9   8 -14    7.33    1.46
  -8  17  14    4.95    0.77
   9   8 -17    0.13    0.87
  -8  17  17    0.24    0.48
  -9  17 -17    0.68    0.63
   8   9  17    0.37    0.44
  -9  17 -14   16.16    1.50
   8   9  14   15.90    1.25
  -9  17 -11    8.64    1.37
   8   9  11    9.17    1.19
  -9  17  -8    6.25    1.41
   8   9   8    6.58    1.25
  -9  17  -5    1.15    0.60
  -9  17  -5    1.04    1.26
   8   9   5   -0.27    1.37
  -9  17  -2   71.27    3.44
   8   9   2   93.25    4.40
   8   9  -1  211.47    8.98
   8   9  -4   28.66    2.63
   8   9  -7    3.46    1.39
  -9  17   7    2.18    0.59
   8   9 -10   15.09    1.89
  -9  17  10    9.15    0.87
   8   9 -13   34.35    2.53
  -9  17  13   22.86    1.37
   8   9 -16    2.62    1.22
  -9  17  16    1.62    0.50
   8   9 -19    3.91    0.88
   7  10  18    1.23    0.44
 -10  17 -15    7.69    0.90
   7  10  15    6.96    0.88
 -10  17 -12    9.45    1.16
   7  10  12   11.19    1.23
 -10  17  -9    3.03    1.00
   7  10   9    2.31    1.07
 -10  17  -6    0.30    1.04
   7  10   6   -0.91    1.25
   7  10   3   25.77    2.30
   7  10   0  107.32    5.30
   7  10  -3   20.35    1.97
   7  10  -3   18.42    2.25
   7  10  -6    1.25    1.32
   7  10  -9    1.29    1.42
   7  10 -12    4.89    1.59
   7  10 -15    6.00    1.48
   7  10 -18    4.19    1.06
   6  11  16    0.13    0.56
   6  11  13   12.08    1.22
   6  11  10    1.07    0.95
   6  11   7    2.51    1.23
   6  11   4    2.64    1.38
   6  11   1    2.27    1.43
   6  11   1    2.36    1.03
   6  11  -2    7.78    1.65
   6  11  -2    7.02    1.38
   6  11  -5   15.52    1.90
   6  11  -8   21.51    2.24
   6  11 -11   45.73    3.15
   6  11 -14   -0.54    1.34
   6  11 -17    2.40    1.08
   5  12  17    8.65    0.77
   5  12  14    9.91    1.02
   5  12  11    5.54    1.05
   5  12  11    4.73    0.78
   5  12   8    4.02    1.02
   5  12   8    3.86    1.10
   5  12   5    4.29    1.30
   5  12   2    0.89    1.29
   5  12   2    1.37    0.96
   5  12  -1   28.46    2.23
   5  12  -1   27.54    2.29
   5  12  -4   34.40    2.59
   5  12  -4   39.51    2.75
   5  12  -7   19.09    2.13
   5  12 -10  158.53    7.09
   5  12 -13   32.22    2.48
   5  12 -16    9.30    1.36
   4  13  15   10.14    0.87
   4  13  12   10.07    0.92
   4  13  12   11.48    1.09
   4  13   9    3.32    0.87
   4  13   9    4.91    0.99
   4  13   6    8.30    1.32
   4  13   3    1.34    0.90
   4  13   0    1.06    1.05
   4  13  -3   13.10    1.71
   4  13  -6    1.50    1.35
   4  13  -9   68.63    3.82
   4  13 -12   30.17    2.35
   4  13 -15    5.37    1.16
   4  13 -18    8.15    0.90
   3  14  13    8.62    0.74
   3  14  10    5.79    0.86
   3  14   7   10.95    1.28
   3  14   4    3.10    0.87
   3  14   4    2.94    1.07
   3  14   1    6.77    1.19
   3  14   1    7.13    1.22
   3  14  -2    4.20    1.19
   3  14  -2    3.10    1.24
   3  14  -5    0.21    1.05
   3  14  -5    0.70    1.19
   3  14  -8    3.82    1.17
   3  14  -8    2.96    1.42
   3  14 -11    0.53    1.03
   3  14 -11    0.60    1.20
   3  14 -14   13.86    1.40
   3  14 -14   13.14    1.21
   2  15  14    4.86    0.51
   2  15  11    6.24    0.72
   2  15  11    6.75    0.73
   2  15   8   11.47    1.01
   2  15   8   10.53    1.08
   2  15   5    0.30    0.65
   2  15   5   -0.08    0.74
   2  15   2    1.37    0.86
   2  15   2    2.10    0.94
   2  15  -1   16.47    1.58
   2  15  -1   17.15    1.49
   2  15  -4   10.13    1.24
   2  15  -4   10.15    1.46
   2  15  -7    0.73    0.92
   2  15  -7    0.10    1.13
   2  15 -10    9.44    1.10
   2  15 -10    8.67    1.34
   2  15 -13   25.50    1.74
   2  15 -13   23.86    1.40
   1  16  12    0.65    0.33
   1  16   9    2.73    0.55
   1  16   9    2.29    0.59
   1  16   6    3.09    0.81
   1  16   6    3.99    0.68
   1  16   3    5.65    0.86
   1  16   3    6.42    0.83
   1  16   0    2.25    0.90
   1  16   0    1.04    0.72
   1  16  -3    4.28    1.04
   1  16  -3    6.41    0.91
   1  16  -6    5.51    1.16
   1  16  -6    6.09    0.86
   1  16  -9    0.90    0.61
   1  16  -9    1.85    0.93
   0  17   7    6.00    0.67
   0  17   7    5.29    0.52
   0  17   4   10.50    0.99
   0  17   4   11.94    0.81
   0  17   1    2.39    0.68
   0  17   1    0.93    0.46
   0  17  -2    0.19    0.68
   0  17  -2    0.21    0.46
   0  17  -5    2.20    0.74
   0  17  -5    1.02    0.42
   0  17  -8   14.81    1.15
  -1  18  -4    0.49    0.45
  -1  18  -1    0.01    0.44
  -1  18  -1    0.04    0.45
  -1  18   2   -0.12    0.42
  -2  18  -8    1.33    0.57
  -2  18   1    5.36    0.78
  -2  18   1    4.75    0.77
  -2  18   4    1.50    0.57
  -2  18   7    5.81    0.63
  -3  18  -9    3.05    0.67
  -3  18  -6   20.83    1.48
  -3  18  -3    0.83    0.79
  -3  18   3    4.68    0.83
  -3  18   3    3.15    0.82
  -3  18   6    5.89    0.78
  -3  18   9    1.88    0.52
  -4  18 -13    0.19    0.54
  -4  18 -10    5.69    0.77
  -4  18 -10    6.70    1.00
  -4  18  -7   23.94    1.60
  -4  18  -7   23.58    1.72
  -4  18  -4    1.87    0.89
  -4  18  -1   37.91    2.25
  -4  18   2   27.41    1.75
  -4  18   5    0.28    0.73
  -4  18   8    3.10    0.72
  -4  18  11    0.27    0.45
  -5  18 -11    0.59    0.52
  -5  18 -11    1.31    0.84
  -5  18  -8    0.17    0.69
  -5  18  -8    1.25    0.96
  -5  18  -5    0.49    0.84
  -5  18  -5    1.07    1.03
  -5  18  -2   12.04    1.39
  -5  18   1   14.91    1.49
  -5  18   1   15.10    1.33
  -5  18   4   -0.19    0.75
  -5  18   4    0.24    0.88
  -5  18   7    2.98    0.79
  -5  18  10    0.35    0.54
  -5  18  13    0.06    0.45
  -6  18 -15    0.20    0.53
  -6  18  -9   24.76    1.51
  -6  18  -6   11.82    1.19
  -6  18  -6   11.24    1.50
  -6  18  -3    2.17    0.92
  -6  18   0   -0.19    0.73
  -6  18   0    0.14    0.93
  -6  18   3   13.94    1.43
  -6  18   3   11.30    1.14
  -6  18   6   14.90    1.22
  -6  18   9    0.16    0.59
  -6  18  12    0.69    0.55
  -6  18  15    0.37    0.37
  -7  18 -16    0.57    0.48
  -7  18 -13    4.30    0.91
  -7  18 -10   31.35    1.59
  -7  18 -10   30.08    2.10
  -7  18  -7   20.96    1.40
  -7  18  -4    0.69    0.73
  -7  18  -1    0.19    0.57
  -7  18  -1    0.64    0.86
  -7  18   2   12.36    1.31
  -7  18   2    9.85    0.98
  11   7  -5   46.18    2.28
  -7  18   5   29.74    1.81
  11   7  -8    3.06    0.86
  -7  18   8    1.99    0.62
  -7  18  11    0.68    0.52
  -7  18  14   -0.14    0.43
  -8  18 -14    0.60    0.64
  -8  18 -11    3.59    0.97
  -8  18  -8    0.57    0.48
  -8  18  -8    1.84    1.05
  -8  18  -5    1.42    0.65
  10   8   5    2.68    0.88
  -8  18  -2    7.48    0.98
  10   8   2    9.39    1.30
  10   8  -1   21.99    1.87
  10   8  -4    6.04    1.30
  -8  18   4    3.94    0.66
  10   8  -7   10.51    1.42
  -8  18   7    7.07    0.77
  10   8 -10   -0.20    0.98
  -8  18  10    0.49    0.49
  10   8 -13   -0.52    0.75
  -8  18  13   -0.26    0.42
  -9  18 -12    3.13    0.80
   9   9  12    2.24    0.57
  -9  18  -9   15.01    1.41
   9   9   9   18.82    1.32
   9   9   6   27.45    1.81
   9   9   3   16.86    1.65
   9   9   0  160.58    6.82
   9   9  -3   36.86    2.57
   9   9  -6    6.59    1.49
   9   9  -9   10.87    1.56
  -9  18  12    2.30    0.43
   8  10  13    4.57    0.64
   8  10  10   21.19    1.43
   8  10   7   25.80    1.75
   8  10   4    5.59    1.25
   8  10   1  148.66    6.38
   8  10  -2   88.59    4.38
   8  10  -5    1.89    1.37
   8  10  -8   16.34    1.83
   8  10 -11    7.86    1.18
   8  10 -14    0.25    0.70
   7  11  14    1.31    0.50
   7  11  11    3.30    0.74
   7  11   8    0.61    0.79
   7  11   5    7.08    1.24
   7  11   2   40.52    2.52
   7  11  -1   13.88    1.65
   7  11  -4   13.24    1.68
   7  11  -7   12.70    1.52
   7  11  -7   12.82    1.68
   7  11 -10   -0.23    1.20
   7  11 -10    0.57    0.95
   7  11 -13    0.26    0.79
   6  12  15   -0.15    0.37
   6  12  12    0.43    0.55
   6  12   9    9.05    1.05
   6  12   6   20.58    1.56
   6  12   6   17.54    1.34
   6  12   3    6.84    1.26
   6  12   0    2.76    1.18
   6  12  -3   43.80    2.60
   6  12  -3   47.39    2.76
   6  12  -6   11.98    1.46
   6  12  -6   14.93    1.68
   6  12  -9   18.76    1.73
   6  12  -9   20.22    1.83
   6  12 -12   10.48    1.24
   6  12 -12   10.80    1.36
   6  12 -15    0.80    0.67
   6  12 -15    1.37    0.66
   5  13  13    2.94    0.53
   5  13  10    2.96    0.72
   5  13   7   17.94    1.32
   5  13   7   13.84    1.12
   5  13   4    3.90    1.00
   5  13   1   -0.24    1.01
   5  13  -2   20.35    1.63
   5  13  -2   20.88    1.72
   5  13  -5   12.88    1.50
   5  13  -8   17.20    1.61
   5  13 -11   27.56    1.89
   5  13 -14   -0.09    0.63
   4  14  11    1.23    0.49
   4  14   8    1.67    0.70
   4  14   8    1.36    0.56
   4  14   5    1.24    0.75
   4  14   2    4.81    0.75
   4  14  -1    4.30    0.90
   4  14  -4    0.77    0.92
   4  14  -7    0.36    0.92
   4  14  -7    0.52    0.94
   4  14 -10    2.52    0.87
   4  14 -10    1.62    0.90
   4  14 -13    1.03    0.57
   4  14 -13    1.51    0.66
   3  15   9   -0.38    0.49
   3  15   9    0.44    0.38
   3  15   6   -0.03    0.55
   3  15   6    0.09    0.55
   3  15   3    7.29    0.75
   3  15   3    9.03    0.97
   3  15   0   41.45    2.18
   3  15   0   46.96    2.29
   3  15  -3   15.49    1.32
   3  15  -3   16.91    1.32
   3  15  -6    0.27    0.77
   3  15  -6    0.35    0.81
   3  15  -9    3.75    0.74
   3  15  -9    4.47    0.87
   2  16   7    0.12    0.38
   2  16   7    0.26    0.39
   2  16   4    0.85    0.55
   2  16   4    0.78    0.47
   2  16   1   22.60    1.34
   2  16   1   26.74    1.40
   2  16  -2   21.99    1.39
   2  16  -2   23.45    1.35
   2  16  -5    0.89    0.62
   2  16  -5    0.40    0.53
   2  16  -8    2.86    0.65
   1  17   2    0.51    0.47
  -4  19  -5    8.41    0.71
  -4  19  -2    0.73    0.48
  -4  19   1    0.56    0.38
  -4  19   4    0.28    0.35
  -5  19  -6    6.29    0.64
  -5  19  -3    5.17    0.70
  -5  19   0    0.31    0.38
  -5  19   3    0.21    0.40
  -5  19   6    0.01    0.35
  -6  19  -7    1.92    0.45
  -6  19  -4    4.91    0.67
  -6  19  -1    1.62    0.39
  -6  19  -1    2.01    0.64
  -6  19   2    0.16    0.39
  -6  19   5    0.35    0.38
  -6  19   8   -0.17    0.33
  -7  19  -5    0.78    0.46
  -7  19   4    0.79    0.36
  -7  19   7    0.61    0.34
  10   9   1   20.17    1.37
  10   9  -2   26.13    1.62
  10   9  -5    0.79    0.67
  10   9  -8    2.45    0.64
   9  10   8   24.36    1.30
   9  10   5   12.72    1.07
   9  10   2   28.96    1.75
   9  10  -1   66.74    3.14
   9  10  -4    1.38    0.86
   9  10  -7    7.52    1.03
   9  10 -10    1.87    0.69
   8  11   9    2.69    0.55
   8  11   6    2.44    0.64
   8  11   3   11.65    1.14
   8  11   0   36.52    2.11
   8  11  -3    1.08    0.92
   8  11  -6   13.71    1.33
   8  11  -9    4.68    0.89
   8  11 -12    0.94    0.56
   7  12  10    6.91    0.63
   7  12   7    9.18    0.85
   7  12   4    4.80    0.85
   7  12   1    0.95    0.82
   7  12  -2    8.54    1.12
   7  12  -5   26.36    1.76
   7  12  -8    2.88    0.85
   7  12 -11   -0.24    0.57
   6  13   8   20.41    1.16
   6  13   5    1.57    0.63
   6  13   2    1.02    0.55
   6  13   2    1.73    0.73
   6  13  -1   12.91    1.19
   6  13  -4   23.22    1.58
   6  13  -7    0.35    0.74
   6  13 -10    3.03    0.68
   5  14   9    2.93    0.42
   5  14   6   -0.28    0.48
   5  14   3    0.61    0.45
   5  14   3    0.74    0.60
   5  14   0    0.72    0.66
   4  15   1   18.04    1.10
   4  15  -2   22.05    1.28
   4  15  -5    0.01    0.47
   0   0   0    0.00    0.00


TITL hy in R-3
REM R-3 (#148 in standard setting)
CELL 1.54184  16.315467  16.315467  29.613135  90.0000  90.0000 120.0000
ZERR   30.00   0.000275   0.000275   0.000478   0.0000   0.0000   0.0000
LATT  3
SYMM -y, x-y, z
SYMM -x+y,-x, z
SFAC C H N O
UNIT 330.00 300.00 30.00 30.00
TREF
HKLF 4
END
_computing_structure_solution     'SHELXT 2014/5 (Sheldrick, 2014)'
;
_shelx_hkl_checksum              75896
_shelx_fab_file
;
0 0 3 -134.3060 4.0039
0 0 6 36.7943 0.5362
0 0 9 -0.4934 -4.2271
0 0 12 -2.4436 6.4984
0 0 15 4.5932 -5.2560
0 0 18 -1.5357 -5.9657
0 0 21 -2.0280 10.6937
0 0 24 2.7573 1.5000
0 0 27 -2.2366 -9.1875
0 0 30 -1.7781 1.2671
0 0 33 5.9567 4.7148
0 0 36 -4.4341 -0.9467
0 1 -34 -3.7521 2.6300
0 1 -31 3.0676 -0.4852
0 1 -28 0.2804 -4.5377
0 1 -25 -3.0494 3.5519
0 1 -22 2.6155 5.1630
0 1 -19 2.0535 -6.1934
0 1 -16 -3.9839 -3.5752
0 1 -13 2.0349 3.2841
0 1 -10 -3.2856 -0.2271
0 1 -7 -20.0781 5.1531
0 1 -4 92.2550 1.0451
0 1 -1 -152.6244 -4.9395
0 1 2 134.0764 -4.9283
0 1 5 -64.7075 1.3187
0 1 8 10.3552 6.0508
0 1 11 5.6715 -1.8264
0 1 14 -2.5760 2.3076
0 1 17 1.7904 -0.3171
0 1 20 -1.6657 -6.8251
0 1 23 -2.0920 1.9745
0 1 26 3.0148 5.3861
0 1 29 0.6336 -2.3728
0 1 32 -3.7482 -2.2853
0 1 35 3.0917 1.5675
0 2 -35 -0.7960 -1.2263
0 2 -32 -0.5293 -0.4089
0 2 -29 0.8315 1.9014
0 2 -26 1.7962 0.8770
0 2 -23 -1.2893 -3.0150
0 2 -20 -2.4866 -0.8752
0 2 -17 1.6118 4.3188
0 2 -14 -2.2260 1.6318
0 2 -11 4.8917 -3.0079
0 2 -8 11.4411 -3.2819
0 2 -5 -47.9890 -0.8642
0 2 -2 80.7217 1.5031
0 2 1 -87.7839 5.7470
0 2 4 59.8399 1.8244
0 2 7 -19.5843 -6.4370
0 2 10 0.0291 -2.2456
0 2 13 1.6054 1.6548
0 2 16 -2.3833 0.5550
0 2 19 3.1193 2.1727
0 2 22 -0.7676 1.0411
0 2 25 -1.7023 -2.4599
0 2 28 0.5780 -0.7454
0 2 31 1.3210 1.1314
0 2 34 -0.0700 -0.4017
0 3 -36 0.4270 -0.5075
0 3 -33 -0.6475 -1.0709
0 3 -30 1.5634 -1.2020
0 3 -27 -1.9548 1.5382
0 3 -24 0.4059 2.6302
0 3 -21 1.5455 -2.2654
0 3 -18 -2.7922 -3.3648
0 3 -15 2.6067 2.6795
0 3 -12 1.4506 2.9061
0 3 -9 -4.1666 -1.6787
0 3 -6 10.4288 -1.0143
0 3 -3 -34.2768 -0.8619
0 3 0 49.4287 -0.6634
0 3 3 -30.5819 2.2729
0 3 6 10.1915 1.5439
0 3 9 -6.9325 -2.2451
0 3 12 2.4418 -1.0687
0 3 15 2.5823 1.9676
0 3 18 -2.2340 -0.7127
0 3 21 1.7851 -0.8179
0 3 24 -0.6414 1.3745
0 3 27 -0.9216 -0.3885
0 3 30 0.8130 -1.1131
0 3 33 -1.1223 1.4339
0 3 36 1.9189 0.0191
0 4 -34 -1.5954 0.1380
0 4 -31 -1.2962 -0.7697
0 4 -28 3.3231 -1.2047
0 4 -25 -1.4513 1.9139
0 4 -22 -0.1753 2.1236
0 4 -19 2.9741 -2.8058
0 4 -16 -3.9368 -2.7796
0 4 -13 -2.8025 0.6964
0 4 -10 3.8609 2.1499
0 4 -7 0.8827 3.2786
0 4 -4 10.2787 0.6447
0 4 -1 -23.9821 -5.2425
0 4 2 15.4381 -2.8897
0 4 5 -2.4870 3.2793
0 4 8 3.5680 2.0059
0 4 11 -5.7523 -0.3070
0 4 14 0.2944 0.7880
0 4 17 3.3243 -0.9158
0 4 20 -0.7769 -2.0537
0 4 23 -0.9775 0.7446
0 4 26 0.7052 1.1794
0 4 29 -1.3239 -0.3170
0 4 32 0.8112 -0.4283
0 4 35 0.1043 0.0065
0 5 -35 0.4347 0.3212
0 5 -32 0.4923 -0.7263
0 5 -29 -1.2055 -0.9826
0 5 -26 0.5802 0.9107
0 5 -23 0.2183 1.5273
0 5 -20 -1.2057 -0.5637
0 5 -17 0.5997 -0.9382
0 5 -14 0.9780 0.8451
0 5 -11 -1.1037 0.3305
0 5 -8 2.4289 -1.5755
0 5 -5 -5.6874 -0.7658
0 5 -2 8.8797 0.3350
0 5 1 -9.4420 1.4972
0 5 4 4.8848 2.5261
0 5 7 -1.5996 -0.4953
0 5 10 2.5556 -3.7891
0 5 13 -0.4373 -1.9635
0 5 16 -1.9154 2.6244
0 5 19 -0.7740 2.6010
0 5 22 2.6340 -0.3354
0 5 25 -1.6283 -1.4896
0 5 28 0.6823 -0.7586
0 5 31 0.4853 0.1373
0 5 34 -1.4532 1.3514
0 6 -33 -1.2777 0.4660
0 6 -30 0.6311 -0.8362
0 6 -27 0.1945 -1.3179
0 6 -24 -1.6202 0.8900
0 6 -21 2.5919 1.4978
0 6 -18 0.8410 -0.5135
0 6 -15 -4.2583 -0.5702
0 6 -12 2.3612 -0.5653
0 6 -9 0.5143 -0.3878
0 6 -6 0.7327 1.8110
0 6 -3 -6.1226 0.9623
0 6 0 9.3861 -2.5770
0 6 3 -6.6792 -1.3181
0 6 6 2.3655 2.2864
0 6 9 2.0534 1.1258
0 6 12 -4.4391 -0.5669
0 6 15 1.1489 -0.6091
0 6 18 2.5615 -1.3960
0 6 21 -3.0341 0.4003
0 6 24 2.0495 2.0782
0 6 27 0.0854 -0.5413
0 6 30 -1.1943 -1.5346
0 6 33 0.9139 0.3505
0 7 -31 -1.0554 0.4106
0 7 -28 1.6342 -0.0435
0 7 -25 0.9390 0.2300
0 7 -22 -3.0076 -0.4894
0 7 -19 1.4068 -1.4750
0 7 -16 2.1945 0.7658
0 7 -13 -4.2111 1.5307
0 7 -10 0.2903 -0.8581
0 7 -7 4.1979 -0.3072
0 7 -4 1.3133 1.6548
0 7 -1 -9.9912 -0.9952
0 7 2 8.9112 -1.9217
0 7 5 -1.0936 0.9859
0 7 8 -4.1965 0.7557
0 7 11 4.4699 -0.3263
0 7 14 -2.6450 0.6410
0 7 17 0.1943 0.2217
0 7 20 2.4254 -1.2330
0 7 23 -1.8717 0.2654
0 7 26 -0.4170 0.6236
0 7 29 0.2497 -0.6229
0 7 32 -0.0208 -0.5811
0 8 -32 0.4027 0.8978
0 8 -29 -1.4726 -0.7336
0 8 -26 -0.2801 0.0562
0 8 -23 0.9512 1.4626
0 8 -20 -0.6878 0.0592
0 8 -17 1.3898 -1.5879
0 8 -14 -0.4650 0.5699
0 8 -11 -0.6890 0.4396
0 8 -8 -0.7646 -1.2392
0 8 -5 -0.0225 0.3276
0 8 -2 6.2322 1.1438
0 8 1 -8.4589 -0.5599
0 8 4 1.1772 -0.0124
0 8 7 3.7293 0.8816
0 8 10 -1.0394 -1.1330
0 8 13 0.2399 -0.7474
0 8 16 -1.4690 1.2220
0 8 19 0.0556 -0.2335
0 8 22 0.4635 -0.9041
0 8 25 0.2615 1.3550
0 8 28 0.2592 0.6803
0 8 31 -0.2123 -1.3002
0 9 -30 0.7461 0.5437
0 9 -27 0.1087 0.2317
0 9 -24 -0.9138 0.8867
0 9 -21 1.0779 -0.3080
0 9 -18 -0.6428 -1.0813
0 9 -15 0.9093 0.3614
0 9 -12 -1.2526 1.0062
0 9 -9 -0.6940 -0.4791
0 9 -6 2.4681 -0.6435
0 9 -3 -3.1519 0.3856
0 9 0 4.9764 0.0941
0 9 3 -4.4025 0.0328
0 9 6 0.0196 0.2214
0 9 9 1.4320 -0.6147
0 9 12 1.5914 -0.0499
0 9 15 -2.3463 0.8544
0 9 18 -0.0776 -0.0075
0 9 21 0.5941 -0.7866
0 9 24 0.0067 0.0064
0 9 27 0.5155 0.0819
0 9 30 -0.3719 0.5673
0 10 -28 0.3278 0.0265
0 10 -25 0.3954 0.4479
0 10 -22 -1.7497 0.7151
0 10 -19 1.3082 -1.4679
0 10 -16 0.1562 -0.4741
0 10 -13 -0.4026 2.1071
0 10 -10 0.7913 0.0264
0 10 -7 -1.2788 -1.4063
0 10 -4 0.7040 0.3450
0 10 -1 -2.2947 -0.2306
0 10 2 5.1905 -0.3986
0 10 5 -2.5540 1.6855
0 10 8 -1.6703 0.1555
0 10 11 -0.7653 -2.4823
0 10 14 3.2671 0.2727
0 10 17 -0.5983 1.9337
0 10 20 -0.5001 0.0268
0 10 23 -0.3290 -0.7320
0 10 26 -0.2202 -0.3105
0 10 29 0.0093 -0.7114
0 11 -26 -0.0376 0.3324
0 11 -23 -0.2035 1.1652
0 11 -20 -0.7726 0.5712
0 11 -17 1.4978 -1.2966
0 11 -14 -0.2863 -0.8470
0 11 -11 -0.7138 0.5057
0 11 -8 0.0882 0.7732
0 11 -5 0.0044 0.5669
0 11 -2 1.7313 -0.5340
0 11 1 -2.2300 -1.4539
0 11 4 -0.7115 0.4621
0 11 7 1.8179 1.8232
0 11 10 1.2951 -0.3501
0 11 13 -1.7422 -1.5281
0 11 16 -0.9448 0.2874
0 11 19 0.8350 0.3031
0 11 22 0.2807 -0.0401
0 11 25 -0.0299 0.8436
0 11 28 0.6447 -0.4172
0 12 -27 0.2221 -1.2635
0 12 -24 -0.0904 0.9886
0 12 -21 -0.4027 0.6467
0 12 -18 -0.3257 -1.1408
0 12 -15 1.9416 -0.0897
0 12 -12 -1.5490 0.9344
0 12 -9 -0.6081 -0.7356
0 12 -6 0.8924 -0.1487
0 12 -3 -0.3242 1.2098
0 12 0 0.5286 -0.6928
0 12 3 1.3088 -1.0781
0 12 6 -2.6271 1.0738
0 12 9 0.0959 0.4385
0 12 12 0.6867 -0.7341
0 12 15 1.3294 0.1637
0 12 18 -0.6065 0.0194
0 12 21 -0.6824 -0.3079
0 12 24 -0.2470 0.3146
0 12 27 0.0366 0.8193
0 13 -25 0.2936 -0.5464
0 13 -22 -0.0054 -0.0712
0 13 -19 -0.5615 0.4934
0 13 -16 -0.7839 0.0396
0 13 -13 1.2926 0.5060
0 13 -10 1.1666 -0.4481
0 13 -7 -1.2911 -0.9956
0 13 -4 -1.6573 0.6404
0 13 -1 1.1311 0.6132
0 13 2 1.6350 -0.5769
0 13 5 -0.8591 0.0961
0 13 8 -1.1353 0.5000
0 13 11 0.8306 -0.6180
0 13 14 -0.1336 -0.2359
0 13 17 -0.2206 0.5581
0 13 20 0.8337 -0.2826
0 13 23 -0.6208 0.2154
0 14 -20 0.4907 -1.3276
0 14 -17 0.0536 -0.2401
0 14 -14 0.4208 0.9542
0 14 -11 -1.2060 0.5594
0 14 -8 0.7722 -0.9946
0 14 -5 0.8577 -0.1375
0 14 -2 -1.4544 0.7014
0 14 1 -0.8507 -0.5152
0 14 4 2.6527 0.0149
0 14 7 -1.1257 0.7138
0 14 10 -0.0101 -0.6833
0 14 13 -0.4945 -0.4617
0 14 16 0.3035 1.2378
0 14 19 -0.5980 -0.4664
0 14 22 1.1960 -0.8850
0 15 -18 0.4951 -1.9800
0 15 -15 -0.1014 -0.1015
0 15 -12 0.3521 1.5656
0 15 -9 -0.7407 0.2376
0 15 -6 0.4818 -1.1476
0 15 -3 0.3176 -0.0297
0 15 0 -0.3268 0.2511
0 15 3 -0.4264 -0.0191
0 15 6 1.1520 0.5579
0 15 9 -1.4265 -0.1676
0 15 12 0.4762 -0.8198
0 15 15 0.2001 -0.0590
0 15 18 0.8372 1.5992
0 16 -13 0.8068 0.3312
0 16 -10 0.8416 0.2359
0 16 -7 -1.4657 0.2101
0 16 -4 0.0303 0.0636
0 16 -1 0.5493 -0.6073
0 16 2 -0.2413 -0.6644
0 16 5 0.0597 1.0563
0 16 8 0.1945 0.9974
0 16 11 0.0617 -1.1084
0 16 14 -0.2085 -0.2888
0 17 -8 1.4685 -0.9976
0 17 -5 -0.7333 -0.2123
0 17 -2 -0.2243 0.7729
0 17 1 0.0327 -0.2275
0 17 4 -0.1290 -0.4098
0 17 7 0.7035 0.5061
1 1 -36 1.1403 0.1788
1 1 -33 2.0950 -0.7806
1 1 -30 -2.2429 1.5246
1 1 -27 -1.9276 0.8674
1 1 -24 1.9521 -3.5150
1 1 -21 0.0219 0.0161
1 1 -18 -0.6949 3.3037
1 1 -15 5.5411 -1.1092
1 1 -12 -4.8762 -0.2336
1 1 -9 -7.6367 1.4996
1 1 -6 27.8166 -3.5001
1 1 -3 -68.3089 0.7128
1 1 0 109.2728 2.2827
1 1 3 -97.2506 -1.3166
1 1 6 43.1137 0.1644
1 1 9 -3.9354 0.6796
1 1 12 -4.4249 -0.4637
1 1 15 1.7626 -1.5716
1 1 18 -1.7208 1.8494
1 1 21 1.4690 1.0477
1 1 24 0.9183 -2.5771
1 1 27 -0.3188 -0.6132
1 1 30 -1.0967 2.2746
1 1 33 0.2541 1.1173
1 1 36 0.0329 -1.8259
1 2 -34 1.2683 0.2964
1 2 -31 0.1658 -0.7432
1 2 -28 0.8308 -0.0510
1 2 -25 -1.3531 0.9491
1 2 -22 0.4213 -0.0467
1 2 -19 1.4157 0.1711
1 2 -16 -3.6713 -1.5065
1 2 -13 2.7154 -3.4446
1 2 -10 -0.0019 2.6440
1 2 -7 -4.7758 6.2375
1 2 -4 20.7154 -0.1590
1 2 -1 -46.0223 -5.3984
1 2 2 61.2482 -3.4461
1 2 5 -47.7906 0.6661
1 2 8 16.1339 3.9274
1 2 11 0.3854 4.2574
1 2 14 1.2227 -2.2599
1 2 17 0.8036 -5.1778
1 2 20 -4.4037 0.9870
1 2 23 1.9621 3.1779
1 2 26 -0.0823 -0.5118
1 2 29 -0.4961 -1.2147
1 2 32 1.8215 -0.5974
1 2 35 -1.3912 0.9425
1 3 -35 -0.5078 0.5883
1 3 -32 1.7194 1.3851
1 3 -29 -2.4330 1.2723
1 3 -26 1.0979 -2.2921
1 3 -23 0.5236 -2.8689
1 3 -20 -2.0945 2.6651
1 3 -17 2.4328 3.6258
1 3 -14 -0.6797 -0.2183
1 3 -11 0.4127 -2.1538
1 3 -8 -4.1768 -3.7454
1 3 -5 4.3615 -2.1144
1 3 -2 10.6725 5.4297
1 3 1 -28.8540 5.3772
1 3 4 27.6569 -2.8136
1 3 7 -16.6625 -4.2817
1 3 10 10.6905 -1.1332
1 3 13 -3.0675 0.4811
1 3 16 -2.9727 2.9503
1 3 19 1.4561 1.9856
1 3 22 -0.7313 -2.9667
1 3 25 1.1903 -1.7031
1 3 28 0.8717 2.1432
1 3 31 -1.2912 1.2590
1 3 34 -0.0151 -1.3884
1 4 -33 0.1209 0.0249
1 4 -30 0.8024 0.5100
1 4 -27 -1.5875 1.0167
1 4 -24 0.4472 -1.2889
1 4 -21 0.8271 -1.8036
1 4 -18 -1.8529 2.0625
1 4 -15 2.1834 1.5309
1 4 -12 1.9392 -1.7429
1 4 -9 -1.1979 -0.2214
1 4 -6 -8.6511 0.3797
1 4 -3 5.4389 -0.3770
1 4 0 10.3653 0.3249
1 4 3 -15.1610 0.0251
1 4 6 13.5034 -0.9025
1 4 9 -11.7104 0.9486
1 4 12 3.1468 2.1887
1 4 15 2.3346 -2.3400
1 4 18 0.6050 -2.3287
1 4 21 -1.6862 2.2753
1 4 24 -0.0492 1.5797
1 4 27 -0.0313 -1.2520
1 4 30 0.2422 -0.8095
1 4 33 1.0650 0.2577
1 5 -34 0.3966 -1.1487
1 5 -31 0.6801 1.0853
1 5 -28 0.4850 1.9553
1 5 -25 -0.3693 -0.6275
1 5 -22 -0.4895 -2.5397
1 5 -19 -0.3771 -0.0350
1 5 -16 0.5214 0.9970
1 5 -13 -0.9275 0.1285
1 5 -10 1.8359 1.1265
1 5 -7 1.7111 0.3520
1 5 -4 -6.4789 -1.9357
1 5 -1 1.7273 0.7104
1 5 2 11.0319 1.1079
1 5 5 -14.4828 -2.6072
1 5 8 4.4767 -0.7229
1 5 11 1.4385 2.7611
1 5 14 1.0817 1.3059
1 5 17 -1.8983 -0.9169
1 5 20 1.3563 -0.8558
1 5 23 -0.9906 -1.4940
1 5 26 -0.5236 -0.0376
1 5 29 0.5146 2.2992
1 5 32 -0.3559 0.3338
1 5 35 1.5969 -1.8320
1 6 -32 0.7900 -1.0350
1 6 -29 -1.4391 -0.4012
1 6 -26 0.5490 1.0974
1 6 -23 1.3995 0.3803
1 6 -20 -0.8832 -0.8353
1 6 -17 -1.9570 0.5246
1 6 -14 2.3919 0.3934
1 6 -11 -0.2695 -0.9457
1 6 -8 -1.6617 0.0377
1 6 -5 4.3467 -0.5291
1 6 -2 -1.7970 -0.8821
1 6 1 -8.3509 2.3472
1 6 4 10.0023 2.0856
1 6 7 -0.2238 -2.2546
1 6 10 -4.1076 -2.4076
1 6 13 1.0070 0.8942
1 6 16 1.0417 1.0376
1 6 19 -1.4832 0.2372
1 6 22 0.9804 0.1483
1 6 25 0.4542 -0.4205
1 6 28 -0.9647 -0.4808
1 6 31 0.4585 1.0340
1 6 34 -0.3942 -0.1502
1 7 -33 -0.1410 -0.2752
1 7 -30 1.8656 -0.0443
1 7 -27 -2.5823 0.3563
1 7 -24 0.2784 -0.4834
1 7 -21 2.1794 0.1276
1 7 -18 -1.8873 0.7950
1 7 -15 0.4325 -0.9337
1 7 -12 0.9168 -0.3516
1 7 -9 -0.2110 1.4038
1 7 -6 -2.6846 -0.1603
1 7 -3 0.4239 -1.4578
1 7 0 5.1941 0.5593
1 7 3 -4.1422 0.6850
1 7 6 -0.1378 -0.7254
1 7 9 1.7684 0.5637
1 7 12 -2.5819 0.4036
1 7 15 1.9128 -1.1132
1 7 18 0.1706 0.0840
1 7 21 -0.8433 1.1320
1 7 24 -0.1063 -0.7827
1 7 27 0.9878 -0.6717
1 7 30 -0.4795 0.4787
1 7 33 -0.4555 1.0622
1 8 -31 -0.7672 0.0002
1 8 -28 1.7617 0.4492
1 8 -25 -0.3870 -0.5573
1 8 -22 -0.9782 -1.7355
1 8 -19 1.7211 0.6044
1 8 -16 -3.4122 1.9492
1 8 -13 1.9137 -0.8694
1 8 -10 2.5172 -0.9181
1 8 -7 -2.3007 1.3664
1 8 -4 -0.5689 -0.2159
1 8 -1 -1.1521 -1.2046
1 8 2 3.9863 0.8412
1 8 5 -1.6854 0.0823
1 8 8 -1.6240 -0.9654
1 8 11 0.5935 0.8542
1 8 14 0.5536 0.4790
1 8 17 0.6168 -0.9247
1 8 20 -0.4779 0.7530
1 8 23 0.2400 0.4152
1 8 26 -1.0800 -1.4171
1 8 29 0.2548 -0.4698
1 8 32 0.9216 1.2940
1 9 -29 -0.2721 -0.3762
1 9 -26 -0.4592 -0.3079
1 9 -23 1.1532 0.0279
1 9 -20 -1.0838 0.5164
1 9 -17 0.7663 0.6618
1 9 -14 -0.8465 -1.0993
1 9 -11 -0.1826 -1.1612
1 9 -8 2.0736 1.0296
1 9 -5 -0.7710 1.0166
1 9 -2 0.0976 -0.4841
1 9 1 -4.5711 -0.3654
1 9 4 4.3588 -0.1175
1 9 7 1.7312 -0.1970
1 9 10 -0.6614 0.8436
1 9 13 -3.7704 0.4861
1 9 16 1.3835 -1.2699
1 9 19 1.1439 -0.9905
1 9 22 0.1425 1.1242
1 9 25 0.2990 0.9566
1 9 28 -1.0716 0.2523
1 9 31 -0.1899 -1.3404
1 10 -27 -0.7431 0.7922
1 10 -24 -0.1656 -0.8315
1 10 -21 2.0302 -1.3447
1 10 -18 -0.1209 0.9657
1 10 -15 -1.3019 1.1828
1 10 -12 -1.1236 -0.8463
1 10 -9 0.6196 -0.5550
1 10 -6 1.8716 0.2354
1 10 -3 -1.1200 -0.1144
1 10 0 1.1879 0.8002
1 10 3 -2.1837 0.5100
1 10 6 0.6781 -1.8379
1 10 9 -0.9126 -0.5174
1 10 12 2.6969 2.0500
1 10 15 -0.8036 0.3713
1 10 18 -0.7897 -1.1936
1 10 21 -0.8266 -0.1155
1 10 24 0.3506 -0.1395
1 10 27 1.1347 -0.0323
1 11 -25 -0.4376 -0.4284
1 11 -22 -0.3166 -1.1157
1 11 -19 0.1240 0.0559
1 11 -16 -0.8826 1.4080
1 11 -13 2.0908 0.1586
1 11 -10 -0.4564 -0.6620
1 11 -7 -1.7622 -0.4086
1 11 -4 1.1285 -0.4734
1 11 -1 0.7844 0.5099
1 11 2 -1.4819 1.2566
1 11 5 -0.0199 -0.4430
1 11 8 2.3594 -1.4477
1 11 11 -1.9953 0.3917
1 11 14 -0.4859 0.8401
1 11 17 0.5215 -0.1602
1 11 20 0.7979 -0.0369
1 11 23 0.2896 0.2623
1 11 26 -1.0673 -1.3827
1 12 -26 -0.1915 1.0845
1 12 -23 -0.2558 -0.4854
1 12 -20 0.5664 -0.6123
1 12 -17 0.7614 0.5328
1 12 -14 -1.9086 -0.2549
1 12 -11 1.0108 -0.6414
1 12 -8 0.3684 1.2199
1 12 -5 0.0357 0.2517
1 12 -2 -1.0427 -1.4752
1 12 1 0.1838 0.4180
1 12 4 0.8743 1.1274
1 12 7 -0.5382 -0.9196
1 12 10 0.6251 -0.5157
1 12 13 -0.7193 0.9148
1 12 16 0.1720 -0.0275
1 12 19 -0.5669 -0.3629
1 12 22 0.5125 -0.1059
1 12 25 0.7379 0.7239
1 13 -21 0.1906 -0.0879
1 13 -18 0.6941 -0.2698
1 13 -15 -0.4989 0.1387
1 13 -12 -2.0676 -0.2828
1 13 -9 1.6162 0.0790
1 13 -6 0.2659 0.6315
1 13 -3 0.9710 -0.4315
1 13 0 0.0137 -0.2514
1 13 3 -3.1324 0.5153
1 13 6 1.8823 -0.4070
1 13 9 -0.1054 -0.3395
1 13 12 0.9146 0.7258
1 13 15 -0.4615 -0.1578
1 13 18 0.4985 -0.2083
1 13 21 -1.7565 0.5525
1 14 -19 -0.4773 1.2355
1 14 -16 1.2039 0.6222
1 14 -13 1.5506 -1.2102
1 14 -10 -2.6009 -0.6135
1 14 -7 -0.2762 0.9244
1 14 -4 0.7069 0.1584
1 14 -1 0.6283 -0.5342
1 14 2 1.0408 0.3137
1 14 5 -2.8376 0.1693
1 14 8 2.0116 -0.5324
1 14 11 -0.6524 0.3807
1 14 14 0.0053 0.5046
1 14 17 -0.5834 -1.4239
1 14 20 1.5590 0.6995
1 15 -17 -0.6308 1.3843
1 15 -14 -0.9535 0.4320
1 15 -11 1.9902 -1.3585
1 15 -8 -0.3431 -0.3325
1 15 -5 -0.7819 0.9693
1 15 -2 0.0310 0.0984
1 15 1 0.0314 0.0961
1 15 4 0.8247 -0.1782
1 15 7 -1.0188 -0.8723
1 15 10 0.5547 0.1723
1 15 13 -0.0698 0.8127
1 15 16 0.4499 0.6031
1 16 -12 -1.6149 -0.3538
1 16 -9 0.5058 -0.0385
1 16 -6 0.4474 -0.0915
1 16 -3 -0.2237 -0.3209
1 16 0 0.4460 0.4170
1 16 3 -0.0536 0.7251
1 16 6 -0.8030 -0.7333
1 16 9 0.2175 -0.8435
1 16 12 0.3244 0.9631
1 17 -4 0.8992 0.3560
1 17 -1 -0.3826 -0.4353
1 17 2 -0.2896 0.2767
2 1 -35 -2.6566 0.4321
2 1 -32 -0.1796 0.9050
2 1 -29 0.2209 -2.7213
2 1 -26 1.9008 -0.5466
2 1 -23 -0.2003 3.9995
2 1 -20 -2.0064 -1.4640
2 1 -17 1.3610 -1.9878
2 1 -14 -3.4825 4.9381
2 1 -11 2.3997 -1.2149
2 1 -8 6.8191 -6.6069
2 1 -5 -14.1393 0.7073
2 1 -2 31.5543 4.6285
2 1 1 -61.7158 1.6878
2 1 4 60.1227 0.8034
2 1 7 -23.2515 -2.2253
2 1 10 1.8914 -6.1316
2 1 13 -1.8287 2.3234
2 1 16 -1.5496 6.5322
2 1 19 4.4130 -3.1225
2 1 22 -1.0611 -3.5406
2 1 25 -0.6645 3.3993
2 1 28 0.1336 1.4596
2 1 31 -1.0676 -2.0635
2 1 34 1.3641 -1.1649
2 2 -36 2.7323 -0.2200
2 2 -33 -2.5726 -0.7746
2 2 -30 0.7194 0.1239
2 2 -27 -0.0934 -0.1555
2 2 -24 -0.0312 -0.0095
2 2 -21 0.3006 1.0816
2 2 -18 -0.6196 -0.5256
2 2 -15 2.6433 -1.3518
2 2 -12 -2.5180 1.0018
2 2 -9 2.5458 1.2185
2 2 -6 -6.6541 -0.0024
2 2 -3 -0.8798 -1.8128
2 2 0 22.5986 -0.9868
2 2 3 -36.2969 1.0554
2 2 6 33.4931 1.6648
2 2 9 -18.7742 1.0579
2 2 12 2.8666 -2.2902
2 2 15 1.5810 -1.6935
2 2 18 -0.5461 1.5427
2 2 21 1.7520 1.4908
2 2 24 -1.1168 -0.5850
2 2 27 -0.3419 -1.1612
2 2 30 0.4695 -0.1015
2 2 33 -0.6803 1.1011
2 2 36 0.3258 0.0219
2 3 -34 1.2852 -0.4818
2 3 -31 -1.4992 0.1793
2 3 -28 0.7713 -0.5631
2 3 -25 -0.1157 0.7292
2 3 -22 -0.5454 2.1030
2 3 -19 1.9173 -2.2257
2 3 -16 -0.7835 -3.5563
2 3 -13 -1.5671 1.9383
2 3 -10 -3.4980 2.8046
2 3 -7 10.1245 0.5801
2 3 -4 -7.7301 0.5288
2 3 -1 1.0224 -2.2681
2 3 2 11.7024 -3.4695
2 3 5 -28.0624 1.4210
2 3 8 25.4593 3.1913
2 3 11 -6.6948 -0.4270
2 3 14 -1.5564 -0.3342
2 3 17 -1.3140 0.7299
2 3 20 1.8589 -1.6852
2 3 23 -0.0614 -1.1094
2 3 26 -0.3226 1.5922
2 3 29 0.3932 0.6044
2 3 32 -1.0761 -0.7869
2 3 35 0.7703 -0.1144
2 4 -35 -0.6498 1.4863
2 4 -32 -0.1621 -0.8850
2 4 -29 0.2188 -2.0185
2 4 -26 0.9370 -0.6326
2 4 -23 -0.6573 2.2021
2 4 -20 -0.6626 2.1150
2 4 -17 -0.2050 -0.7952
2 4 -14 0.7290 -2.0103
2 4 -11 0.2949 -0.8601
2 4 -8 -2.5296 0.4852
2 4 -5 10.0946 1.1437
2 4 -2 -11.6492 -0.2606
2 4 1 -5.0281 -0.1674
2 4 4 19.8324 1.3044
2 4 7 -16.4394 0.3184
2 4 10 7.2951 -1.5101
2 4 13 -1.9892 -1.6368
2 4 16 0.9578 0.4771
2 4 19 -2.7907 1.3065
2 4 22 2.2784 1.0627
2 4 25 0.2746 -0.1223
2 4 28 -1.0300 -1.1557
2 4 31 1.1475 -0.5091
2 4 34 -1.4302 0.6305
2 5 -33 -0.4927 0.8902
2 5 -30 -0.6056 0.2278
2 5 -27 -0.8277 -0.9811
2 5 -24 1.1767 -0.6209
2 5 -21 -0.6278 1.2938
2 5 -18 1.8122 0.1710
2 5 -15 0.0529 -0.5764
2 5 -12 -1.9944 0.6921
2 5 -9 0.6383 -1.0193
2 5 -6 -5.4385 -0.6869
2 5 -3 9.5434 2.3382
2 5 0 0.4590 -0.4209
2 5 3 -10.7032 -2.6013
2 5 6 8.2563 1.2678
2 5 9 -2.7737 2.1707
2 5 12 2.0603 -1.3884
2 5 15 -2.6065 -0.9728
2 5 18 1.9897 0.8003
2 5 21 -1.5669 -0.3845
2 5 24 0.0480 0.2643
2 5 27 2.0013 0.7729
2 5 30 -0.9836 -1.2982
2 5 33 -0.4163 0.0316
2 6 -31 -1.6839 1.3248
2 6 -28 2.4823 -0.3969
2 6 -25 -1.1675 -1.3119
2 6 -22 -0.6403 0.3878
2 6 -19 0.6580 0.5759
2 6 -16 -0.7394 -0.7110
2 6 -13 1.4274 0.1625
2 6 -10 -1.8887 0.6386
2 6 -7 2.4643 -0.3586
2 6 -4 -3.0614 0.8398
2 6 -1 2.3887 0.3797
2 6 2 1.3440 -2.2584
2 6 5 -4.1418 -0.8109
2 6 8 1.2978 1.8732
2 6 11 1.2067 1.1599
2 6 14 0.4269 -0.6142
2 6 17 -1.4520 -0.3890
2 6 20 1.0288 -0.4904
2 6 23 0.0752 -0.2519
2 6 26 -1.7132 0.7394
2 6 29 1.2768 0.7294
2 6 32 0.5185 -1.6877
2 7 -32 1.4663 -0.6876
2 7 -29 -1.5903 0.0142
2 7 -26 1.5847 0.3270
2 7 -23 -0.7484 0.4869
2 7 -20 -2.7311 0.1611
2 7 -17 4.2050 -0.2807
2 7 -14 -1.2082 -0.3812
2 7 -11 -0.6630 0.1125
2 7 -8 0.1489 -0.3820
2 7 -5 0.8879 -0.4497
2 7 -2 -2.1152 1.0594
2 7 1 1.1019 0.6617
2 7 4 1.1324 -0.6516
2 7 7 -0.8895 -0.2191
2 7 10 -0.6718 0.0624
2 7 13 1.0412 -0.3439
2 7 16 -0.3192 -0.0111
2 7 19 -0.1247 0.1040
2 7 22 -0.1701 -0.0571
2 7 25 0.4922 0.5242
2 7 28 -0.7246 0.5517
2 7 31 0.3869 -0.3328
2 8 -30 -0.8794 -0.1902
2 8 -27 -0.2121 0.2296
2 8 -24 1.1602 0.4277
2 8 -21 1.2137 0.6820
2 8 -18 -2.1229 -1.3976
2 8 -15 1.0894 -0.5491
2 8 -12 -0.5869 1.8214
2 8 -9 -1.1381 0.1108
2 8 -6 1.2560 -1.6555
2 8 -3 0.5004 0.4054
2 8 0 1.0048 0.8264
2 8 3 -1.7174 -0.5921
2 8 6 -1.2146 0.2168
2 8 9 0.6899 0.0201
2 8 12 2.3717 -0.7427
2 8 15 -0.8994 0.8590
2 8 18 -1.4366 0.9062
2 8 21 0.0443 -1.5005
2 8 24 0.3018 -0.4739
2 8 27 1.1867 0.5902
2 8 30 -0.4249 0.7835
2 9 -28 0.1476 -0.8367
2 9 -25 0.1240 -0.0383
2 9 -22 -1.0050 0.5638
2 9 -19 -0.9944 0.3619
2 9 -16 1.5591 -0.8634
2 9 -13 1.2485 0.2383
2 9 -10 -0.8382 1.0160
2 9 -7 -1.6827 -0.5435
2 9 -4 1.1583 -0.7101
2 9 -1 -0.9582 0.3440
2 9 2 1.8803 -0.2031
2 9 5 -0.0510 0.2583
2 9 8 -0.3407 1.0705
2 9 11 -2.9588 -0.9007
2 9 14 2.4860 -1.5810
2 9 17 0.6996 1.3320
2 9 20 0.1348 1.4017
2 9 23 -0.8465 -1.0072
2 9 26 -1.0262 -0.5725
2 9 29 0.8142 -0.0832
2 10 -26 0.5201 -0.7018
2 10 -23 -0.2324 0.9640
2 10 -20 0.0552 1.0600
2 10 -17 -0.7473 -1.1246
2 10 -14 0.9287 -1.3383
2 10 -11 0.6788 0.7467
2 10 -8 -0.4608 1.0254
2 10 -5 -1.4724 0.0261
2 10 -2 -0.0384 -0.4175
2 10 1 2.0639 -0.7432
2 10 4 0.2994 -0.1932
2 10 7 -3.0835 1.3422
2 10 10 2.7951 0.4502
2 10 13 -1.3132 -1.1476
2 10 16 0.2570 -0.7479
2 10 19 -0.1168 0.6595
2 10 22 0.3648 0.1808
2 10 25 0.0548 0.7352
2 10 28 -0.4916 -0.6577
2 11 -24 1.2523 0.1359
2 11 -21 -0.2886 0.8050
2 11 -18 -0.3730 -0.0123
2 11 -15 -0.9332 -0.9766
2 11 -12 -0.2075 0.1515
2 11 -9 1.8612 0.4038
2 11 -6 -0.3719 -0.1278
2 11 -3 0.2605 0.5791
2 11 0 -2.0787 -0.0373
2 11 3 0.8432 -1.3643
2 11 6 2.0966 0.1677
2 11 9 -2.9371 1.4480
2 11 12 2.0944 -0.3046
2 11 15 -0.8241 -0.6175
2 11 18 0.0323 0.1122
2 11 21 -0.1066 0.1224
2 11 24 -0.1779 -0.8469
2 12 -22 0.6577 0.4377
2 12 -19 -0.7401 0.4810
2 12 -16 0.8952 0.0056
2 12 -13 0.8387 0.2364
2 12 -10 -2.5200 -0.0756
2 12 -7 2.0190 -1.0481
2 12 -4 -1.1542 0.2742
2 12 -1 -0.0650 1.0672
2 12 2 1.5607 -0.5570
2 12 5 -1.1390 -0.5806
2 12 8 0.8350 0.8703
2 12 11 -2.3516 0.1014
2 12 14 1.8823 -0.8548
2 12 17 -0.0581 0.0499
2 12 20 0.6827 0.2535
2 12 23 -0.9009 0.4104
2 13 -20 0.3479 0.2752
2 13 -17 -1.1213 -0.4906
2 13 -14 -0.1233 -0.2245
2 13 -11 3.0634 0.8291
2 13 -8 -2.6206 0.1809
2 13 -5 0.3844 -0.8656
2 13 -2 0.0870 0.2386
2 13 1 -1.4145 0.4437
2 13 4 2.6925 -0.5494
2 13 7 -1.4904 0.1375
2 13 10 1.1343 0.2791
2 13 13 -1.1846 -0.3683
2 13 16 -0.0738 0.4022
2 13 19 -0.7698 -0.0648
2 13 22 1.8400 -0.3630
2 14 -18 0.1639 -0.6207
2 14 -15 -0.5935 -0.8722
2 14 -12 -1.7879 0.8362
2 14 -9 3.0484 0.7762
2 14 -6 -0.6626 -0.6300
2 14 -3 -0.7172 -0.2279
2 14 0 0.5126 0.2018
2 14 3 -1.2655 -0.3222
2 14 6 1.7679 0.0502
2 14 9 -1.1758 0.7504
2 14 12 0.2644 -0.4800
2 14 15 0.0983 -0.7342
2 14 18 0.6154 1.4709
2 15 -13 0.1838 -0.1915
2 15 -10 -2.0548 0.6762
2 15 -7 2.1849 0.0814
2 15 -4 0.1411 -0.3183
2 15 -1 -1.5018 -0.0197
2 15 2 0.6576 -0.3531
2 15 5 0.0828 0.1519
2 15 8 0.1759 0.8258
2 15 11 -0.3971 -0.1315
2 15 14 0.3535 -0.5247
2 16 -8 -1.8372 0.4501
2 16 -5 0.1860 -0.3477
2 16 -2 1.1323 0.0411
2 16 1 -0.9186 -0.1250
2 16 4 -0.0139 -0.3157
2 16 7 0.4193 0.3440
3 1 -34 2.1410 0.6714
3 1 -31 -0.8781 0.4769
3 1 -28 0.1097 0.9034
3 1 -25 -0.9625 -0.4608
3 1 -22 1.3928 -1.8374
3 1 -19 2.1495 0.3160
3 1 -16 -3.5542 0.9090
3 1 -13 -1.6419 -1.2531
3 1 -10 0.4999 -0.0178
3 1 -7 6.0771 2.2883
3 1 -4 1.3282 1.9389
3 1 -1 -19.1517 -2.1004
3 1 2 29.9278 -3.2511
3 1 5 -27.8091 -0.9007
3 1 8 15.3020 1.5021
3 1 11 -4.2443 4.2163
3 1 14 0.8777 0.5997
3 1 17 1.7699 -3.5159
3 1 20 -3.2314 -1.6177
3 1 23 0.3032 1.2108
3 1 26 2.2654 0.9814
3 1 29 -1.9134 0.1419
3 1 32 0.2122 -0.2568
3 1 35 0.7240 -0.5570
3 2 -35 -2.0294 0.2928
3 2 -32 2.4660 -0.8021
3 2 -29 0.0708 -0.1630
3 2 -26 -0.5049 1.6495
3 2 -23 -1.0679 -0.9715
3 2 -20 -0.5675 -1.1588
3 2 -17 0.3277 2.5984
3 2 -14 1.4421 0.2610
3 2 -11 2.7709 -1.8155
3 2 -8 -7.0493 -0.2181
3 2 -5 7.3472 -1.8887
3 2 -2 -4.2321 0.0206
3 2 1 -10.0161 4.4746
3 2 4 27.7338 1.7598
3 2 7 -27.4181 -3.7059
3 2 10 10.9500 -2.3128
3 2 13 0.2781 0.8451
3 2 16 0.3685 -0.1485
3 2 19 -1.6359 1.7940
3 2 22 0.2242 1.9004
3 2 25 -1.1286 -1.9168
3 2 28 1.0052 -1.4428
3 2 31 1.4800 0.6192
3 2 34 -1.1954 0.7167
3 3 -33 -0.5861 0.4736
3 3 -30 0.0261 1.3417
3 3 -27 -0.2094 0.1822
3 3 -24 0.8652 -1.3584
3 3 -21 -0.3145 -1.4174
3 3 -18 0.4500 0.9905
3 3 -15 -1.1605 2.5848
3 3 -12 0.3337 -0.2077
3 3 -9 4.2583 -2.6599
3 3 -6 -10.7919 -0.7742
3 3 -3 9.4574 1.9597
3 3 0 1.6796 1.2110
3 3 3 -15.1512 -1.1037
3 3 6 22.9040 -1.0739
3 3 9 -15.2953 -0.1298
3 3 12 1.4777 1.3061
3 3 15 -0.5417 1.2715
3 3 18 4.8245 -1.4341
3 3 21 -2.7627 -1.7380
3 3 24 0.7336 0.8840
3 3 27 -0.2529 1.1704
3 3 30 -1.4918 0.1834
3 3 33 1.5720 -0.7208
3 4 -34 -0.8155 -0.4815
3 4 -31 0.4796 -0.3127
3 4 -28 0.8515 0.9908
3 4 -25 -1.5613 1.7191
3 4 -22 2.0548 -1.4453
3 4 -19 -1.0396 -2.8406
3 4 -16 -1.2322 0.7730
3 4 -13 0.6416 1.5765
3 4 -10 -1.4745 0.9023
3 4 -7 7.8277 1.1711
3 4 -4 -9.8724 -1.8066
3 4 -1 2.0249 -2.4751
3 4 2 7.6599 1.6561
3 4 5 -11.1583 1.4625
3 4 8 8.6869 -1.7704
3 4 11 -5.5728 0.1301
3 4 14 3.4781 1.8016
3 4 17 -2.2270 -0.6665
3 4 20 2.6126 -0.5018
3 4 23 -1.6002 0.1579
3 4 26 -0.4600 -0.9230
3 4 29 0.1224 0.1385
3 4 32 0.0288 1.2103
3 5 -32 1.5779 -0.4752
3 5 -29 -1.0930 -0.0246
3 5 -26 0.3777 0.5386
3 5 -23 -1.9137 0.3383
3 5 -20 1.1230 0.1943
3 5 -17 1.8823 -0.2176
3 5 -14 -2.6157 -0.5464
3 5 -11 2.3888 0.0668
3 5 -8 -3.6589 0.2442
3 5 -5 6.0114 -0.9021
3 5 -2 -4.9146 -0.0995
3 5 1 -1.1305 1.5675
3 5 4 3.9353 0.8078
3 5 7 -2.4248 -0.7089
3 5 10 3.3227 -1.4742
3 5 13 -3.9413 -0.5757
3 5 16 1.9161 0.8439
3 5 19 -1.3383 1.1240
3 5 22 1.1680 -0.1273
3 5 25 0.4890 -0.7159
3 5 28 -0.8498 -0.1574
3 5 31 -0.3621 0.8847
3 6 -33 -1.6747 -0.0963
3 6 -30 1.3907 -0.7941
3 6 -27 -0.8802 0.5490
3 6 -24 1.0908 1.1302
3 6 -21 1.4407 -1.1395
3 6 -18 -3.1929 -0.7408
3 6 -15 1.4744 1.4791
3 6 -12 -0.8091 -0.4087
3 6 -9 1.8704 -0.6911
3 6 -6 -2.7596 1.3930
3 6 -3 3.3858 -0.7948
3 6 0 -2.6029 -1.3870
3 6 3 -0.0940 1.5964
3 6 6 1.7254 0.6631
3 6 9 -0.3100 -1.5767
3 6 12 -0.1128 0.3200
3 6 15 -1.7106 1.1314
3 6 18 1.4570 -1.0245
3 6 21 -0.2302 -0.1027
3 6 24 0.0006 0.7551
3 6 27 0.9271 -0.8521
3 6 30 -0.8867 -0.6467
3 6 33 -0.6543 2.3433
3 7 -31 0.0396 0.6365
3 7 -28 0.2275 -0.4892
3 7 -25 -0.6411 -0.5604
3 7 -22 -0.6465 -0.1045
3 7 -19 2.2706 0.2082
3 7 -16 -1.8605 0.2798
3 7 -13 -0.2423 0.0809
3 7 -10 0.9261 -0.3523
3 7 -7 0.6957 0.5193
3 7 -4 -1.2913 0.4866
3 7 -1 0.0907 -1.1401
3 7 2 0.2661 -0.5783
3 7 5 0.6658 0.9114
3 7 8 -0.7551 0.6040
3 7 11 -0.6568 -0.5349
3 7 14 0.9998 -0.4963
3 7 17 0.0630 0.1062
3 7 20 -0.1637 0.8057
3 7 23 -0.0207 0.2442
3 7 26 -0.0704 -0.5763
3 7 29 -0.2557 -0.9368
3 8 -29 1.1501 0.6747
3 8 -26 -1.1725 -0.2531
3 8 -23 -0.6970 -0.4744
3 8 -20 1.3170 -0.1603
3 8 -17 0.0443 0.8788
3 8 -14 -0.0537 0.1815
3 8 -11 -0.8711 -1.3372
3 8 -8 0.4652 -0.3299
3 8 -5 -0.1962 1.2300
3 8 -2 1.9299 0.2976
3 8 1 -2.2528 -0.3182
3 8 4 -1.3540 -0.1587
3 8 7 2.1536 -0.6170
3 8 10 2.1384 0.3054
3 8 13 -2.7536 1.0538
3 8 16 -0.4756 -0.5301
3 8 19 0.5374 -1.2552
3 8 22 0.5996 0.5239
3 8 25 -0.2717 0.7419
3 8 28 0.4945 0.4769
3 9 -27 0.5761 1.2078
3 9 -24 -0.1228 0.3928
3 9 -21 -0.9138 -1.1557
3 9 -18 2.1867 -0.5536
3 9 -15 -2.1895 1.0618
3 9 -12 0.2435 0.1956
3 9 -9 0.0660 -0.6799
3 9 -6 0.7965 0.1296
3 9 -3 0.2106 0.1841
3 9 0 -0.6105 -0.1548
3 9 3 -0.5468 0.4899
3 9 6 0.9006 -0.3606
3 9 9 -1.2957 -1.0247
3 9 12 2.0550 0.8648
3 9 15 -1.2800 1.3142
3 9 18 0.2432 -1.1539
3 9 21 -0.6043 -0.6326
3 9 24 0.7372 0.4913
3 9 27 -0.1515 0.0201
3 10 -25 0.0411 0.1668
3 10 -22 0.3049 -1.0537
3 10 -19 -1.4551 -0.5334
3 10 -16 2.3057 1.5630
3 10 -13 -1.5040 1.0025
3 10 -10 -0.0387 -1.3109
3 10 -7 0.9032 -0.8978
3 10 -4 -2.0235 0.2659
3 10 -1 2.9268 0.2898
3 10 2 -0.7227 0.8200
3 10 5 -2.4819 0.4095
3 10 8 2.3795 -1.3298
3 10 11 -1.5744 -0.7599
3 10 14 2.2525 0.9488
3 10 17 -1.2950 0.8363
3 10 20 -0.4289 -0.5049
3 10 23 0.0373 0.1230
3 10 26 0.5577 -0.8876
3 11 -23 -1.0882 0.4867
3 11 -20 1.3737 -0.5638
3 11 -17 -0.8569 -0.8385
3 11 -14 1.3253 0.4236
3 11 -11 -0.1640 0.5079
3 11 -8 -2.5068 0.0267
3 11 -5 2.8475 -0.0569
3 11 -2 -1.2285 -0.5834
3 11 1 -0.0604 -0.0833
3 11 4 0.3776 1.0969
3 11 7 -0.7746 -0.1494
3 11 10 2.7223 -1.0928
3 11 13 -3.5445 0.2378
3 11 16 1.1084 0.7176
3 11 19 0.5663 -0.1250
3 11 22 -0.0076 -0.3676
3 11 25 0.0413 0.4267
3 12 -21 -1.1858 -0.5206
3 12 -18 1.0623 -0.0426
3 12 -15 -0.3939 0.0185
3 12 -12 -0.5955 -0.3289
3 12 -9 1.4308 0.2286
3 12 -6 -2.1316 0.7248
3 12 -3 1.5264 -0.3420
3 12 0 1.1124 -0.7710
3 12 3 -1.6106 0.3679
3 12 6 -0.0481 0.5181
3 12 9 -1.2296 -0.5055
3 12 12 2.5759 -0.0753
3 12 15 -0.6622 0.4175
3 12 18 0.1111 -0.0612
3 12 21 -1.0567 -0.3439
3 13 -19 -0.8281 -0.2956
3 13 -16 0.3418 1.0350
3 13 -13 0.2722 0.1759
3 13 -10 -0.5553 -1.4217
3 13 -7 1.2158 -0.0100
3 13 -4 -1.5287 0.9357
3 13 -1 0.1476 -0.2875
3 13 2 1.6271 -0.1723
3 13 5 -1.7349 0.4998
3 13 8 0.5429 -0.2815
3 13 11 0.1063 -0.1380
3 13 14 0.2306 0.0699
3 13 17 -0.4390 -0.5257
3 13 20 0.3595 0.7067
3 14 -14 0.9322 0.6933
3 14 -11 -0.0122 -0.0137
3 14 -8 -2.2199 -0.8228
3 14 -5 1.4297 0.1271
3 14 -2 0.6265 0.3437
3 14 1 -0.9597 0.0837
3 14 4 0.7509 0.3079
3 14 7 -0.2010 -0.4337
3 14 10 -0.1675 -0.8613
3 14 13 -0.3990 0.8045
3 14 16 0.1492 0.9376
3 15 -9 1.4922 -0.4182
3 15 -6 -1.8103 0.2290
3 15 -3 -0.4930 0.1802
3 15 0 1.5824 -0.3025
3 15 3 -0.5154 0.0519
3 15 6 -0.1952 0.4045
3 15 9 -0.3961 -0.4418
4 1 -33 -0.9684 0.4098
4 1 -30 -0.1700 -0.2240
4 1 -27 0.0072 -0.8700
4 1 -24 2.2035 0.6577
4 1 -21 -2.5677 0.5867
4 1 -18 -0.6531 -0.9502
4 1 -15 2.3742 0.8884
4 1 -12 1.7647 0.2393
4 1 -9 -1.2360 -1.8119
4 1 -6 -7.6657 1.1014
4 1 -3 3.9978 1.6208
4 1 0 13.3946 -2.1299
4 1 3 -21.3492 -1.1739
4 1 6 16.8275 2.1531
4 1 9 -7.9788 0.5067
4 1 12 0.3486 -0.8716
4 1 15 0.2148 0.7273
4 1 18 0.7806 -1.2181
4 1 21 0.7316 -1.1869
4 1 24 0.3893 1.9015
4 1 27 -2.1062 0.8698
4 1 30 0.7743 -1.1855
4 1 33 0.8480 -0.4385
4 2 -34 0.1247 -0.7156
4 2 -31 -0.1558 -0.5817
4 2 -28 -0.0462 0.2890
4 2 -25 -0.7036 -0.0452
4 2 -22 2.9061 0.7470
4 2 -19 -2.4485 0.4473
4 2 -16 -0.3050 -2.8343
4 2 -13 0.3068 -1.2030
4 2 -10 -1.3441 3.7260
4 2 -7 6.2554 2.4406
4 2 -4 -8.3209 -2.1127
4 2 -1 1.4540 -2.1744
4 2 2 14.8524 -0.4340
4 2 5 -25.0024 -0.0862
4 2 8 13.5718 1.8493
4 2 11 0.7309 1.3970
4 2 14 0.9588 -1.8118
4 2 17 -4.6797 -0.2938
4 2 20 1.3803 1.3498
4 2 23 0.3942 -0.9015
4 2 26 0.7816 -1.1926
4 2 29 -0.6566 0.7272
4 2 32 -0.2646 1.0418
4 2 35 0.0805 -0.6676
4 3 -32 -0.3545 0.9027
4 3 -29 -0.6652 -1.2649
4 3 -26 0.7411 -1.6578
4 3 -23 -2.4965 0.9325
4 3 -20 2.9112 2.3771
4 3 -17 0.1923 -0.1408
4 3 -14 -1.8671 -1.0555
4 3 -11 1.3649 -0.8934
4 3 -8 -4.3452 -1.4889
4 3 -5 9.5093 1.0580
4 3 -2 -5.4603 2.3838
4 3 1 -7.5951 -0.5538
4 3 4 14.1029 -1.0759
4 3 7 -10.6463 0.8418
4 3 10 5.2241 -0.3170
4 3 13 -1.4934 -1.6272
4 3 16 1.8848 0.6620
4 3 19 -3.3295 0.9243
4 3 22 1.1655 -0.3808
4 3 25 -0.1650 0.7076
4 3 28 1.5573 0.3080
4 3 31 -0.5479 -1.5682
4 3 34 -0.8363 0.3601
4 4 -33 0.5440 -0.5836
4 4 -30 0.0019 0.2592
4 4 -27 -0.8577 0.1155
4 4 -24 2.5706 -0.8515
4 4 -21 -2.6004 -0.0241
4 4 -18 -1.2280 1.6796
4 4 -15 4.3615 -0.2386
4 4 -12 -1.7201 -1.4785
4 4 -9 1.3440 0.2597
4 4 -6 -8.1289 0.5681
4 4 -3 7.5822 0.1568
4 4 0 1.5741 0.2842
4 4 3 -4.1693 -0.8815
4 4 6 3.4790 -1.0233
4 4 9 -5.5846 1.5606
4 4 12 3.9621 1.5292
4 4 15 -0.8180 -1.5944
4 4 18 1.5698 -1.4110
4 4 21 -1.9375 0.9134
4 4 24 0.0304 0.6873
4 4 27 -0.1831 -0.0182
4 4 30 1.7850 -0.1584
4 4 33 -0.6673 -0.3161
4 5 -31 -0.8339 0.5393
4 5 -28 0.8956 0.2062
4 5 -25 -0.1583 -1.3029
4 5 -22 0.2385 -0.4674
4 5 -19 0.8041 0.7298
4 5 -16 -3.1244 -0.0039
4 5 -13 2.0108 0.2534
4 5 -10 -0.0010 0.4756
4 5 -7 3.1172 -0.6303
4 5 -4 -6.8972 -0.1060
4 5 -1 4.6293 0.7014
4 5 2 1.0078 -0.4568
4 5 5 -2.7980 -1.0205
4 5 8 0.8535 0.4864
4 5 11 -1.3378 0.7996
4 5 14 2.7998 -0.2560
4 5 17 -1.5926 0.3682
4 5 20 0.6350 0.0075
4 5 23 0.0833 -0.8977
4 5 26 -1.0800 -0.0865
4 5 29 -0.3817 0.8951
4 5 32 1.6840 -0.8953
4 6 -32 0.2541 0.4917
4 6 -29 -0.3373 -0.2389
4 6 -26 -0.6146 -0.2713
4 6 -23 0.8251 0.2088
4 6 -20 -1.2665 0.5716
4 6 -17 1.6379 -0.0003
4 6 -14 -0.0589 -0.4220
4 6 -11 -1.3346 -0.1910
4 6 -8 0.2502 -0.4994
4 6 -5 2.8292 -0.0361
4 6 -2 -3.9094 1.1727
4 6 1 0.0119 0.3856
4 6 4 2.6764 -0.8867
4 6 7 -0.2057 -0.5042
4 6 10 -0.8987 0.5228
4 6 13 -1.3081 0.4449
4 6 16 1.7273 -0.3003
4 6 19 -0.0486 -0.7844
4 6 22 -0.5450 -0.2516
4 6 25 -0.0796 1.0753
4 6 28 0.4008 0.9110
4 6 31 -0.3337 -0.0622
4 7 -30 -1.2650 -0.4888
4 7 -27 0.5537 1.1348
4 7 -24 -0.0018 0.5119
4 7 -21 0.2851 -0.4871
4 7 -18 -0.1671 -0.1570
4 7 -15 -0.3970 -0.9645
4 7 -12 1.2834 0.4931
4 7 -9 -2.2047 1.8340
4 7 -6 0.9902 -1.0203
4 7 -3 0.2548 -1.6033
4 7 0 0.7088 1.0582
4 7 3 -0.4575 0.7735
4 7 6 -0.3508 -0.6270
4 7 9 -0.8641 -0.0698
4 7 12 1.0843 0.0352
4 7 15 0.2488 -0.4137
4 7 18 -0.2768 0.9974
4 7 21 -0.2437 0.2776
4 7 24 0.3882 -1.3900
4 7 27 -1.2802 -0.5428
4 7 30 1.3711 1.3847
4 8 -28 -0.5341 -0.8865
4 8 -25 1.6065 -1.1570
4 8 -22 -0.0019 0.5631
4 8 -19 -2.7032 0.8572
4 8 -16 1.4869 0.1537
4 8 -13 -0.2058 -0.4767
4 8 -10 2.4161 -0.1153
4 8 -7 -2.2446 0.1736
4 8 -4 -0.8441 -0.0750
4 8 -1 0.8434 -0.0566
4 8 2 0.8655 -0.1431
4 8 5 -0.5780 0.1253
4 8 8 0.3486 0.4923
4 8 11 -0.9253 -0.2370
4 8 14 0.4273 -0.6984
4 8 17 -0.2688 0.1673
4 8 20 0.9747 0.7688
4 8 23 -0.6164 0.0125
4 8 26 0.7434 -0.2860
4 8 29 -1.6068 -0.7042
4 9 -26 -1.7249 -0.0685
4 9 -23 1.0601 0.4495
4 9 -20 1.9885 0.6897
4 9 -17 -2.8310 -0.4656
4 9 -14 1.6189 -1.2495
4 9 -11 -1.1314 0.1811
4 9 -8 1.0004 1.2241
4 9 -5 1.7260 0.0860
4 9 -2 -4.4133 -0.5051
4 9 1 1.0261 -0.3190
4 9 4 3.1794 -0.3497
4 9 7 -1.1503 0.5681
4 9 10 -0.5600 0.8638
4 9 13 -1.7482 -0.5951
4 9 16 1.9299 -0.8813
4 9 19 -0.2706 0.3791
4 9 22 0.5458 0.2128
4 9 25 -0.9980 0.1464
4 10 -24 -0.4912 -0.5653
4 10 -21 -0.1250 0.6778
4 10 -18 1.9983 0.6638
4 10 -15 -2.1787 -0.8980
4 10 -12 0.0433 -0.6211
4 10 -9 0.3079 0.7499
4 10 -6 -0.7321 0.3923
4 10 -3 3.6012 -0.0426
4 10 0 -3.0117 0.0579
4 10 3 -0.7818 -0.8986
4 10 6 1.5404 -0.5120
4 10 9 -1.4366 1.3011
4 10 12 2.6480 0.8185
4 10 15 -1.7751 -1.1730
4 10 18 0.0129 -0.4302
4 10 21 0.0151 0.4283
4 10 24 0.2018 0.0201
4 11 -22 -0.0311 -0.5374
4 11 -19 -1.2603 0.8706
4 11 -16 0.6770 0.8735
4 11 -13 0.4520 -0.4900
4 11 -10 0.6145 -0.6782
4 11 -7 -0.0998 -0.2223
4 11 -4 -2.1638 0.1224
4 11 -1 1.6076 0.8219
4 11 2 -0.2853 0.1740
4 11 5 0.1589 -1.0568
4 11 8 1.4208 0.1012
4 11 11 -2.5717 0.7038
4 11 14 1.1977 -0.1542
4 11 17 -0.4249 -0.5819
4 11 20 0.5061 0.5720
4 11 23 0.3359 -0.5573
4 12 -20 0.8292 -0.0813
4 12 -17 -0.4042 -0.3912
4 12 -14 -0.2789 0.0104
4 12 -11 -1.2964 0.4735
4 12 -8 1.3485 0.0851
4 12 -5 1.3855 -0.3276
4 12 -2 -1.9998 -0.1220
4 12 1 -0.2885 0.3480
4 12 4 0.9849 0.0291
4 12 7 0.1914 -0.5285
4 12 10 -0.1129 0.1004
4 12 13 -0.5962 0.5536
4 12 16 0.5598 0.0045
4 12 19 -0.6242 -0.7742
4 13 -18 0.9009 0.4362
4 13 -15 -0.7113 -0.8820
4 13 -12 0.6728 -0.2991
4 13 -9 -0.8244 1.2261
4 13 -6 0.0162 -0.1609
4 13 -3 1.2293 -0.6061
4 13 0 -0.7685 0.3510
4 13 3 -0.4288 -0.1929
4 13 6 0.1059 -0.3124
4 13 9 0.5301 0.6129
4 13 12 -0.2468 -0.1804
4 13 15 -0.0257 -0.2530
4 13 18 -0.0350 0.7712
4 14 -13 -0.8370 -0.3338
4 14 -10 0.0830 -0.0744
4 14 -7 0.3590 0.5619
4 14 -4 0.0533 -0.1086
4 14 -1 -0.0567 -0.0911
4 14 2 -0.4223 -0.0963
4 14 5 -0.0634 -0.4171
4 14 8 0.5433 0.5892
4 14 11 0.0161 0.6531
4 15 -5 0.1507 0.2978
4 15 -2 0.3020 -0.3989
4 15 1 -0.9159 0.0600
4 15 4 1.0297 0.2865
5 1 -35 0.5041 1.5065
5 1 -32 -0.4175 0.6134
5 1 -29 0.6363 -1.0492
5 1 -26 0.6201 -1.0826
5 1 -23 -3.4698 0.5393
5 1 -20 4.3353 0.8547
5 1 -17 -1.3237 1.3880
5 1 -14 -3.3099 0.2371
5 1 -11 2.7503 -2.8093
5 1 -8 1.2825 -1.7625
5 1 -5 2.6089 1.9878
5 1 -2 -3.5437 1.8038
5 1 1 -12.2468 0.0841
5 1 4 20.7683 -0.3148
5 1 7 -7.9911 -0.8902
5 1 10 -1.4527 -0.7650
5 1 13 -1.8085 0.7314
5 1 16 3.3604 0.0896
5 1 19 -0.1115 -1.0655
5 1 22 -1.7707 0.8910
5 1 25 0.9982 1.6103
5 1 28 0.5484 -0.6560
5 1 31 -1.4000 -1.2952
5 1 34 0.7303 0.0134
5 2 -33 0.5298 -1.1255
5 2 -30 -0.7264 0.9183
5 2 -27 -0.1041 2.0853
5 2 -24 2.3834 -0.5571
5 2 -21 -4.9457 -2.2212
5 2 -18 3.3790 0.0268
5 2 -15 3.5314 1.3838
5 2 -12 -5.0580 0.9988
5 2 -9 0.3824 0.0192
5 2 -6 -3.0241 -1.8221
5 2 -3 6.2089 -1.1729
5 2 0 3.4448 1.6186
5 2 3 -14.2546 1.6088
5 2 6 12.2890 -1.0272
5 2 9 -2.9780 -1.0676
5 2 12 -0.6761 0.5070
5 2 15 -2.5214 0.1203
5 2 18 2.5027 0.2610
5 2 21 0.9823 0.3136
5 2 24 -1.3685 -0.9381
5 2 27 -0.1648 -0.3547
5 2 30 1.1554 1.0497
5 2 33 -1.1520 0.1341
5 3 -31 0.5316 0.4559
5 3 -28 0.8245 -0.1575
5 3 -25 -1.7094 0.0682
5 3 -22 2.8391 0.6655
5 3 -19 -1.6728 -1.4233
5 3 -16 -2.8632 -1.1854
5 3 -13 3.9635 1.5582
5 3 -10 -1.9359 1.2464
5 3 -7 3.0417 -0.1162
5 3 -4 -4.5818 -0.2811
5 3 -1 3.0429 -1.0166
5 3 2 0.9876 -0.9965
5 3 5 -6.0472 1.2655
5 3 8 6.8400 0.7597
5 3 11 -2.1202 -1.3780
5 3 14 -1.0352 0.6571
5 3 17 -0.5949 1.3430
5 3 20 1.6023 -0.9218
5 3 23 0.6998 -0.9432
5 3 26 -0.6975 0.0881
5 3 29 -2.0102 0.1262
5 3 32 1.3302 0.4629
5 4 -32 0.0483 -0.6238
5 4 -29 0.3991 -0.8069
5 4 -26 0.0385 1.2189
5 4 -23 -1.5177 0.9139
5 4 -20 0.6683 -0.9216
5 4 -17 2.0317 0.0872
5 4 -14 -2.7218 0.1080
5 4 -11 1.2411 -0.9636
5 4 -8 -0.8181 0.4100
5 4 -5 4.1405 0.6071
5 4 -2 -6.7448 -0.9264
5 4 1 3.4133 0.3937
5 4 4 1.1597 1.3477
5 4 7 -3.1193 -0.5940
5 4 10 3.2445 -0.8487
5 4 13 -0.9283 0.1211
5 4 16 -0.3056 -0.5426
5 4 19 -1.0787 0.0366
5 4 22 -0.1169 1.3207
5 4 25 1.9762 0.2437
5 4 28 0.3719 -0.9981
5 4 31 -2.3369 0.0986
5 5 -30 -1.1337 0.2344
5 5 -27 0.2440 0.2598
5 5 -24 0.0631 0.3500
5 5 -21 0.8128 0.6664
5 5 -18 -0.2213 -1.1892
5 5 -15 0.2543 -0.9362
5 5 -12 -0.5612 1.5115
5 5 -9 -1.6267 0.6102
5 5 -6 -0.0830 -0.9968
5 5 -3 5.6089 -0.0232
5 5 0 -4.2233 -0.1313
5 5 3 -1.2937 -0.4095
5 5 6 1.5151 1.1894
5 5 9 -0.2324 0.3289
5 5 12 2.0823 -1.6824
5 5 15 -2.1514 0.2440
5 5 18 -0.3695 1.4275
5 5 21 0.9121 -0.3577
5 5 24 -0.9632 -0.9558
5 5 27 1.3494 0.0243
5 5 30 0.6405 -0.1676
5 6 -31 1.3340 0.3573
5 6 -28 0.5230 -0.6378
5 6 -25 0.1693 -0.7795
5 6 -22 -1.6073 -0.1633
5 6 -19 -0.1524 0.3595
5 6 -16 0.8808 1.2954
5 6 -13 -0.2300 -0.3637
5 6 -10 2.6964 -1.4795
5 6 -7 -4.1641 0.7365
5 6 -4 0.1419 1.0490
5 6 -1 3.3899 -0.7970
5 6 2 -1.2682 -0.6154
5 6 5 -1.8482 0.4208
5 6 8 1.7321 0.1060
5 6 11 -0.9970 0.1290
5 6 14 0.6494 0.2643
5 6 17 0.4853 -0.7967
5 6 20 -0.8784 -0.0328
5 6 23 0.2122 1.2680
5 6 26 0.3570 -0.1280
5 6 29 -0.7016 -1.2314
5 7 -29 0.5475 0.2724
5 7 -26 -0.8654 0.7827
5 7 -23 0.5480 -0.0117
5 7 -20 0.4558 -0.3624
5 7 -17 -0.6445 -0.6882
5 7 -14 0.6922 0.4945
5 7 -11 -2.0365 0.3220
5 7 -8 4.0558 -0.5820
5 7 -5 -2.9826 0.0930
5 7 -2 -1.6051 0.4590
5 7 1 3.1676 -0.0614
5 7 4 0.1701 -0.2229
5 7 7 -2.4142 0.0203
5 7 10 0.9984 0.0193
5 7 13 0.8645 0.0204
5 7 16 -0.7076 0.2252
5 7 19 -0.2314 -0.5478
5 7 22 0.3754 -0.2532
5 7 25 -0.8727 0.6530
5 7 28 1.7769 0.7445
5 8 -27 1.2852 0.0364
5 8 -24 -1.2657 0.4623
5 8 -21 0.3503 -0.3329
5 8 -18 1.7018 -0.6097
5 8 -15 -1.7617 0.3376
5 8 -12 0.0036 0.7590
5 8 -9 -1.5990 -0.5590
5 8 -6 2.0742 -0.4090
5 8 -3 2.7587 0.4642
5 8 0 -3.6528 0.0955
5 8 3 -0.6186 -0.1084
5 8 6 0.9549 -0.0293
5 8 9 0.6928 -0.3933
5 8 12 0.2743 0.0130
5 8 15 -0.5233 0.8504
5 8 18 0.2066 0.1022
5 8 21 -1.1448 -0.9013
5 8 24 0.9568 -0.0809
5 8 27 -0.5059 0.0717
5 9 -25 1.4027 0.0435
5 9 -22 -1.8124 -0.3863
5 9 -19 -1.1645 -0.3097
5 9 -16 2.0714 0.3527
5 9 -13 0.9560 0.9151
5 9 -10 -0.4209 -0.1592
5 9 -7 -1.5901 -1.1503
5 9 -4 -2.0670 -0.0789
5 9 -1 4.7426 0.4284
5 9 2 -1.0481 0.4141
5 9 5 -1.2606 0.5822
5 9 8 0.1704 -0.5409
5 9 11 -0.8991 -1.0672
5 9 14 1.4135 0.2989
5 9 17 -0.0143 0.7026
5 9 20 0.2605 0.2363
5 9 23 -1.0095 -0.2933
5 9 26 0.2677 -0.0545
5 10 -23 1.2000 0.6051
5 10 -20 -0.6777 -0.7801
5 10 -17 -0.5492 -0.5742
5 10 -14 -0.3152 0.1589
5 10 -11 0.9082 0.5622
5 10 -8 0.8641 0.4381
5 10 -5 -0.9131 -0.3700
5 10 -2 -2.1737 -0.8154
5 10 1 3.1183 0.0726
5 10 4 -0.6845 0.9763
5 10 7 -1.4996 0.2204
5 10 10 2.2564 -0.8799
5 10 13 -1.3922 -0.4547
5 10 16 -0.1871 0.8185
5 10 19 0.1434 -0.1608
5 10 22 0.3300 0.4981
5 11 -21 1.0433 0.7596
5 11 -18 -0.3737 -0.8206
5 11 -15 -0.2587 -0.3297
5 11 -12 -0.0416 0.5124
5 11 -9 -0.7889 -0.1096
5 11 -6 1.3931 0.0863
5 11 -3 0.2137 0.5313
5 11 0 -1.5079 -0.6361
5 11 3 1.3327 -0.6098
5 11 6 -0.2703 0.7881
5 11 9 -1.3403 0.3071
5 11 12 1.2082 -0.6041
5 11 15 0.0397 -0.0372
5 11 18 0.3756 0.8841
5 11 21 -0.5330 -1.3133
5 12 -19 0.0537 0.1961
5 12 -16 0.6170 0.1827
5 12 -13 -0.2398 0.1329
5 12 -10 0.7146 -0.2624
5 12 -7 -1.5308 -0.2304
5 12 -4 0.1408 0.1689
5 12 -1 1.4931 -0.0232
5 12 2 -1.0487 -0.2119
5 12 5 0.2733 0.4442
5 12 8 -0.3206 0.3205
5 12 11 0.1490 -0.2442
5 12 14 0.1947 -0.5569
5 12 17 -0.1291 -0.4789
5 13 -14 0.5035 0.3821
5 13 -11 0.4677 0.1026
5 13 -8 0.7553 -0.4767
5 13 -5 -1.3873 -0.0240
5 13 -2 -0.7517 0.1358
5 13 1 1.6883 0.2151
5 13 4 -0.4251 0.1192
5 13 7 0.0317 -0.2527
5 13 10 -0.0739 -0.4880
5 13 13 0.0601 0.4017
5 14 -9 -0.0147 -0.1783
5 14 -6 0.6974 -0.5848
5 14 -3 -0.5981 0.4876
5 14 0 0.1916 -0.0845
5 14 3 0.1660 -0.2310
5 14 6 0.0123 0.4397
5 14 9 -0.5003 -0.2273
6 1 -34 -0.9686 1.0345
6 1 -31 0.8078 -0.4559
6 1 -28 -0.3084 -1.5062
6 1 -25 -1.3538 1.2224
6 1 -22 4.2444 0.9345
6 1 -19 -4.0734 -1.7617
6 1 -16 -1.2881 -0.5258
6 1 -13 5.4207 0.4780
6 1 -10 -4.2186 0.3638
6 1 -7 1.2733 1.9503
6 1 -4 1.0143 0.5859
6 1 -1 -5.0215 -3.4085
6 1 2 10.0277 -1.3209
6 1 5 -7.5587 2.7976
6 1 8 -0.4960 0.3296
6 1 11 -0.1358 -1.0700
6 1 14 5.1973 0.9799
6 1 17 -1.9441 -0.0130
6 1 20 -2.7799 -0.8446
6 1 23 2.5134 0.3742
6 1 26 -1.3601 -0.1636
6 1 29 -0.3878 -0.5779
6 1 32 1.8198 0.3520
6 2 -32 0.4677 -0.2059
6 2 -29 0.3049 0.1463
6 2 -26 -0.3056 -0.5820
6 2 -23 -2.5241 -0.4949
6 2 -20 3.2061 1.7417
6 2 -17 -0.1525 1.0415
6 2 -14 -3.4456 -1.8614
6 2 -11 4.9935 -1.0434
6 2 -8 -2.1530 0.4690
6 2 -5 -0.6961 -0.1335
6 2 -2 -0.4383 1.0790
6 2 1 -0.5495 1.2937
6 2 4 4.5814 -1.7966
6 2 7 -4.4257 -0.7771
6 2 10 0.5364 2.0103
6 2 13 0.5187 -0.6440
6 2 16 1.3031 -1.8980
6 2 19 -0.5921 0.7941
6 2 22 -1.8484 1.2481
6 2 25 1.4464 0.0889
6 2 28 0.0427 -0.0027
6 2 31 -0.1679 -0.4875
6 3 -33 -0.5877 0.6591
6 3 -30 -1.1002 -0.2756
6 3 -27 0.7240 -0.3706
6 3 -24 1.4662 0.0822
6 3 -21 -0.9362 0.0551
6 3 -18 -0.0354 -0.4122
6 3 -15 0.4032 0.9644
6 3 -12 -2.5657 0.5042
6 3 -9 3.0851 -1.6247
6 3 -6 -0.5913 -0.1889
6 3 -3 0.6727 1.3495
6 3 0 -4.2167 -0.3009
6 3 3 3.5640 -0.3949
6 3 6 2.2314 0.4404
6 3 9 -3.0126 -0.7414
6 3 12 -0.9473 -0.0685
6 3 15 0.4341 1.5456
6 3 18 1.5503 -0.1659
6 3 21 0.4149 -1.7482
6 3 24 -2.1748 0.1475
6 3 27 0.8100 0.8748
6 3 30 0.7179 0.0847
6 3 33 -0.3382 0.6059
6 4 -31 0.7672 1.0717
6 4 -28 -0.7468 -0.3116
6 4 -25 -0.0137 -1.1576
6 4 -22 0.1435 -1.0157
6 4 -19 -0.5884 1.4313
6 4 -16 0.9728 0.9968
6 4 -13 0.1775 -1.1815
6 4 -10 -1.2184 -0.2343
6 4 -7 0.3501 0.8408
6 4 -4 -0.2002 -0.2047
6 4 -1 2.6642 -0.2613
6 4 2 -4.1015 0.2764
6 4 5 2.3850 -0.6852
6 4 8 0.6352 -0.3796
6 4 11 -2.9476 1.3634
6 4 14 2.0569 0.1397
6 4 17 0.3836 -1.0482
6 4 20 -0.8564 0.2569
6 4 23 1.7267 0.4830
6 4 26 -2.4973 -0.2478
6 4 29 -0.0736 -0.1516
6 4 32 1.8467 -0.4079
6 5 -29 0.3899 0.7140
6 5 -26 -0.5210 0.5238
6 5 -23 -0.1443 0.0032
6 5 -20 0.5390 -0.6150
6 5 -17 -0.7946 -0.4174
6 5 -14 1.0589 0.4956
6 5 -11 -1.0320 0.6008
6 5 -8 2.4649 -0.6221
6 5 -5 -2.6927 -0.8344
6 5 -2 -1.0802 0.6425
6 5 1 3.3362 0.9789
6 5 4 -1.8565 -0.3469
6 5 7 -0.0172 -0.4935
6 5 10 2.2795 -0.1854
6 5 13 -3.0392 -0.0327
6 5 16 -0.0209 0.5600
6 5 19 2.1532 0.2484
6 5 22 -0.9781 -1.1245
6 5 25 0.7189 -0.1868
6 5 28 -1.3179 1.3799
6 5 31 -0.0637 0.3235
6 6 -27 -0.0683 -0.4328
6 6 -24 0.7302 0.7937
6 6 -21 0.5683 0.3073
6 6 -18 -0.2669 -0.1561
6 6 -15 -1.3569 -0.3260
6 6 -12 1.1828 -0.4587
6 6 -9 -2.9495 0.3009
6 6 -6 5.2751 0.8470
6 6 -3 -1.1210 -0.2062
6 6 0 -4.2578 -0.9151
6 6 3 2.5834 0.2226
6 6 6 1.1779 0.3794
6 6 9 -1.1984 -0.1765
6 6 12 0.3857 0.3078
6 6 15 0.0130 -0.0261
6 6 18 -1.1203 -0.4265
6 6 21 0.7713 0.3147
6 6 24 0.6132 0.0585
6 6 27 -0.3518 -0.7440
6 7 -28 -0.6670 0.5913
6 7 -25 0.4068 -0.9590
6 7 -22 -0.6228 -0.6956
6 7 -19 0.0734 0.8090
6 7 -16 0.7257 0.5996
6 7 -13 -0.1135 -0.3352
6 7 -10 0.7956 0.0314
6 7 -7 -2.9286 -0.1605
6 7 -4 1.4383 -0.5119
6 7 -1 2.6579 0.2861
6 7 2 -3.3006 0.5703
6 7 5 1.2835 -0.1856
6 7 8 -0.5631 -0.2145
6 7 11 0.4210 -0.0398
6 7 14 -0.0679 -0.3370
6 7 17 0.1223 0.1997
6 7 20 0.0216 0.7087
6 7 23 -0.3470 -0.1292
6 7 26 0.6861 -0.3822
6 8 -26 -1.4754 -0.3073
6 8 -23 0.8544 0.5607
6 8 -20 -0.3215 0.4092
6 8 -17 0.1030 -0.0754
6 8 -14 -0.3687 -0.8221
6 8 -11 0.8913 -0.3364
6 8 -8 -0.0006 0.8648
6 8 -5 -0.2935 0.4315
6 8 -2 -1.7260 -0.2805
6 8 1 2.4509 -0.4718
6 8 4 -2.0084 -0.2831
6 8 7 2.2935 0.3530
6 8 10 -0.6176 0.5936
6 8 13 -1.1634 0.0129
6 8 16 -0.1348 -0.7641
6 8 19 0.4136 -0.1484
6 8 22 0.9794 0.4309
6 8 25 -0.4381 0.0096
6 9 -24 -0.8490 -0.4429
6 9 -21 1.7002 -0.0847
6 9 -18 -1.0911 0.3682
6 9 -15 0.2469 0.4942
6 9 -12 -1.4169 -0.8834
6 9 -9 0.9233 -0.4957
6 9 -6 1.2161 0.9311
6 9 -3 0.0412 0.4946
6 9 0 -2.5331 -0.2100
6 9 3 2.3291 -0.5604
6 9 6 -0.7813 -0.8330
6 9 9 -0.8668 0.4765
6 9 12 1.2037 1.2774
6 9 15 0.4475 0.0254
6 9 18 -0.8293 -0.9678
6 9 21 -0.4476 -0.6334
6 9 24 0.3650 0.6941
6 10 -22 -1.5658 -0.5974
6 10 -19 1.5675 0.6535
6 10 -16 -0.0596 0.2589
6 10 -13 0.3628 0.1217
6 10 -10 -1.2856 -0.2113
6 10 -7 -0.5557 -0.5648
6 10 -4 2.1642 -0.1604
6 10 -1 0.2299 0.5484
6 10 2 -2.5726 0.4443
6 10 5 0.6870 -0.2066
6 10 8 1.6490 -0.4226
6 10 11 -1.1411 0.1203
6 10 14 0.1718 -0.0468
6 10 17 0.0965 -0.3648
6 10 20 -0.4569 1.1028
6 11 -17 0.1276 0.5299
6 11 -14 0.6106 -0.2082
6 11 -11 0.7416 -0.2939
6 11 -8 -0.7946 0.2856
6 11 -5 -1.1808 -0.0911
6 11 -2 0.8464 -0.0554
6 11 1 0.7080 0.4857
6 11 4 -0.7108 -0.1075
6 11 7 0.4127 -0.6708
6 11 10 0.4932 -0.2250
6 11 13 -1.4275 0.8264
6 11 16 0.2515 0.6755
6 11 19 0.5526 -1.2161
6 12 -15 -0.1431 0.3184
6 12 -12 -0.7698 -0.1208
6 12 -9 0.7321 -0.0568
6 12 -6 0.6116 0.4390
6 12 -3 -0.0682 -0.1891
6 12 0 -0.8735 -0.2676
6 12 3 0.5464 0.2068
6 12 6 -0.3894 -0.2724
6 12 9 -0.2690 0.1656
6 12 12 0.7656 0.1892
6 12 15 0.2922 -0.2503
6 13 -10 -1.0138 0.1047
6 13 -7 -0.0078 0.2726
6 13 -4 0.5898 -0.0752
6 13 -1 0.2173 -0.0347
6 13 2 -0.4920 -0.0692
6 13 5 -0.2939 0.1609
6 13 8 0.4385 -0.0341
6 13 11 0.3338 0.0611
7 1 -33 -0.0789 -0.8584
7 1 -30 -0.2491 -0.4966
7 1 -27 0.7435 0.9882
7 1 -24 1.1998 0.3622
7 1 -21 -2.5412 -1.0759
7 1 -18 0.2987 0.1184
7 1 -15 2.0423 0.9876
7 1 -12 -2.1759 -0.4037
7 1 -9 3.0351 -0.5915
7 1 -6 -3.0172 0.5618
7 1 -3 -2.9285 -0.2857
7 1 0 8.3693 -0.3558
7 1 3 -5.5641 0.8685
7 1 6 -0.0134 -0.0693
7 1 9 2.1494 -1.0398
7 1 12 -0.1004 0.6283
7 1 15 -2.6029 1.0016
7 1 18 0.7007 -0.9519
7 1 21 2.1531 -0.5836
7 1 24 -1.3716 0.4630
7 1 27 0.4280 0.1104
7 1 30 -0.4542 -0.0949
7 1 33 0.0398 1.3404
7 2 -31 -0.1116 0.4783
7 2 -28 -0.3774 0.4032
7 2 -25 0.6267 -0.4071
7 2 -22 0.3864 -0.6229
7 2 -19 -0.8548 0.3864
7 2 -16 0.6993 -0.3099
7 2 -13 -0.0888 -0.4472
7 2 -10 -2.5610 1.5093
7 2 -7 2.7661 0.6848
7 2 -4 1.2804 -1.6182
7 2 -1 -2.0703 -0.5517
7 2 2 0.8624 0.8980
7 2 5 -1.9047 -0.2848
7 2 8 -0.5036 0.0704
7 2 11 3.6460 0.5384
7 2 14 -0.1700 -0.8754
7 2 17 -3.0001 -0.0121
7 2 20 0.2776 1.5858
7 2 23 2.0098 -0.3784
7 2 26 -0.9029 -1.4279
7 2 29 0.3404 0.0666
7 2 32 -0.8201 -0.3256
7 3 -29 0.4819 0.1745
7 3 -26 -1.5196 0.4465
7 3 -23 -0.0702 1.1062
7 3 -20 1.0744 -0.6987
7 3 -17 -1.4235 -1.2811
7 3 -14 1.7526 0.8440
7 3 -11 1.1047 0.6635
7 3 -8 -2.7208 -1.0118
7 3 -5 -0.7065 -0.1395
7 3 -2 1.8118 0.8905
7 3 1 1.3761 -0.3710
7 3 4 -2.2465 -0.0072
7 3 7 0.8158 0.6935
7 3 10 -0.9012 -0.6918
7 3 13 0.2936 -0.4157
7 3 16 1.9686 0.5994
7 3 19 -1.0061 -0.4255
7 3 22 -2.1645 -0.2852
7 3 25 1.7020 0.7119
7 3 28 0.4231 0.5611
7 3 31 -0.1850 -0.2868
7 4 -30 0.0502 -1.7054
7 4 -27 0.6276 0.6319
7 4 -24 0.3716 0.9097
7 4 -21 -0.9302 0.1598
7 4 -18 0.8647 0.1691
7 4 -15 -1.7923 -0.8471
7 4 -12 1.4233 -1.1824
7 4 -9 0.1892 1.3075
7 4 -6 0.1101 1.5327
7 4 -3 -1.5693 -1.3448
7 4 0 0.7224 -1.0401
7 4 3 2.1925 0.6347
7 4 6 -2.9413 0.2495
7 4 9 0.0062 0.4897
7 4 12 2.6548 0.1955
7 4 15 -1.3840 -1.1912
7 4 18 -1.1477 -0.4163
7 4 21 1.2360 1.5637
7 4 24 -1.0988 0.3644
7 4 27 1.5255 -1.6263
7 4 30 -0.2065 0.0576
7 5 -28 0.7529 0.1438
7 5 -25 0.0819 -1.6307
7 5 -22 0.1695 -0.3275
7 5 -19 -0.6538 0.7298
7 5 -16 0.7485 0.2822
7 5 -13 -1.7596 0.7369
7 5 -10 2.6244 -0.2111
7 5 -7 -1.8935 -1.4405
7 5 -4 0.6758 0.1568
7 5 -1 0.1557 1.2758
7 5 2 -0.6370 -0.1463
7 5 5 1.1628 -0.5925
7 5 8 -1.0501 -0.0736
7 5 11 -0.7895 -0.1731
7 5 14 1.2719 0.3665
7 5 17 0.9424 0.6034
7 5 20 -1.2974 -0.6588
7 5 23 0.0072 -0.2081
7 5 26 -0.8154 0.8232
7 5 29 1.6684 -0.5814
7 6 -26 -0.7005 0.9577
7 6 -23 -0.4891 0.9466
7 6 -20 0.6363 -0.6677
7 6 -17 0.4699 -0.5448
7 6 -14 0.3699 -0.0676
7 6 -11 -1.6729 0.0464
7 6 -8 1.8364 0.4812
7 6 -5 -1.1319 0.3364
7 6 -2 -0.7587 -0.6349
7 6 1 1.5765 -0.4180
7 6 4 -1.0263 0.6312
7 6 7 1.9975 0.2868
7 6 10 -2.3148 -0.2936
7 6 13 0.0147 -0.1227
7 6 16 0.6695 -0.0072
7 6 19 0.8610 -0.1802
7 6 22 -0.6098 -0.0964
7 6 25 -0.5600 0.3874
7 6 28 -0.0019 0.4227
7 7 -24 0.2205 -0.3275
7 7 -21 -0.1799 0.0190
7 7 -18 -0.9390 -0.0286
7 7 -15 0.5789 -0.1554
7 7 -12 -0.2087 0.0859
7 7 -9 0.3217 0.2208
7 7 -6 -0.1098 -0.1359
7 7 -3 0.2343 0.0222
7 7 0 -0.7167 0.3201
7 7 3 2.2701 -0.5084
7 7 6 -4.1942 -0.3540
7 7 9 3.0646 0.5596
7 7 12 -0.2139 0.2849
7 7 15 -0.2684 -0.1565
7 7 18 -0.3248 -0.2412
7 7 21 0.0639 0.1018
7 7 24 0.0948 -0.2123
7 8 -25 0.7391 0.2534
7 8 -22 -0.8952 -0.1930
7 8 -19 1.0890 -0.2756
7 8 -16 -1.0541 -0.0032
7 8 -13 0.5549 0.8896
7 8 -10 -0.5733 0.1142
7 8 -7 0.9529 -0.8880
7 8 -4 -0.4020 -0.4854
7 8 -1 0.1438 0.1653
7 8 2 -1.6508 0.7179
7 8 5 2.7918 0.7405
7 8 8 -1.9346 -0.4187
7 8 11 0.8038 -1.2130
7 8 14 -0.5913 -0.3230
7 8 17 0.3537 1.3594
7 8 20 0.1846 0.1946
7 8 23 -0.1867 -0.3154
7 9 -20 -1.0515 -0.0239
7 9 -17 0.6603 -0.6866
7 9 -14 -0.0808 -0.5875
7 9 -11 0.6448 0.4813
7 9 -8 -0.9372 0.6527
7 9 -5 -0.6398 0.2103
7 9 -2 0.6042 -0.5946
7 9 1 0.9709 -0.6549
7 9 4 -0.5433 0.3321
7 9 7 -0.0968 0.7011
7 9 10 -0.4015 -0.0736
7 9 13 0.2542 -0.1994
7 9 16 -0.2812 -0.4249
7 9 19 0.6795 -0.0529
7 9 22 -0.2250 0.4896
7 10 -18 0.0997 0.1050
7 10 -15 -0.7734 0.0087
7 10 -12 -0.5748 -0.0632
7 10 -9 1.8500 0.2583
7 10 -6 -0.0752 -0.1668
7 10 -3 -1.5276 -0.0032
7 10 0 0.6796 0.2004
7 10 3 0.2791 -0.4518
7 10 6 0.0130 -0.0775
7 10 9 -0.8906 0.6630
7 10 12 1.0333 -0.2205
7 10 15 -0.0474 -0.3753
7 10 18 -0.6286 0.5452
7 11 -16 0.5411 -0.6793
7 11 -13 -0.0418 0.1629
7 11 -10 -1.3718 0.1474
7 11 -7 1.4425 -0.0671
7 11 -4 -0.2742 0.2708
7 11 -1 -0.2272 -0.2373
7 11 2 0.2851 -0.4194
7 11 5 -0.7236 0.3178
7 11 8 0.8695 0.5502
7 11 11 -0.5561 -0.0465
7 11 14 0.3428 -0.4709
7 12 -11 0.9388 -0.0891
7 12 -8 -1.1206 -0.1004
7 12 -5 0.9869 -0.2053
7 12 -2 -0.9656 0.0870
7 12 1 -0.0684 0.2373
7 12 4 1.4810 0.1073
7 12 7 -0.8861 -0.2100
7 12 10 -0.2822 -0.3572
7 13 -3 -0.1924 -0.1562
7 13 0 0.7819 0.2357
7 13 3 -0.7402 -0.1433
8 1 -32 0.1439 -0.1118
8 1 -29 -0.1842 -0.8002
8 1 -26 -1.0247 0.3776
8 1 -23 0.4871 1.0440
8 1 -20 0.5605 -0.8116
8 1 -17 -0.5931 -0.2643
8 1 -14 1.2212 1.1244
8 1 -11 -0.5425 -0.8824
8 1 -8 -1.5843 -1.1502
8 1 -5 0.9187 1.2666
8 1 -2 3.0812 0.4339
8 1 1 -6.4240 -0.7966
8 1 4 5.4794 0.7254
8 1 7 -0.5665 -0.0677
8 1 10 -3.6115 -0.8754
8 1 13 2.4150 0.8381
8 1 16 1.6078 0.1097
8 1 19 -1.4734 -1.4890
8 1 22 -1.3900 0.2427
8 1 25 1.0633 1.5988
8 1 28 0.3168 -0.1655
8 1 31 0.2651 0.3841
8 2 -30 -0.4168 0.1945
8 2 -27 0.3402 -0.2045
8 2 -24 -0.4933 -0.7970
8 2 -21 0.0693 1.0567
8 2 -18 1.4876 0.9885
8 2 -15 -1.8986 -1.6534
8 2 -12 0.3707 -0.4551
8 2 -9 0.2271 1.3617
8 2 -6 0.2684 -0.1994
8 2 -3 -0.3841 -0.4352
8 2 0 1.6657 0.4314
8 2 3 -4.1012 -0.6937
8 2 6 2.4771 0.0552
8 2 9 3.3183 1.1949
8 2 12 -3.5357 -0.7018
8 2 15 -2.0027 -1.0193
8 2 18 2.2246 1.1948
8 2 21 1.3583 0.4600
8 2 24 -0.7622 -0.9806
8 2 27 -0.9915 -0.2915
8 2 30 0.0417 0.0079
8 3 -28 1.0008 -0.0919
8 3 -25 0.4224 -1.5273
8 3 -22 -0.5497 -0.5924
8 3 -19 -1.3024 0.0421
8 3 -16 1.8042 1.3919
8 3 -13 -0.8972 1.2584
8 3 -10 0.1865 -1.5206
8 3 -7 0.1373 -1.6099
8 3 -4 0.1749 1.2367
8 3 -1 -0.6454 1.0478
8 3 2 0.8362 -0.3931
8 3 5 -0.7885 -0.3776
8 3 8 0.0871 -0.7467
8 3 11 0.5805 -0.2406
8 3 14 -0.2890 1.4738
8 3 17 -0.3532 0.7411
8 3 20 0.0208 -1.4034
8 3 23 0.9446 -0.8243
8 3 26 -0.3043 1.1072
8 3 29 -0.8997 0.1460
8 4 -29 -1.5092 -0.4469
8 4 -26 -0.4374 1.3092
8 4 -23 0.3942 0.2633
8 4 -20 1.1049 -0.4705
8 4 -17 -0.9007 -0.3328
8 4 -14 1.3864 -0.5201
8 4 -11 -2.1770 0.3035
8 4 -8 0.5280 0.9949
8 4 -5 1.3585 -0.3451
8 4 -2 -0.7771 -0.9217
8 4 1 -0.9711 0.3447
8 4 4 1.4555 0.5715
8 4 7 -0.6566 -0.1266
8 4 10 -0.1173 0.0318
8 4 13 0.6456 -0.1775
8 4 16 -0.6612 -0.6200
8 4 19 0.0391 0.4623
8 4 22 -0.2216 0.5302
8 4 25 1.3552 -0.6614
8 4 28 -1.2336 0.2066
8 5 -27 -0.2149 -0.5374
8 5 -24 0.0805 -0.3118
8 5 -21 -0.5557 0.2852
8 5 -18 0.3559 -0.0334
8 5 -15 -0.4040 -0.0920
8 5 -12 1.9214 0.2785
8 5 -9 -2.4780 -0.2365
8 5 -6 -0.5104 -0.3855
8 5 -3 2.9627 0.8136
8 5 0 -0.2489 0.1881
8 5 3 -2.5670 -1.1556
8 5 6 0.1146 0.1191
8 5 9 2.4995 0.8542
8 5 12 -0.9120 -0.2737
8 5 15 -0.3680 -0.2871
8 5 18 -0.6535 0.4984
8 5 21 0.6829 -0.1469
8 5 24 -0.3116 -0.5809
8 5 27 1.0229 0.1123
8 6 -25 0.0532 -0.2488
8 6 -22 0.1575 -0.1075
8 6 -19 -0.4544 0.1160
8 6 -16 -0.4629 0.5711
8 6 -13 0.2913 0.1272
8 6 -10 1.4321 -0.6151
8 6 -7 -0.6467 -0.1710
8 6 -4 -1.8125 0.0286
8 6 -1 1.4217 0.0175
8 6 2 0.0553 0.6911
8 6 5 1.2080 0.1384
8 6 8 -2.9308 -0.9064
8 6 11 1.8293 -0.2680
8 6 14 0.0382 0.6726
8 6 17 0.1090 -0.0450
8 6 20 -0.9010 -0.0898
8 6 23 0.2757 0.5585
8 6 26 0.7314 -0.4762
8 7 -23 0.3611 -0.0967
8 7 -20 -0.0739 0.1968
8 7 -17 0.5370 -0.0946
8 7 -14 -0.3619 -0.4444
8 7 -11 -0.1104 0.0904
8 7 -8 -0.3327 0.5104
8 7 -5 0.8464 0.0553
8 7 -2 -1.0543 -0.2995
8 7 1 1.1020 -0.1306
8 7 4 -1.3432 -0.0690
8 7 7 2.2065 0.0195
8 7 10 -2.2945 0.4734
8 7 13 1.0722 0.1072
8 7 16 -0.3003 -0.6726
8 7 19 0.1431 0.1492
8 7 22 0.1867 -0.0594
8 7 25 -0.3841 0.2911
8 8 -21 0.6784 0.0054
8 8 -18 -0.1677 0.3337
8 8 -15 -0.3735 0.2191
8 8 -12 0.1934 -0.0023
8 8 -9 0.2860 -0.5803
8 8 -6 -0.3577 -0.3459
8 8 -3 0.7337 0.9494
8 8 0 -0.8480 0.4593
8 8 3 0.1522 -0.7281
8 8 6 -0.0987 -0.5294
8 8 9 0.9595 -0.0138
8 8 12 -1.5744 0.4112
8 8 15 1.2857 0.9364
8 8 18 -0.1203 -0.5333
8 8 21 -0.4873 -0.4738
8 9 -19 -0.5341 -0.2394
8 9 -16 1.0907 0.4754
8 9 -13 -0.1495 -0.1149
8 9 -10 -0.4133 -0.2889
8 9 -7 -0.1789 0.3520
8 9 -4 0.3350 -0.2794
8 9 -1 0.4072 -0.2948
8 9 2 -0.1774 0.4607
8 9 5 -1.2573 0.2651
8 9 8 1.2145 -0.1287
8 9 11 0.4752 -0.2309
8 9 14 -1.0712 -0.3282
8 9 17 0.5458 0.1207
8 9 20 -0.4043 0.2267
8 10 -17 -1.4729 0.0740
8 10 -14 1.0079 0.3037
8 10 -11 0.4342 0.0081
8 10 -8 -0.8106 -0.3554
8 10 -5 0.4689 -0.1770
8 10 -2 -0.2960 0.0268
8 10 1 -0.4298 0.4938
8 10 4 1.2424 0.4776
8 10 7 -1.0560 -0.9521
8 10 10 0.7433 -0.4018
8 10 13 -0.3529 0.5139
8 10 16 -0.5527 0.5223
8 11 -12 0.4381 0.1017
8 11 -9 0.8054 -0.0700
8 11 -6 -1.6941 -0.0580
8 11 -3 1.2896 0.3314
8 11 0 0.1246 0.0087
8 11 3 -0.9526 -0.6301
8 11 6 1.0857 0.3898
8 11 9 -1.0077 -0.0083
8 11 12 0.1668 -0.0013
8 12 -4 -0.4455 -0.0149
8 12 -1 0.4722 -0.4313
8 12 2 -0.3017 0.1729
8 12 5 -1.1598 0.0709
9 1 -31 0.7212 0.7689
9 1 -28 0.6502 0.2834
9 1 -25 -0.3728 -0.2574
9 1 -22 -1.0295 -1.3831
9 1 -19 -0.1873 -0.2968
9 1 -16 2.4181 1.9710
9 1 -13 -1.6400 0.4132
9 1 -10 -0.1008 -1.6093
9 1 -7 -0.7895 0.1148
9 1 -4 2.0749 0.4891
9 1 -1 -2.4198 -0.2181
9 1 2 4.0069 0.6195
9 1 5 -3.6920 -0.1849
9 1 8 -0.0863 -1.5720
9 1 11 1.0836 0.5895
9 1 14 0.5354 1.8944
9 1 17 0.0392 -0.7961
9 1 20 -0.8782 -1.1657
9 1 23 0.4148 0.6780
9 1 26 0.0408 0.2428
9 1 29 -0.4448 0.3717
9 2 -29 -0.6132 -0.6228
9 2 -26 0.6116 1.9682
9 2 -23 0.3655 0.8505
9 2 -20 -0.1569 -0.5754
9 2 -17 -1.3494 -1.3118
9 2 -14 0.8485 -0.9089
9 2 -11 0.7136 1.3802
9 2 -8 0.7111 1.6234
9 2 -5 -1.6575 -1.2335
9 2 -2 -0.6885 -1.4248
9 2 1 0.3625 0.8602
9 2 4 3.0184 0.4925
9 2 7 -2.8267 0.0587
9 2 10 -0.1760 0.6061
9 2 13 0.8376 -0.9473
9 2 16 0.0842 -1.1853
9 2 19 0.2687 1.0394
9 2 22 -0.5298 1.0456
9 2 25 -0.6100 -0.7621
9 2 28 1.0610 -0.5045
9 3 -27 -0.8142 -1.7326
9 3 -24 0.2894 0.5926
9 3 -21 0.5560 0.6991
9 3 -18 0.4937 -0.1811
9 3 -15 -1.5390 0.3114
9 3 -12 0.0168 -0.3683
9 3 -9 0.7650 -1.1796
9 3 -6 -0.1335 0.9855
9 3 -3 1.3254 1.3734
9 3 0 -1.8498 -1.2921
9 3 3 -1.1954 -0.8638
9 3 6 3.3948 0.9597
9 3 9 -1.4917 0.0326
9 3 12 -0.9265 -0.1402
9 3 15 0.9556 0.7013
9 3 18 0.0591 -0.7214
9 3 21 -0.0312 -0.8602
9 3 24 -1.0044 1.0931
9 3 27 0.6479 0.3577
9 4 -25 -0.1797 -0.2210
9 4 -22 -0.6058 -0.5833
9 4 -19 -0.3721 0.1726
9 4 -16 1.4386 0.4910
9 4 -13 -1.3501 -0.4059
9 4 -10 0.5014 0.1754
9 4 -7 0.9826 0.5088
9 4 -4 -2.1860 -1.0439
9 4 -1 1.4781 -0.2891
9 4 2 0.6784 1.4665
9 4 5 -1.8580 -0.0319
9 4 8 1.2813 -1.2264
9 4 11 -0.1161 0.1784
9 4 14 -0.7350 0.4719
9 4 17 0.4856 -0.2021
9 4 20 -0.0521 0.3176
9 4 23 1.2103 0.1643
9 4 26 -1.9660 -0.4494
9 5 -26 0.1469 -0.1078
9 5 -23 -0.1125 0.2157
9 5 -20 0.3828 0.6625
9 5 -17 -0.2647 -0.7029
9 5 -14 0.4099 -0.3798
9 5 -11 -1.1474 0.5023
9 5 -8 0.9473 0.0325
9 5 -5 0.8915 0.1293
9 5 -2 -2.2274 0.1550
9 5 1 1.0274 -0.6911
9 5 4 0.5137 -0.3027
9 5 7 -0.1539 1.0009
9 5 10 -0.0844 0.3135
9 5 13 -0.4679 -0.8465
9 5 16 -0.3048 0.1045
9 5 19 1.3168 -0.0305
9 5 22 -0.6333 -0.2929
9 5 25 0.0482 0.5390
9 6 -24 0.2003 0.7048
9 6 -21 0.1525 -1.0488
9 6 -18 0.1139 0.0629
9 6 -15 -0.1810 0.7693
9 6 -12 -0.3981 -0.3673
9 6 -9 -0.4257 -0.5725
9 6 -6 1.0353 0.5323
9 6 -3 1.1382 0.3096
9 6 0 -2.5195 -0.3082
9 6 3 1.2074 0.0565
9 6 6 -0.3900 -0.2877
9 6 9 0.2658 -0.3430
9 6 12 0.2299 0.7174
9 6 15 0.2674 0.3705
9 6 18 -0.9310 -0.4166
9 6 21 0.1355 -0.4209
9 6 24 0.7705 -0.0927
9 7 -22 -0.5381 0.7053
9 7 -19 -0.2165 -0.1315
9 7 -16 0.9847 -0.4932
9 7 -13 0.1896 -0.2486
9 7 -10 -0.8032 0.7338
9 7 -7 -0.6230 0.2927
9 7 -4 0.2278 -0.5966
9 7 -1 2.1832 -0.4322
9 7 2 -1.7370 -0.0017
9 7 5 -0.7006 0.7016
9 7 8 0.3988 0.6870
9 7 11 1.2718 -0.6414
9 7 14 -0.9166 -1.1646
9 7 17 -0.1726 0.2474
9 7 20 0.3048 0.9103
9 8 -20 0.4303 0.3326
9 8 -17 -0.8672 -0.1076
9 8 -14 0.3831 0.3951
9 8 -11 0.0833 -0.2843
9 8 -8 0.8075 -0.4333
9 8 -5 -0.7312 0.2029
9 8 -2 -1.4380 0.3564
9 8 1 1.3155 0.1931
9 8 4 1.3100 -0.3859
9 8 7 -1.2748 -0.4449
9 8 10 -0.6319 0.2813
9 8 13 0.8826 0.4780
9 8 16 -0.5104 0.0523
9 8 19 0.2670 -0.2588
9 9 -15 -0.8216 -0.4393
9 9 -12 0.5027 0.2750
9 9 -9 -0.7308 0.2777
9 9 -6 0.6932 0.2443
9 9 -3 0.1728 0.0192
9 9 0 -0.4299 -0.5515
9 9 3 0.0263 -0.2892
9 9 6 0.6769 0.4085
9 9 9 -1.3873 0.1087
9 9 12 0.3008 0.4079
9 9 15 1.4032 -0.3297
9 10 -13 -1.4682 -0.6135
9 10 -10 0.1684 0.1834
9 10 -7 0.4447 0.1939
9 10 -4 -0.1334 -0.1446
9 10 -1 0.0792 0.0902
9 10 2 -0.2716 0.0074
9 10 5 -0.3193 -0.4306
9 10 8 0.9035 0.8576
9 10 11 -0.2477 -0.3243
9 11 -5 0.3136 0.0109
9 11 -2 -0.5101 0.0284
9 11 1 0.3264 0.0852
9 11 4 0.2578 0.5075
10 1 -27 -0.8302 -1.1162
10 1 -24 1.2505 0.2310
10 1 -21 0.5989 0.4633
10 1 -18 -1.0882 0.8317
10 1 -15 -1.1731 0.5620
10 1 -12 1.0721 -1.8851
10 1 -9 0.9384 -1.0681
10 1 -6 -0.3415 2.0256
10 1 -3 -1.2035 1.0763
10 1 0 1.4664 -1.5855
10 1 3 -1.5310 -0.4244
10 1 6 0.7477 0.4609
10 1 9 -0.0901 -0.0529
10 1 12 1.5294 0.6299
10 1 15 -0.9639 0.1339
10 1 18 -1.9509 -1.0703
10 1 21 1.0918 -0.0692
10 1 24 1.0757 0.8127
10 1 27 -0.1049 0.4261
10 2 -28 0.6305 1.7488
10 2 -25 -1.1363 -1.7369
10 2 -22 -0.0931 -1.0493
10 2 -19 1.1412 1.0332
10 2 -16 0.3429 -0.0363
10 2 -13 -0.6214 0.2978
10 2 -10 -1.9306 1.1285
10 2 -7 2.5413 -1.4559
10 2 -4 -0.8569 -1.5442
10 2 -1 0.3432 1.9043
10 2 2 -0.0409 1.1361
10 2 5 -0.7026 -1.2862
10 2 8 0.7005 -0.5150
10 2 11 -0.7874 0.0173
10 2 14 0.5631 -0.1956
10 2 17 0.3062 1.1698
10 2 20 -0.3101 0.6972
10 2 23 0.1522 -1.3539
10 2 26 -0.3742 -0.8202
10 3 -26 0.0154 0.5763
10 3 -23 -0.5652 0.6350
10 3 -20 -0.0853 -0.4106
10 3 -17 -0.4001 -0.7176
10 3 -14 1.6233 0.5404
10 3 -11 1.2297 0.1868
10 3 -8 -3.8756 -0.4247
10 3 -5 1.4015 0.5011
10 3 -2 0.1274 0.1670
10 3 1 1.1538 -1.0402
10 3 4 -0.2412 0.0962
10 3 7 -1.1681 1.1265
10 3 10 0.2963 -0.1462
10 3 13 -0.2264 -0.5778
10 3 16 1.2545 -0.0625
10 3 19 -0.3096 -0.0762
10 3 22 -1.6677 0.0509
10 3 25 1.8772 0.4939
10 4 -24 0.7153 -0.0507
10 4 -21 -0.0761 -0.8408
10 4 -18 -0.2109 0.8854
10 4 -15 -1.6713 0.1045
10 4 -12 1.1294 -0.7790
10 4 -9 1.8117 0.3143
10 4 -6 -1.4289 0.1073
10 4 -3 -0.3501 -0.2405
10 4 0 -0.5897 0.7026
10 4 3 1.4485 -0.0302
10 4 6 -0.3162 -1.2512
10 4 9 -1.0353 0.2866
10 4 12 1.7085 1.1453
10 4 15 -0.9596 -0.4233
10 4 18 -0.5513 -0.4192
10 4 21 1.0375 0.3662
10 4 24 -1.1427 -0.3110
10 5 -22 -0.0137 0.9050
10 5 -19 0.0180 -0.4138
10 5 -16 0.6398 -0.6050
10 5 -13 -0.3766 0.7550
10 5 -10 -0.4407 0.6565
10 5 -7 -0.2885 -0.7327
10 5 -4 0.8343 -0.6421
10 5 -1 0.9106 0.1780
10 5 2 -2.3243 0.3220
10 5 5 1.1123 0.7494
10 5 8 1.1539 0.0350
10 5 11 -2.1378 -1.2291
10 5 14 0.9258 -0.3387
10 5 17 0.7281 0.7429
10 5 20 -0.4556 0.7704
10 5 23 -0.5536 -0.2116
10 6 -20 0.6529 0.6568
10 6 -17 -0.8829 0.3041
10 6 -14 -0.6470 -0.2063
10 6 -11 1.9406 -0.6327
10 6 -8 0.1645 0.0140
10 6 -5 -1.7553 0.4759
10 6 -2 -0.8555 0.2925
10 6 1 2.1552 -0.0341
10 6 4 -0.0839 -0.5121
10 6 7 -0.5244 -0.3789
10 6 10 0.3036 0.3223
10 6 13 -1.1630 0.7734
10 6 16 0.6858 0.1292
10 6 19 0.1185 -1.1788
10 6 22 0.6618 0.0018
10 7 -18 0.6800 0.3211
10 7 -15 0.1704 0.0128
10 7 -12 -1.2947 0.3586
10 7 -9 0.5641 0.3713
10 7 -6 1.0842 -0.4087
10 7 -3 -0.0474 -0.6826
10 7 0 -1.2275 0.4294
10 7 3 -0.2278 0.5751
10 7 6 1.0474 -0.4127
10 7 9 -0.0810 -0.1062
10 7 12 0.0134 0.0380
10 7 15 -0.6267 -0.3320
10 7 18 0.6082 0.6990
10 8 -16 -0.1494 -0.1761
10 8 -13 -0.1218 -0.3731
10 8 -10 0.3809 0.0712
10 8 -7 -0.8418 0.0210
10 8 -4 0.7618 0.4379
10 8 -1 0.5395 -0.1726
10 8 2 -0.6662 -0.6359
10 8 5 -1.1533 0.5744
10 8 8 1.2928 0.5267
10 8 11 0.5287 -0.7129
10 8 14 -0.5945 -0.1004
10 8 17 -0.4095 -0.0244
10 9 -11 -0.3452 -0.5135
10 9 -8 0.5983 -0.0426
10 9 -5 -0.7991 -0.1622
10 9 -2 0.2928 -0.1712
10 9 1 0.0769 0.5252
10 9 4 -0.0201 0.3756
10 9 7 0.2085 -0.7477
10 9 10 -0.1427 -0.0908
10 9 13 -0.1066 0.0671
10 10 -6 0.1590 -0.2712
10 10 -3 -0.4952 0.0555
10 10 0 0.5215 0.2447
10 10 3 0.4571 -0.4653
10 10 6 -1.3101 0.2341
11 1 -26 0.2624 0.9907
11 1 -23 -0.7971 0.7897
11 1 -20 -0.2630 -0.8991
11 1 -17 1.9227 -0.1009
11 1 -14 0.0006 0.1568
11 1 -11 -0.6841 -0.6605
11 1 -8 -3.3092 0.7227
11 1 -5 4.0834 1.1217
11 1 -2 0.2765 -1.3220
11 1 1 -1.9046 -0.9556
11 1 4 0.0125 1.0794
11 1 7 0.5832 0.4497
11 1 10 -0.1378 -0.1722
11 1 13 0.1151 0.3359
11 1 16 -0.0391 -0.8329
11 1 19 0.0730 -0.9403
11 1 22 -0.0564 1.0838
11 1 25 0.0663 1.2278
11 2 -24 1.2429 -0.1396
11 2 -21 -0.9694 0.2691
11 2 -18 -1.1333 0.2588
11 2 -15 0.2513 -0.8037
11 2 -12 0.0774 -0.1318
11 2 -9 3.5331 0.6492
11 2 -6 -4.3896 -0.0490
11 2 -3 0.9311 -0.1629
11 2 0 0.9511 0.4131
11 2 3 -0.4980 -0.4592
11 2 6 -0.9677 -0.5478
11 2 9 2.1769 0.7249
11 2 12 0.0337 0.2782
11 2 15 -2.6217 -0.4009
11 2 18 0.8901 0.0839
11 2 21 1.3342 -0.0050
11 2 24 -0.8575 -0.5405
11 3 -25 -0.1066 -0.1964
11 3 -22 0.8187 0.8805
11 3 -19 -0.0505 -0.4320
11 3 -16 0.7526 0.1940
11 3 -13 -1.3286 0.5492
11 3 -10 -2.1591 -0.7351
11 3 -7 3.5627 -0.3065
11 3 -4 -0.0454 0.6695
11 3 -1 -0.9907 -0.4548
11 3 2 -0.7856 0.0066
11 3 5 0.9902 1.0596
11 3 8 -0.9082 -0.5261
11 3 11 0.1949 -1.2623
11 3 14 1.9188 0.5776
11 3 17 -1.6441 0.9779
11 3 20 -0.8617 -0.5094
11 3 23 1.4335 -0.0131
11 4 -23 -0.0170 -0.6911
11 4 -20 0.3634 0.1836
11 4 -17 -0.5549 0.3880
11 4 -14 1.2524 -0.4021
11 4 -11 0.1055 -0.4598
11 4 -8 -1.6185 0.5529
11 4 -5 -0.1798 0.4869
11 4 -2 1.0076 -0.3540
11 4 1 1.0231 -0.2265
11 4 4 -1.1873 -0.2249
11 4 7 -0.3421 -0.2888
11 4 10 0.7000 0.8852
11 4 13 -0.7172 0.6847
11 4 16 0.5802 -1.0502
11 4 19 -0.1222 -0.6383
11 4 22 0.1214 0.4639
11 5 -21 -0.6557 -0.1784
11 5 -18 0.7481 -0.3314
11 5 -15 0.4684 0.0308
11 5 -12 -1.3409 0.6864
11 5 -9 0.6449 -0.2333
11 5 -6 0.6720 -0.6861
11 5 -3 -0.5976 0.4564
11 5 0 -0.2323 0.3199
11 5 3 0.3746 -0.4337
11 5 6 -0.0362 0.1989
11 5 9 -0.7355 0.1027
11 5 12 1.1059 -0.6676
11 5 15 -0.2783 0.3135
11 5 18 0.2693 1.0093
11 5 21 -1.1457 -0.7494
11 6 -19 -1.0756 -0.3861
11 6 -16 -0.2408 0.1719
11 6 -13 2.2339 -0.2622
11 6 -10 -1.9111 -0.5283
11 6 -7 -0.4600 0.5229
11 6 -4 0.9649 0.7284
11 6 -1 0.1847 -0.7186
11 6 2 0.5506 -0.4416
11 6 5 -1.4955 0.4831
11 6 8 0.2068 0.1355
11 6 11 0.2652 0.1461
11 6 14 1.1651 -0.0439
11 6 17 -1.3432 -0.9823
11 7 -14 -0.6414 0.1252
11 7 -11 1.1652 0.2529
11 7 -8 -0.1948 0.0434
11 7 -5 -0.6791 -0.7414
11 7 -2 -0.0796 0.1475
11 7 1 -0.5122 0.7107
11 7 4 2.4022 -0.1380
11 7 7 -1.0590 -0.4918
11 7 10 -1.0921 -0.1205
11 7 13 -0.3654 0.2868
11 7 16 1.6023 0.6261
11 8 -12 -0.2237 0.3577
11 8 -9 -0.0637 -0.5307
11 8 -6 0.4412 0.0193
11 8 -3 -0.7056 0.5190
11 8 0 0.4609 0.0754
11 8 3 -0.3713 -0.4620
11 8 6 0.7854 -0.2582
11 8 9 -0.4926 0.2918
11 8 12 -0.4001 0.2562
11 9 -4 0.9626 -0.0595
11 9 -1 -0.3754 -0.6768
11 9 2 -0.3659 -0.0552
11 9 5 0.0996 0.5225
12 1 -25 -0.5899 0.3842
12 1 -22 1.0112 -0.0994
12 1 -19 0.1167 -0.1613
12 1 -16 -1.2291 0.7281
12 1 -13 0.3842 -0.3314
12 1 -10 -1.1367 -0.5848
12 1 -7 3.4072 0.5035
12 1 -4 -2.1298 0.0229
12 1 -1 -0.8271 -0.5945
12 1 2 0.5882 0.7363
12 1 5 0.8582 0.5636
12 1 8 -0.4887 -1.1492
12 1 11 -0.1661 -0.3629
12 1 14 0.0149 0.7729
12 1 17 -0.1352 0.0102
12 1 20 0.1789 0.1571
12 1 23 0.2351 0.1480
12 1 26 -0.0614 -0.7419
12 2 -23 -1.1075 -0.9036
12 2 -20 0.9219 0.5697
12 2 -17 0.1437 0.0689
12 2 -14 -0.2163 -0.3846
12 2 -11 0.9827 0.5539
12 2 -8 -2.0008 0.2640
12 2 -5 1.0891 -0.9156
12 2 -2 -0.2102 0.4612
12 2 1 0.2572 0.4199
12 2 4 0.0058 -1.1584
12 2 7 0.6446 0.1991
12 2 10 -1.0619 1.5475
12 2 13 -1.0735 -0.5041
12 2 16 1.9364 -1.2769
12 2 19 0.2710 0.3874
12 2 22 -0.8143 0.6244
12 3 -21 -0.6018 -0.4788
12 3 -18 0.6455 -0.8554
12 3 -15 -0.8237 0.5254
12 3 -12 0.1994 0.7804
12 3 -9 1.0635 -0.5766
12 3 -6 -0.3137 -0.3563
12 3 -3 -0.3443 0.2762
12 3 0 -0.8297 -0.0736
12 3 3 0.2950 0.2241
12 3 6 0.8713 0.5403
12 3 9 0.3720 -0.9821
12 3 12 -0.7258 -0.5561
12 3 15 -0.7165 1.3658
12 3 18 0.6808 0.1061
12 3 21 0.1480 -0.8106
12 4 -19 -0.5325 0.9787
12 4 -16 0.2347 -0.1765
12 4 -13 0.1849 -1.4390
12 4 -10 -0.5022 0.3152
12 4 -7 0.0861 1.3060
12 4 -4 0.7330 -0.4203
12 4 -1 -0.0175 -0.5394
12 4 2 -0.6736 0.1335
12 4 5 -0.9258 -0.3027
12 4 8 1.4423 0.6006
12 4 11 0.9419 0.6581
12 4 14 -1.6415 -1.2102
12 4 17 -0.5188 -0.5469
12 4 20 1.1778 0.9349
12 5 -17 0.0586 0.0972
12 5 -14 -1.6091 0.7327
12 5 -11 1.4889 0.5078
12 5 -8 0.1798 -0.7759
12 5 -5 -0.7050 -0.9096
12 5 -2 0.1867 0.4632
12 5 1 -0.7744 0.8528
12 5 4 1.5824 0.0739
12 5 7 -0.6754 -0.6458
12 5 10 -0.4860 -0.4542
12 5 13 0.3353 0.4019
12 5 16 0.0752 0.6509
12 5 19 -0.3389 -0.1895
12 6 -15 0.2661 -0.1777
12 6 -12 -1.4633 -0.4615
12 6 -9 0.9706 0.0344
12 6 -6 0.4158 0.9968
12 6 -3 -0.6004 -0.0630
12 6 0 1.0110 -0.7319
12 6 3 -2.2077 -0.1948
12 6 6 1.4035 0.3099
12 6 9 0.3040 0.2716
12 6 12 0.1682 0.0655
12 6 15 -0.8399 -0.2736
12 7 -10 -1.0482 0.3233
12 7 -7 0.0091 -0.0509
12 7 -4 1.0827 -0.1579
12 7 -1 -0.0676 -0.1144
12 7 2 0.5878 0.0095
12 7 5 -2.6598 0.2026
12 7 8 1.3547 0.2863
12 7 11 0.9413 -0.0153
12 8 -5 -0.7512 -0.2053
12 8 -2 -0.1795 0.2703
12 8 1 0.2469 0.2544
12 8 4 1.0502 -0.1672
13 1 -21 -0.9457 -0.7775
13 1 -18 -0.0294 -0.2119
13 1 -15 0.2873 0.8393
13 1 -12 -0.4618 -0.4041
13 1 -9 0.6188 -0.6969
13 1 -6 0.2561 0.7880
13 1 -3 -0.7380 -0.0799
13 1 0 -0.3050 -0.4844
13 1 3 1.2152 0.9928
13 1 6 -0.7043 -0.1917
13 1 9 -1.1024 -1.3462
13 1 12 2.2458 0.5782
13 1 15 -0.7049 0.9702
13 1 18 -0.7156 -0.1763
13 1 21 -0.3020 -1.0153
13 2 -22 1.0015 0.6603
13 2 -19 -0.4665 0.8316
13 2 -16 0.2004 -1.1279
13 2 -13 0.0316 -0.8156
13 2 -10 -0.2658 1.0932
13 2 -7 -0.5963 0.4392
13 2 -4 0.5127 -0.4500
13 2 -1 0.9153 -0.1554
13 2 2 -0.7975 -0.3120
13 2 5 -0.0458 0.0144
13 2 8 0.2973 0.9686
13 2 11 -1.1361 -0.0960
13 2 14 1.1930 -1.2036
13 2 17 0.0724 0.0647
13 2 20 -0.0834 1.2141
13 3 -20 0.4743 -0.6531
13 3 -17 -0.1364 0.5468
13 3 -14 -0.0057 1.3051
13 3 -11 0.1001 -0.5673
13 3 -8 0.2528 -1.5406
13 3 -5 -0.7561 0.4500
13 3 -2 -0.2911 0.9084
13 3 1 1.1989 0.0203
13 3 4 0.5249 -0.0155
13 3 7 -1.4491 -0.6621
13 3 10 -0.6864 -0.5796
13 3 13 1.5037 1.1099
13 3 16 0.1696 0.6436
13 3 19 -0.5579 -0.7569
13 4 -18 -0.6793 -0.4616
13 4 -15 0.9096 -0.3911
13 4 -12 -0.0134 -0.0382
13 4 -9 -0.1577 0.8826
13 4 -6 0.1269 0.2849
13 4 -3 -0.7900 -0.7556
13 4 0 0.3465 -0.3948
13 4 3 0.2898 0.3709
13 4 6 0.7332 0.1748
13 4 9 -0.4738 0.1392
13 4 12 -1.8169 -0.0328
13 4 15 1.7473 -0.3018
13 4 18 0.3448 -0.3202
13 5 -13 0.2259 0.0931
13 5 -10 -0.4803 0.0691
13 5 -7 -0.1067 -0.5308
13 5 -4 1.1259 0.5588
13 5 -1 -0.9733 0.3504
13 5 2 0.5137 -0.7264
13 5 5 -0.6584 0.1267
13 5 8 0.3513 0.5114
13 5 11 0.5151 -0.3622
13 5 14 -0.8273 -0.3368
13 6 -11 0.7182 -0.3415
13 6 -8 -0.2956 -0.0888
13 6 -5 -1.0403 -0.2359
13 6 -2 0.4204 0.0361
13 6 1 -0.6084 0.4339
13 6 4 1.8127 0.2288
13 6 7 -0.5388 -0.5279
13 6 10 -0.6001 -0.5491
13 7 -3 -0.4490 -0.4333
13 7 0 -0.3376 0.1248
13 7 3 -0.2189 0.1062
14 1 -20 0.7412 -0.8263
14 1 -17 0.0912 1.3445
14 1 -14 -0.1153 0.3996
14 1 -11 -0.4808 -1.0185
14 1 -8 1.1531 -0.1990
14 1 -5 -0.8106 0.5131
14 1 -2 -0.0260 -0.0045
14 1 1 0.3425 0.2594
14 1 4 -0.9110 -0.1227
14 1 7 0.3709 -0.9034
14 1 10 2.2447 0.2254
14 1 13 -2.5778 1.2669
14 1 16 -0.0720 0.1371
14 1 19 0.1601 -1.8838
14 2 -18 -0.0621 -0.3509
14 2 -15 0.9368 -0.6470
14 2 -12 0.1374 0.3708
14 2 -9 -0.8745 1.1117
14 2 -6 0.3358 -0.6461
14 2 -3 0.4804 -0.6866
14 2 0 -0.4172 0.4519
14 2 3 -0.1021 -0.0528
14 2 6 -0.3047 0.0055
14 2 9 0.1359 0.7708
14 2 12 1.2719 -0.6100
14 2 15 -0.9187 -1.0184
14 2 18 -0.3728 1.0832
14 3 -16 -1.3224 0.0601
14 3 -13 0.0140 0.3119
14 3 -10 0.4779 -0.8882
14 3 -7 0.0186 0.1247
14 3 -4 0.3687 0.8775
14 3 -1 0.0281 -0.2239
14 3 2 -0.6294 -0.5704
14 3 5 -0.1884 0.3997
14 3 8 -0.1483 -0.1386
14 3 11 1.6190 -0.0784
14 3 14 -0.8793 0.3201
14 4 -11 -0.5956 -0.1416
14 4 -8 0.1415 0.5035
14 4 -5 -0.1493 -0.4032
14 4 -2 0.7398 -0.2837
14 4 1 -0.2660 0.7466
14 4 4 -0.6101 -0.2932
14 4 7 0.7370 -0.3779
14 4 10 -0.9699 0.1705
14 4 13 1.4330 0.4412
14 5 -9 -0.0819 -0.3698
14 5 -6 0.1121 -0.3715
14 5 -3 -0.7181 0.0845
14 5 0 0.9467 0.3567
14 5 3 0.3085 0.0077
14 5 6 -1.3150 -0.4010
14 5 9 0.2853 0.4382
15 1 -16 -0.8385 0.2265
15 1 -13 0.4005 -0.3096
15 1 -10 0.7786 -1.1234
15 1 -7 -0.5375 0.7984
15 1 -4 -0.4604 0.8294
15 1 -1 0.4982 -0.5542
15 1 2 0.0560 -0.1642
15 1 5 0.1308 0.0504
15 1 8 0.3161 -0.4330
15 1 11 -1.7042 0.4344
15 1 14 1.1750 0.7701
15 1 17 0.2550 -1.2987
15 2 -14 -1.1480 -0.5244
15 2 -11 0.0231 1.3006
15 2 -8 0.5234 0.0029
15 2 -5 0.1314 -1.1358
15 2 -2 -0.8659 0.0056
15 2 1 0.0370 0.5318
15 2 4 0.7721 -0.0551
15 2 7 0.6850 0.2654
15 2 10 -0.9989 -0.1205
15 2 13 -1.1507 -0.5609
15 3 -9 -0.2117 -0.5294
15 3 -6 -0.1542 0.3541
15 3 -3 -0.0077 0.5461
15 3 0 0.0534 -0.3538
15 3 3 0.1585 -0.0693
15 3 6 -0.7835 -0.0417
15 3 9 1.5779 0.0487
15 4 -4 0.0379 -0.1007
15 4 -1 -0.2027 -0.6753
15 4 2 -0.5014 -0.2187
15 4 5 1.3574 0.7743
16 1 -12 -0.5325 -1.0707
16 1 -9 0.1739 0.0406
16 1 -6 -0.1526 0.9977
16 1 -3 0.2876 -0.1664
16 1 0 -0.2983 -0.5095
16 1 3 -0.1828 0.2286
16 1 6 0.5356 -0.0921
16 1 9 -0.7441 -0.3773
16 1 12 1.0613 0.7783
16 2 -7 -0.0001 -0.2284
16 2 -4 0.3542 -0.2095
16 2 -1 0.3492 0.3002
16 2 2 0.1245 -0.0499
16 2 5 -0.5466 -0.2544
16 2 8 -0.7552 0.3446
17 1 -2 0.1282 -0.0911
17 1 1 -0.2643 0.1274
17 1 4 0.5232 0.0951
0 0 0 0.0 0.0
;
_shelx_fab_checksum              49083
_olex2_submission_special_instructions 'No special instructions were received'
_oxdiff_exptl_absorpt_empirical_details
;
Empirical correction (ABSPACK) includes:
- Absorption correction using spherical harmonics
- Frame scaling
;
loop_
_space_group_symop_operation_xyz
'x, y, z'
'-y, x-y, z'
'-x+y, -x, z'
'x+2/3, y+1/3, z+1/3'
'-y+2/3, x-y+1/3, z+1/3'
'-x+y+2/3, -x+1/3, z+1/3'
'x+1/3, y+2/3, z+2/3'
'-y+1/3, x-y+2/3, z+2/3'
'-x+y+1/3, -x+2/3, z+2/3'
'-x, -y, -z'
'y, -x+y, -z'
'x-y, x, -z'
'-x+2/3, -y+1/3, -z+1/3'
'y+2/3, -x+y+1/3, -z+1/3'
'x-y+2/3, x+1/3, -z+1/3'
'-x+1/3, -y+2/3, -z+2/3'
'y+1/3, -x+y+2/3, -z+2/3'
'x-y+1/3, x+2/3, -z+2/3'
loop_
_atom_site_label
_atom_site_type_symbol
_atom_site_fract_x
_atom_site_fract_y
_atom_site_fract_z
_atom_site_U_iso_or_equiv
_atom_site_adp_type
_atom_site_occupancy
_atom_site_site_symmetry_order
_atom_site_calc_flag
_atom_site_refinement_flags_posn
_atom_site_refinement_flags_adp
_atom_site_refinement_flags_occupancy
_atom_site_disorder_assembly
_atom_site_disorder_group
Ag1 Ag 0.47968(4) 0.63561(4) 0.60322(2) 0.0708(2) Uani 1 1 d . . . . .
Ag2 Ag 0.333333 0.666667 0.56207(3) 0.0731(3) Uani 1 3 d S T P A .
Cl1 Cl 0.333333 0.666667 0.666667 0.0443(5) Uani 1 6 d S T P . .
C1 C 0.4634(5) 0.5238(5) 0.6427(2) 0.0683(15) Uani 1 1 d . . . . .
C2 C 0.4725(6) 0.4644(6) 0.6611(3) 0.082(2) Uani 1 1 d . . . . .
C3 C 0.4859(8) 0.3898(8) 0.6820(4) 0.131(3) Uani 1 1 d D U . . .
Ag3 Ag 0.52445(11) 0.82691(8) 0.63107(3) 0.0684(3) Uani 0.836(4) 1 d . . P A 1
C4 C 0.511(2) 0.342(2) 0.6444(8) 0.165(12) Uani 0.469(17) 1 d D U P B 1
H4A H 0.487451 0.352397 0.616558 0.248 Uiso 0.469(17) 1 d R U P B 1
H4B H 0.484611 0.275187 0.649078 0.248 Uiso 0.469(17) 1 d R U P B 1
H4C H 0.578771 0.371807 0.642928 0.248 Uiso 0.469(17) 1 d R U P B 1
C5 C 0.4015(15) 0.3205(16) 0.7096(9) 0.135(9) Uani 0.469(17) 1 d D U P B 1
H5A H 0.401704 0.332318 0.741363 0.203 Uiso 0.469(17) 1 d R U P B 1
H5B H 0.390994 0.257668 0.705063 0.203 Uiso 0.469(17) 1 d R U P B 1
H5C H 0.351914 0.326218 0.695183 0.203 Uiso 0.469(17) 1 d R U P B 1
C6 C 0.5735(17) 0.449(2) 0.7119(10) 0.187(9) Uani 0.469(17) 1 d D U P B 1
H6A H 0.574613 0.404438 0.732524 0.280 Uiso 0.469(17) 1 d R U P B 1
H6B H 0.556713 0.489918 0.727864 0.280 Uiso 0.469(17) 1 d R U P B 1
H6C H 0.634943 0.486538 0.698544 0.280 Uiso 0.469(17) 1 d R U P B 1
C7 C 0.4920(12) 0.7390(12) 0.5583(6) 0.061(3) Uani 0.62(2) 1 d . U P A 1
C8 C 0.5166(13) 0.7956(13) 0.5288(5) 0.080(4) Uani 0.62(2) 1 d D U P A 1
C9 C 0.5455(12) 0.8601(12) 0.4885(5) 0.123(6) Uani 0.62(2) 1 d D U P A 1
C10 C 0.580(2) 0.8165(17) 0.4525(7) 0.191(12) Uani 0.62(2) 1 d D U P A 1
H10A H 0.625239 0.801228 0.465891 0.287 Uiso 0.62(2) 1 calc R U P A 1
H10B H 0.609887 0.861770 0.427757 0.287 Uiso 0.62(2) 1 calc R U P A 1
H10C H 0.525384 0.758583 0.440705 0.287 Uiso 0.62(2) 1 calc R U P A 1
C11 C 0.4588(15) 0.8647(18) 0.4729(8) 0.193(12) Uani 0.62(2) 1 d D U P A 1
H11A H 0.413698 0.804677 0.458550 0.290 Uiso 0.62(2) 1 calc R U P A 1
H11B H 0.478248 0.916395 0.451064 0.290 Uiso 0.62(2) 1 calc R U P A 1
H11C H 0.428814 0.876109 0.498924 0.290 Uiso 0.62(2) 1 calc R U P A 1
C12 C 0.6263(15) 0.9571(16) 0.5031(10) 0.182(10) Uani 0.62(2) 1 d D U P A 1
H12A H 0.652507 0.950953 0.531849 0.273 Uiso 0.62(2) 1 calc R U P A 1
H12B H 0.602050 1.000893 0.506834 0.273 Uiso 0.62(2) 1 calc R U P A 1
H12C H 0.675933 0.981636 0.480019 0.273 Uiso 0.62(2) 1 calc R U P A 1
Ag3A Ag 0.5609(5) 0.8496(4) 0.62338(16) 0.0684(3) Uani 0.164(4) 1 d . . P A 2
C4A C 0.4016(16) 0.2948(15) 0.6669(11) 0.211(11) Uani 0.531(17) 1 d D U P B 2
H4AA H 0.416703 0.246078 0.673015 0.317 Uiso 0.531(17) 1 d R U P B 2
H4AB H 0.388263 0.294528 0.635275 0.317 Uiso 0.531(17) 1 d R U P B 2
H4AC H 0.347043 0.283258 0.684155 0.317 Uiso 0.531(17) 1 d R U P B 2
C5A C 0.480(2) 0.3927(19) 0.7338(4) 0.159(11) Uani 0.531(17) 1 d D U P B 2
H5AA H 0.529878 0.454182 0.744958 0.239 Uiso 0.531(17) 1 calc R U P B 2
H5AB H 0.488292 0.342229 0.747006 0.239 Uiso 0.531(17) 1 calc R U P B 2
H5AC H 0.418006 0.383574 0.742546 0.239 Uiso 0.531(17) 1 calc R U P B 2
C6A C 0.5761(12) 0.3940(17) 0.6673(8) 0.127(8) Uani 0.531(17) 1 d D U P B 2
H6AA H 0.567695 0.330205 0.667894 0.190 Uiso 0.531(17) 1 calc R U P B 2
H6AB H 0.627364 0.435072 0.687917 0.190 Uiso 0.531(17) 1 calc R U P B 2
H6AC H 0.591977 0.419493 0.636595 0.190 Uiso 0.531(17) 1 calc R U P B 2
C7A C 0.515(2) 0.758(2) 0.5660(10) 0.061(3) Uani 0.38(2) 1 d . U P A 2
C8A C 0.550(2) 0.8174(18) 0.5392(8) 0.077(7) Uani 0.38(2) 1 d D U P A 2
C9A C 0.5878(18) 0.8833(17) 0.5011(8) 0.127(11) Uani 0.38(2) 1 d D U P A 2
C10A C 0.614(3) 0.9788(18) 0.5219(11) 0.157(14) Uani 0.38(2) 1 d D U P A 2
H10D H 0.564514 0.992859 0.515197 0.235 Uiso 0.38(2) 1 d R U P A 2
H10E H 0.672074 1.026269 0.508657 0.235 Uiso 0.38(2) 1 d R U P A 2
H10F H 0.621234 0.978279 0.554057 0.235 Uiso 0.38(2) 1 d R U P A 2
C11A C 0.677(2) 0.885(3) 0.4848(12) 0.162(14) Uani 0.38(2) 1 d D U P A 2
H11D H 0.665446 0.821692 0.479342 0.243 Uiso 0.38(2) 1 d R U P A 2
H11E H 0.723406 0.913492 0.508352 0.243 Uiso 0.38(2) 1 d R U P A 2
H11F H 0.700666 0.921442 0.457632 0.243 Uiso 0.38(2) 1 d R U P A 2
C12A C 0.522(2) 0.864(3) 0.4607(10) 0.154(14) Uani 0.38(2) 1 d D U P A 2
H12D H 0.478181 0.886861 0.467628 0.231 Uiso 0.38(2) 1 calc R U P A 2
H12E H 0.486952 0.796394 0.454517 0.231 Uiso 0.38(2) 1 calc R U P A 2
H12F H 0.560277 0.898101 0.434216 0.231 Uiso 0.38(2) 1 calc R U P A 2
loop_
_atom_site_aniso_label
_atom_site_aniso_U_11
_atom_site_aniso_U_22
_atom_site_aniso_U_33
_atom_site_aniso_U_23
_atom_site_aniso_U_13
_atom_site_aniso_U_12
Ag1 0.0819(3) 0.0774(3) 0.0655(3) 0.0165(2) 0.0185(2) 0.0491(3)
Ag2 0.0840(4) 0.0840(4) 0.0511(4) 0.000 0.000 0.04202(19)
Cl1 0.0486(8) 0.0486(8) 0.0356(13) 0.000 0.000 0.0243(4)
C1 0.070(4) 0.067(4) 0.079(4) 0.000(3) 0.006(3) 0.042(3)
C2 0.085(5) 0.079(4) 0.101(5) 0.023(4) 0.028(4) 0.055(4)
C3 0.151(6) 0.132(6) 0.155(7) 0.043(5) 0.034(5) 0.106(5)
Ag3 0.0666(7) 0.0716(5) 0.0702(4) 0.0074(3) 0.0074(4) 0.0370(5)
C4 0.21(2) 0.150(17) 0.20(2) 0.033(14) 0.028(15) 0.136(16)
C5 0.157(17) 0.115(14) 0.142(16) 0.054(12) 0.035(13) 0.076(12)
C6 0.192(9) 0.173(14) 0.219(12) 0.026(11) -0.016(8) 0.109(9)
C7 0.057(7) 0.065(6) 0.051(5) 0.007(4) 0.008(5) 0.022(5)
C8 0.081(8) 0.092(8) 0.062(7) 0.016(6) 0.013(6) 0.041(6)
C9 0.126(9) 0.125(7) 0.103(9) 0.023(6) 0.010(7) 0.051(6)
C10 0.22(2) 0.193(18) 0.129(14) 0.043(13) 0.053(14) 0.082(14)
C11 0.20(2) 0.203(19) 0.155(15) 0.095(13) -0.013(13) 0.090(14)
C12 0.178(13) 0.146(8) 0.147(16) 0.008(9) 0.004(12) 0.025(8)
Ag3A 0.0666(7) 0.0716(5) 0.0702(4) 0.0074(3) 0.0074(4) 0.0370(5)
C4A 0.205(12) 0.158(8) 0.27(2) 0.018(10) -0.006(12) 0.087(7)
C5A 0.192(19) 0.156(16) 0.159(16) 0.074(12) 0.007(13) 0.110(14)
C6A 0.113(12) 0.136(14) 0.178(16) 0.033(11) 0.017(11) 0.097(11)
C7A 0.057(7) 0.065(6) 0.051(5) 0.007(4) 0.008(5) 0.022(5)
C8A 0.083(10) 0.079(10) 0.063(10) 0.004(7) 0.012(7) 0.037(8)
C9A 0.128(14) 0.124(14) 0.114(13) 0.018(9) 0.003(9) 0.051(9)
C10A 0.20(2) 0.109(16) 0.13(2) 0.063(14) 0.026(15) 0.060(14)
C11A 0.15(2) 0.18(2) 0.148(19) 0.066(16) 0.046(15) 0.069(15)
C12A 0.16(2) 0.17(2) 0.14(2) 0.038(16) -0.006(16) 0.082(16)
loop_
_atom_type_symbol
_atom_type_description
_atom_type_scat_dispersion_real
_atom_type_scat_dispersion_imag
_atom_type_scat_source
C C 0.0181 0.0091 'International Tables Vol C Tables 4.2.6.8 and 6.1.1.4'
H H 0.0000 0.0000 'International Tables Vol C Tables 4.2.6.8 and 6.1.1.4'
Ag Ag 0.1306 4.2820 'International Tables Vol C Tables 4.2.6.8 and 6.1.1.4'
Cl Cl 0.3639 0.7018 'International Tables Vol C Tables 4.2.6.8 and 6.1.1.4'
O O 0.0492 0.0322 'International Tables Vol C Tables 4.2.6.8 and 6.1.1.4'
loop_
_geom_angle_atom_site_label_1
_geom_angle_atom_site_label_2
_geom_angle_atom_site_label_3
_geom_angle
_geom_angle_site_symmetry_1
_geom_angle_site_symmetry_3
_geom_angle_publ_flag
Ag2 Ag1 Ag3 74.10(2) . . ?
Ag2 Ag1 Ag3A 79.22(10) . . ?
Ag2 Ag1 Ag3A 127.46(11) . 14_456 ?
Ag2 Ag1 Ag3A 77.51(9) . 3_565 ?
C1 Ag1 Ag2 128.96(19) . . ?
C1 Ag1 Ag3 53.94(19) . 3_565 ?
C1 Ag1 Ag3 129.08(19) . . ?
C1 Ag1 Ag3 54.07(19) . 14_456 ?
C1 Ag1 C7 174.5(5) . . ?
C1 Ag1 Ag3A 132.5(2) . . ?
C1 Ag1 Ag3A 51.9(2) . 3_565 ?
C1 Ag1 Ag3A 48.4(2) . 14_456 ?
C1 Ag1 C7A 172.5(9) . . ?
Ag3 Ag1 Ag2 118.80(4) 14_456 . ?
Ag3 Ag1 Ag2 75.03(2) 3_565 . ?
Ag3 Ag1 Ag3 75.03(3) 14_456 . ?
Ag3 Ag1 Ag3 75.97(3) 3_565 14_456 ?
Ag3 Ag1 Ag3 119.00(6) 3_565 . ?
Ag3 Ag1 Ag3A 8.91(10) 14_456 14_456 ?
Ag3 Ag1 Ag3A 80.95(10) . 14_456 ?
Ag3 Ag1 Ag3A 78.18(9) 3_565 14_456 ?
Ag3 Ag1 Ag3A 81.47(10) 14_456 3_565 ?
Ag3 Ag1 Ag3A 127.41(13) . 3_565 ?
Ag3 Ag1 Ag3A 8.63(9) 3_565 3_565 ?
C7 Ag1 Ag2 49.6(5) . . ?
C7 Ag1 Ag3 56.4(5) . . ?
C7 Ag1 Ag3 124.4(5) . 3_565 ?
C7 Ag1 Ag3 131.4(5) . 14_456 ?
C7 Ag1 Ag3A 137.1(5) . 14_456 ?
C7 Ag1 Ag3A 125.5(5) . 3_565 ?
Ag3A Ag1 Ag3A 84.25(11) . 14_456 ?
Ag3A Ag1 Ag3A 82.59(10) 3_565 14_456 ?
C7A Ag1 Ag2 58.4(8) . . ?
C7A Ag1 Ag3 122.6(8) . 14_456 ?
C7A Ag1 Ag3A 127.2(8) . 14_456 ?
C7A Ag1 Ag3A 43.2(8) . . ?
Ag1 Ag2 Ag1 104.04(2) 2_665 . ?
Ag1 Ag2 Ag1 104.04(2) 3_565 . ?
Ag1 Ag2 Ag1 104.04(2) 2_665 3_565 ?
C7 Ag2 Ag1 44.8(5) 2_665 2_665 ?
C7 Ag2 Ag1 85.3(5) 3_565 . ?
C7 Ag2 Ag1 85.3(5) . 2_665 ?
C7 Ag2 Ag1 44.8(5) 3_565 3_565 ?
C7 Ag2 Ag1 44.8(5) . . ?
C7 Ag2 Ag1 148.7(5) 3_565 2_665 ?
C7 Ag2 Ag1 148.7(5) 2_665 . ?
C7 Ag2 Ag1 85.3(5) 2_665 3_565 ?
C7 Ag2 Ag1 148.7(5) . 3_565 ?
C7 Ag2 C7 119.75(8) 2_665 3_565 ?
C7 Ag2 C7 119.75(8) 2_665 . ?
C7 Ag2 C7 119.76(8) 3_565 . ?
C7 Ag2 C7A 6.3(11) 3_565 3_565 ?
C7 Ag2 C7A 123.3(13) 2_665 3_565 ?
C7 Ag2 C7A 116.9(13) 3_565 2_665 ?
C7 Ag2 C7A 116.9(13) . 3_565 ?
C7 Ag2 C7A 6.3(11) 2_665 2_665 ?
C7 Ag2 C7A 123.3(13) . 2_665 ?
C7A Ag2 Ag1 146.5(7) . 3_565 ?
C7A Ag2 Ag1 146.5(7) 2_665 . ?
C7A Ag2 Ag1 80.1(8) 3_565 . ?
C7A Ag2 Ag1 44.1(8) 3_565 3_565 ?
C7A Ag2 Ag1 80.1(8) 2_665 3_565 ?
C7A Ag2 Ag1 146.5(7) 3_565 2_665 ?
C7A Ag2 Ag1 80.1(8) . 2_665 ?
C7A Ag2 Ag1 44.1(8) 2_665 2_665 ?
C7A Ag2 Ag1 44.1(8) . . ?
C7A Ag2 C7A 119.80(11) 2_665 . ?
C7A Ag2 C7A 119.80(11) . 3_565 ?
C7A Ag2 C7A 119.80(11) 2_665 3_565 ?
Ag1 C1 Ag3 81.8(2) . 14_456 ?
Ag1 C1 Ag3 80.9(2) . 3_565 ?
Ag1 C1 Ag3A 92.0(3) . 14_456 ?
Ag1 C1 Ag3A 88.1(3) . 3_565 ?
C2 C1 Ag1 165.5(6) . . ?
C2 C1 Ag3 103.0(6) . 14_456 ?
C2 C1 Ag3 111.6(6) . 3_565 ?
C2 C1 Ag3A 103.0(6) . 3_565 ?
C2 C1 Ag3A 91.0(6) . 14_456 ?
Ag3 C1 Ag3 97.5(2) 3_565 14_456 ?
Ag3 C1 Ag3A 109.1(3) 14_456 3_565 ?
Ag3 C1 Ag3A 13.47(14) 14_456 14_456 ?
Ag3 C1 Ag3A 12.68(13) 3_565 3_565 ?
Ag3 C1 Ag3A 108.0(3) 3_565 14_456 ?
C1 C2 C3 177.3(8) . . ?
C2 C3 C4 107.6(12) . . ?
C2 C3 C5 112.9(11) . . ?
C2 C3 C6 101.3(15) . . ?
C2 C3 C4A 106.4(16) . . ?
C2 C3 C5A 110.8(10) . . ?
C2 C3 C6A 112.7(10) . . ?
C4 C3 C6 109.8(10) . . ?
C5 C3 C4 112.8(11) . . ?
C5 C3 C6 111.8(10) . . ?
C4A C3 C5A 106.4(10) . . ?
C6A C3 C4A 108.9(10) . . ?
C6A C3 C5A 111.2(10) . . ?
Ag1 Ag3 Ag1 104.77(5) 2_665 15_556 ?
Ag1 Ag3 Ag1 105.43(4) 2_665 . ?
Ag1 Ag3 Ag1 103.21(3) 15_556 . ?
C1 Ag3 Ag1 148.41(17) 15_556 2_665 ?
C1 Ag3 Ag1 81.81(16) 15_556 . ?
C1 Ag3 Ag1 149.80(17) 2_665 . ?
C1 Ag3 Ag1 45.16(16) 2_665 2_665 ?
C1 Ag3 Ag1 82.64(17) 2_665 15_556 ?
C1 Ag3 Ag1 44.15(16) 15_556 15_556 ?
C1 Ag3 C1 119.18(10) 2_665 15_556 ?
C1 Ag3 C7 119.7(5) 15_556 . ?
C1 Ag3 C7 121.1(5) 2_665 . ?
C7 Ag3 Ag1 146.2(4) . 15_556 ?
C7 Ag3 Ag1 82.3(5) . 2_665 ?
C7 Ag3 Ag1 43.9(5) . . ?
C3 C4 H4A 107.5 . . ?
C3 C4 H4B 113.0 . . ?
C3 C4 H4C 107.9 . . ?
H4A C4 H4B 109.5 . . ?
H4A C4 H4C 109.5 . . ?
H4B C4 H4C 109.4 . . ?
C3 C5 H5A 117.9 . . ?
C3 C5 H5B 109.4 . . ?
C3 C5 H5C 100.6 . . ?
H5A C5 H5B 109.4 . . ?
H5A C5 H5C 109.5 . . ?
H5B C5 H5C 109.5 . . ?
C3 C6 H6A 104.6 . . ?
C3 C6 H6B 102.9 . . ?
C3 C6 H6C 120.6 . . ?
H6A C6 H6B 109.4 . . ?
H6A C6 H6C 109.5 . . ?
H6B C6 H6C 109.4 . . ?
Ag1 C7 Ag2 85.6(6) . . ?
Ag1 C7 Ag3 79.6(6) . . ?
Ag2 C7 Ag3 96.7(7) . . ?
C8 C7 Ag1 164.1(17) . . ?
C8 C7 Ag2 107.3(14) . . ?
C8 C7 Ag3 107.2(13) . . ?
C7 C8 C9 174.7(19) . . ?
C8 C9 C10 106.8(15) . . ?
C8 C9 C11 107.5(14) . . ?
C8 C9 C12 107.8(17) . . ?
C11 C9 C10 111.8(11) . . ?
C11 C9 C12 112.0(11) . . ?
C12 C9 C10 110.6(11) . . ?
C9 C10 H10A 109.5 . . ?
C9 C10 H10B 109.5 . . ?
C9 C10 H10C 109.5 . . ?
H10A C10 H10B 109.5 . . ?
H10A C10 H10C 109.5 . . ?
H10B C10 H10C 109.5 . . ?
C9 C11 H11A 109.5 . . ?
C9 C11 H11B 109.5 . . ?
C9 C11 H11C 109.5 . . ?
H11A C11 H11B 109.5 . . ?
H11A C11 H11C 109.5 . . ?
H11B C11 H11C 109.5 . . ?
C9 C12 H12A 109.5 . . ?
C9 C12 H12B 109.5 . . ?
C9 C12 H12C 109.5 . . ?
H12A C12 H12B 109.5 . . ?
H12A C12 H12C 109.5 . . ?
H12B C12 H12C 109.5 . . ?
Ag1 Ag3A Ag1 93.07(15) . 15_556 ?
Ag1 Ag3A Ag1 94.22(17) . 2_665 ?
Ag1 Ag3A Ag1 91.13(16) 2_665 15_556 ?
C1 Ag3A Ag1 74.1(2) 2_665 15_556 ?
C1 Ag3A Ag1 130.1(3) 2_665 . ?
C1 Ag3A Ag1 39.61(17) 15_556 15_556 ?
C1 Ag3A Ag1 78.0(2) 15_556 . ?
C1 Ag3A Ag1 128.3(3) 15_556 2_665 ?
C1 Ag3A Ag1 40.02(17) 2_665 2_665 ?
C1 Ag3A C1 111.9(2) 15_556 2_665 ?
C1 Ag3A C8A 110.1(7) 2_665 . ?
C1 Ag3A C8A 137.1(7) 15_556 . ?
C7A Ag3A Ag1 80.5(10) . 2_665 ?
C7A Ag3A Ag1 42.2(9) . . ?
C7A Ag3A C1 118.8(10) . 2_665 ?
C7A Ag3A C8A 27.0(10) . . ?
C8A Ag3A Ag1 81.3(7) . 2_665 ?
C8A Ag3A Ag1 68.4(6) . . ?
C3 C4A H4AA 108.0 . . ?
C3 C4A H4AB 112.0 . . ?
C3 C4A H4AC 108.4 . . ?
H4AA C4A H4AB 109.4 . . ?
H4AA C4A H4AC 109.5 . . ?
H4AB C4A H4AC 109.5 . . ?
C3 C5A H5AA 109.5 . . ?
C3 C5A H5AB 109.5 . . ?
C3 C5A H5AC 109.5 . . ?
H5AA C5A H5AB 109.5 . . ?
H5AA C5A H5AC 109.5 . . ?
H5AB C5A H5AC 109.5 . . ?
C3 C6A H6AA 109.5 . . ?
C3 C6A H6AB 109.5 . . ?
C3 C6A H6AC 109.5 . . ?
H6AA C6A H6AB 109.5 . . ?
H6AA C6A H6AC 109.5 . . ?
H6AB C6A H6AC 109.5 . . ?
Ag1 C7A Ag2 77.5(9) . . ?
Ag1 C7A Ag3A 94.6(12) . . ?
Ag3A C7A Ag2 110.1(14) . . ?
C8A C7A Ag1 160(3) . . ?
C8A C7A Ag2 114(2) . . ?
C8A C7A Ag3A 96(2) . . ?
C7A C8A Ag3A 56.8(18) . . ?
C7A C8A C9A 173(3) . . ?
C9A C8A Ag3A 130.2(18) . . ?
C8A C9A C10A 104(2) . . ?
C8A C9A C11A 107(2) . . ?
C8A C9A C12A 118(2) . . ?
C10A C9A C11A 109.7(13) . . ?
C10A C9A C12A 109.4(13) . . ?
C12A C9A C11A 108.8(12) . . ?
C9A C10A H10D 108.7 . . ?
C9A C10A H10E 108.4 . . ?
C9A C10A H10F 111.3 . . ?
H10D C10A H10E 109.5 . . ?
H10D C10A H10F 109.4 . . ?
H10E C10A H10F 109.5 . . ?
C9A C11A H11D 111.0 . . ?
C9A C11A H11E 106.7 . . ?
C9A C11A H11F 110.6 . . ?
H11D C11A H11E 109.5 . . ?
H11D C11A H11F 109.4 . . ?
H11E C11A H11F 109.5 . . ?
C9A C12A H12D 109.5 . . ?
C9A C12A H12E 109.5 . . ?
C9A C12A H12F 109.5 . . ?
H12D C12A H12E 109.5 . . ?
H12D C12A H12F 109.5 . . ?
H12E C12A H12F 109.5 . . ?
loop_
_geom_bond_atom_site_label_1
_geom_bond_atom_site_label_2
_geom_bond_distance
_geom_bond_site_symmetry_2
_geom_bond_publ_flag
Ag1 Ag2 2.9415(6) . ?
Ag1 C1 2.070(7) . ?
Ag1 Ag3 2.9453(9) . ?
Ag1 Ag3 2.8826(11) 3_565 ?
Ag1 Ag3 2.9415(11) 14_456 ?
Ag1 C7 2.078(19) . ?
Ag1 Ag3A 3.244(5) 14_456 ?
Ag1 Ag3A 3.111(5) . ?
Ag1 Ag3A 3.217(6) 3_565 ?
Ag1 C7A 2.10(3) . ?
Ag2 C7 2.248(17) . ?
Ag2 C7 2.248(17) 2_665 ?
Ag2 C7 2.248(17) 3_565 ?
Ag2 C7A 2.57(3) . ?
Ag2 C7A 2.57(3) 3_565 ?
Ag2 C7A 2.57(3) 2_665 ?
C1 C2 1.183(9) . ?
C1 Ag3 2.360(7) 3_565 ?
C1 Ag3 2.406(7) 14_456 ?
C1 Ag3A 2.428(8) 14_456 ?
C1 Ag3A 2.534(8) 3_565 ?
C2 C3 1.476(11) . ?
C3 C4 1.529(10) . ?
C3 C5 1.513(9) . ?
C3 C6 1.542(10) . ?
C3 C4A 1.538(10) . ?
C3 C5A 1.541(9) . ?
C3 C6A 1.502(9) . ?
Ag3 C7 2.495(18) . ?
C4 H4A 0.9597 . ?
C4 H4B 0.9604 . ?
C4 H4C 0.9600 . ?
C5 H5A 0.9601 . ?
C5 H5B 0.9600 . ?
C5 H5C 0.9596 . ?
C6 H6A 0.9602 . ?
C6 H6B 0.9602 . ?
C6 H6C 0.9597 . ?
C7 C8 1.19(2) . ?
C8 C9 1.503(15) . ?
C9 C10 1.533(10) . ?
C9 C11 1.526(10) . ?
C9 C12 1.530(10) . ?
C10 H10A 0.9800 . ?
C10 H10B 0.9800 . ?
C10 H10C 0.9800 . ?
C11 H11A 0.9800 . ?
C11 H11B 0.9800 . ?
C11 H11C 0.9800 . ?
C12 H12A 0.9800 . ?
C12 H12B 0.9800 . ?
C12 H12C 0.9800 . ?
Ag3A C7A 2.13(3) . ?
Ag3A C8A 2.54(2) . ?
C4A H4AA 0.9597 . ?
C4A H4AB 0.9600 . ?
C4A H4AC 0.9603 . ?
C5A H5AA 0.9800 . ?
C5A H5AB 0.9800 . ?
C5A H5AC 0.9800 . ?
C6A H6AA 0.9800 . ?
C6A H6AB 0.9800 . ?
C6A H6AC 0.9800 . ?
C7A C8A 1.16(4) . ?
C8A C9A 1.467(18) . ?
C9A C10A 1.526(10) . ?
C9A C11A 1.526(10) . ?
C9A C12A 1.526(10) . ?
C10A H10D 0.9603 . ?
C10A H10E 0.9597 . ?
C10A H10F 0.9604 . ?
C11A H11D 0.9598 . ?
C11A H11E 0.9601 . ?
C11A H11F 0.9605 . ?
C12A H12D 0.9800 . ?
C12A H12E 0.9800 . ?
C12A H12F 0.9800 . ?
loop_
_geom_torsion_atom_site_label_1
_geom_torsion_atom_site_label_2
_geom_torsion_atom_site_label_3
_geom_torsion_atom_site_label_4
_geom_torsion
_geom_torsion_site_symmetry_1
_geom_torsion_site_symmetry_2
_geom_torsion_site_symmetry_3
_geom_torsion_site_symmetry_4
_geom_torsion_publ_flag
Ag1 C7A C8A Ag3A -122(7) . . . . ?
Ag2 C7A C8A Ag3A 115(3) . . . . ?
Ag3A C8A C9A C10A -14(3) . . . . ?
Ag3A C8A C9A C11A 102(2) . . . . ?
Ag3A C8A C9A C12A -135(2) . . . . ?
loop_
_smtbx_masks_void_nr
_smtbx_masks_void_average_x
_smtbx_masks_void_average_y
_smtbx_masks_void_average_z
_smtbx_masks_void_volume
_smtbx_masks_void_count_electrons
_smtbx_masks_void_content
1 0.000 0.000 0.257 7.8 1.1 ?
2 0.000 0.000 0.500 245.0 72.7 '0.333 C10O13H43'
3 0.000 0.000 0.743 7.8 0.0 ?
4 0.333 0.667 0.167 245.0 72.6 '0.333 C10O13H43'
5 -0.333 0.333 0.833 245.0 72.6 '0.333 C10O13H43'
6 0.333 0.667 0.410 7.8 0.0 ?
7 0.333 0.667 0.923 7.8 1.1 ?
8 0.667 0.333 0.077 7.8 0.0 ?
9 0.667 0.333 0.590 7.8 1.1 ?
