#------------------------------------------------------------------------------
#$Date: 2024-02-04 14:18:02 +0200 (Sun, 04 Feb 2024) $
#$Revision: 289573 $
#$URL: file:///home/coder/svn-repositories/cod/cif/1/57/06/1570614.cif $
#------------------------------------------------------------------------------
#
# This file is available in the Crystallography Open Database (COD),
# http://www.crystallography.net/
#
# All data on this site have been placed in the public domain by the
# contributors.
#
data_1570614
loop_
_publ_author_name
'Ren, Zhen'
'Sun, Jun-Jun'
'Xu, Long'
'Luo, Peng'
'Ma, Zi-Wei'
'Li, Si'
'Si, Yu-Bing'
'Dong, Xi-Yan'
'Pan, Fangfang'
_publ_section_title
;
 X-ray-triggered through-space charge transfer and photochromism in silver
 nanoclusters.
;
_journal_issue                   5
_journal_name_full               Nanoscale
_journal_page_first              2662
_journal_page_last               2671
_journal_paper_doi               10.1039/d3nr05409h
_journal_volume                  16
_journal_year                    2024
_chemical_formula_moiety         'C72 H108 Ag14, 1(Cl), 1[B1F4]'
_chemical_formula_sum            'C72 H108 Ag14 B Cl F4'
_chemical_formula_weight         2606.02
_space_group_crystal_system      trigonal
_space_group_IT_number           148
_space_group_name_Hall           '-R 3'
_space_group_name_H-M_alt        'R -3 :H'
_atom_sites_solution_hydrogens   geom
_audit_block_doi                 10.5517/ccdc.csd.cc2hpf4s
_audit_creation_date             2023-12-15
_audit_creation_method
;
Olex2 1.3-alpha
(compiled 2019.04.09 svn.r3586 for OlexSys, GUI svn.r5731)
;
_audit_update_record
;
2023-12-15 deposited with the CCDC.	2023-12-28 downloaded from the CCDC.
;
_cell_angle_alpha                90
_cell_angle_beta                 90
_cell_angle_gamma                120
_cell_formula_units_Z            3
_cell_length_a                   16.5410(9)
_cell_length_b                   16.5410(9)
_cell_length_c                   29.8249(19)
_cell_measurement_reflns_used    6390
_cell_measurement_temperature    200.01(10)
_cell_measurement_theta_max      26.9460
_cell_measurement_theta_min      2.9780
_cell_volume                     7067.0(7)
_computing_cell_refinement       'CrysAlisPro 1.171.39.28b (Rigaku OD, 2015)'
_computing_data_collection       'CrysAlisPro 1.171.39.28b (Rigaku OD, 2015)'
_computing_data_reduction        'CrysAlisPro 1.171.39.28b (Rigaku OD, 2015)'
_computing_molecular_graphics    'Olex2 (Dolomanov et al., 2009)'
_computing_publication_material  'Olex2 (Dolomanov et al., 2009)'
_computing_structure_refinement  'ShelXL (Sheldrick, 2015)'
_computing_structure_solution    'SHELXT 2018/2 (Sheldrick, 2018)'
_diffrn_ambient_environment      air
_diffrn_ambient_temperature      200.01(10)
_diffrn_detector                 'CCD plate'
_diffrn_measured_fraction_theta_full 0.995
_diffrn_measured_fraction_theta_max 0.865
_diffrn_measurement_details
;
List of Runs (angles in degrees, time in seconds):

  # Type    Start    End  Width  t~exp~   \w     \q     \k     \f   Frames
#--------------------------------------------------------------------------
  1  \w    -11.00  79.00   0.50    4.00    --  -10.60  38.00  30.00  180
  2  \w    -20.00  59.00   0.50    4.00    --   10.90  57.00 150.00  158
;
_diffrn_measurement_device       'four-circle diffractometer'
_diffrn_measurement_device_type  'XtaLAB AFC12 (RINC): Kappa single'
_diffrn_measurement_method       '\w scans'
_diffrn_orient_matrix_type
'CrysAlisPro convention (1999,Acta A55,543-557)'
_diffrn_orient_matrix_UB_11      -0.0099316000
_diffrn_orient_matrix_UB_12      -0.0413869000
_diffrn_orient_matrix_UB_13      -0.0115953000
_diffrn_orient_matrix_UB_21      0.0470637000
_diffrn_orient_matrix_UB_22      0.0111110000
_diffrn_orient_matrix_UB_23      0.0027454000
_diffrn_orient_matrix_UB_31      -0.0118586000
_diffrn_orient_matrix_UB_32      -0.0248046000
_diffrn_orient_matrix_UB_33      0.0205775000
_diffrn_radiation_monochromator  graphite
_diffrn_radiation_probe          x-ray
_diffrn_radiation_type           'Mo K\a'
_diffrn_radiation_wavelength     0.71073
_diffrn_reflns_av_R_equivalents  0.0378
_diffrn_reflns_av_unetI/netI     0.0378
_diffrn_reflns_Laue_measured_fraction_full 0.995
_diffrn_reflns_Laue_measured_fraction_max 0.865
_diffrn_reflns_limit_h_max       21
_diffrn_reflns_limit_h_min       -21
_diffrn_reflns_limit_k_max       18
_diffrn_reflns_limit_k_min       -21
_diffrn_reflns_limit_l_max       29
_diffrn_reflns_limit_l_min       -40
_diffrn_reflns_number            9459
_diffrn_reflns_point_group_measured_fraction_full 0.995
_diffrn_reflns_point_group_measured_fraction_max 0.865
_diffrn_reflns_theta_full        25.242
_diffrn_reflns_theta_max         28.757
_diffrn_reflns_theta_min         1.971
_diffrn_source                   'fine-focus sealed X-ray tube'
_diffrn_source_type              'Enhance (Mo) X-ray Source'
_exptl_absorpt_coefficient_mu    2.905
_exptl_absorpt_correction_T_max  1.00000
_exptl_absorpt_correction_T_min  0.05849
_exptl_absorpt_correction_type   multi-scan
_exptl_absorpt_process_details
;
CrysAlisPro 1.171.39.28b (Rigaku Oxford Diffraction, 2015)
Empirical absorption correction using spherical harmonics,
 implemented in SCALE3 ABSPACK scaling algorithm.
;
_exptl_crystal_colour            colourless
_exptl_crystal_colour_primary    colourless
_exptl_crystal_density_diffrn    1.837
_exptl_crystal_description       block
_exptl_crystal_F_000             3768
_exptl_crystal_size_max          0.25
_exptl_crystal_size_mid          0.22
_exptl_crystal_size_min          0.2
_refine_diff_density_max         0.642
_refine_diff_density_min         -0.598
_refine_diff_density_rms         0.116
_refine_ls_extinction_coef       0.00092(8)
_refine_ls_extinction_expression Fc^*^=kFc[1+0.001xFc^2^\l^3^/sin(2\q)]^-1/4^
_refine_ls_extinction_method     'SHELXL-2018/3 (Sheldrick 2018)'
_refine_ls_goodness_of_fit_ref   1.060
_refine_ls_hydrogen_treatment    constr
_refine_ls_matrix_type           full
_refine_ls_number_parameters     194
_refine_ls_number_reflns         3550
_refine_ls_number_restraints     162
_refine_ls_restrained_S_all      1.107
_refine_ls_R_factor_all          0.0698
_refine_ls_R_factor_gt           0.0466
_refine_ls_shift/su_max          0.002
_refine_ls_shift/su_mean         0.000
_refine_ls_structure_factor_coef Fsqd
_refine_ls_weighting_details
'w=1/[\s^2^(Fo^2^)+(0.0862P)^2^] where P=(Fo^2^+2Fc^2^)/3'
_refine_ls_weighting_scheme      calc
_refine_ls_wR_factor_gt          0.1364
_refine_ls_wR_factor_ref         0.1480
_reflns_Friedel_coverage         0.000
_reflns_number_gt                2404
_reflns_number_total             3550
_reflns_threshold_expression     'I > 2\s(I)'
_cod_data_source_file            d3nr05409h2.cif
_cod_data_source_block           cl@ag14-bf4
_cod_depositor_comments
'Adding full bibliography for 1570610--1570618.cif.'
_cod_original_cell_volume        7067.0(9)
_cod_original_sg_symbol_H-M      'R -3'
_cod_database_code               1570614
_shelx_shelxl_version_number     2018/3
_shelx_space_group_comment
;
The symmetry employed for this shelxl refinement is uniquely defined
by the following loop, which should always be used as a source of
symmetry information in preference to the above space-group names.
They are only intended as comments.
;
_shelx_estimated_absorpt_t_max   0.594
_shelx_estimated_absorpt_t_min   0.530
_reflns_odcompleteness_completeness 99.19
_reflns_odcompleteness_iscentric 1
_reflns_odcompleteness_theta     26.32
_olex2_refinement_description
;
1. Fixed Uiso
 At 1.5 times of:
  All C(H,H,H) groups
2. Restrained distances
 C4-C3 = C5-C3 = C6-C3 = C10A-C9 = C12-C9 = C11A-C9 = C10-C9 = C11-C9 = C12A-C9
 1.54 with sigma of 0.02
 C4A-C3 = C5A-C3 = C6A-C3
 1.54 with sigma of 0.02
 C4-C5 \\sim C5-C6 \\sim C6-C4
 with sigma of 0.02
 C10-C11 \\sim C11-C12 \\sim C12-C10
 with sigma of 0.02
 C10A-C11A \\sim C11A-C12A \\sim C12A-C10A
 with sigma of 0.02
3. Uiso/Uaniso restraints and constraints
Uanis(C6) \\sim Ueq, Uanis(C5) \\sim Ueq, Uanis(C3) \\sim Ueq, Uanis(C4) \\sim
Ueq, Uanis(C12) \\sim Ueq, Uanis(C11A) \\sim Ueq, Uanis(C10) \\sim Ueq,
Uanis(C12A) \\sim Ueq, Uanis(C11) \\sim Ueq, Uanis(C10A) \\sim Ueq: with sigma
of 0.01 and sigma for terminal atoms of 0.02
Uanis(C6A) \\sim Ueq, Uanis(C5A) \\sim Ueq, Uanis(C4A) \\sim Ueq: with sigma of
0.01 and sigma for terminal atoms of 0.02
4. Rigid body (RIGU) restrains
 C9, C10A, C12, C11A, C10, C12A, C11, C7, C8
 with sigma for 1-2 distances of 0.01 and sigma for 1-3 distances of 0.01
5. Others
 Sof(C10A)=Sof(H10D)=Sof(H10E)=Sof(H10F)=Sof(C12A)=Sof(H12D)=Sof(H12E)=
 Sof(H12F)=Sof(C11A)=Sof(H11D)=Sof(H11E)=Sof(H11F)=1-FVAR(1)
 Sof(C10)=Sof(H10A)=Sof(H10B)=Sof(H10C)=Sof(C11)=Sof(H11A)=Sof(H11B)=Sof(H11C)=
 Sof(C12)=Sof(H12A)=Sof(H12B)=Sof(H12C)=FVAR(1)
 Sof(C6A)=Sof(H6AA)=Sof(H6AB)=Sof(H6AC)=Sof(C4A)=Sof(H4AA)=Sof(H4AB)=Sof(H4AC)=
 Sof(C5A)=Sof(H5AA)=Sof(H5AB)=Sof(H5AC)=1-FVAR(2)
 Sof(C6)=Sof(H6A)=Sof(H6B)=Sof(H6C)=Sof(C4)=Sof(H4A)=Sof(H4B)=Sof(H4C)=Sof(C5)=
 Sof(H5A)=Sof(H5B)=Sof(H5C)=FVAR(2)
6.a Me refined with riding coordinates:
 C10(H10A,H10B,H10C), C11(H11A,H11B,H11C), C12(H12A,H12B,H12C), C5(H5A,H5B,
 H5C), C12A(H12D,H12E,H12F), C11A(H11D,H11E,H11F), C5A(H5AA,H5AB,H5AC)
6.b Idealised Me refined as rotating group:
 C6(H6A,H6B,H6C), C4(H4A,H4B,H4C), C10A(H10D,H10E,H10F), C6A(H6AA,H6AB,H6AC),
 C4A(H4AA,H4AB,H4AC)
;
_smtbx_masks_void_probe_radius   1.2
_smtbx_masks_void_truncation_radius 1.2
_shelx_res_file
;
TITL 20220905d6_a.res in R-3
    cl@ag14-bf4.res
    created by SHELXL-2018/3 at 00:06:35 on 15-Dec-2023
REM Old TITL 20220905d6_a.res in R-3
REM SHELXT solution in R-3: R1 0.139, Rweak 0.006, Alpha 0.016
REM <I/s> 0.000 for 0 systematic absences, Orientation as input
REM Formula found by SHELXT: Ag14 C42 Cl
CELL 0.71073 16.541 16.541 29.8249 90 90 120
ZERR 3 0.0009 0.0009 0.0019 0 0 0
LATT 3
SYMM -Y,+X-Y,+Z
SYMM +Y-X,-X,+Z
SFAC C H Ag Cl B F
UNIT 216 324 42 3 3 12
DFIX 1.54 C4 C3 C5 C3 C6 C3 C10A C9 C12 C9 C11A C9 C10 C9 C11 C9 C12A C9
DFIX 1.54 C4A C3 C5A C3 C6A C3
SADI C4 C5 C5 C6 C6 C4
SADI C10 C11 C11 C12 C12 C10
SADI C10A C11A C11A C12A C12A C10A
RIGU 0.01 0.01 C9 C10A C12 C11A C10 C12A C11 C7 C8
ISOR 0.01 0.02 C6 C5 C3 C4 C12 C11A C10 C12A C11 C10A
ISOR 0.01 0.02 C6A C5A C4A

L.S. 56
PLAN  10
SIZE 0.2 0.22 0.25
TEMP -73.14(10)
list 4
ABIN
fmap 2
acta
OMIT -1 2 0
OMIT 0 0 3
OMIT -4 3 8
OMIT -1 1 4
OMIT 1 1 3
REM <olex2.extras>
REM <HklSrc "%.\\cl@Ag14-BF4.hkl">
REM </olex2.extras>

WGHT    0.086200
EXTI    0.000920
FVAR       0.10558   0.44097   0.64977
AG01  3    0.521705    0.364996    0.397125    11.00000    0.08127    0.07684 =
         0.07438    0.01229    0.00884    0.04472
AG02  3    0.666667    0.333333    0.437988    10.33333    0.07594    0.07594 =
         0.07441    0.00000    0.00000    0.03797
AG03  3    0.474249    0.173700    0.369314    11.00000    0.07932    0.08202 =
         0.07918   -0.00113   -0.00163    0.04360
CL04  4    0.666667    0.333333    0.333333    10.16667    0.05211    0.05211 =
         0.06043    0.00000    0.00000    0.02605
C1    1    0.539555    0.475655    0.357770    11.00000    0.07408    0.06732 =
         0.09167    0.00177    0.00284    0.04551
C7    1    0.501220    0.256021    0.438817    11.00000    0.06773    0.08821 =
         0.06594    0.01146    0.01442    0.03909
C9    1    0.443519    0.134391    0.505974    11.00000    0.17342    0.13019 =
         0.12586    0.06357    0.05460    0.07765
C2    1    0.529394    0.533936    0.339647    11.00000    0.09529    0.09154 =
         0.11083    0.02681    0.04022    0.06475
C8    1    0.475626    0.199113    0.468042    11.00000    0.10366    0.08716 =
         0.07837    0.01331    0.03000    0.04516
PART 1
C10   1    0.412130    0.036214    0.484365    21.00000    0.19983    0.12538 =
         0.19372    0.06870    0.00499    0.07246
AFIX  33
H10A  2    0.389428   -0.011497    0.507905    21.00000   -1.50000
H10B  2    0.362048    0.021150    0.462675    21.00000   -1.50000
H10C  2    0.465375    0.037880    0.469065    21.00000   -1.50000
AFIX   0
PART 0
C3    1    0.515932    0.607588    0.319673    11.00000    0.15838    0.13295 =
         0.16346    0.04552    0.05064    0.10407
PART 1
C11   1    0.519244    0.158306    0.538832    21.00000    0.21573    0.15456 =
         0.12809    0.03751   -0.00927    0.08597
AFIX  33
H11A  2    0.495471    0.113726    0.563743    21.00000   -1.50000
H11B  2    0.570849    0.155520    0.524205    21.00000   -1.50000
H11C  2    0.541555    0.221507    0.550307    21.00000   -1.50000
AFIX   0
C12   1    0.356078    0.134426    0.525448    21.00000    0.16300    0.19052 =
         0.16618    0.05755    0.04247    0.07799
AFIX  33
H12A  2    0.332021    0.091771    0.551093    21.00000   -1.50000
H12B  2    0.373501    0.197659    0.535212    21.00000   -1.50000
H12C  2    0.307742    0.113871    0.502281    21.00000   -1.50000
AFIX   0
C6    1    0.537390    0.621002    0.272463    31.00000    0.22023    0.16537 =
         0.14167    0.08179    0.04362    0.12930
AFIX 137
H6A   2    0.603036    0.639341    0.267877    31.00000   -1.50000
H6B   2    0.526258    0.670142    0.261037    31.00000   -1.50000
H6C   2    0.497461    0.562640    0.256389    31.00000   -1.50000
AFIX   0
C4    1    0.436192    0.611274    0.334781    31.00000    0.15318    0.15071 =
         0.20143    0.01173    0.00341    0.12242
AFIX 137
H4A   2    0.403834    0.618783    0.308983    31.00000   -1.50000
H4B   2    0.455964    0.664309    0.355197    31.00000   -1.50000
H4C   2    0.393890    0.553268    0.350563    31.00000   -1.50000
AFIX   0
C5    1    0.602182    0.705872    0.340162    31.00000    0.30953    0.27880 =
         0.36692    0.00090    0.01933    0.17309
AFIX  33
H5A   2    0.662067    0.711440    0.331818    31.00000   -1.50000
H5B   2    0.598513    0.758918    0.327908    31.00000   -1.50000
H5C   2    0.597100    0.705527    0.372907    31.00000   -1.50000
AFIX   0
PART 0
PART 2
C10A  1    0.419293    0.177860    0.546072   -21.00000    0.19762    0.17351 =
         0.09798    0.02752    0.04211    0.05532
AFIX 137
H10D  2    0.363075    0.181059    0.539065   -21.00000   -1.50000
H10E  2    0.471427    0.240898    0.551752   -21.00000   -1.50000
H10F  2    0.408039    0.139144    0.572788   -21.00000   -1.50000
AFIX   0
C12A  1    0.524341    0.116399    0.520804   -21.00000    0.22205    0.16990 =
         0.16588    0.07666    0.00346    0.09194
AFIX  33
H12D  2    0.503405    0.073066    0.546227   -21.00000   -1.50000
H12E  2    0.541081    0.089321    0.495733   -21.00000   -1.50000
H12F  2    0.578941    0.175589    0.529700   -21.00000   -1.50000
AFIX   0
C11A  1    0.363488    0.042447    0.492314   -21.00000    0.16421    0.13250 =
         0.18034    0.05318    0.04914    0.04956
AFIX  33
H11D  2    0.342725   -0.000160    0.518020   -21.00000   -1.50000
H11E  2    0.311992    0.050886    0.481901   -21.00000   -1.50000
H11F  2    0.383086    0.016116    0.468033   -21.00000   -1.50000
AFIX   0
C6A   1    0.502898    0.660321    0.358626   -31.00000    0.21126    0.14732 =
         0.22138    0.01692    0.03017    0.14651
AFIX 137
H6AA  2    0.436813    0.629217    0.367055   -31.00000   -1.50000
H6AB  2    0.523514    0.724615    0.349397   -31.00000   -1.50000
H6AC  2    0.540026    0.660877    0.384354   -31.00000   -1.50000
AFIX   0
C4A   1    0.608106    0.681461    0.298888   -31.00000    0.15234    0.11704 =
         0.14093    0.06402    0.01037    0.07685
AFIX 137
H4AA  2    0.659615    0.694496    0.319330   -31.00000   -1.50000
H4AB  2    0.605963    0.738869    0.293720   -31.00000   -1.50000
H4AC  2    0.617805    0.658354    0.270294   -31.00000   -1.50000
AFIX   0
C5A   1    0.423135    0.546997    0.292747   -31.00000    0.25454    0.17851 =
         0.23763    0.08085   -0.01049    0.16173
AFIX  33
H5AA  2    0.405392    0.588133    0.277324   -31.00000   -1.50000
H5AB  2    0.432780    0.508810    0.270629   -31.00000   -1.50000
H5AC  2    0.373333    0.506245    0.313489   -31.00000   -1.50000
AFIX   0
HKLF 4




REM  20220905d6_a.res in R-3
REM wR2 = 0.1480, GooF = S = 1.060, Restrained GooF = 1.107 for all data
REM R1 = 0.0466 for 2404 Fo > 4sig(Fo) and 0.0698 for all 3550 data
REM 194 parameters refined using 162 restraints

END

WGHT      0.0862      0.0000

REM Highest difference peak  0.642,  deepest hole -0.598,  1-sigma level  0.116
Q1    1   0.3333  0.6667  0.2230  10.33333  0.05    0.64
Q2    1   0.5141  0.3516  0.3643  11.00000  0.05    0.59
Q3    1   0.4721  0.1783  0.4017  11.00000  0.05    0.57
Q4    1   0.6667  0.3333  0.4093  10.33333  0.05    0.49
Q5    1   0.4950  0.1798  0.3323  11.00000  0.05    0.43
Q6    1   0.4198  0.1446  0.3756  11.00000  0.05    0.42
Q7    1   0.5017  0.1811  0.4285  11.00000  0.05    0.42
Q8    1   0.3961  0.5506  0.3189  11.00000  0.05    0.41
Q9    1   0.3735  0.4811  0.2862  11.00000  0.05    0.40
Q10   1   0.4654  0.1154  0.5336  11.00000  0.05    0.38
;
_shelx_res_checksum              87225
_shelx_hkl_file
;
   0   0   3   20.02    0.97
   0   0   6    5.39    0.62
   0   0  -6    6.29    0.64
   0   0   9 2232.00   84.70
   0   0  -9 2079.98   84.18
   0   0  -9 2289.44   84.68
   0   0 -12 1644.31   61.63
   0   0 -12 1529.45   60.97
   0   0  12 1511.16   61.55
   0   0 -15   69.06    3.68
   0   0 -15   67.24    2.88
   0   0  15   59.68    3.59
   0   0 -18  179.48    8.43
   0   0  18  176.34    8.41
   0   0 -18  182.97    7.44
   0   0 -21   96.17    5.28
   0   0  21   88.30    5.23
   0   0 -21   92.94    3.97
   0   0  24  212.62   10.29
   0   0 -24  204.85    9.90
   0   0  27  184.69    9.48
   0   0 -27  177.78    8.86
   0   0 -30  434.49   19.00
   0   0 -33   27.58    3.20
   0   0 -36    3.48    2.20
   0  -1 -35    0.78    2.24
  -1   1 -35    0.18    2.18
   1   0 -35    1.45    1.92
  -1   1 -32   37.96    3.88
   0  -1 -32   41.75    3.82
   1   0 -32   37.12    3.43
   0  -1 -29  288.67   13.45
  -1   0  29  319.98   14.23
  -1   1 -29  292.66   13.70
   1   0 -29  286.11   13.26
  -1   0  26    1.71    1.84
   1   0 -26    3.73    1.92
   0   1  26    2.53    2.62
   0  -1 -26    2.52    2.11
   1   0 -26    3.21    0.80
  -1   1 -26    1.62    2.01
   1  -1  26    6.59    2.23
   1   0 -23  198.77    9.63
  -1   0  23  208.61    9.82
   0  -1 -23  199.60    9.74
  -1   1 -23  209.92    9.88
   1  -1  23  206.02    9.98
   1   0 -23  211.59    8.61
   0   1  23  227.98   10.64
   0  -1 -23  201.05    8.63
  -1   1 -20    8.45    2.00
   1  -1  20    2.23    1.70
  -1   0  20    1.87    1.51
   1   0 -20    4.79    0.78
   1   0 -20   10.05    1.98
   0  -1 -20    4.06    1.84
   0   1  20    7.44    2.33
   0  -1 -20    4.75    0.89
   1   0 -17   34.43    1.84
   1  -1  17   41.02    2.72
   0   1  17   38.20    2.93
   0  -1 -17   42.37    2.81
  -1   0  17   35.12    2.47
  -1   1 -17   42.36    2.71
   0  -1 -17   39.28    1.97
   1   0 -17   38.61    2.65
   1  -1  14  372.20   16.03
  -1   1 -14  378.92   16.05
  -1   0  14  364.32   15.86
   0  -1 -14  393.47   16.12
   1   0 -14  398.76   16.00
   0  -1 -14  398.38   15.50
   0   1  14  359.14   16.28
   0  -1 -11  607.79   23.98
  -1   1 -11  568.00   23.84
   1  -1  11  576.52   23.87
  -1   0  11  549.33   23.73
   0   1  11  533.56   24.04
   1   0 -11  562.82   23.82
  -1   1  -8 1572.40   57.60
  -1   0   8 1388.92   57.46
   0   1   8 1491.15   57.29
   1   0  -8 1310.80   57.43
   0  -1  -8 1534.89   57.33
   0  -1  -8 1494.03   57.63
   1  -1   8 1415.57   57.52
   0   1   8 1329.64   57.65
   0   1   5  391.82   14.89
  -1   1  -5  356.14   14.96
   0  -1  -5  391.89   15.09
   1  -1   5  394.87   15.04
   0  -1  -5  431.77   14.96
   0   1   5  382.43   15.15
   1   0  -5  388.90   14.93
   0   1   2 2737.86  107.98
   0  -1   4    0.78    0.16
  -1   1   4    0.85    0.25
   1  -1  -7 2267.87   85.81
   0  -1   7 2028.45   85.87
   1   0   7 2127.99   86.13
  -1   1   7 2108.56   86.02
  -1   0  -7 2343.17   86.12
   1  -1  -7 2146.21   85.96
   0   1  -7 2198.84   85.90
   1   0  10  563.41   21.18
   1  -1 -10  526.75   20.82
   0  -1  10  522.19   20.69
   0   1 -10  492.86   20.79
  -1   1  10  492.05   20.88
   1  -1 -10  502.03   20.47
  -1   0 -10  519.88   20.93
   0  -1  13  679.27   27.38
   0   1 -13  707.31   27.52
   1  -1 -13  673.13   27.02
  -1   0 -13  672.24   27.62
   1   0  13  639.81   27.67
   1  -1 -13  724.64   27.56
  -1   1  13  645.67   27.63
   0   1 -16    4.56    0.46
   1  -1 -16    4.79    0.65
   1  -1 -16    4.79    1.27
   0   1 -16    6.01    1.30
   1   0  16    3.94    1.34
  -1   1  16    5.68    1.41
   0  -1  16    4.66    1.07
  -1   0 -16    3.37    1.39
   0   1 -19  148.75    6.15
   1  -1 -19  152.79    7.16
  -1   0 -19  155.47    7.41
   1   0  19  149.33    7.53
  -1   1  19  158.39    7.50
   1  -1 -19  149.42    6.42
   0   1 -19  147.97    7.24
   0  -1  19  150.29    7.08
  -1   1  22  105.21    5.89
   1  -1 -22   94.76    5.34
   1  -1 -22  100.27    4.41
  -1   0 -22   92.57    5.52
   1   0  22   86.34    5.65
   0   1 -22   94.81    5.43
   0  -1  22   97.91    5.53
   1  -1 -25   43.35    3.37
  -1   0 -25   44.16    3.78
  -1   1  25   45.61    4.02
   1  -1 -25   44.19    2.43
   0  -1  25   53.02    3.70
   1   0  25   50.50    4.24
   0   1 -25   47.07    3.60
   0   1 -28  223.31   10.78
   1  -1 -28  220.32   10.60
   0  -1  28  227.96   11.09
  -1   0 -28  215.16   10.79
  -1   1  28  252.23   12.27
   1  -1 -31   96.30    5.81
  -1   0 -31  100.82    6.21
   0   1 -31   94.86    5.92
   1  -1 -34    0.54    2.08
  -1   0 -34   -0.62    2.33
   0   1 -34    0.63    1.98
  -1   0 -37    3.20    2.44
  -1  -1 -36    1.90    2.38
  -1   2 -36   -0.42    2.18
  -1  -1 -33    5.57    2.74
  -1   2 -33    1.75    2.54
   2  -1 -33    2.72    1.99
   2  -1 -30    6.51    2.26
  -1  -1 -30    8.97    2.86
  -1   2 -30    2.75    2.75
   2  -1 -27    4.83    1.99
  -1   2 -27    1.97    2.48
  -2   1  27    8.23    2.48
  -1  -1 -27    5.92    2.29
   1  -2  27    1.91    2.22
  -2   1  24   33.75    3.23
   2  -1 -24   30.20    1.98
   2  -1 -24   30.13    2.73
  -1  -1 -24   35.63    3.27
  -1   2 -24   30.71    3.12
   1   1  24   28.61    3.62
   1  -2  24   33.63    3.00
   2  -1 -21  241.96   10.96
  -1   2 -21  252.58   11.45
   1   1  21  264.33   12.23
   2  -1 -21  238.00   10.39
  -1  -1 -21  244.58   11.39
  -2   1  21  247.75   11.40
  -1  -1 -21  270.49   10.55
   1  -2  21  243.68   11.23
  -1  -1 -18  726.38   29.12
   2  -1 -18  713.88   28.69
   2  -1 -18  622.61   28.16
   1   1  18  806.61   29.94
  -2   1  18  693.72   28.93
  -1  -1 -18  722.98   28.23
  -1   2 -18  774.14   29.06
   1  -2  18  742.19   28.92
   2  -1 -15   50.95    2.60
  -2   1  15   52.69    3.15
   2  -1 -15   56.58    2.99
   1   1  15   54.00    3.49
   1  -2  15   56.03    3.03
  -1   2 -15   55.73    3.12
  -1  -1 -15   57.25    2.59
  -1  -1 -15   50.97    3.24
   1   1  12  562.93   21.57
  -1  -1 -12  578.45   22.23
  -1   2 -12  561.77   21.93
   2  -1 -12  533.94   21.83
   1  -2  12  551.82   21.96
  -1  -1 -12  525.18   21.61
  -2   1  12  519.65   22.00
   1   1   9   81.95    3.42
   2  -1  -9   77.12    3.55
  -1   2  -9   82.54    3.31
  -1  -1  -9   78.48    3.49
  -2   1   9   80.33    3.69
  -1   2  -9   76.09    3.58
   1  -2   9   77.59    3.63
   1   1   9   74.01    4.00
  -1  -1  -9   78.51    3.91
   1   1   6 1366.72   49.63
  -1   2  -6 1229.33   49.61
  -1  -1  -6 1341.31   49.71
  -2   1   6 1290.41   49.58
  -1   2  -6 1372.28   49.49
   1  -2   3    5.42    0.44
  -1   2  -3    6.35    0.46
   1   1   0    0.01    0.06
  -1   2   3   74.61    1.32
   1  -2  -3    4.08    0.50
  -1   2   6  479.74   18.56
  -1   2   6  452.67   18.68
   2  -1   6  425.79   18.64
   1  -2  -6  500.42   18.58
   1   1  -6  452.98   18.40
   1  -2  -9 1710.37   63.31
  -2   1  -9 1665.92   63.51
  -1  -1   9 1456.27   63.18
  -1   2   9 1551.24   63.61
   1  -2  -9 1611.44   63.47
   1   1  -9 1485.00   63.28
   2  -1   9 1616.09   63.58
  -1   2   9 1781.01   63.35
  -1  -1  12  256.17   10.32
   1  -2 -12  253.01   10.54
   1   1 -12  227.57   10.42
   1  -2 -12  273.88   10.29
  -2   1 -12  241.33   10.58
  -1   2  12  234.53   10.78
   2  -1  12  229.50   10.62
   1  -2 -15   32.13    2.33
  -2   1 -15   32.63    2.38
   1  -2 -15   39.05    1.99
   2  -1  15   30.54    2.44
  -1  -1  15   41.39    2.20
  -1   2  15   28.28    2.59
   1   1 -15   34.27    2.30
  -2   1 -18    3.56    1.55
  -1  -1  18    5.08    1.36
   1  -2 -18    3.89    1.56
   1   1 -18    2.06    1.52
  -1   2  18    2.92    1.85
   1  -2 -18    2.85    0.93
   2  -1  18    3.85    1.66
  -1   2  21  127.98    7.28
   1  -2 -21  121.98    5.54
   1   1 -21  123.07    5.22
   1  -2 -21  117.72    6.27
   2  -1  21  120.54    6.58
  -2   1 -21  129.50    6.51
  -1  -1  21  120.76    6.07
   1   1 -21  114.46    6.22
  -2   1 -24  142.11    7.22
   1  -2 -24  134.30    6.77
   2  -1  24  134.96    7.42
   1  -2 -24  125.34    5.96
   1   1 -24  133.29    6.84
  -1  -1  24  137.55    6.71
   1   1 -24  130.12    5.65
   1  -2 -27   40.89    2.50
  -1  -1  27   41.98    3.38
   1   1 -27   42.63    3.46
  -2   1 -27   44.34    3.88
   1  -2 -27   39.89    3.60
   1  -2 -30   58.94    4.61
   1   1 -30   64.11    4.40
  -2   1 -30   73.49    5.13
   1   1 -33   -0.54    1.98
  -2   1 -33    1.14    2.52
  -2   1 -36    1.26    2.55
  -2   2 -37    1.03    2.57
  -2   2 -34    3.47    2.61
   0  -2 -34    3.61    2.48
   0  -2 -31    3.92    2.63
   2   0 -31    5.16    2.15
  -2   2 -31    1.97    2.82
  -2   0  28   33.66    3.29
   0  -2 -28   33.84    3.52
  -2   2 -28   35.44    3.60
   2   0 -28   33.94    2.89
  -2   0  25   18.58    2.31
   0  -2 -25   17.34    2.54
  -2   2 -25   16.27    2.71
   0  -2 -25   17.39    1.64
   2   0 -25   15.73    2.19
   2  -2  25   15.19    2.50
   2   0 -25   14.93    1.36
  -2   2 -22   82.65    4.94
   2  -2  22   81.59    4.91
   0  -2 -22   79.78    4.72
   0  -2 -22   74.22    3.89
   2   0 -22   78.45    3.69
   2   0 -22   75.87    4.38
  -2   0  22   78.57    4.48
   0  -2 -19    2.90    1.77
   2   0 -19    3.85    1.58
  -2   2 -19    2.35    1.70
   2  -2  19    4.15    1.73
  -2   0  19    3.90    1.41
   0  -2 -19    3.77    1.07
   0   2  19    5.72    2.39
  -2   0  16   61.96    3.35
   2  -2  16   66.95    3.73
   0   2  16   63.16    4.11
   2   0 -16   66.57    3.49
   0  -2 -16   69.87    3.23
  -2   2 -16   68.59    3.68
   0  -2 -16   66.36    3.77
   0  -2 -13    2.15    0.72
   2   0 -13    1.35    0.96
   2  -2  13    2.46    1.07
  -2   2 -13    0.79    0.86
   0  -2 -13    2.75    1.28
   0   2  13    2.49    1.40
  -2   0  13    2.62    0.78
   0   2  13    2.24    0.77
  -2   0  10 1195.08   48.77
   2   0 -10 1242.39   48.86
   2  -2  10 1252.35   49.07
  -2   2 -10 1234.54   48.95
   0   2  10 1178.55   48.74
   0   2  10 1219.98   49.34
   0  -2 -10 1298.60   49.16
   0  -2 -10 1272.29   48.88
   2   0  -7    7.28    0.60
  -2   2  -7    3.13    0.57
  -2   0   7    6.31    0.49
   2  -2   7    5.74    0.76
   0   2   7    5.45    1.04
   0  -2  -7    5.23    1.00
   0   2   7    4.26    0.66
   0  -2  -7    7.02    0.82
   2  -2   4  722.93   29.65
   0   2   4  725.03   29.79
   2  -2   1   25.84    1.75
  -2   2  -1   72.20    1.96
  -2   0  -2    1.24    0.31
   0  -2   2    1.01    0.42
   0   2  -5 1543.97   63.31
   2  -2  -5 1636.39   63.20
   2   0   8   60.44    3.46
  -2   2   8   62.35    3.27
   0   2  -8   67.57    3.07
   2  -2  -8   65.62    3.10
   2   0   8   75.53    3.05
   0   2  -8   73.76    3.45
   0   2 -11    3.74    1.03
   2   0  11    0.86    0.39
   0  -2  11    2.03    0.60
   0   2 -11    1.01    0.63
   2  -2 -11    0.92    0.58
   2   0  11    0.64    1.10
  -2   2  11    0.41    1.10
   2  -2 -14   94.49    4.66
  -2   0 -14  100.72    5.00
   2  -2 -14   86.97    4.41
  -2   2  14   94.01    5.04
   0   2 -14  105.34    4.79
   0  -2  14   98.77    4.66
   2   0  14  106.90    4.19
   0   2 -14  100.29    4.62
   2   0  14   96.95    5.15
  -2   0 -17  319.19   13.71
   2   0  17  304.48   13.91
   0  -2  17  324.60   13.40
   0   2 -17  317.20   13.07
   0   2 -17  347.35   13.62
   2  -2 -17  313.99   13.36
   2  -2 -17  296.76   12.95
  -2   2  17  325.20   14.02
   2  -2 -20  458.18   19.24
   2  -2 -20  444.20   18.72
  -2   0 -20  461.22   19.70
  -2   2  20  524.12   20.32
   0  -2  20  503.74   19.42
   0   2 -20  449.50   18.33
   0   2 -20  455.47   18.58
   2   0  20  467.90   20.06
   0   2 -20  488.78   19.55
  -2   2  23    6.23    2.72
   2  -2 -23    5.46    1.86
   0  -2  23    4.23    1.89
   2  -2 -23    2.83    1.18
   2   0  23    0.91    2.80
  -2   0 -23    2.04    2.14
   0   2 -23    2.36    1.99
   0  -2  26    4.51    1.75
   2  -2 -26    4.22    1.22
  -2   2  26    7.72    2.59
  -2   0 -26    2.79    2.27
   2  -2 -26    4.88    1.90
   0   2 -26    2.89    2.10
   2  -2 -29   -0.34    2.42
   0   2 -29    0.08    2.69
  -2   0 -29    3.75    2.85
  -2   0 -32    7.62    3.05
   0   2 -32    4.30    2.55
  -2   0 -35    1.26    2.52
  -2   0 -38    2.40    2.77
  -2  -1 -40   -1.12    3.04
  -2  -1 -37    6.70    2.97
  -2  -1 -34    6.31    2.83
  -1   3 -34    7.85    2.30
  -2  -1 -31   94.68    5.89
  -1   3 -31   86.65    5.74
  -3   2  28   74.47    5.55
  -2  -1 -28   79.51    5.16
  -1   3 -28   68.38    4.99
   1  -3  25   14.71    2.16
  -2  -1 -25   15.99    2.63
  -1   3 -25   15.15    2.52
  -3   2  25   15.44    2.63
   3  -2 -25   15.39    1.61
  -2  -1 -22  769.63   33.16
   1  -3  22  772.54   32.79
   3  -2 -22  768.54   32.22
   2   1  22  826.16   34.16
  -1   3 -22  886.65   33.22
  -3   2  22  854.11   33.64
  -1   3 -19 2858.53  104.32
   1  -3  19 2627.10  104.03
  -2  -1 -19 2701.50  104.46
   2   1  19 2645.37  104.92
   3  -2 -19 2453.48  103.54
  -3   2  19 2632.06  104.59
   1  -3  16  281.60   12.04
  -3   2  16  302.93   12.51
  -1   3 -16  279.87   11.42
  -2  -1 -16  286.71   12.43
  -1   3 -16  306.26   12.17
   2   1  16  288.49   11.61
   3  -2 -16  277.38   11.76
   2   1  16  247.52   12.60
   2   1  13  528.40   21.16
   2   1  13  511.32   22.14
  -2  -1 -13  532.78   21.89
  -1   3 -13  503.50   21.08
   3  -2 -13  537.87   21.38
  -3   2  13  546.03   21.78
  -1   3 -13  540.84   21.47
  -2  -1 -13  570.85   21.84
   2   1  10  116.57    4.75
  -2  -1 -10  101.33    5.13
  -2  -1 -10  117.64    5.34
  -1   3 -10  106.19    4.60
  -3   2  10  115.54    4.98
  -1   3 -10  109.45    4.80
   1  -3   7   76.57    3.45
   2   1   7   68.41    3.29
  -1   3  -7   66.44    3.08
  -2  -1  -4  132.63    5.89
   1  -3   4  149.26    5.91
   2   1   4  140.61    6.20
  -1   3  -4  129.44    5.74
  -1   3  -1  782.34   32.20
  -2  -1  -1  829.02   32.14
   2   1   1  807.77   32.18
   1  -3   1  808.33   32.24
   2   1  -2  109.35    3.42
  -3   2  -2   56.42    3.39
   1  -3  -5  641.88   24.25
  -1   3   5  573.39   24.07
   3  -2   8 5763.12  213.35
  -1   3   8 5790.94  213.12
   2   1  -8 4981.28  212.96
  -1   3   8 5501.50  213.43
   1  -3  -8 5367.94  213.27
  -2  -1  11 6074.73  240.06
   1  -3 -11 5815.94  240.35
  -1   3  11 6155.91  240.75
  -3   2 -11 7139.53  240.45
   3  -2  11 6746.38  240.67
  -1   3  11 6876.77  240.27
  -1   3  14  219.88    9.57
   2   1 -14  221.13    9.62
   1  -3 -14  249.06    9.67
   3  -2  14  231.10   10.07
   1  -3 -14  230.63    9.84
  -2  -1  14  224.23    9.44
  -3   2 -14  216.22    9.77
  -1   3  14  213.00   10.22
   3  -2  17  525.36   22.19
   1  -3 -17  521.04   21.83
   2   1 -17  539.58   21.69
   1  -3 -17  562.09   21.56
  -3   2 -17  530.88   21.90
  -1   3  17  503.06   22.45
  -2  -1  17  497.26   21.45
  -3   2 -20  585.53   24.15
  -2  -1  20  582.08   23.67
   1  -3 -20  564.26   23.99
   1  -3 -20  565.12   23.54
   2   1 -20  581.68   23.84
   3  -2  20  587.94   24.42
  -1   3  20  579.38   25.12
   2   1 -23  311.12   13.30
   1  -3 -23  325.60   13.71
   1  -3 -23  317.69   14.25
  -3   2 -23  344.93   14.57
   2   1 -23  320.90   14.06
  -2  -1  23  326.50   13.94
   3  -2  23  341.23   14.89
  -1   3  23  365.78   16.26
   2   1 -26    6.11    1.04
   2   1 -26    7.45    1.81
  -3   2 -26    7.76    2.31
   1  -3 -26    7.46    2.27
   1  -3 -26    5.25    1.41
  -2  -1  26    6.66    1.70
   2   1 -29   31.18    2.81
  -3   2 -29   31.93    3.68
   2   1 -32    1.38    1.79
  -3   2 -32    1.31    2.62
  -3   2 -35    3.56    2.57
  -3   2 -38   14.06    3.25
  -2   3 -35   -0.09    2.41
  -1  -2 -35    1.27    2.38
  -1  -2 -32   34.05    3.83
  -2   3 -32   33.31    3.74
  -1  -2 -29   21.54    3.16
  -2   3 -29   17.10    3.23
  -2   3 -26   13.87    2.48
   3  -1 -26    9.96    1.37
  -1  -2 -26   13.58    2.42
   2  -3  26    9.87    2.24
   3  -1 -26    8.69    1.84
  -3   1  26    7.84    1.98
   2  -3  23   48.37    3.65
   1   2  23   59.13    5.13
  -3   1  23   45.46    3.40
  -1  -2 -23   53.80    3.34
  -1  -2 -23   48.14    3.79
   3  -1 -23   50.85    3.25
   3  -1 -23   52.08    2.80
  -2   3 -23   51.88    3.85
   3  -1 -20  876.63   36.71
   2  -3  20  921.85   37.21
  -2   3 -20  966.56   37.29
  -3   1  20  883.11   36.97
   3  -1 -20  846.21   36.42
  -1  -2 -20 1002.69   36.82
   1   2  20  944.35   38.22
  -1  -2 -20  932.99   37.38
   2  -3  17  227.23   10.06
   1   2  17  220.84   10.75
  -2   3 -17  253.58   10.11
  -3   1  17  223.63    9.90
  -1  -2 -17  234.35   10.29
   1   2  17  230.87    9.65
   3  -1 -17  218.46    9.68
  -1  -2 -17  218.21    9.62
   3  -1 -14  308.57   12.68
   2  -3  14  313.74   12.99
  -2   3 -14  326.85   12.95
  -1  -2 -14  304.24   12.72
  -3   1  14  311.71   12.90
   1   2  14  303.05   13.56
  -1  -2 -14  330.13   13.27
   1   2  14  288.03   12.56
   1   2  11   22.42    2.12
  -1  -2 -11   29.45    2.05
  -2   3 -11   27.13    1.66
  -3   1  11   27.41    1.70
  -2   3 -11   28.60    1.29
   2  -3  11   26.94    1.76
  -1  -2 -11   25.72    1.65
   1   2  11   26.70    1.58
  -2   3  -8    6.05    0.70
  -3   1   8    8.51    0.79
   1   2   8    5.83    1.20
  -2   3  -8    6.68    0.62
   2  -3   8    6.57    0.68
   1   2   8    6.44    0.83
  -1  -2  -8    6.12    0.86
  -2   3  -5 1010.82   41.41
  -1  -2  -5 1033.64   41.74
   1   2   5 1153.02   41.70
   2  -3   5 1029.07   41.44
  -1  -2  -2  928.38   36.07
   1   2   2  931.11   35.85
  -2   3  -2  913.97   35.57
   1   2   2  925.64   35.69
   2  -3   2  817.75   35.59
  -3   1  -1  498.80   19.92
   3  -1   1  502.38   19.98
  -2   3   4 1571.50   59.47
  -3   1  -4 1475.55   59.41
   2  -3  -4 1544.14   59.53
   2  -3  -7 2232.52   86.86
   1   2  -7 2064.26   86.58
   1   2 -10 3640.94  144.40
  -2   3  10 3537.80  144.80
   2  -3 -10 3786.69  144.55
   3  -1  10 3390.38  144.81
   3  -1  10 3628.21  144.40
  -3   1 -10 3926.44  144.75
   2  -3 -13  536.30   22.02
  -2   3  13  499.80   22.51
   3  -1  13  516.86   22.52
  -3   1 -13  543.92   22.37
  -1  -2  16   59.15    3.00
   2  -3 -16   57.74    3.00
  -2   3  16   58.84    3.78
   1   2 -16   58.88    3.26
   3  -1  16   50.55    3.49
  -3   1 -16   58.75    3.42
  -2   3  19   16.10    2.93
  -3   1 -19   15.54    2.24
   2  -3 -19   10.95    1.51
   3  -1  19   15.64    2.44
  -1  -2  19   13.52    1.66
   1   2 -19   15.33    1.97
  -1  -2  22  118.65    5.59
   1   2 -22  122.35    5.99
   2  -3 -22  118.30    5.37
  -3   1 -22  116.90    6.27
   3  -1  22  113.74    6.60
  -2   3  22  137.18    7.68
   1   2 -25   10.53    0.91
   1   2 -25    9.36    2.16
   2  -3 -25   10.39    1.57
   1   2 -25    7.47    1.26
  -3   1 -25   10.84    2.43
  -1  -2  25   12.59    1.81
   1   2 -28   11.41    2.27
  -1  -2  28    9.37    2.08
  -3   1 -28    7.87    2.71
  -3   1 -31    3.39    2.80
   1   2 -31    0.34    2.08
  -3   1 -34    5.91    2.90
  -3   1 -37    6.41    2.87
  -3   1 -40    6.79    3.18
  -3   3 -36    2.43    2.64
  -3   3 -33   14.89    3.14
   3   0 -30    1.95    1.75
  -3   3 -30   -1.53    3.02
   0  -3 -30   -0.70    2.58
   0  -3 -27    6.00    2.39
  -3   0  27    6.84    1.77
   3   0 -27    6.51    1.70
  -3   3 -27   10.90    2.67
   3   0 -27    8.68    1.37
   3   0 -24    8.47    1.22
   0   3  24   15.70    3.76
   3  -3  24    7.20    2.17
   0  -3 -24    8.90    1.66
  -3   0  24    9.48    1.66
  -3   3 -24    9.03    2.24
   0  -3 -24   12.38    2.29
   3   0 -24    6.86    1.68
   3  -3  21   73.18    4.56
   0  -3 -21   63.08    3.68
   3   0 -21   63.64    3.74
   0  -3 -21   71.72    4.40
  -3   0  21   67.53    3.77
  -3   3 -21   72.73    4.28
   0   3  21   73.00    5.55
   0   3  18  136.11    7.63
   3   0 -18  141.38    6.53
   0   3  18  136.46    6.56
   3  -3  18  152.76    7.16
  -3   3 -18  152.36    7.00
   0  -3 -18  142.31    6.58
   0  -3 -18  150.54    7.13
  -3   0  18  148.04    6.47
   3  -3  15  220.06    9.55
   0  -3 -15  224.69    9.56
   0   3  15  196.94    9.85
   0   3  15  215.56    9.11
  -3   3 -15  199.94    9.23
   3   0 -15  209.91    9.03
   0  -3 -15  219.48    9.20
  -3   0  15  219.87    9.00
   0  -3 -12 1658.08   61.64
  -3   3 -12 1550.03   61.33
   0   3  12 1523.18   61.93
   3   0 -12 1604.45   61.09
   0   3  12 1478.57   61.13
   3  -3  12 1402.55   61.44
   0  -3 -12 1595.67   61.42
  -3   0  12 1528.49   61.04
   3   0  -9 3792.22  146.04
   0  -3  -9 3979.69  146.52
   3  -3   9 3913.16  146.07
   0   3   9 3886.20  146.35
  -3   0   9 3571.90  146.00
  -3   3  -9 3921.67  146.37
   3  -3   9 3693.54  146.47
   0  -3  -6   68.85    3.44
   3  -3   6   74.92    3.20
   0   3   6   66.92    3.34
   0   3   3 2431.15   93.61
   0  -3  -3 2382.79   93.68
   3  -3   3 2301.11   93.47
   3   0   0 1298.28   53.76
   3  -3   0 1435.42   53.95
  -3   0   0 1370.23   53.75
  -3   0  -3  886.79   36.25
   0  -3   3  975.89   36.72
   3   0   3  889.76   36.37
   0   3  -3  915.72   36.37
   3  -3  -6   49.02    2.57
   0   3  -6   53.59    2.74
   0  -3   6   60.29    3.42
   3  -3  -9  186.68    8.00
   0   3  -9  201.55    8.18
  -3   3   9  171.48    8.06
   3   0   9  195.46    8.11
   0   3  -9  191.09    7.90
   0   3 -12   29.40    1.66
   0   3 -12   29.65    1.97
  -3   0 -12   21.25    2.02
  -3   3  12   23.35    1.99
   3  -3 -12   21.57    1.57
   3   0  12   25.30    1.42
   3   0  12   20.10    2.13
  -3   3  15   96.61    4.88
   3   0  15   80.77    4.86
   0   3 -15   90.61    4.20
   3   0  15   81.06    3.71
  -3   0 -15   82.91    4.57
   3  -3 -15   79.28    4.08
   3   0  18 1100.17   44.35
   0   3 -18 1215.70   43.84
   3  -3 -18  975.85   43.22
  -3   3  18 1147.21   44.53
  -3   0 -18 1186.59   44.05
   0   3 -18 1047.15   43.16
   3   0  21  674.26   27.91
  -3   3  21  725.51   28.42
  -3   0 -21  685.17   27.35
   0   3 -21  623.04   26.16
   0   3 -21  700.71   27.17
   3  -3 -21  626.43   26.46
  -3   0 -24    0.87    2.12
   0   3 -24   -0.07    1.90
   3  -3 -24    0.21    1.27
   0   3 -24    1.30    0.47
   0   3 -24    0.54    0.59
  -3   0 -27   16.38    2.89
  -3   3  27   18.91    4.06
   3  -3 -27   16.55    1.92
   0   3 -27   12.91    2.41
   0   3 -30   43.88    3.88
  -3   0 -30   59.51    4.61
   0   3 -33   19.39    2.78
  -3   0 -33   22.72    3.57
  -3   0 -36    2.59    2.78
  -3   0 -39    2.70    3.12
  -3  -1 -38    8.79    3.33
  -3  -1 -35    0.65    2.70
  -3  -1 -32   61.06    4.93
  -1   4 -32   61.71    4.50
  -1   4 -29  146.93    7.90
  -3  -1 -29  156.33    8.29
  -1   4 -26   33.50    3.06
  -3  -1 -26   33.70    3.41
   4  -3 -26   36.53    2.58
  -3  -1 -23  219.00   10.96
  -1   4 -23  237.43   10.80
   4  -3 -23  229.42   10.17
   3   1  20 2585.94  100.84
  -1   4 -20 2461.61  100.59
  -4   3  20 2699.99  102.48
  -3  -1 -20 2556.05  101.83
   3   1  20 2593.24  102.61
   4  -3 -20 2457.21  101.11
  -1   4 -20 2814.30  101.65
   4  -3 -17  927.35   37.76
  -4   3  17  992.94   38.68
  -3  -1 -17  955.92   38.39
  -1   4 -17  900.79   37.40
  -1   4 -17  991.27   38.01
   3   1  17  930.70   37.45
   3   1  17 1025.69   39.29
  -3  -1 -14  695.72   28.58
   4  -3 -14  680.75   28.12
   3   1  14  682.34   28.97
  -1   4 -14  662.09   27.85
  -1   4 -14  722.67   28.19
  -4   3  14  765.17   28.67
   3   1  14  705.29   27.91
  -4   3  11  698.67   28.76
   3   1  11  732.64   28.59
  -1   4 -11  724.62   28.60
  -1   4 -11  685.71   28.45
   4  -3 -11  717.53   28.66
   1  -4   8   23.98    1.91
   3   1   8   22.80    1.79
  -1   4  -8   19.79    1.36
   1  -4   5  104.11    4.68
  -3  -1  -5  100.49    4.59
  -1   4  -5  105.40    4.46
   3   1   5   88.00    4.65
   3   1   5   90.83    4.96
   1  -4   2 1099.99   42.80
  -3  -1  -2 1064.84   42.60
   3   1   2 1030.31   42.67
  -1   4  -2 1089.11   42.67
  -3  -1   1 2092.12   82.61
   3   1  -1 2088.60   82.66
   1  -4  -4 1869.19   72.83
  -4   3  -4 1806.65   72.56
  -1   4   4 1836.53   72.71
   4  -3   7 2612.72  104.62
  -1   4   7 2615.67  104.73
   1  -4  -7 2750.89  105.00
   4  -3  10 8454.98  317.17
   1  -4 -10 7654.70  317.15
   4  -3  10 7219.41  316.75
   3   1 -10 7941.70  316.62
  -1   4  10 8443.65  316.86
  -4   3 -10 8758.08  316.93
  -1   4  10 8250.86  317.36
   4  -3  13 1529.34   16.28
  -1   4  13 1499.43   17.10
  -1   4  13 1450.62   14.26
  -4   3 -13 1441.32   14.84
   3   1 -13 1585.81   13.89
  -1   4  16  485.81   20.80
  -3  -1  16  533.72   20.53
   4  -3  16  525.70   21.38
  -1   4  16  495.72   21.69
  -4   3 -16  484.49   20.98
   3   1 -16  502.07   20.74
   1  -4 -16  513.27   20.90
  -1   4  19  750.29   33.00
   1  -4 -19  799.01   31.86
  -4   3 -19  759.19   32.05
  -3  -1  19  780.13   31.57
   3   1 -19  803.89   31.72
   4  -3  19  783.02   32.49
  -3  -1  22  408.57   16.89
   1  -4 -22  414.70   17.09
   4  -3  22  408.56   17.91
  -1   4  22  411.57   19.00
   3   1 -22  381.61   16.90
  -4   3 -22  420.71   17.57
  -3  -1  25    0.67    1.13
  -4   3 -25    1.86    1.96
   1  -4 -25    0.20    1.43
   3   1 -25   -0.24    1.38
  -4   3 -28   43.29    3.90
   3   1 -28   34.11    2.65
  -4   3 -31   -1.62    2.73
  -4   3 -34    7.75    2.98
  -4   3 -37    8.84    3.09
  -2   4 -36    5.52    2.46
  -2  -2 -36    4.45    2.81
  -2  -2 -33   32.30    3.87
  -2   4 -33   28.03    3.47
  -2  -2 -30  135.41    7.56
  -2   4 -30  131.83    7.36
  -2  -2 -27   60.81    4.51
  -4   2  27   62.21    4.53
  -2   4 -27   73.62    4.68
   4  -2 -27   68.14    3.75
  -2   4 -24   33.08    3.06
  -2  -2 -24   30.17    3.15
  -4   2  24   30.02    2.86
   4  -2 -24   27.74    2.20
  -2  -2 -21 1772.42   69.63
   2   2  21 1602.05   68.65
  -4   2  21 1742.98   69.45
  -2   4 -21 1921.20   69.48
   4  -2 -21 1698.90   68.75
   2   2  21 1838.38   70.67
  -4   2  18 1741.15   71.61
   2   2  18 1766.03   72.38
  -2  -2 -18 1920.82   71.79
   4  -2 -18 1736.10   71.06
  -2   4 -18 1888.30   71.47
  -2  -2 -18 1762.37   71.71
   2   2  18 1756.91   70.94
  -4   2  15  112.99    5.41
  -2  -2 -15  106.43    5.56
  -2   4 -15  118.82    4.68
  -2   4 -15  106.35    5.18
  -2  -2 -15  117.41    5.64
   2   2  15  104.66    4.90
  -4   2  12 1096.57   41.40
   2   2  12  895.08   41.81
   2   2  12 1099.05   41.24
  -2   4 -12 1066.96   41.35
   2  -4  12  928.18   41.41
  -2  -2 -12  991.30   41.60
  -2  -2 -12 1049.44   41.75
  -2   4 -12 1041.35   40.96
  -2  -2  -9    9.07    1.45
   2   2   9    9.55    1.14
  -2   4  -9    8.84    0.84
  -4   2   9   10.00    1.01
   2  -4   9    9.55    1.00
  -2   4  -9    9.13    0.93
  -2  -2  -6  182.74    7.74
  -2   4  -6  176.31    6.85
   2  -4   6  147.97    6.87
   2   2   6  175.21    7.16
  -2  -2  -6  140.10    6.97
  -2   4  -3  153.02    6.26
   2  -4   3  143.46    6.27
   2   2   3  147.35    6.39
  -2  -2  -3  136.95    6.26
   2   2   3  150.98    6.75
  -4   2   0 1574.65   59.98
   2   2   0 1552.75   60.10
  -2   4   3 1843.72   77.89
  -4   2  -3 2095.81   77.82
   4  -2   3 1939.77   77.88
   2  -4  -6  758.05   28.54
  -2   4   6  672.67   28.27
   2   2  -9 7318.68  308.26
   2  -4  -9 7716.95  308.66
  -2   4   9 7931.76  308.84
   4  -2  12 4403.06  172.82
  -2   4  12 4138.35  172.75
  -2   4  12 4506.64  172.36
   2  -4 -12 4490.98  172.49
   2   2 -12 4188.39  172.16
  -4   2 -12 4471.98  172.46
   2  -4 -15   71.06    3.64
   2   2 -15   73.59    3.61
   4  -2  15   75.11    4.18
  -4   2 -15   63.01    3.69
  -2   4  15   69.45    4.19
   2  -4 -18  811.62   32.45
   4  -2  18  833.32   33.34
  -2   4  18  783.49   33.41
  -4   2 -18  804.39   32.70
   2   2 -18  771.85   32.42
   2   2 -21  661.25   27.64
   2  -4 -21  683.89   27.56
  -4   2 -21  670.86   28.01
  -2   4  21  668.09   29.18
   4  -2  21  681.28   28.61
  -2   4  24   64.89    6.01
   2  -4 -24   65.90    3.51
   2   2 -24   55.68    3.61
  -4   2 -24   60.33    4.10
   2  -4 -27   39.22    2.84
  -4   2 -27   45.03    3.87
   2   2 -27   37.09    2.99
  -4   2 -30    6.99    3.06
   2   2 -30    6.20    1.96
  -4   2 -33   11.41    3.12
  -4   2 -36    2.01    2.73
  -4   2 -39   19.36    3.80
  -3   4 -37    3.24    2.64
  -3   4 -34    6.16    2.62
  -1  -3 -31    9.55    2.91
  -3   4 -31   10.59    3.23
  -3   4 -28    2.84    2.22
   4  -1 -28   -0.95    1.50
  -1  -3 -28    1.23    2.54
  -3   4 -25   -1.11    2.06
  -4   1  25    2.04    1.27
   4  -1 -25    1.25    1.17
  -1  -3 -25    1.38    2.08
  -1  -3 -25   -1.19    1.86
   1   3  22  132.93    8.00
  -1  -3 -22  123.25    6.70
  -1  -3 -22  135.75    6.48
   3  -4  22  129.15    6.47
  -3   4 -22  129.06    6.52
  -4   1  22  124.47    6.05
   4  -1 -22  114.24    5.70
  -1  -3 -19  399.32   16.66
  -4   1  19  387.37   16.39
   1   3  19  366.19   17.75
   1   3  19  371.28   16.34
  -1  -3 -19  399.70   17.09
   1   3  16   80.60    4.03
  -1  -3 -16   87.38    4.33
  -1  -3 -16   84.30    4.69
  -3   4 -16   88.67    4.36
   1   3  16   78.44    5.06
  -4   1  16   97.19    4.16
  -1  -3 -13  205.28    9.33
  -4   1  13  227.07    9.09
   1   3  13  196.22    9.87
  -1  -3 -13  225.15    9.64
  -3   4 -13  214.96    9.28
   1   3  13  208.62    9.12
   3  -4  13  226.60    9.07
  -3   4 -13  217.72    8.75
   1   3  10  381.72   13.93
   3  -4  10  340.21   13.63
  -1  -3 -10  300.02   13.95
  -3   4 -10  344.85   13.48
   1   3  10  328.47   14.40
  -4   1  10  337.57   13.56
  -3   4 -10  327.95   13.81
  -1  -3 -10  295.61   13.99
   1   3   7    2.66    0.96
  -1  -3  -7    1.33    0.84
   3  -4   7    2.34    0.59
  -3   4  -7    1.74    0.60
   1   3   4  172.83    8.18
  -4   1   4  186.99    7.65
   3  -4   4  187.47    8.05
  -3   4  -4  205.30    7.98
  -1  -3  -4  208.68    8.56
   1   3   4  211.29    8.34
  -4   1   1   59.88    2.76
   3  -4   1   73.43    3.20
   4  -1  -1   64.25    2.82
  -3   4  -1   71.15    3.08
   4  -1   2  514.41   20.68
   1   3  -2  555.69   21.20
  -4   1  -2  488.24   20.54
  -1  -3   2  563.28   21.72
   1   3  -5   36.38    2.56
   4  -1   5   32.54    2.03
   3  -4  -5   31.36    1.92
  -3   4   5   32.37    1.88
  -4   1  -5   35.01    1.88
  -3   4   8 1388.97   52.81
   1   3  -8 1285.31   53.22
   3  -4  -8 1286.49   52.75
   4  -1  11 1055.16   42.15
   3  -4 -11 1095.21   42.13
   1   3 -11 1033.07   42.55
   1   3 -11 1042.85   41.93
  -3   4  11 1019.00   42.38
   1   3 -14  154.85    6.41
  -3   4  14  146.38    7.02
  -4   1 -14  147.41    6.73
   1   3 -14  142.75    6.83
   4  -1  14  137.91    6.99
   4  -1  14  141.68    5.99
   3  -4 -14  134.77    6.36
  -3   4  17   21.24    2.55
   4  -1  17   17.72    2.40
   3  -4 -17   17.23    1.65
   1   3 -17   24.26    1.94
   1   3 -17   16.03    2.04
  -4   1 -17   21.29    2.05
   1   3 -20    3.58    1.63
  -3   4  20    3.28    2.75
   3  -4 -20    3.43    1.46
   4  -1  20    8.79    2.51
   1   3 -20    6.28    1.79
  -4   1 -20    1.43    2.15
   3  -4 -23   35.26    2.59
   1   3 -23   34.98    2.85
   1   3 -23   29.49    2.30
  -3   4  23   35.59    4.66
  -4   1 -23   38.87    3.35
   3  -4 -26    5.29    1.44
   1   3 -26    4.12    0.82
  -4   1 -26    5.20    2.39
   1   3 -26    1.21    1.69
  -3   4  26    5.91    4.20
   1   3 -29   21.69    2.58
  -4   1 -29    9.47    2.96
  -4   1 -32    2.51    2.96
   1   3 -32    3.88    2.10
  -4   1 -35    1.29    2.78
  -4   1 -38    2.42    3.11
  -4   4 -38    6.16    3.09
  -4   4 -35    0.96    2.70
  -4   4 -32    1.22    2.83
  -4   4 -29   61.91    4.65
   4   0 -26   12.30    1.47
  -4   4 -26   13.10    2.34
   4   0 -26   12.18    1.68
   0  -4 -26   11.24    1.98
  -4   4 -23   17.56    2.40
   4   0 -23   13.42    1.64
  -4   0  23   14.08    1.63
   0  -4 -23   14.80    2.01
   4  -4  23   15.44    2.47
   0   4  23   17.39    3.79
   0  -4 -23   15.63    2.48
  -4   0  20   57.68    3.01
   4  -4  20   59.12    3.91
   0   4  20   50.28    3.24
   4   0 -20   54.07    2.98
   0  -4 -20   57.40    3.55
  -4   4 -20   56.55    3.63
   0  -4 -20   54.71    3.91
   0   4  20   48.61    4.58
   4  -4  17  234.78   10.55
   0   4  17  226.11   11.10
   0   4  17  230.47   10.01
  -4   0  17  256.69    9.81
   0  -4 -17  243.95   10.54
  -4   4 -17  224.70   10.20
   0  -4 -17  235.90   10.27
   4   0 -17  218.80    9.71
  -4   0  14   59.05    2.48
   4  -4  14   52.89    2.36
   0   4  14   50.35    2.71
   4   0 -14   48.59    2.43
   0  -4 -14   57.26    3.11
  -4   4 -14   48.01    2.80
   0   4  14   50.38    3.55
   0  -4 -11 1963.41   72.22
   0   4  11 1822.22   71.84
  -4   0  11 1742.18   71.36
  -4   4 -11 1754.73   71.81
   4  -4  11 1923.36   71.59
   0   4  11 1809.16   72.46
   4  -4   8 1388.42   56.95
   0   4   8 1323.52   57.34
   0   4   8 1489.66   57.14
   0  -4  -8 1551.68   57.37
   0  -4  -5   72.81    4.40
   4  -4   5   81.09    4.27
  -4   0   2    4.60    0.62
   4   0  -2    4.01    0.52
   4  -4   2    4.86    0.96
   4  -4  -1  132.32    6.13
   0  -4   1  145.47    6.50
  -4   0  -1  142.57    5.95
   4   0   1  138.94    6.04
   0   4  -4  273.53   11.41
  -4   0  -4  263.03   11.25
   0  -4   4  301.70   12.03
   4   0   4  262.45   11.43
   0  -4   7   30.81    2.81
  -4   0  -7   30.99    2.00
   4   0   7   32.80    2.29
   0   4  -7   31.06    2.09
   4  -4  -7   33.12    2.02
   0   4 -10  444.45   17.82
   4   0  10  435.13   18.21
   0   4 -10  442.79   18.08
   4  -4 -10  431.55   18.00
   4  -4 -13  835.93   32.77
   4   0  13  790.22   33.37
   0   4 -13  860.17   32.64
   0   4 -13  803.01   32.69
  -4   4  13  798.02   33.04
   4   0  13  775.73   32.45
  -4   0 -16    3.51    1.56
  -4   4  16    5.45    1.85
   0   4 -16    5.33    1.24
   4  -4 -16    4.90    1.18
   4   0  16    5.40    1.77
   0   4 -16    6.85    1.19
   4   0  16    4.34    0.72
   4   0  19  664.31   27.84
   4   0  19  704.35   29.62
  -4   0 -19  734.75   29.05
  -4   4  19  757.17   29.83
   4  -4 -19  665.51   28.36
   0   4 -19  699.93   28.24
   0   4 -19  809.91   28.87
   0   4 -22  126.92    6.13
  -4   4  22  132.83    7.90
  -4   0 -22  116.95    6.42
   4  -4 -22  117.28    5.67
   0   4 -22  107.22    5.26
  -4   4  25    6.43    3.49
  -4   0 -25    1.91    2.13
   0   4 -25    0.81    1.75
   4  -4 -25    2.81    1.46
   0   4 -28   -0.92    2.18
  -4   0 -28   -1.85    2.60
  -4   4  28    3.09    4.80
   4  -4 -28   -0.66    1.75
   0   4 -31    4.98    2.32
  -4   0 -31    9.13    3.05
  -4   0 -34    0.32    2.79
  -4   0 -37    2.62    2.75
  -4  -1 -36    8.16    3.22
  -4  -1 -33    2.33    2.82
  -1   5 -33    0.94    2.08
  -4  -1 -30   10.35    3.06
  -1   5 -30   10.91    2.47
  -4  -1 -27    8.42    2.62
  -1   5 -27   12.69    2.38
   5  -4 -27    8.41    1.86
  -5   4  24    2.45    3.06
  -1   5 -24   -0.15    0.68
   5  -4 -24    0.30    1.31
  -4  -1 -24   -0.24    2.16
  -1   5 -24    0.21    1.68
  -1   5 -21  401.97   16.61
  -5   4  21  405.72   18.02
  -1   5 -21  405.78   15.85
   4   1  21  355.45   15.85
   4   1  21  397.93   17.90
  -4  -1 -21  385.28   16.93
   5  -4 -21  393.62   16.35
  -5   4  18  593.52   23.39
  -4  -1 -18  547.46   22.76
   4   1  18  540.02   21.85
   4   1  18  537.47   23.35
   5  -4 -18  518.70   22.14
  -1   5 -18  519.40   21.83
  -1   5 -18  575.63   22.34
  -5   4  15  363.47   15.51
   4   1  15  352.39   14.66
   5  -4 -15  349.95   14.93
   4   1  15  356.27   15.93
  -1   5 -15  348.16   14.65
  -1   5 -15  374.23   14.94
   4   1  12  511.36   20.70
   5  -4 -12  496.74   20.75
  -1   5 -12  513.35   20.63
  -5   4  12  519.70   20.97
  -1   5 -12  493.25   20.54
   4   1   9    5.71    1.61
  -1   5  -9    3.65    0.98
   5  -4  -9    3.21    1.05
   4   1   9    1.67    1.43
   1  -5   9    3.02    1.64
  -4  -1  -9    1.56    1.31
  -4  -1  -6   79.49    4.01
   1  -5   6   86.99    4.30
  -1   5  -6   81.76    3.86
   4   1   6   72.37    4.16
   4   1   3   33.69    2.23
   1  -5   3   35.88    2.35
  -4  -1  -3   34.50    2.07
  -1   5  -3   34.84    2.08
   4   1   0    9.78    1.09
  -4  -1   0    7.75    0.96
   1  -5   0    7.94    1.21
  -1   5   3  314.80   15.56
   4   1  -3  418.70   15.32
   5  -4   6  225.56    9.73
  -1   5   6  227.49    9.83
   1  -5  -6  241.86   10.12
   1  -5  -9 2750.35  104.40
  -1   5   9 2520.70  104.42
   5  -4   9 2724.24  104.07
  -1   5   9 2516.28  104.01
   1  -5 -12  905.06   32.00
  -1   5  12  772.86   32.12
   5  -4  12  746.73   31.73
   5  -4  12  877.51   31.41
   4   1 -12  772.87   30.97
  -5   4 -12  726.66   31.42
  -1   5  12  728.19   31.39
  -1   5  15  107.96    5.30
  -5   4 -15  101.08    5.37
   4   1 -15  119.26    4.99
   5  -4  15  113.97    5.78
  -1   5  15  115.41    6.21
   1  -5 -15  126.42    5.80
   5  -4  15  120.25    4.89
   1  -5 -18   84.30    4.49
  -5   4 -18   81.37    4.38
   5  -4  18   78.54    4.66
  -1   5  18   84.24    4.22
   4   1 -18   75.09    3.76
  -1   5  18   81.29    5.29
  -5   4 -21   45.38    3.36
   1  -5 -21   50.11    3.37
   5  -4  21   44.54    3.76
   4   1 -21   46.34    2.69
  -1   5  21   47.52    4.58
  -5   4 -24    6.77    2.08
   1  -5 -24    7.71    1.92
   4   1 -24    5.90    1.33
   4   1 -27   21.95    2.01
   1  -5 -27   27.19    2.63
  -5   4 -27   22.96    2.86
  -5   4 -30    3.94    2.74
  -5   4 -33   12.06    3.18
  -5   4 -36    2.36    2.94
  -3  -2 -37   13.98    3.22
  -3  -2 -34    1.50    2.86
  -2   5 -34    1.22    2.07
  -3  -2 -31   50.31    4.57
  -2   5 -31   53.81    4.24
   5  -3 -28   62.20    3.83
  -3  -2 -28   55.77    4.60
  -2   5 -25   10.16    2.09
  -5   3  25   14.56    2.59
   5  -3 -25   13.30    1.73
  -3  -2 -25   10.65    2.34
   3   2  22  280.10   12.80
   5  -3 -22  307.94   13.06
  -5   3  22  323.24   14.18
  -3  -2 -22  300.00   13.79
  -5   3  19 1356.10   50.80
   3   2  19 1272.36   51.34
  -3  -2 -19 1265.42   50.47
  -2   5 -19 1360.79   50.17
   5  -3 -19 1253.61   49.84
   3   2  19 1243.48   49.56
  -2   5 -19 1176.50   49.27
  -2   5 -16    1.53    1.04
  -3  -2 -16    1.42    1.52
  -2   5 -16    3.94    0.79
   3   2  16    3.35    2.06
   3   2  16    1.75    0.92
  -5   3  16    3.66    1.69
   3   2  13  666.85   26.31
  -5   3  13  677.89   26.65
   2  -5  13  614.57   26.83
  -2   5 -13  654.34   26.36
  -2   5 -13  670.33   26.10
   2  -5  10   11.79    1.57
   3   2  10    9.77    1.28
  -2   5 -10    8.63    1.02
   2  -5   7  502.18   20.52
   3   2   7  462.00   20.73
  -2   5  -7  505.69   20.30
  -3  -2  -7  483.62   20.53
   2  -5   4   58.55    3.12
   3   2   4   59.74    3.29
  -3  -2  -4   60.12    3.11
   3   2   4   63.11    3.66
  -2   5  -4   68.98    3.15
  -2   5  -1   97.46    4.28
   2  -5   1   85.44    4.25
  -3  -2  -1   93.47    4.13
   3   2   1   87.06    4.19
   3   2  -2 1509.63   59.76
  -5   3  -2 1506.52   59.80
   2  -5  -5  383.72   14.72
  -5   3  -5  339.95   14.29
  -2   5   5  342.84   14.41
  -2   5   8 3202.72  126.81
   2  -5  -8 3208.42  127.13
  -2   5  11 4705.94  186.75
   5  -3  11 4463.23  186.57
  -2   5  11 4828.07  186.24
   3   2 -11 4746.87  185.93
   2  -5 -11 4708.84  186.53
  -2   5  14   20.74    1.77
   2  -5 -14   25.27    2.08
  -2   5  14   24.72    2.42
   3   2 -14   25.79    1.70
  -5   3 -14   24.02    1.94
   5  -3  14   24.11    2.26
   5  -3  17  309.05   13.90
   2  -5 -17  331.66   13.49
   3   2 -17  322.55   13.09
  -5   3 -17  291.39   13.33
  -2   5  17  317.53   14.18
  -2   5  17  302.23   13.28
  -2   5  20  248.09   12.80
   5  -3  20  257.94   12.28
  -5   3 -20  253.94   11.68
   2  -5 -20  279.58   11.64
   3   2 -20  262.20   11.25
  -2   5  23   78.46    6.16
  -5   3 -23   73.46    4.55
   2  -5 -23   72.29    4.17
   3   2 -23   68.77    3.95
   2  -5 -26   13.33    1.97
  -5   3 -26   14.06    2.52
   3   2 -26   10.52    1.67
  -5   3 -29   16.11    3.12
   3   2 -29   14.47    1.90
  -5   3 -32   14.07    3.24
  -5   3 -35    5.14    2.90
  -5   3 -38   10.84    3.40
  -3   5 -35    0.58    2.42
  -2  -3 -32    5.56    2.87
  -3   5 -32    4.88    2.60
  -2  -3 -29   -0.09    2.76
  -3   5 -29    4.27    2.48
  -3   5 -26    5.01    2.00
  -2  -3 -26    6.02    2.43
   5  -2 -26    5.81    1.37
  -2  -3 -23   36.89    3.41
  -3   5 -23   40.27    3.14
  -5   2  23   33.89    2.62
   5  -2 -23   33.49    2.33
   2   3  20  593.52   27.31
  -2  -3 -20  624.94   26.45
  -5   2  20  617.24   25.96
  -3   5 -20  682.92   26.23
   2   3  20  602.91   25.69
  -2  -3 -20  704.16   26.96
  -2  -3 -17   98.13    5.12
  -3   5 -17   78.73    3.52
  -2  -3 -17   81.71    4.75
  -3   5 -17   85.41    4.30
   2   3  17   90.55    4.11
   2   3  17   74.65    5.25
  -5   2  17   90.27    4.33
  -3   5 -14  576.70   23.08
  -3   5 -14  586.86   23.59
  -2  -3 -14  568.00   23.93
  -2  -3 -14  628.60   24.26
  -5   2  14  599.24   23.53
   2   3  14  588.38   23.47
   3  -5  14  537.69   23.56
   2   3  14  534.42   24.33
  -5   2  11  435.93   16.59
   2   3  11  411.19   16.72
   3  -5  11  392.82   16.61
  -2  -3 -11  396.26   17.23
  -3   5 -11  392.40   16.36
  -3   5 -11  408.11   16.71
   3  -5   8   11.12    1.01
  -3   5  -8    8.36    0.91
  -2  -3  -8    6.23    1.54
   2   3   8    7.79    1.29
  -2  -3  -5   40.97    3.01
   2   3   5   37.54    2.52
   3  -5   5   35.29    2.17
  -3   5  -5   44.96    2.20
   2   3   5   44.43    2.58
   3  -5   2  963.02   42.29
  -5   2   2 1049.17   41.96
  -3   5  -2 1028.08   42.21
  -2  -3  -2 1092.06   43.56
   2   3   2 1139.08   42.41
   2   3   2 1208.37   42.90
  -5   2  -1  371.43   14.98
   5  -2   4  449.35   16.11
   2   3  -4  449.56   16.82
   3  -5  -7  204.82    8.24
   5  -2   7  182.49    8.15
  -3   5   7  178.64    7.89
   2   3  -7  205.52    8.85
  -5   2  -7  174.16    7.84
   3  -5 -10 2165.58   82.80
  -3   5  10 2036.57   82.58
   2   3 -10 2066.72   82.26
   3  -5 -13    2.67    1.10
  -3   5  13    3.34    1.19
   2   3 -13    6.18    0.89
  -3   5  13    3.31    1.54
   5  -2  13    4.17    1.44
  -3   5  16  199.95    9.28
   5  -2  16  203.30    9.20
   2   3 -16  220.00    8.45
  -5   2 -16  179.21    8.54
   2   3 -16  178.96    8.90
   5  -2  16  180.15    7.77
   3  -5 -16  199.19    8.58
   2   3 -19  169.67    7.88
  -3   5  19  187.38    9.21
  -5   2 -19  183.48    8.24
   5  -2  19  194.49    9.10
   3  -5 -19  177.35    7.97
   3  -5 -22  130.37    6.17
   2   3 -22  124.19    6.04
  -3   5  22  129.98    8.05
  -5   2 -22  136.37    6.65
   3  -5 -25   -0.30    1.47
  -5   2 -25    0.16    2.05
   2   3 -25    0.05    1.45
  -3   5  25   -0.80    3.82
   3  -5 -28   96.80    5.14
  -5   2 -28  103.67    5.97
  -5   2 -31    5.48    3.06
  -5   2 -34    3.88    2.87
  -5   2 -37    2.93    3.10
  -4   5 -36    4.88    2.91
  -4   5 -33    3.36    2.75
  -4   5 -30  103.01    6.45
  -1  -4 -27   37.29    3.71
   5  -1 -27   37.41    2.64
  -4   5 -27   45.98    3.66
  -1  -4 -24    3.22    2.21
  -5   1  24    2.47    1.23
  -1  -4 -24    5.26    2.22
  -4   5 -24    0.74    1.81
  -4   5 -21    5.24    1.89
   1   4  21    0.85    3.20
   1   4  21    4.75    1.38
  -5   1  21    3.35    1.11
  -1  -4 -21    0.56    2.34
  -1  -4 -21    3.61    2.17
  -1  -4 -18   35.12    3.00
  -5   1  18   41.63    2.18
   1   4  18   37.76    2.38
  -1  -4 -18   41.69    2.88
  -4   5 -18   35.74    2.62
  -1  -4 -15  286.41   12.67
  -4   5 -15  283.89   12.34
   4  -5  15  298.77   12.01
   1   4  15  288.43   12.23
  -1  -4 -15  277.68   12.54
  -5   1  15  302.45   11.89
   1   4  15  267.66   13.14
  -4   5 -12  289.14   12.24
  -5   1  12  284.33   11.70
   1   4  12  290.54   12.96
   1   4  12  311.04   12.30
  -1  -4 -12  283.69   12.48
   4  -5  12  296.24   11.97
   4  -5   9   89.95    4.49
  -4   5  -9  105.00    4.71
  -1  -4  -9   96.57    4.97
   1   4   9  109.62    4.93
  -4   5  -9  105.82    4.39
   4  -5   6  327.51   13.84
  -1  -4  -6  323.88   14.23
  -4   5  -6  330.62   13.66
   1   4   6  364.35   14.13
   1   4   3 1497.97   61.82
   4  -5   3 1536.76   61.70
  -1  -4  -3 1631.81   62.27
  -4   5  -3 1592.99   61.50
  -5   1   3 1533.25   61.18
   5  -1   0 6060.31  243.62
  -4   5   0 6248.91  243.74
   4  -5   0 6006.07  243.95
  -5   1   0 6298.09  243.52
   5  -1   3  527.40   21.93
   1   4  -3  561.01   22.29
  -5   1  -3  523.65   21.76
   5  -1   6  197.11    9.33
  -4   5   6  214.61    9.15
  -5   1  -6  201.62    9.06
   4  -5  -6  228.65    9.31
   1   4  -9  241.17   10.79
   4  -5  -9  225.29   10.40
  -4   5  12  477.10   20.38
   4  -5 -12  465.43   20.04
   1   4 -12  472.67   20.41
   1   4 -12  517.58   19.83
   5  -1  15  251.32   11.18
   1   4 -15  233.87   10.66
   1   4 -15  271.93   10.31
   5  -1  15  233.25   10.03
   4  -5 -15  231.62   10.34
  -4   5  15  241.43   11.03
  -5   1 -15  221.02   10.51
   4  -5 -18   10.23    1.53
   1   4 -18   10.71    1.91
   5  -1  18   12.14    0.97
  -4   5  18    9.78    2.39
  -5   1 -18   13.41    1.96
   5  -1  18   11.62    2.42
   1   4 -18   16.55    1.67
   5  -1  21    4.61    2.55
  -4   5  21   10.66    3.30
   4  -5 -21    8.33    1.69
   1   4 -21    7.91    1.66
   1   4 -21   10.06    1.82
  -5   1 -21    6.08    2.15
  -5   1 -24   14.91    2.56
   1   4 -24   13.11    1.63
  -4   5  24   21.10    4.20
   4  -5 -24   17.15    2.01
   1   4 -24   16.75    2.11
  -5   1 -27   81.05    5.08
   4  -5 -27   75.91    4.36
  -5   1 -30   92.97    5.67
   1   4 -30   63.37    4.35
  -5   1 -33    6.58    3.07
  -5   1 -36    1.45    2.88
  -5   5 -37    1.56    3.09
  -5   5 -34    2.04    2.84
  -5   5 -31   52.94    4.65
  -5   5 -28  135.99    6.86
   5   0 -28  106.92    5.57
   0  -5 -25    0.75    1.85
  -5   5 -25    0.77    1.96
   0  -5 -22   23.34    2.61
  -5   0  22   23.85    1.68
  -5   5 -22   21.01    2.39
  -5   5 -19    0.41    1.54
  -5   0  19    4.85    0.86
   0  -5 -19    1.81    1.65
   0   5  19    0.10    2.71
   0   5  19    3.45    1.40
   0   5  16   58.94    4.38
  -5   5 -16   62.69    3.46
   0   5  16   61.43    3.34
   5  -5  16   69.29    3.01
   0  -5 -16   69.69    3.95
   0   5  13   97.06    5.47
  -5   5 -13   92.33    4.70
   5  -5  13  100.93    4.46
   0   5  13  102.63    4.77
   0  -5 -13  107.42    5.19
   5  -5  10    7.47    1.14
   0  -5 -10    7.39    1.57
   0   5  10    8.55    1.34
   0   5  10    8.31    1.77
  -5   5 -10    7.70    1.06
   0   5   7  430.54   17.10
   0  -5  -7  387.70   17.24
   5  -5   7  410.51   17.07
   0   5   4    5.28    1.17
   5   0  -4    5.47    0.54
   0  -5  -4    5.12    1.27
  -5   0   4    7.53    0.66
   5  -5   4    6.64    1.24
   5  -5   1 4204.42  166.84
   5   0  -1 4112.20  166.49
  -5   0   1 4318.66  166.45
  -5   0  -2 2748.87  109.60
   5   0   2 2719.21  109.75
   0   5  -2 2805.95  109.91
   0  -5   2 2851.39  110.40
   0   5  -5    1.36    1.14
  -5   0  -5    1.78    0.95
   0  -5   5    6.77    1.73
   5   0   5    5.27    1.22
   0  -5   8  734.87   29.94
   5   0   8  708.87   29.09
  -5   0  -8  713.23   28.73
   5  -5  -8  698.26   28.70
   0   5  -8  696.81   28.75
   0   5 -11  673.94   26.81
  -5   0 -11  643.33   26.85
   5   0  11  648.53   27.00
   5  -5 -11  658.05   26.74
  -5   5  14  809.77   33.12
   5   0  14  775.24   32.42
   0   5 -14  835.02   32.42
   5  -5 -14  816.54   32.64
   0   5 -14  784.80   32.58
  -5   0 -17   50.93    3.46
   5   0  17   50.59    3.95
   0   5 -17   52.70    3.07
   0   5 -17   62.84    3.13
   5   0  17   47.26    2.68
   5  -5 -17   51.53    3.11
  -5   5  17   52.62    3.98
   5   0  20   82.64    3.77
   0   5 -20   89.85    4.55
   5  -5 -20   80.43    4.36
   0   5 -20   78.08    4.18
  -5   0 -20   80.38    4.88
  -5   5  20   84.61    5.90
   5   0  20   76.58    5.48
   5  -5 -23    9.11    1.74
   0   5 -23    6.72    1.37
  -5   5  23    9.37    3.58
  -5   0 -23    6.86    2.27
   0   5 -23    7.80    1.79
  -5   0 -26    7.79    2.47
  -5   5  26    7.18    4.17
   5  -5 -26    9.14    1.90
   0   5 -26    8.87    1.92
  -5   0 -29   88.94    5.69
   0   5 -29   73.97    4.76
  -5   0 -32   17.31    3.39
  -5   0 -35    2.53    2.94
  -5  -1 -34    0.42    2.76
  -5  -1 -31    4.58    2.98
  -1   6 -31    5.85    2.29
  -1   6 -28   16.15    2.50
  -5  -1 -28   15.93    3.01
   6  -5 -28   16.89    2.45
  -6   5  25    7.10    3.54
  -1   6 -25    5.29    1.88
   6  -5 -25    9.62    1.89
  -5  -1 -25    5.26    2.21
  -6   5  22   29.90    4.19
  -1   6 -22   32.54    2.56
  -5  -1 -22   28.62    3.05
   6  -5 -22   31.43    2.63
   5   1  22   32.41    2.08
  -1   6 -22   28.90    2.07
   5   1  19   17.26    3.12
  -1   6 -19   21.26    1.98
  -5  -1 -19   19.52    2.62
  -1   6 -19   17.18    1.67
   6  -5 -19   19.39    2.19
   5   1  19   20.79    1.73
   5   1  16    3.35    1.18
  -1   6 -16    3.77    1.21
  -6   5  16    4.82    2.10
  -1   6 -16    3.79    1.03
   6  -5 -16    5.09    1.36
  -1   6 -13   43.53    2.59
   5   1  13   48.49    2.99
   6  -5 -13   45.42    2.87
  -1   6 -13   43.60    2.68
   5   1  10  885.01   37.10
   6  -5 -10  903.01   36.56
   1  -6  10  922.92   37.51
  -5  -1 -10  946.52   36.71
   5   1  10  862.15   36.84
  -1   6 -10  900.80   36.37
  -1   6  -7  125.80    6.08
   6  -5  -7  139.18    6.28
  -5  -1  -7  133.43    6.25
   5   1   7  124.85    6.52
  -5  -1  -4    2.17    1.05
  -1   6  -4    5.37    1.22
   1  -6   4    3.75    1.24
   5   1   1  545.35   23.32
  -1   6  -1  588.44   23.43
   1  -6   1  595.74   23.76
  -5  -1  -1  553.49   23.15
   6  -5  -1  599.87   23.49
   6  -5   2   12.06    1.45
  -5  -1   2   16.31    1.21
   5   1  -2   11.27    1.16
   1  -6  -5  714.28   29.48
   6  -5   5  704.76   29.14
  -6   5  -5  684.30   28.92
  -1   6   5  727.89   29.18
   5   1  -5  733.69   28.54
   6  -5   8  175.69    7.63
  -1   6   8  160.01    7.47
   1  -6  -8  165.13    7.81
   6  -5  11   32.26    2.34
  -1   6  11   26.80    2.03
   1  -6 -11   28.97    2.38
   6  -5  14  167.95    7.08
  -1   6  14  149.75    7.04
  -6   5 -14  149.85    7.08
  -1   6  14  154.91    7.94
  -1   6  17   61.55    3.54
   6  -5  17   69.66    3.03
   1  -6 -17   74.21    4.17
  -1   6  17   61.81    4.64
  -6   5 -17   56.60    3.53
  -6   5 -20  282.18   12.02
  -1   6  20  246.86   13.06
   1  -6 -20  285.09   12.23
  -1   6  20  253.99   11.66
   1  -6 -23   -0.07    1.93
  -6   5 -23   -0.83    1.80
  -1   6  23   -0.77    1.82
   1  -6 -26    0.88    1.96
  -6   5 -26   -1.87    2.23
  -6   5 -29    6.74    2.52
  -6   5 -32    5.34    2.81
  -6   5 -35    0.11    2.68
  -4  -2 -35    1.44    2.77
  -2   6 -32    6.44    2.41
  -4  -2 -32    2.45    2.85
   6  -4 -29   -1.50    2.19
  -4  -2 -29   -2.18    2.72
  -2   6 -29    3.47    2.20
  -2   6 -26    7.18    2.03
  -4  -2 -26    4.79    2.29
   6  -4 -26    7.90    1.74
  -2   6 -23   58.38    3.57
  -6   4  23   51.08    4.67
  -2   6 -23   54.29    2.45
   6  -4 -23   49.66    3.22
  -4  -2 -23   51.45    3.86
   4   2  23   41.59    2.84
  -6   4  20   12.52    3.06
  -2   6 -20   16.28    1.43
   4   2  20   18.61    3.38
   6  -4 -20   15.78    2.03
  -2   6 -20   20.45    2.01
  -4  -2 -20   16.74    2.50
   4   2  20   14.63    1.66
   4   2  17    5.95    1.32
   4   2  17    7.72    2.35
  -6   4  17   13.32    2.29
  -2   6 -17   10.29    1.16
  -2   6 -17    6.02    1.36
   6  -4 -17    7.09    1.43
  -4  -2 -17   12.21    1.91
  -2   6 -14   49.47    2.63
  -6   4  14   45.06    3.15
   4   2  14   48.49    2.86
  -2   6 -14   51.75    2.89
   2  -6  11 1294.27   50.54
  -2   6 -11 1250.90   49.83
  -4  -2 -11 1215.62   50.25
   4   2  11 1241.55   50.12
   4   2   8 2024.21   83.49
   4   2   8 2067.31   83.39
  -4  -2  -8 2129.35   83.19
   2  -6   8 2095.61   83.32
  -2   6  -8 2102.92   82.92
   4   2   5   24.53    2.10
  -2   6  -5   26.75    1.80
  -4  -2  -5   26.26    1.91
   4   2   5   24.81    2.43
   2  -6   5   23.74    1.88
   2  -6   2  123.35    6.01
  -2   6  -2  144.17    6.01
   4   2   2  125.07    5.94
  -4  -2  -2  130.67    5.82
   4   2  -1  498.62   20.20
  -2   6   4 1799.43   71.91
  -6   4  -4 1873.81   71.74
   2  -6  -4 1621.06   72.06
   4   2  -4 1841.06   71.48
  -6   4  -7   92.24    4.47
  -2   6   7   93.49    4.63
   4   2  -7   97.04    4.05
   4   2 -10  683.22   26.45
   2  -6 -10  729.95   27.61
  -2   6  13    7.96    1.23
  -2   6  13   10.10    1.83
   6  -4  13    9.13    1.47
   6  -4  13   10.70    1.33
   4   2 -13   11.28    0.87
   6  -4  16    2.39    0.80
  -2   6  16    5.47    1.96
   6  -4  16    7.51    1.57
  -6   4 -16    1.58    0.93
  -2   6  16    3.83    1.17
   4   2 -16    2.08    0.78
   2  -6 -16    3.56    1.42
   4   2 -19  252.65   10.67
   6  -4  19  249.74   11.82
  -2   6  19  258.98   12.47
   2  -6 -19  264.84   11.39
  -2   6  19  239.88   11.05
  -6   4 -19  262.13   11.25
   4   2 -22   64.64    3.49
  -2   6  22   57.81    5.74
  -6   4 -22   65.96    4.23
  -6   4 -25   -1.01    2.13
   4   2 -25    2.34    1.20
   2  -6 -25    1.58    1.74
  -6   4 -28    1.80    2.22
   2  -6 -28   -0.30    2.21
  -6   4 -31   24.80    3.72
  -6   4 -34   23.08    3.54
  -6   4 -37    3.24    3.16
  -3  -3 -36    2.01    2.81
  -3   6 -33    0.46    2.56
  -3  -3 -33    2.42    2.73
  -3   6 -30    4.66    2.59
  -3  -3 -30    3.14    2.85
  -3   6 -27    0.32    1.90
   6  -3 -27    0.57    1.56
  -3  -3 -27   -0.36    2.31
  -6   3  24   54.95    3.75
  -3  -3 -24   55.19    4.09
  -3   6 -24   62.59    3.98
   6  -3 -24   52.49    3.40
   3   3  21    0.11    1.26
  -6   3  21    0.79    1.82
  -3  -3 -21    2.07    2.17
  -3   6 -21   -0.22    1.58
  -3   6 -21    4.30    0.62
   6  -3 -21    1.33    1.38
  -3   6 -18    7.01    0.95
  -6   3  18    8.70    2.01
  -3   6 -18   12.53    1.63
   3   3  18    9.26    1.39
  -3  -3 -18    6.82    1.94
   3   3  18   11.26    2.64
   3   3  15  160.59    9.00
   3  -6  15  173.71    8.44
  -3   6 -15  181.48    8.22
   3   3  15  188.79    8.16
  -3   6 -15  190.90    7.78
  -6   3  15  193.85    8.43
  -3   6 -12    1.07    0.89
   3   3  12    0.60    1.32
  -6   3  12    1.12    1.15
  -3   6 -12    0.98    1.00
   3  -6  12    0.62    1.15
   3  -6   9  730.32   30.41
  -3  -3  -9  720.21   30.58
  -3   6  -9  787.98   30.26
   3   3   9  705.11   30.92
   3   3   9  796.58   30.67
  -3   6  -6    3.89    1.02
   3  -6   6    7.37    1.06
   3   3   6    3.09    1.38
   3   3   6    8.09    1.54
   3  -6   3   11.42    1.31
   3   3   3   12.32    1.85
   3   3   3   12.85    1.47
  -3   6  -3   10.76    1.24
   3   3   0  394.29   15.60
  -6   3   0  368.23   15.36
   3  -6   0  386.21   15.83
  -3   6   0  378.70   15.64
  -6   3  -3  574.54   23.31
   3   3  -3  596.57   24.47
  -6   3  -6  427.97   18.06
   6  -3   6  428.41   18.34
  -3   6   6  448.01   18.22
  -3   6   9  454.30   18.06
   6  -3   9  456.83   18.45
   3   3 -12   15.40    1.04
   3  -6 -12   12.55    1.65
  -3   6  12   13.32    1.91
  -3   6  12    9.88    1.35
   6  -3  15   24.04    2.32
   3   3 -15   27.92    1.71
   3  -6 -15   24.09    2.16
  -6   3 -15   20.50    1.82
  -3   6  15   22.04    2.50
   3  -6 -18   52.13    2.73
  -6   3 -18   40.99    2.57
  -3   6  18   48.59    3.66
   6  -3  18   53.54    3.51
   3   3 -18   49.99    2.28
   6  -3  18   45.58    1.41
  -3   6  21   33.38    4.32
   3   3 -21   27.55    3.30
   3  -6 -21   34.89    2.87
   3   3 -21   28.70    2.29
  -6   3 -21   29.13    2.94
   3   3 -24    2.58    1.31
   3   3 -24    1.36    1.95
  -6   3 -24   -0.30    2.04
   3  -6 -24    1.99    1.75
   3   3 -27   16.20    1.94
   3  -6 -27   17.43    2.47
  -6   3 -27   19.20    2.74
  -6   3 -30    1.18    2.88
  -6   3 -33   11.04    3.37
  -6   3 -36   -1.96    2.92
  -4   6 -37   -0.81    2.80
  -4   6 -34    1.17    2.51
  -4   6 -31   64.23    4.85
  -2  -4 -28  121.85    7.02
   6  -2 -28  119.09    6.10
  -4   6 -28  135.05    7.06
  -2  -4 -25   12.60    2.52
  -4   6 -25   20.01    2.45
   6  -2 -25   14.61    1.69
  -2  -4 -22   21.06    2.64
  -6   2  22   15.92    1.66
  -4   6 -22   18.07    2.10
   2   4  22   14.86    1.95
  -2  -4 -22   21.65    3.53
  -4   6 -19   22.04    1.96
  -6   2  19   21.25    1.65
   2   4  19   13.28    3.12
  -2  -4 -19   13.94    2.39
   2   4  19   20.31    1.80
  -2  -4 -19   23.81    3.17
  -4   6 -16   31.19    2.18
  -6   2  16   33.94    1.97
  -4   6 -16   31.79    1.65
   2   4  16   31.94    2.18
   4  -6  16   32.56    2.28
  -2  -4 -16   32.18    2.96
  -2  -4 -16   31.51    2.69
   2   4  16   29.04    3.15
   4  -6  13  460.46   18.73
  -4   6 -13  465.66   18.90
  -4   6 -13  431.56   18.35
   2   4  13  510.78   19.02
  -6   2  13  477.00   18.52
  -2  -4 -13  460.68   19.56
   2   4  13  388.95   19.47
   4  -6  10  520.05   23.49
  -4   6 -10  577.95   23.65
  -6   2  10  593.29   23.27
   2   4  10  630.77   23.87
  -4   6 -10  589.80   23.37
  -2  -4 -10  571.87   24.34
   2   4   7  657.43   25.42
   4  -6   7  572.44   25.06
   2   4   7  606.66   25.51
  -4   6  -7  637.17   24.97
  -2  -4  -7  636.29   26.07
  -4   6  -4    1.54    0.88
   2   4   4    2.11    1.36
  -6   2   4    0.87    0.41
  -2  -4  -4    1.57    1.79
   4  -6   4   -0.15    1.00
   2   4   4    4.61    1.26
  -4   6  -1 5422.24  211.55
  -6   2   1 5717.60  211.21
   6  -2   2 2390.14   93.22
  -6   2  -2 2345.35   93.00
   2   4  -2 2292.95   93.84
   4  -6  -5  429.19   17.65
  -6   2  -5  412.10   17.24
  -4   6   5  420.64   17.39
   2   4  -5  457.65   18.21
   6  -2   5  423.01   17.59
   4  -6  -8  294.95   12.93
   6  -2   8  300.39   13.10
   2   4  -8  304.80   13.52
  -6   2  -8  316.55   12.76
  -4   6   8  297.90   12.69
   4  -6 -11  345.03   13.41
   2   4 -11  344.64   13.97
  -4   6  11  331.43   13.19
   4  -6 -14   98.63    5.15
   2   4 -14   99.26    5.62
   2   4 -14  109.90    4.78
  -4   6  14   97.89    5.61
   6  -2  17   10.93    1.33
  -4   6  17   13.33    2.49
  -6   2 -17   11.48    1.80
   2   4 -17    9.66    2.12
   4  -6 -17    8.18    1.53
   6  -2  17    9.59    2.13
  -6   2 -20   -2.01    2.10
  -4   6  20    6.74    2.90
   2   4 -20    2.04    1.84
   6  -2  20    0.43    2.63
   2   4 -20    1.61    1.44
   4  -6 -20    1.41    1.53
   4  -6 -23   43.34    2.96
   2   4 -23   31.35    2.58
  -6   2 -23   35.71    3.24
   2   4 -23   30.23    2.68
  -4   6  23   35.12    4.85
  -6   2 -26   17.41    2.74
   2   4 -26   11.17    1.90
   4  -6 -26   17.34    2.24
   2   4 -29  119.83    6.55
  -6   2 -29  173.70    7.99
  -6   2 -32   22.10    3.81
  -6   2 -35    2.61    2.96
  -5   6 -38   12.07    3.43
  -5   6 -35   -1.16    2.53
  -5   6 -32   70.30    5.20
  -5   6 -29  294.71   13.71
  -5   6 -26   12.57    2.52
  -1  -5 -26   12.70    3.13
  -5   6 -23   68.31    4.19
  -1  -5 -23   65.05    4.66
  -6   1  23   57.17    3.02
  -5   6 -20   -1.98    1.66
   1   5  20   -0.47    1.33
  -1  -5 -20   -0.25    2.20
  -6   1  20    1.12    0.76
   1   5  20   -2.54    2.95
   1   5  17   49.51    2.96
  -5   6 -17   47.98    2.99
  -6   1  17   56.45    2.43
   1   5  17   43.78    3.96
   5  -6  17   49.33    2.75
  -1  -5 -17   49.43    3.50
   1   5  14  220.00    7.61
  -5   6 -14  218.28    7.69
   5  -6  14  218.16    7.24
  -1  -5 -14  211.24    8.08
   1   5  14  218.33    8.65
   5  -6  11  723.94   30.96
  -1  -5 -11  741.85   31.51
   1   5  11  824.98   31.29
  -5   6 -11  793.60   31.17
  -1  -5  -8 1637.02   65.04
   1   5   8 1750.45   64.73
  -5   6  -8 1563.40   64.22
   5  -6   8 1586.63   64.53
  -6   1   5  103.36    4.30
   1   5   5  110.18    5.20
  -1  -5  -5  108.72    5.65
   5  -6   5  102.84    5.02
  -5   6  -5   99.70    4.64
   1   5   5   98.86    5.10
   1   5   2 6989.75  262.42
  -6   1   2 6944.73  261.72
   6  -1  -2 6440.27  261.76
  -5   6  -2 6436.66  261.96
   5  -6   2 6321.12  262.26
   5  -6  -1 9585.48  400.24
   6  -1   1 9830.11  399.97
  -1  -5   1 8973.57  401.08
  -5   6   1 9999.00  399.97
   1   5  -4  401.98   16.52
   6  -1   4  379.20   16.32
  -1  -5   4  432.48   17.88
  -6   1  -4  381.75   16.01
   5  -6  -7 1188.02   47.93
   1   5  -7 1202.55   48.11
  -6   1  -7 1165.53   47.70
   6  -1   7 1227.14   48.16
   6  -1  10 1251.80   50.22
  -6   1 -10 1225.46   49.69
   5  -6 -10 1238.36   49.77
   1   5 -10 1245.85   50.01
   1   5 -13  609.90   25.08
   1   5 -13  609.88   24.50
   5  -6 -13  594.94   24.87
   6  -1  16    2.14    1.32
  -5   6  16    2.86    1.96
   1   5 -16    1.85    0.92
   1   5 -16    2.90    1.54
   5  -6 -16    1.69    1.19
  -6   1 -19   20.73    2.30
   1   5 -19   18.87    1.82
  -5   6  19   25.69    3.48
   6  -1  19   18.60    2.94
   5  -6 -19   17.16    2.01
   1   5 -19   19.73    2.17
   6  -1  19   19.75    1.44
  -6   1 -22   65.35    4.27
   1   5 -22   62.88    3.73
   5  -6 -22   61.98    4.02
   1   5 -22   60.67    3.71
  -5   6  22   66.78    5.85
  -6   1 -25    6.67    2.18
  -5   6  25    3.89    4.06
   1   5 -25    3.90    1.59
   5  -6 -25    3.82    1.80
  -6   1 -28  244.80   10.80
   5  -6 -28  269.48   10.59
  -6   1 -31  142.60    8.01
  -6   1 -34    2.80    2.89
  -6   6 -36   -1.23    3.00
  -6   6 -33   15.22    3.23
  -6   6 -30  107.32    6.58
  -6   6 -27   32.70    3.31
   0  -6 -27   32.78    3.78
  -6   6 -24   65.05    4.09
   0  -6 -24   72.76    4.61
  -6   6 -21    3.28    1.61
   0   6  21    1.39    1.60
   0  -6 -21    2.54    2.07
   0  -6 -18  139.67    6.69
   0   6  18  126.84    5.95
  -6   6 -18  119.31    5.98
   0   6  18  118.43    7.21
   6  -6  18  123.48    5.40
   0   6  15   16.72    1.69
   0   6  15   13.72    2.37
   0  -6 -15   18.23    2.21
  -6   6 -15   12.89    1.45
   6  -6  15   16.97    1.46
   0  -6 -12  260.33   11.41
   0   6  12  247.40   11.54
   0   6  12  268.77   10.95
  -6   6 -12  234.10   10.72
   6  -6  12  249.60   10.80
   0  -6  -9  533.34   23.26
   0   6   9  546.67   22.89
   6  -6   9  585.80   23.09
   0   6   6  431.36   17.83
   6  -6   6  452.19   17.95
  -6   0   3 1229.88   50.45
   0   6   3 1225.12   51.02
   6   0  -3 1299.29   50.51
   6  -6   3 1379.67   51.31
   6   0   0 6674.79  267.89
  -6   0   0 6969.44  267.78
   6  -6   0 6636.00  268.21
   6   0   3 1126.23   46.57
  -6   0  -3 1140.81   46.31
   0  -6   3 1248.52   47.52
   0   6  -3 1169.01   46.64
  -6   0  -6  569.81   23.03
   6   0   6  585.01   23.48
   6  -6  -6  531.43   23.16
   0   6  -6  543.11   23.15
   0   6  -9  309.20   13.49
   6  -6  -9  332.98   13.57
  -6   0  -9  305.87   13.42
   6   0   9  319.28   14.04
   0  -6   9  318.99   15.04
  -6   0 -12  316.21   14.00
   6   0  12  317.64   14.59
   6   0  12  321.52   14.26
   0   6 -12  333.31   13.95
   6  -6 -12  340.13   14.10
   6  -6 -15   15.36    1.78
  -6   6  15   12.82    2.35
   0   6 -15   11.38    1.36
   0   6 -15   10.58    1.71
   6   0  15   17.13    2.03
   6   0  18   42.48    3.99
  -6   6  18   46.26    4.06
   0   6 -18   47.10    2.97
   0   6 -18   47.43    2.76
   6  -6 -18   44.35    2.94
   6   0  18   36.37    2.51
   6  -6 -21    6.93    1.75
  -6   0 -21    5.35    2.12
   0   6 -21    6.39    1.52
   0   6 -21    4.02    1.56
  -6   6  21    1.49    3.39
   6   0  21    4.84    1.14
   6  -6 -24   37.49    3.04
  -6   0 -24   35.16    3.33
   0   6 -24   41.71    2.99
  -6   6  24   46.88    5.22
   0   6 -27   36.05    3.21
  -6   0 -27   45.84    3.85
   6  -6 -27   47.60    3.59
  -6   0 -30   99.93    6.31
   0   6 -30   94.25    5.40
  -6   0 -33   13.86    3.18
  -6   0 -36   -1.22    2.63
  -6  -1 -35    0.75    2.56
  -6  -1 -32   -1.37    2.61
   7  -6 -29   14.72    2.79
  -1   7 -29   13.04    2.36
  -6  -1 -29    8.53    2.73
   7  -6 -26   -0.72    1.90
  -6  -1 -26   -1.34    2.02
  -1   7 -26   -0.59    1.67
   7  -6 -23   60.80    3.94
  -1   7 -23   64.74    3.77
  -7   6  23   63.44    5.88
  -6  -1 -23   57.54    4.28
   6   1  20   11.97    1.56
  -1   7 -20   12.15    1.80
  -7   6  20   12.26    3.29
  -1   7 -20   15.11    1.82
   7  -6 -20   12.18    2.13
   7  -6 -17   14.07    1.81
  -1   7 -17   13.20    1.65
   6   1  17   12.33    1.75
  -1   7 -17   12.68    1.54
  -7   6  17   12.32    2.72
   6   1  14    0.69    1.69
   6   1  14   -1.07    2.09
  -1   7 -14    0.55    1.24
   7  -6 -14    0.61    1.30
  -1   7 -14    0.32    1.04
  -6  -1 -14   -0.53    1.39
  -6  -1 -11  872.10   36.16
   6   1  11  893.49   36.50
   7  -6 -11  914.22   36.21
  -1   7 -11  875.41   35.93
   6   1  11  966.68   37.18
   1  -7  11  812.13   37.23
  -6  -1  -8  304.91   13.09
   1  -7   8  329.14   14.18
  -1   7  -8  296.62   12.99
   7  -6  -8  303.75   13.19
   6   1   8  302.01   13.60
   1  -7   5  479.17   20.17
  -1   7  -5  462.51   19.40
   6   1   5  474.31   19.79
  -6  -1  -5  465.36   19.35
   1  -7   2   11.24    1.85
  -6  -1  -2   15.28    1.53
   7  -6  -2   11.75    1.62
  -1   7  -2   12.86    1.64
   7  -6   1  148.28    7.07
  -6  -1   1  143.66    6.65
   1  -7  -4   16.16    2.06
   6   1  -4   20.43    1.36
   7  -6   4   20.60    1.93
  -1   7   4   16.85    1.93
   7  -6   7   26.01    2.25
  -7   6  -7   23.58    1.77
   1  -7  -7   25.58    2.36
  -1   7   7   25.96    2.10
  -1   7  10   31.06    2.91
   7  -6  10   45.40    3.16
   1  -7 -10   41.27    3.08
  -1   7  10   35.64    2.53
  -1   7  13  182.46    9.56
   1  -7 -13  208.69    9.68
  -1   7  13  190.14    8.87
   7  -6  16   15.85    1.62
  -1   7  16   15.27    1.80
   1  -7 -16   15.99    2.50
  -7   6 -16   13.80    1.61
  -1   7  16   16.79    2.82
   7  -6  19  569.36   21.78
  -1   7  19  519.97   22.35
  -7   6 -19  503.12   22.39
  -1   7  19  499.75   23.70
   1  -7 -19  560.41   23.14
  -7   6 -22   20.20    2.44
   1  -7 -22   16.79    2.97
  -1   7  22   14.96    2.31
  -7   6 -25   21.21    2.70
   1  -7 -25   23.18    3.05
  -7   6 -28    4.22    2.32
  -7   6 -31    2.81    2.48
  -7   6 -34    2.14    2.78
  -5  -2 -33    5.63    2.75
  -2   7 -30    3.08    2.15
  -5  -2 -30   -1.77    2.80
  -2   7 -27    7.03    2.06
  -5  -2 -27    5.26    2.36
   7  -5 -27    7.26    2.06
  -7   5  24   56.97    4.99
   7  -5 -24   53.92    3.63
  -5  -2 -24   52.12    4.15
  -2   7 -24   53.38    3.59
  -7   5  21  255.47   12.53
   5   2  21  257.23   10.78
  -2   7 -21  256.31   11.11
   7  -5 -21  243.24   11.10
  -5  -2 -21  243.64   11.54
  -2   7 -21  249.97   10.63
   7  -5 -18  195.73    9.23
   5   2  18  183.94   10.45
  -7   5  18  209.37   10.21
  -2   7 -18  228.44    9.37
   5   2  18  195.69    8.90
  -2   7 -18  208.89    8.91
  -2   7 -15   34.90    2.21
  -7   5  15   28.98    2.93
  -2   7 -15   31.60    2.34
   7  -5 -15   31.60    2.46
   5   2  15   32.86    2.42
   5   2  12 1911.72   76.23
   2  -7  12 2021.67   76.40
   5   2  12 2040.61   75.61
  -2   7 -12 2068.96   75.27
   7  -5 -12 2014.76   75.53
  -2   7  -9 5452.16  217.67
   5   2   9 5392.36  218.21
  -5  -2  -9 5714.02  217.97
   2  -7   9 5433.03  218.29
   5   2   9 5541.40  218.47
   5   2   6  121.15    6.18
   2  -7   6  121.31    6.11
  -2   7  -6  130.54    5.80
   5   2   6  117.86    6.44
  -5  -2  -6  122.32    5.83
  -2   7  -3  876.32   34.14
  -5  -2  -3  859.93   34.01
   5   2   3  819.53   34.23
   2  -7   3  809.18   34.35
  -2   7   0  572.60   22.64
   2  -7   0  521.30   22.83
  -5  -2   0  567.51   22.35
   5   2   0  532.12   22.40
  -7   5  -3  713.98   27.72
   5   2  -3  665.15   27.53
  -7   5  -6  348.32   14.95
   5   2  -6  358.21   14.59
  -2   7   6  379.63   15.26
   2  -7  -6  382.08   15.68
  -7   5  -9   50.10    2.64
   7  -5   9   42.55    2.83
  -2   7   9   43.67    2.71
   2  -7 -12  396.19   16.01
  -2   7  12  351.51   16.02
   7  -5  12  396.32   15.76
  -2   7  12  342.49   15.29
  -2   7  15   32.53    2.29
  -2   7  15   34.92    3.25
   2  -7 -15   33.84    2.89
  -7   5 -15   26.29    2.10
   5   2 -18  979.53   39.45
  -2   7  18  968.36   40.12
   7  -5  18 1005.00   39.68
  -2   7  18 1054.84   41.67
  -7   5 -18  946.04   40.18
  -7   5 -21  891.46   35.43
   5   2 -21  852.01   34.50
  -2   7  21  803.43   35.30
   5   2 -24    3.19    1.06
   2  -7 -24    6.12    2.16
  -7   5 -24    1.44    1.78
  -7   5 -27   25.24    2.89
  -7   5 -30   61.37    4.77
  -7   5 -33   24.65    3.53
  -7   5 -36    1.04    3.01
  -4  -3 -34    2.70    2.68
  -3   7 -34    2.77    2.41
  -4  -3 -31   -2.09    2.97
  -3   7 -31    0.09    2.25
  -4  -3 -28   18.94    3.31
  -3   7 -28   22.02    2.84
   7  -4 -28   25.02    2.74
  -4  -3 -25   12.47    2.52
  -3   7 -25   15.23    2.20
   7  -4 -25   14.27    1.90
   4   3  22  262.53   10.82
  -7   4  22  230.96   11.60
  -3   7 -22  259.11   10.24
  -3   7 -22  255.94   11.13
   7  -4 -22  228.51   10.88
  -4  -3 -22  225.65   11.38
  -7   4  19  162.06    8.13
  -3   7 -19  163.92    7.53
   4   3  19  166.90    7.33
   7  -4 -19  151.69    7.47
  -4  -3 -19  142.64    7.85
  -3   7 -19  168.92    6.99
  -7   4  16  139.61    6.93
   3  -7  16  119.07    7.06
  -3   7 -16  149.19    6.14
   4   3  16  138.29    6.36
  -3   7 -16  127.68    6.42
  -7   4  13  651.55   28.28
  -3   7 -13  682.70   27.89
  -3   7 -13  734.90   28.22
   3  -7  13  680.62   28.57
   4   3  13  702.06   28.21
   3  -7  10 4670.65  183.35
  -3   7 -10 4302.12  182.88
   4   3  10 4783.53  183.35
   4   3  10 4813.19  183.85
  -4  -3 -10 4839.89  183.32
   3  -7   7 1602.66   67.07
  -4  -3  -7 1723.25   67.06
  -3   7  -7 1701.27   66.86
   4   3   7 1710.70   67.40
   4   3   7 1645.63   67.41
   4   3   4  711.00   30.01
  -4  -3  -4  752.53   29.42
   3  -7   4  690.25   29.54
  -3   7  -4  748.54   29.40
   4   3   4  711.11   29.61
   4   3   1  198.92    9.56
   3  -7   1  191.86    8.94
  -3   7  -1  220.38    8.91
   4   3   1  199.25    8.81
  -7   4  -2  437.70   17.50
   4   3  -2  420.13   17.44
  -3   7   5  600.25   23.81
   4   3  -5  549.97   23.32
  -7   4  -5  600.46   23.60
   3  -7  -5  640.53   24.32
  -7   4  -8    5.50    0.84
  -3   7   8    5.28    1.11
   4   3 -11   37.28    1.72
   3  -7 -11   32.92    2.65
  -3   7  14  190.09    9.09
   3  -7 -14  207.09    8.85
   4   3 -14  196.44    7.76
  -3   7  17  453.57   19.84
  -7   4 -17  418.25   18.79
   7  -4  17  428.56   19.51
  -3   7  17  399.34   18.68
   4   3 -17  423.88   18.33
  -7   4 -20 1080.21   45.48
   3  -7 -20 1197.38   45.92
   4   3 -20 1107.96   44.90
  -3   7  20 1160.83   47.03
   3  -7 -23   82.25    4.77
  -7   4 -23   75.38    4.70
   4   3 -23   73.99    5.24
   4   3 -23   71.84    3.80
  -7   4 -26    4.32    2.05
   3  -7 -26    4.71    2.04
  -7   4 -29   38.37    3.75
  -7   4 -32   47.77    4.57
  -7   4 -35    1.72    3.04
  -4   7 -35    0.77    2.54
  -4   7 -32    4.82    2.65
   7  -3 -29   78.41    4.75
  -3  -4 -29   80.55    5.69
  -4   7 -29   90.88    5.54
  -3  -4 -26    2.63    2.38
   7  -3 -26    2.49    1.43
  -4   7 -26    2.76    1.91
   3   4  23  112.14    5.78
  -7   3  23  115.31    5.76
   7  -3 -23  111.96    5.81
  -3  -4 -23  127.54    6.65
   3   4  20   40.72    2.64
  -7   3  20   33.33    2.52
  -4   7 -20   38.19    2.74
  -4   7 -20   37.32    1.93
  -3  -4 -20   37.95    3.34
  -4   7 -17    6.74    0.88
   3   4  17    4.34    2.50
   4  -7  17    5.19    1.80
  -4   7 -17    7.37    1.39
  -7   3  17    4.92    1.37
  -3  -4 -17    6.13    2.05
   3   4  17    5.05    1.38
   3   4  14    2.88    1.35
  -4   7 -14    3.92    0.89
  -7   3  14    4.96    1.27
  -3  -4 -14    3.74    2.59
  -4   7 -14    3.40    1.25
   4  -7  14    2.88    1.22
  -3  -4 -11  280.20   12.63
  -4   7 -11  302.52   12.19
   4  -7  11  276.79   12.41
  -3  -4 -11  301.92   13.92
   3   4  11  323.69   12.71
   3   4  11  263.99   13.08
  -4   7  -8   92.01    4.35
  -3  -4  -8   93.17    6.02
   4  -7   8   84.14    4.51
   3   4   8  103.79    4.98
   3   4   8   90.00    5.10
   4  -7   5  693.00   29.30
   3   4   5  711.38   29.53
   3   4   5  756.13   29.56
  -4   7  -5  723.83   29.06
  -4   7  -2  186.64    7.57
  -7   3   2  165.87    7.16
   3   4   2  160.18    7.57
   4  -7   2  172.52    7.73
   3   4   2  172.46    8.11
   3   4  -1 1101.79   44.28
  -7   3  -1 1145.77   44.11
  -4   7   1 1067.69   44.37
   4  -7  -1 1091.77   44.67
   3   4  -4  318.97   13.18
  -7   3  -4  279.43   11.88
   3   4  -7  237.88   10.65
   4  -7  -7  250.84   10.14
   7  -3   7  219.00    9.85
  -4   7   7  235.75    9.66
  -4   7  10   54.81    3.06
   7  -3  10   64.31    3.62
   4  -7 -10   64.93    3.64
   3   4 -10   57.96    4.14
  -7   3 -10   50.80    2.94
   3   4 -13  117.01    6.50
  -4   7  13  106.35    5.54
   3   4 -13  125.84    5.27
   4  -7 -13  126.11    6.03
   4  -7 -16   37.00    2.73
   3   4 -16   36.70    2.13
  -4   7  16   35.83    3.34
   3   4 -16   33.40    3.28
  -4   7  16   31.69    2.51
   3   4 -19  313.14   14.69
   4  -7 -19  387.93   14.81
   7  -3  19  347.50   13.69
   3   4 -19  319.59   13.93
   7  -3  19  309.71   13.66
  -4   7  19  373.02   15.99
  -7   3 -19  329.68   14.44
  -4   7  22   15.72    3.78
  -7   3 -22   10.72    2.31
   4  -7 -22   11.43    2.47
   3   4 -22   17.00    2.61
   3   4 -22   13.23    1.66
   3   4 -25    7.49    1.50
  -7   3 -25    7.58    2.21
   4  -7 -25   12.77    2.31
  -7   3 -28   13.45    3.02
  -7   3 -31    1.81    3.04
  -7   3 -34    7.03    2.92
  -5   7 -36    0.10    2.71
  -5   7 -33   10.20    2.89
  -5   7 -30  158.98    8.45
  -5   7 -27   77.73    4.88
   7  -2 -27   70.79    4.13
  -2  -5 -24  103.84    6.87
  -5   7 -24   83.37    4.99
  -7   2  21   11.03    1.16
  -2  -5 -21    8.42    3.35
  -5   7 -21    9.88    1.81
   2   5  21   10.89    1.75
  -5   7 -18   70.52    3.93
   2   5  18   64.23    5.09
   2   5  18   74.38    3.86
   5  -7  18   66.46    3.84
  -7   2  18   67.69    3.18
   2   5  15    1.38    2.00
   2   5  15   -0.13    1.34
  -7   2  15    1.56    0.58
   5  -7  15    0.32    1.08
  -5   7 -15    0.40    0.66
  -5   7 -15   -0.47    1.03
  -2  -5 -15    0.44    1.97
  -2  -5 -12  265.40   11.68
   2   5  12  289.89   10.99
   5  -7  12  282.27   10.73
  -5   7 -12  269.75   10.33
  -5   7 -12  274.70   10.82
  -7   2   9  733.48   28.92
   5  -7   9  696.01   29.65
  -5   7  -9  715.65   29.36
   2   5   9  796.24   29.97
   2   5   9  721.05   30.26
  -2  -5  -9  717.44   30.57
  -2  -5  -6 1022.18   41.73
   5  -7   6  906.90   40.56
   2   5   6  952.28   40.81
  -7   2   6 1066.60   39.96
  -5   7  -6  946.99   40.28
   2   5   6 1067.66   40.88
   2   5   3  967.89   36.82
   5  -7   3  897.53   36.63
  -5   7  -3  871.44   36.19
  -2  -5  -3  930.82   37.84
  -7   2   3  897.95   35.86
   2   5   3  899.78   36.50
  -5   7   0 7286.11  294.85
  -7   2   0 7771.19  294.56
   5  -7   0 7017.15  295.21
   2   5  -3 1235.75   49.94
  -7   2  -3 1197.99   49.12
   7  -2   3 1293.23   49.53
  -7   2  -6  843.32   33.75
   2   5  -6  886.57   34.60
   7  -2   6  846.47   34.18
  -5   7   6  813.19   33.80
   5  -7  -6  825.33   34.12
  -7   2  -9  380.86   16.63
   7  -2   9  435.31   17.39
   2   5  -9  411.13   17.40
  -5   7   9  398.82   16.71
   5  -7  -9  407.15   16.99
   7  -2  12  206.80    8.93
   2   5 -12  206.60    8.79
   5  -7 -12  196.65    8.33
   2   5 -15    4.34    1.79
   5  -7 -15    5.59    1.53
   2   5 -15    2.38    0.84
  -5   7  15    2.48    1.91
  -5   7  18   81.50    5.66
   5  -7 -18   74.87    4.41
   2   5 -18   79.25    3.89
   7  -2  18   75.38    5.39
   2   5 -18   68.31    4.50
   7  -2  18   79.58    4.07
  -7   2 -21   24.39    2.74
   2   5 -21   24.88    2.63
   5  -7 -21   31.29    2.82
   7  -2  21   25.54    1.57
  -5   7  21   29.88    4.32
   2   5 -21   28.80    2.28
  -7   2 -24   95.40    5.39
   5  -7 -24  108.87    5.46
  -5   7  24  102.81    7.70
   5  -7 -27   46.97    3.55
  -7   2 -27   48.52    3.87
  -7   2 -30  135.55    7.70
  -7   2 -33    5.19    2.88
  -6   7 -37   -0.55    3.26
  -6   7 -34    2.94    2.83
  -6   7 -31   90.21    6.00
  -6   7 -28  114.05    6.58
  -6   7 -25   40.87    3.47
  -1  -6 -25   43.53    4.65
   1   6  22   89.58    4.97
  -6   7 -22   93.08    5.12
  -6   7 -19   40.95    2.82
  -1  -6 -19   50.23    4.11
   6  -7  19   43.41    2.57
   1   6  19   43.98    2.93
   1   6  16   85.68    4.37
  -1  -6 -16   86.20    5.00
  -6   7 -16   75.04    4.21
   6  -7  16   83.46    4.18
   1   6  16   83.63    5.51
   6  -7  13  116.42    5.62
  -6   7 -13  114.35    5.60
   1   6  13  122.38    5.80
   6  -7  10  571.65   24.11
   1   6  10  632.35   24.35
  -1  -6 -10  543.43   24.58
  -6   7 -10  588.42   24.04
  -1  -6  -7  693.23   29.90
  -7   1   7  716.15   28.40
   1   6   7  672.62   29.52
   1   6   7  744.74   29.38
   6  -7   7  745.71   29.55
   1   6   4  108.45    5.49
   6  -7   4  118.78    5.65
  -1  -6  -4  109.44    6.07
  -6   7  -4  106.71    4.97
  -7   1   4  104.07    4.62
  -6   7  -1 7426.23  296.12
   7  -1  -1 7435.23  296.06
  -7   1   1 7592.39  295.89
   6  -7   1 7532.53  296.65
  -1  -6   2 4366.68  177.35
   7  -1   2 4510.72  175.89
   6  -7  -2 4393.13  176.05
  -7   1  -2 4437.30  175.49
   1   6  -2 4448.37  176.08
   1   6  -5  391.69   16.52
  -7   1  -5  372.30   15.99
  -1  -6   5  427.99   18.34
   7  -1   5  389.12   16.43
   1   6  -8 1202.52   48.21
   7  -1   8 1234.29   48.46
  -7   1  -8 1156.66   47.79
   6  -7  -8 1192.77   48.09
   7  -1  11  582.18   23.73
   6  -7 -11  551.44   23.06
  -7   1 -11  535.84   22.88
   1   6 -11  566.74   23.23
  -7   1 -14   10.00    1.57
   7  -1  14   11.39    2.25
   6  -7 -14    8.00    1.64
   7  -1  14    9.14    2.16
   1   6 -14   11.61    1.18
   1   6 -14    9.71    1.96
   1   6 -17   72.27    4.37
   1   6 -17   78.30    3.96
   7  -1  17   77.85    4.31
  -6   7  17   79.94    5.49
   6  -7 -17   74.61    4.36
   1   6 -20    2.47    1.97
   1   6 -20    4.46    1.36
   6  -7 -20    3.46    1.65
   7  -1  20    4.73    1.16
  -7   1 -23  110.78    6.27
   6  -7 -23  118.08    6.11
   1   6 -23  101.61    5.62
  -6   7  23  104.99    8.07
  -7   1 -26    1.69    2.10
   1   6 -26    1.50    1.56
   6  -7 -26    2.04    2.10
  -7   1 -29  139.55    8.13
   6  -7 -29  162.67    8.22
  -7   1 -32   47.01    4.33
  -7   1 -35    0.64    2.76
  -7   7 -35    1.86    2.72
  -7   7 -32   11.48    2.98
  -7   7 -29   38.36    3.75
   0  -7 -26   13.40    3.31
  -7   7 -26    6.62    2.17
   0   7  23  152.81    7.66
  -7   7 -23  161.48    7.83
   0   7  20   -0.83    1.86
  -7   7 -20   -1.65    1.77
   7  -7  20    1.57    1.03
   0  -7 -20   -0.45    2.44
   0   7  17   28.29    3.46
  -7   7 -17   27.04    2.16
   0  -7 -17   26.82    3.09
   0   7  17   24.42    2.22
   7  -7  17   23.73    1.97
   0  -7 -14    1.86    1.84
  -7   7 -14    0.05    1.14
   0   7  14    0.80    1.95
   7  -7  14    0.10    1.24
   0   7  14   -0.10    1.44
   0  -7 -11   19.01    2.31
   0   7  11   15.08    1.90
   7  -7  11   18.50    2.21
   0   7   8   20.03    2.10
   7  -7   8   23.45    2.46
   0  -7  -8   19.02    2.30
   0   7   5    5.65    1.64
   7  -7   5    3.33    1.59
   0  -7  -5    4.76    1.68
  -7   0   5    4.52    0.80
   7  -7   2 1125.52   42.29
  -7   0   2  983.83   41.30
   7   0  -2 1058.82   41.48
   7   0   1 1352.82   55.21
  -7   0  -1 1367.63   54.92
   0  -7   1 1441.74   56.37
   0   7  -1 1327.72   55.33
   7  -7  -1 1453.79   55.72
   7   0   4  138.72    6.61
   0  -7   4  141.62    7.63
   0   7  -4  133.82    6.55
  -7   0  -4  129.39    6.16
   0  -7   7  889.79   35.36
   7   0   7  828.63   33.90
   7  -7  -7  793.89   33.60
  -7   0  -7  837.79   33.40
   0   7  -7  801.73   33.60
   7   0  10   38.40    3.38
   7  -7 -10   38.76    2.90
  -7   0 -10   31.09    2.68
   0   7 -10   36.08    2.74
  -7   0 -13    9.42    1.89
   7  -7 -13   12.30    1.88
   7   0  13   12.61    2.54
   7   0  13   14.69    2.39
   0   7 -13   11.86    1.83
  -7   7  16   54.68    4.28
   7   0  16   51.25    4.23
   7   0  16   55.41    3.64
  -7   0 -16   52.08    3.52
   0   7 -16   50.90    3.03
   7  -7 -16   50.36    3.42
   0   7 -16   53.37    3.41
   7  -7 -19  184.11    8.65
   0   7 -19  189.21    8.50
   0   7 -19  181.96    8.27
  -7   7  19  181.93   10.20
   7   0  19  180.39    8.17
  -7   7  22   -1.81    3.77
  -7   0 -22    0.96    2.04
   0   7 -22    0.57    1.60
   0   7 -22   -1.86    1.76
   7  -7 -22    0.07    1.82
   0   7 -25   19.76    2.33
   7  -7 -25   17.85    2.54
  -7   0 -25   18.05    2.76
   0   7 -28    4.20    1.84
  -7   0 -28    6.88    2.69
   7  -7 -28   10.66    2.70
  -7   0 -31    8.18    2.87
  -7   0 -34   -1.68    2.69
  -7  -1 -33   13.91    2.86
  -7  -1 -30    7.08    2.75
  -7  -1 -27    1.18    2.21
  -1   8 -27   -1.41    1.95
   8  -7 -27    0.75    2.05
  -7  -1 -24    2.10    2.18
  -1   8 -24    1.29    1.46
  -1   8 -21   76.10    4.07
   8  -7 -21   69.55    4.41
   7   1  21   67.71    3.76
  -1   8 -21   58.62    3.84
  -8   7  21   70.32    5.90
  -8   7  18   82.77    5.72
   7   1  18   76.94    4.24
   8  -7 -18   79.80    4.63
  -1   8 -18   82.95    4.23
  -1   8 -18   84.80    4.17
   8  -7 -15   11.45    1.87
   7   1  15   15.81    2.57
  -7  -1 -15   11.13    1.96
   7   1  15   10.74    2.70
  -1   8 -15   10.95    1.81
   1  -8  12   20.93    4.13
   7   1  12   26.12    2.99
  -7  -1 -12   32.47    2.57
   8  -7 -12   24.92    2.58
  -1   8 -12   24.90    2.34
   7   1  12   23.68    3.10
   7   1   9  276.31   12.98
  -7  -1  -9  281.74   12.39
  -1   8  -9  267.24   12.23
   8  -7  -9  297.73   12.71
   1  -8   9  316.07   14.08
  -1   8  -6  414.73   18.16
   7   1   6  463.06   18.79
   1  -8   6  442.13   19.33
  -7  -1  -6  431.93   18.13
   7   1   3  595.86   23.21
  -7  -1  -3  548.42   22.72
  -1   8  -3  530.44   22.87
   1  -8   3  551.43   23.60
   8  -7  -3  554.20   23.16
   7   1   0   64.49    3.51
  -7  -1   0   60.35    3.20
   1  -8   0   57.38    4.00
  -1   8   0   59.49    3.69
   8  -7   0   60.70    3.72
   7   1  -3   31.88    2.03
   8  -7   3   31.91    2.63
  -7  -1   3   32.01    2.02
   7   1  -6  162.60    6.81
   8  -7   6  165.50    7.89
   1  -8  -6  161.29    8.21
  -1   8   6  163.40    7.68
  -8   7  -6  163.95    7.41
  -1   8   9 1017.81   40.88
   1  -8  -9 1036.80   41.57
  -8   7  -9  916.52   40.56
  -1   8  12  119.12    6.37
   1  -8 -12  107.37    6.42
   8  -7  12  124.18    6.58
  -1   8  12  102.73    5.59
  -1   8  15   16.24    2.06
   8  -7  15   17.25    2.32
  -8   7 -15   15.76    1.76
   1  -8 -15   17.29    2.84
  -1   8  15   15.10    2.92
   1  -8 -18   21.82    3.54
   8  -7  18   22.78    2.22
  -1   8  18   26.89    2.44
  -8   7 -18   28.17    2.25
   8  -7  21    3.07    1.03
   1  -8 -21    4.28    2.64
  -8   7 -21    3.06    1.74
  -1   8  21    2.03    1.97
  -8   7 -24   47.20    3.64
   1  -8 -24   57.97    4.54
  -8   7 -27    4.19    2.09
   1  -8 -27    6.64    2.95
  -8   7 -30    0.57    2.35
  -8   7 -33   -1.14    2.49
  -6  -2 -34   11.25    2.95
  -2   8 -31    5.41    2.21
  -6  -2 -31    3.24    2.57
  -2   8 -28   15.28    2.36
  -6  -2 -28   11.54    2.72
   8  -6 -28   14.92    2.57
  -2   8 -25    0.13    1.66
   8  -6 -25   -0.71    1.76
  -6  -2 -25    0.83    2.18
   8  -6 -22   60.44    3.91
  -2   8 -22   62.26    3.31
  -2   8 -22   54.97    3.62
  -6  -2 -22   53.56    4.11
  -8   6  22   65.10    5.10
   6   2  19  118.66    5.91
   8  -6 -19  116.12    6.25
  -2   8 -19  119.62    6.06
  -2   8 -19  132.83    5.92
  -8   6  19  132.54    7.48
  -6  -2 -16  162.48    8.03
  -2   8 -16  176.49    7.58
   6   2  16  160.59    7.79
  -2   8 -16  167.63    7.69
   8  -6 -16  165.69    7.88
  -8   6  16  171.16    8.64
   6   2  16  161.53    9.04
  -2   8 -13  233.40    9.92
   6   2  13  223.21   10.29
   6   2  13  231.87   11.10
   8  -6 -13  215.10   10.12
  -6  -2 -13  224.01   10.27
   2  -8  13  229.17   11.35
   6   2  10 3325.11  138.58
   6   2  10 3473.26  138.34
   2  -8  10 3475.22  138.78
   8  -6 -10 3540.31  138.11
  -2   8 -10 3448.86  137.76
  -6  -2 -10 3545.10  137.99
   6   2   7  401.09   17.71
  -2   8  -7  435.63   17.26
   2  -8   7  415.09   17.80
  -6  -2  -7  404.47   17.22
   6   2   7  387.77   17.83
   6   2   4 1216.86   49.45
  -6  -2  -4 1232.02   49.10
  -2   8  -4 1226.29   49.20
   2  -8   4 1213.39   49.64
  -2   8  -1  582.64   26.19
  -6  -2  -1  690.64   26.01
   6   2   1  634.18   26.12
   2  -8   1  629.79   26.51
   6   2  -2  178.01    7.79
   6   2  -5    1.00    0.75
   2  -8  -5    1.24    1.44
  -2   8   5    4.09    1.41
   8  -6   5    1.22    1.19
  -8   6  -5    3.82    0.88
   2  -8  -8   37.75    3.09
  -2   8   8   34.54    2.60
   6   2  -8   42.44    1.81
  -8   6  -8   34.51    2.31
   8  -6   8   34.50    2.64
   8  -6  11  114.88    5.70
   2  -8 -11  110.24    5.99
  -2   8  11   95.96    5.15
  -2   8  14  316.16   14.52
   2  -8 -14  332.47   14.45
   8  -6  17  235.62   10.02
   2  -8 -17  236.29   10.77
  -2   8  17  220.49    9.70
  -2   8  17  219.63   10.99
  -2   8  20  796.76   34.41
   8  -6  20  873.76   33.84
  -8   6 -20  778.58   34.39
  -2   8  23   20.34    2.47
  -8   6 -23   23.04    2.47
  -8   6 -26   16.82    2.55
   2  -8 -26   19.90    3.14
  -8   6 -29   33.20    3.51
  -8   6 -32   22.07    3.37
  -8   6 -35    1.47    2.89
  -5  -3 -35    1.85    2.75
  -5  -3 -32    8.28    2.84
  -3   8 -32    7.68    2.42
   8  -5 -29   27.22    2.93
  -5  -3 -29   23.83    3.46
  -3   8 -29   22.83    3.00
  -3   8 -26   12.96    2.18
   8  -5 -26   15.02    2.29
  -5  -3 -26   11.60    2.55
  -3   8 -23   96.51    5.01
  -5  -3 -23   88.14    5.47
   8  -5 -23   91.69    5.07
  -3   8 -20  303.38   13.34
   5   3  20  317.18   13.25
   8  -5 -20  284.20   13.35
  -8   5  20  303.93   14.25
  -3   8 -20  321.80   12.86
  -3   8 -17  302.93   12.92
  -3   8 -17  315.24   12.57
  -8   5  17  294.40   13.52
   5   3  17  294.52   12.78
   8  -5 -17  273.60   12.89
   5   3  14   56.08    4.44
  -3   8 -14   58.54    3.19
  -5  -3 -14   56.70    3.64
   5   3  14   60.66    3.65
  -3   8 -14   54.48    3.32
   3  -8  14   58.53    4.26
   5   3  11 4575.08  176.34
  -3   8 -11 4331.10  175.82
  -5  -3 -11 4503.50  176.20
   3  -8  11 4395.81  176.50
   5   3  11 4495.24  176.94
  -3   8  -8 3963.77  164.29
   3  -8   8 4148.35  164.80
   5   3   8 4119.34  164.89
  -5  -3  -8 4374.64  164.57
   5   3   8 4228.89  165.06
  -5  -3  -5  231.82    9.77
  -3   8  -5  233.92    9.73
   5   3   5  220.74   10.37
   5   3   5  207.29    9.93
   3  -8   5  208.90    9.92
  -3   8  -2  974.63   36.60
   5   3   2  889.05   37.29
   3  -8   2  844.57   36.73
   5   3   2  891.17   36.54
  -3   8   1  270.96   11.87
  -8   5  -1  293.26   11.63
   3  -8  -1  267.18   12.17
   5   3  -1  269.58   11.65
  -3   8   4   77.43    4.15
   5   3  -4   79.97    3.74
  -8   5  -4   82.77    3.90
  -3   8   7   -0.13    1.09
   3  -8  -7   -0.07    1.40
  -8   5  -7    1.29    0.77
   5   3  -7    0.38    0.53
   3  -8 -10   40.00    2.99
  -3   8  10   34.32    2.33
   5   3 -10   34.76    1.55
   3  -8 -13  789.28   31.33
   8  -5  13  675.59   30.59
  -3   8  13  710.27   31.27
  -3   8  13  675.35   30.47
   5   3 -13  801.75   29.90
   3  -8 -16   24.76    2.74
  -3   8  16   20.33    2.12
   8  -5  16   28.73    2.59
   5   3 -16   24.01    1.39
  -3   8  16   26.02    3.29
  -8   5 -19 1405.89   60.35
   8  -5  19 1600.16   60.08
   3  -8 -19 1556.28   60.96
  -3   8  19 1417.84   60.30
  -3   8  19 1530.40   61.98
   5   3 -19 1507.48   59.56
  -8   5 -22  410.04   18.09
   5   3 -22  417.45   17.13
  -3   8  22  403.42   17.98
  -8   5 -25   -0.99    1.89
   3  -8 -25   -0.88    2.02
  -8   5 -28   54.09    4.08
   3  -8 -28   51.71    4.55
  -8   5 -31   67.06    4.96
  -8   5 -34    6.35    2.88
  -4   8 -33    6.27    2.46
  -4   8 -30   10.26    2.63
  -4  -4 -30    9.97    3.13
  -4   8 -27   30.75    3.19
  -4  -4 -27   25.98    3.24
   8  -4 -27   26.82    2.58
  -4   8 -24   40.11    3.05
   8  -4 -24   36.72    2.76
  -4  -4 -24   37.63    3.47
   4   4  21   66.63    3.60
  -4   8 -21   62.36    3.75
  -8   4  21   53.74    3.76
  -4   8 -21   58.79    2.95
  -4  -4 -21   52.63    4.15
  -4   8 -18   21.27    2.11
   4   4  18   20.24    2.18
   4  -8  18   17.66    2.84
  -4   8 -18   18.62    1.59
  -8   4  18   24.00    2.46
   4  -8  15    1.11    1.68
  -4   8 -15    0.39    0.95
  -8   4  15    0.96    1.44
  -4   8 -15    0.36    1.17
   4   4  15    1.86    1.59
   4   4  12 1236.66   51.32
   4  -8  12 1240.55   50.68
  -4  -4 -12 1252.41   50.68
   4   4  12 1294.29   50.64
  -4   8 -12 1248.11   50.17
   4   4   9 2664.44  101.13
   4  -8   9 2473.65  100.95
   4   4   9 2624.67  101.49
  -4  -4  -9 2609.61  100.94
  -4   8  -9 2413.21  100.53
   4   4   6    2.20    1.80
   4  -8   6    2.60    1.34
  -4   8  -6    1.08    1.19
   4   4   6    2.32    1.84
  -4   8  -3  705.34   28.23
   4   4   3  698.46   28.43
   4  -8   3  651.55   28.47
  -8   4   3  720.57   27.87
   4   4   3  653.77   28.78
  -4   8   0   -0.48    1.18
  -8   4   0    4.04    0.78
   4   4   0    3.19    1.18
   4  -8   0    0.77    1.14
   4   4  -3   71.71    3.40
   4   4  -3   62.48    4.57
  -8   4  -3   68.35    3.37
  -8   4  -6   22.09    1.60
   4  -8  -6   31.25    2.40
  -4   8   6   25.76    1.91
   4   4  -6   25.61    3.10
  -8   4  -9   65.67    3.47
   8  -4   9   65.30    3.94
   4   4  -9   80.84    5.13
  -4   8   9   71.71    3.70
   4  -8  -9   76.87    4.25
   4  -8 -12  110.27    5.67
   8  -4  12  101.98    5.56
   4   4 -12  104.93    4.50
   4   4 -12  110.84    6.40
  -4   8  12   91.94    4.89
  -8   4 -12  106.60    4.98
  -4   8  15   59.89    4.19
   4   4 -15   58.07    2.76
   4   4 -15   62.57    4.60
  -4   8  15   48.63    3.21
   4  -8 -15   50.50    3.77
   4   4 -18  409.47   18.81
   4  -8 -18  545.61   20.16
   4   4 -18  502.41   20.44
  -4   8  18  476.90   19.51
   8  -4  18  457.59   19.16
  -4   8  18  534.36   21.13
  -8   4 -21  337.22   14.65
   8  -4  21  321.16   13.51
   4   4 -21  321.54   15.07
   8  -4  21  353.55   13.65
   4   4 -21  314.34   13.83
   4   4 -24    0.16    1.08
   4  -8 -24    0.65    1.83
  -8   4 -24    0.80    1.71
  -8   4 -27   10.62    2.36
   4  -8 -27   11.05    2.60
  -8   4 -30   12.98    3.01
  -8   4 -33   11.62    3.14
  -5   8 -34    3.30    2.64
  -5   8 -31    5.90    2.58
   8  -3 -28   32.33    2.75
  -5   8 -28   25.73    3.18
  -5   8 -25   12.05    2.18
   8  -3 -25   12.71    1.82
   3   5  22    5.10    1.71
  -5   8 -22    4.34    1.73
  -8   3  19  111.64    4.90
   3   5  19  118.30    5.43
   5  -8  19   96.39    5.66
  -5   8 -19  103.50    5.43
  -5   8 -19  101.32    4.75
   5  -8  16  100.78    5.16
   3   5  16  108.60    5.32
  -5   8 -16  107.01    5.25
  -8   3  16   94.22    4.60
  -3  -5 -16  103.34    6.99
  -5   8 -16  102.25    4.64
  -5   8 -13    0.22    0.97
   3   5  13   -0.10    1.54
  -3  -5 -13    1.64    2.69
  -5   8 -13    2.76    1.12
   5  -8  13    0.66    1.26
  -8   3  13    1.60    1.03
   3   5  10   14.51    2.45
  -5   8 -10   11.98    1.54
   3   5  10   15.02    2.08
   5  -8  10   17.14    1.78
  -3  -5 -10   16.06    3.08
   3   5   7  476.29   19.59
   5  -8   7  430.15   19.33
  -8   3   7  461.87   18.54
  -3  -5  -7  450.25   20.86
   3   5   7  464.37   19.69
  -5   8  -7  481.11   19.05
   3   5   4  771.19   31.49
   5  -8   4  726.40   31.30
  -8   3   4  755.97   30.57
   3   5   4  759.32   31.31
  -5   8  -4  819.30   31.07
   5  -8   1  437.06   17.88
  -8   3   1  411.34   17.01
   3   5   1  391.74   17.88
   3   5   1  419.32   17.50
  -5   8  -1  446.63   17.49
  -8   3  -2  365.35   15.35
   5  -8  -2  407.50   16.31
   3   5  -5  198.04    9.04
  -8   3  -5  174.75    7.88
   8  -3   5  197.36    8.41
  -5   8   5  180.17    8.09
   8  -3   8  100.28    5.18
   3   5  -8  103.82    5.69
  -8   3  -8   89.33    4.45
  -5   8   8   90.79    4.63
   5  -8  -8  101.03    5.17
   8  -3  11  120.13    6.19
  -5   8  11  106.56    5.36
  -8   3 -11  105.12    5.31
   3   5 -11  124.17    6.40
   5  -8 -11  121.88    5.94
  -8   3 -14    7.70    1.38
   5  -8 -14    0.85    1.51
   8  -3  14    5.98    2.03
   3   5 -14    1.74    0.83
  -5   8  14   -1.13    1.53
   3   5 -14   -0.79    2.30
  -5   8  17   29.18    3.71
   5  -8 -17   27.67    2.74
   3   5 -17   25.79    3.14
   3   5 -17   28.55    1.92
   3   5 -20    1.82    2.21
   3   5 -20    4.05    1.38
  -5   8  20    3.71    3.27
  -8   3 -20    1.07    1.97
   5  -8 -20    5.31    2.06
   8  -3  20    2.82    1.54
   5  -8 -23   95.43    5.18
  -8   3 -23   91.39    5.00
   3   5 -23   74.80    4.62
   3   5 -23   67.75    3.98
  -8   3 -26    8.35    2.31
   5  -8 -26    9.66    2.47
  -8   3 -29   18.00    3.11
  -8   3 -32    0.72    2.79
  -8   3 -35    0.78    2.86
  -6   8 -35    1.22    2.53
  -6   8 -32    2.14    2.79
   8  -2 -29   27.54    2.69
  -6   8 -29   29.99    3.48
  -6   8 -26   -0.60    2.08
  -6   8 -23   44.25    3.22
   2   6  23   39.15    3.08
  -6   8 -20   73.54    4.42
  -8   2  20   77.48    3.35
   2   6  20   82.54    4.41
   6  -8  20   71.75    4.31
   6  -8  17  240.59   10.65
   2   6  17  239.27   10.68
  -2  -6 -17  268.60   12.31
  -6   8 -17  237.16   10.82
  -6   8 -14    7.53    1.42
  -2  -6 -14    4.97    2.41
   2   6  14    2.09    1.48
   6  -8  14    3.39    1.36
  -2  -6 -11  157.86    8.53
   6  -8  11  156.61    7.63
   2   6  11  166.37    7.69
  -6   8 -11  173.77    7.60
  -6   8 -11  160.79    7.08
   2   6  11  157.64    8.25
  -8   2   8  690.83   27.67
   6  -8   8  684.55   28.74
  -6   8  -8  686.62   28.16
   2   6   8  759.30   28.86
   2   6   8  705.35   29.09
  -2  -6  -8  707.98   29.75
   6  -8   5 1026.27   41.86
  -2  -6  -5 1056.19   43.04
  -6   8  -5 1014.13   41.26
  -8   2   5 1025.28   40.81
   2   6   5 1049.89   41.78
   2   6   5 1023.69   41.77
   2   6   2  590.57   24.54
  -8   2   2  568.28   23.63
   6  -8   2  625.70   24.71
  -6   8  -2  605.08   24.06
   6  -8  -1 1757.99   68.03
  -8   2  -1 1741.99   67.23
   8  -2   1 1641.99   67.48
  -6   8   1 1632.24   67.44
  -8   2  -4   10.40    1.17
   8  -2   4    8.45    1.52
   2   6  -4    8.62    1.84
  -8   2  -7   82.03    4.11
   8  -2   7   86.37    4.70
   2   6  -7   80.37    4.76
  -6   8   7   81.00    4.23
   6  -8  -7   83.16    4.58
  -8   2 -10   33.98    2.51
   8  -2  10   40.20    3.34
   2   6 -10   39.45    3.19
   6  -8 -10   39.35    2.96
   8  -2  13   69.59    4.73
   2   6 -13   59.30    4.09
  -8   2 -13   60.36    3.56
   6  -8 -13   58.84    3.78
   6  -8 -16    9.06    1.87
   8  -2  16    9.71    2.71
  -8   2 -16    5.77    1.54
  -6   8  16    8.49    2.59
   2   6 -16    9.71    1.24
   2   6 -16    9.86    2.08
   8  -2  19    2.58    1.76
   2   6 -19    0.98    1.16
   6  -8 -19   -0.63    1.82
  -6   8  19    4.35    3.20
   2   6 -19   -0.18    2.03
   2   6 -22  118.72    6.40
   2   6 -22  122.74    6.05
  -6   8  22  138.60    9.02
  -8   2 -22  132.76    6.79
   6  -8 -25   56.93    3.87
  -8   2 -25   57.75    4.04
  -8   2 -28   49.50    4.13
   6  -8 -28   48.49    4.03
  -8   2 -31   37.46    3.93
  -8   2 -34    1.59    2.63
  -7   8 -36   -0.87    2.49
  -7   8 -33   -0.20    2.43
  -7   8 -30   11.12    2.67
  -7   8 -27    2.16    2.18
  -7   8 -24   79.75    4.88
  -1  -7 -24   95.89    6.80
   7  -8  21   55.17    3.21
   1   7  21   52.95    3.54
  -7   8 -21   50.68    3.52
   1   7  18   19.68    2.38
  -1  -7 -18   19.45    3.27
   7  -8  18   25.13    2.12
  -7   8 -18   19.17    2.11
   1   7  15    1.82    2.41
  -1  -7 -15    5.28    2.38
   7  -8  15    1.51    1.42
  -7   8 -15    2.79    1.24
   1   7  15    2.08    1.69
   7  -8  12   26.86    2.62
   1   7  12   32.02    2.63
  -7   8 -12   28.68    2.35
  -1  -7 -12   28.99    3.27
   7  -8   9  101.50    5.42
   1   7   9   94.39    5.18
  -1  -7  -9   92.87    5.83
   1   7   9   97.89    5.56
   7  -8   6  210.39    9.42
   1   7   6  184.02    9.19
  -1  -7  -6  203.81    9.98
   1   7   6  199.14    9.11
  -8   1   6  195.38    8.14
   7  -8   3    2.85    1.56
  -1  -7  -3    4.12    2.30
   1   7   3    4.43    1.55
  -8   1   3    3.47    0.84
   8  -1   0  775.95   31.07
  -8   1   0  748.54   30.76
   7  -8   0  783.82   31.72
   1   7  -3   22.26    2.53
  -1  -7   3   32.94    4.14
   7  -8  -3   24.51    2.49
   8  -1   3   30.93    2.64
   8  -1   6  518.57   21.11
  -8   1  -6  485.87   20.44
  -1  -7   6  520.73   23.18
   1   7  -6  483.01   20.96
   1   7  -9   81.71    4.66
   8  -1   9   83.94    4.99
   7  -8  -9   73.26    4.41
  -8   1  -9   76.07    4.14
   1   7 -12    2.82    1.85
  -8   1 -12    0.84    1.58
   7  -8 -12    1.88    1.54
   8  -1  12    2.15    2.28
   8  -1  15   23.34    2.99
   1   7 -15   19.75    1.69
   1   7 -15   22.08    2.54
   8  -1  15   24.81    3.00
   7  -8 -15   19.50    2.22
  -8   1 -15   19.44    2.17
  -7   8  18  278.65   12.31
   1   7 -18  259.84   10.68
   8  -1  18  262.89   10.64
   1   7 -18  250.21   10.08
   7  -8 -18  261.83   10.79
   1   7 -21   17.77    2.52
   1   7 -21   21.58    2.05
   7  -8 -21   24.17    2.82
  -7   8  21   22.11    4.33
  -7   8  24   42.48    5.68
   1   7 -24   43.67    2.97
  -8   1 -24   48.65    3.79
   1   7 -27   -0.80    1.53
   7  -8 -27   -0.72    2.27
  -8   1 -27    0.59    2.15
  -8   1 -30   12.94    2.86
  -8   1 -33   -1.13    2.65
  -8   8 -34    0.21    2.64
  -8   8 -31   -0.48    2.39
  -8   8 -28    6.66    2.32
   0  -8 -25   25.06    4.01
  -8   8 -25   20.15    2.52
  -8   8 -22  194.83    9.20
   0   8  22  186.17    9.12
  -8   8 -19   74.09    4.37
   8  -8  19   79.61    4.27
   0   8  19   75.38    4.47
   0   8  16   32.37    2.64
  -8   8 -16   26.02    2.27
   0  -8 -16   27.25    3.24
   8  -8  16   22.61    2.47
   0   8  13  328.54   13.26
   8  -8  13  311.67   13.61
   0  -8 -13  316.95   14.09
   0  -8 -10 2210.02   90.06
   0   8  10 2246.29   89.30
   8  -8  10 2238.94   89.97
   8  -8   7  994.42   38.51
   0   8   7  929.66   37.80
   0  -8  -4   86.80    5.61
   8   0  -4  102.31    4.49
   0   8   4  102.81    5.27
  -8   0   4   88.41    4.39
   8  -8   4  104.42    5.65
  -8   0   1   59.02    3.19
   8  -8   1   63.02    4.04
   8   0  -1   64.67    3.46
   8   0   2   88.98    4.58
   0  -8   2   87.06    5.60
   0   8  -2   75.57    4.50
   8  -8  -2   83.82    4.75
  -8   0  -2   77.04    4.07
  -8   0  -5  416.50   17.69
   8   0   5  440.53   18.30
   0   8  -5  402.98   17.95
   0  -8   5  472.79   19.87
   0  -8   8  139.85    8.49
   0   8  -8  127.41    6.50
   8   0   8  132.14    6.95
   8  -8  -8  134.87    6.72
  -8   0  -8  125.52    6.25
   0   8 -11   32.37    2.90
   8   0  11   29.69    3.33
   8  -8 -11   30.05    2.89
  -8   0 -11   37.54    2.74
   8   0  14   35.87    3.38
   0   8 -14   35.33    2.98
  -8   0 -14   35.92    2.85
   8  -8 -14   34.75    2.97
   8   0  14   29.26    3.47
  -8   8  17  279.79   13.30
  -8   0 -17  269.14   12.27
   0   8 -17  264.16   11.75
   8   0  17  278.23   12.38
   8  -8 -17  278.89   12.40
   0   8 -17  278.62   12.17
   8   0  20  525.92   22.61
   0   8 -20  557.38   22.73
   8  -8 -20  540.58   23.21
   0   8 -20  570.99   22.93
  -8   8  20  535.64   24.82
   0   8 -23   20.49    2.32
  -8   8  23   26.61    4.54
   8  -8 -23   30.85    3.01
   8  -8 -26   18.39    2.80
   0   8 -26   13.43    1.99
  -8   0 -26   19.06    2.73
  -8   0 -29   18.41    3.00
  -8   0 -32   11.36    2.80
  -8  -1 -31   28.55    3.52
   9  -8 -28   22.51    3.13
  -1   9 -28   16.20    2.40
  -8  -1 -28   16.33    2.85
   9  -8 -25    1.39    1.92
  -1   9 -25    0.57    1.52
  -1   9 -22  233.46   10.94
   9  -8 -22  270.69   11.69
   8   1  19  592.55   25.28
  -1   9 -19  587.71   25.11
  -1   9 -19  646.06   25.37
  -9   8  19  602.63   26.91
   9  -8 -19  618.19   25.72
  -8  -1 -19  606.57   25.55
   8   1  16   10.36    2.75
  -1   9 -16    7.70    1.94
   9  -8 -16   11.66    2.32
  -8  -1 -16    9.00    2.19
   8   1  13  154.96    8.23
   8   1  13  162.53    8.65
  -1   9 -13  156.61    7.52
   9  -8 -13  156.52    7.81
  -8  -1 -13  163.16    7.69
   9  -8 -10    0.58    1.60
  -8  -1 -10    2.39    1.60
  -1   9 -10   -0.76    1.55
   1  -9  10   -1.14    3.12
   8   1  10    0.56    2.11
   8   1  10   -0.25    2.49
   8   1   7   39.87    3.32
  -1   9  -7   34.86    2.70
  -8  -1  -7   35.12    2.65
   1  -9   7   35.54    3.93
  -1   9  -4  246.76   11.27
   1  -9   4  259.74   12.47
   9  -8  -4  231.37   11.55
  -8  -1  -4  252.23   11.02
   1  -9   1  252.58   12.92
   8   1   1  304.79   12.40
  -1   9  -1  296.93   12.46
   9  -8  -1  279.41   12.61
  -8  -1  -1  263.02   11.82
  -8  -1   2  376.08   16.29
   8   1  -2  417.19   16.54
   9  -8   2  389.65   17.14
   9  -8   5    4.15    1.93
  -1   9   5    3.89    1.78
   1  -9  -5    5.41    2.12
   1  -9  -8 2321.69   89.69
  -1   9   8 2184.67   88.57
  -9   8  -8 2057.34   88.36
   1  -9 -11 1950.42   76.84
  -1   9  11 1794.08   75.70
   9  -8  11 2014.96   76.98
   9  -8  14   39.36    3.70
  -1   9  14   37.70    3.09
  -1   9  14   36.41    3.84
   1  -9 -14   36.89    3.98
   1  -9 -17   85.13    5.63
   9  -8  17   74.77    4.67
  -9   8 -17   75.79    4.29
  -1   9  17   74.27    4.40
  -1   9  20  101.20    5.43
  -9   8 -20  104.74    5.48
   9  -8  20   95.31    5.15
  -9   8 -23   54.20    3.72
  -1   9  23   55.57    3.74
  -9   8 -26   -0.61    1.85
   1  -9 -26   -1.34    2.81
  -9   8 -29    4.84    2.26
  -9   8 -32   -0.20    2.54
  -7  -2 -32    7.67    2.85
   9  -7 -29   -0.53    2.45
  -2   9 -29    3.09    1.95
  -7  -2 -29    1.66    2.41
   9  -7 -26   13.81    2.43
  -2   9 -26   12.10    2.03
  -7  -2 -26   13.24    2.50
  -2   9 -23   21.26    2.32
   9  -7 -23   24.84    2.82
  -2   9 -20   54.16    3.23
  -2   9 -20   43.78    3.18
   9  -7 -20   45.49    3.51
   7   2  20   48.21    3.29
  -9   7  20   49.13    4.43
  -9   7  17    1.25    2.48
  -2   9 -17   -0.37    1.60
   7   2  17    0.84    1.96
  -2   9 -17   -0.72    1.63
   9  -7 -17   -0.21    1.81
  -7  -2 -17    1.35    1.92
   2  -9  14   43.28    4.73
  -2   9 -14   51.88    3.27
   7   2  14   51.88    3.71
   9  -7 -14   49.34    3.48
  -7  -2 -14   47.98    3.49
   7   2  11  218.03   10.97
  -2   9 -11  233.71   10.06
   9  -7 -11  219.79   10.31
  -7  -2 -11  223.20   10.14
   7   2  11  222.36   10.71
   2  -9  11  231.30   11.53
   7   2   8  235.95   11.19
  -2   9  -8  250.47   10.55
   2  -9   8  234.18   11.47
  -7  -2  -8  229.66   10.51
   9  -7  -8  243.37   10.82
   7   2   8  224.74   11.16
   2  -9   5  315.98   14.71
  -2   9  -5  342.83   14.22
   7   2   5  336.47   14.58
  -7  -2  -5  323.99   14.06
   7   2   2  213.58    9.72
   2  -9   2  205.32   10.11
  -7  -2  -2  218.41    9.47
  -2   9  -2  211.12    9.63
   9  -7  -2  222.93    9.93
   9  -7   1    2.17    1.42
   7   2  -1    1.97    1.22
   2  -9  -1    2.25    1.56
   7   2  -4    1.81    1.03
  -2   9   4    0.17    1.35
  -9   7  -4   -0.22    1.10
   9  -7   4    0.19    1.35
  -9   7  -7  326.24   14.04
  -2   9   7  348.18   14.37
   2  -9  -7  350.26   15.08
   7   2  -7  325.05   13.41
   9  -7   7  320.89   14.49
  -9   7 -10  271.90   12.59
  -2   9  10  303.41   12.92
   2  -9 -10  326.92   13.90
   9  -7  10  295.69   13.37
  -2   9  13   46.08    3.47
  -2   9  13   58.58    4.32
   2  -9 -13   54.58    4.44
   2  -9 -16   44.02    4.06
  -2   9  16   37.47    2.94
  -9   7 -19   50.26    3.53
   9  -7  19   57.44    3.55
  -2   9  19   58.76    3.72
   2  -9 -19   61.43    4.69
  -9   7 -22   -0.53    1.70
   2  -9 -22   -0.53    2.79
  -2   9  22   -0.72    1.87
  -9   7 -25    6.49    1.98
   2  -9 -25    7.58    2.86
  -9   7 -28    0.86    2.11
  -9   7 -31    0.68    2.46
  -9   7 -34   -2.71    2.96
  -6  -3 -33   10.69    2.92
  -3   9 -30    5.36    2.22
  -6  -3 -30    7.53    2.91
  -3   9 -27   50.73    3.65
   9  -6 -27   55.91    3.89
  -6  -3 -27   47.98    4.05
   9  -6 -24   -0.07    1.64
  -3   9 -24   -0.36    1.39
  -6  -3 -24   -1.28    2.09
  -3   9 -21   57.02    3.16
  -3   9 -21   57.32    3.56
   6   3  21   56.01    3.48
  -9   6  21   54.80    4.27
   9  -6 -21   51.70    3.79
  -3   9 -18  128.71    5.70
  -6  -3 -18  101.00    6.12
  -3   9 -18  115.46    5.94
   9  -6 -18  110.56    6.03
   6   3  18  123.12    5.99
  -9   6  18  127.99    6.88
   6   3  15  159.62    7.67
   3  -9  15  155.71    8.61
  -3   9 -15  162.38    7.23
  -6  -3 -15  150.35    7.57
   9  -6 -15  158.36    7.60
   6   3  15  155.11    8.75
   6   3  12  436.70   20.92
   6   3  12  459.61   20.40
  -3   9 -12  504.28   19.96
   3  -9  12  527.78   21.19
  -6  -3 -12  470.57   20.18
   6   3   9 1636.47   65.47
  -3   9  -9 1623.39   64.59
   3  -9   9 1591.98   65.28
  -6  -3  -9 1603.51   64.79
   6   3   9 1624.39   65.24
   3  -9   6    1.74    1.50
   6   3   6    1.94    1.73
   6   3   6    4.91    2.22
  -3   9  -6    2.46    1.37
  -6  -3  -6    1.93    1.33
   6   3   3  455.97   19.58
   6   3   3  456.44   20.35
  -3   9  -3  484.09   19.50
   3  -9   3  427.07   19.77
  -6  -3  -3  495.31   19.45
  -3   9   0   28.80    2.26
   3  -9   0   24.79    2.54
   6   3   0   28.43    2.11
  -9   6  -3   58.15    3.10
   6   3  -3   56.97    3.04
  -9   6  -6   62.45    3.30
  -3   9   6   64.57    3.69
   3  -9  -6   67.23    4.25
   6   3  -6   60.29    3.02
  -3   9   9   -0.39    1.60
   3  -9  -9   -0.58    1.91
  -9   6  -9    0.76    0.96
   6   3  -9    1.17    0.62
  -3   9  12  432.54   18.05
  -9   6 -12  401.07   17.89
   9  -6  12  427.50   18.36
   3  -9 -15  355.52   14.98
   9  -6  15  351.15   14.59
  -3   9  15  343.27   15.09
  -3   9  18  257.13   11.67
   9  -6  18  258.62   12.37
   9  -6  21  237.43   10.74
  -9   6 -21  268.55   11.53
  -3   9  21  254.89   11.43
  -9   6 -24    2.14    1.66
   3  -9 -24    1.03    2.39
  -9   6 -27    5.91    2.15
   3  -9 -27    5.96    2.71
  -9   6 -30   11.21    2.71
  -9   6 -33    2.71    2.79
  -4   9 -31   -0.76    2.35
  -5  -4 -31    0.50    2.67
  -5  -4 -28   25.56    3.41
  -4   9 -28   28.65    2.96
   9  -5 -28   30.58    2.81
  -4   9 -25   -2.35    1.80
  -5  -4 -25    0.43    2.13
   9  -5 -25   -0.54    1.61
  -4   9 -22   40.78    3.02
   9  -5 -22   35.11    2.88
  -5  -4 -22   32.98    3.39
  -9   5  19   39.41    3.29
  -4   9 -19   37.36    2.92
   5   4  19   37.47    2.89
  -4   9 -19   39.34    2.46
   4  -9  16  148.79    7.90
   5   4  16  144.47    7.07
  -4   9 -16  156.23    7.15
  -9   5  16  152.22    7.34
  -4   9 -16  156.25    6.73
  -4   9 -13   40.25    2.57
   4  -9  13   41.70    3.36
  -5  -4 -13   41.85    3.17
   5   4  13   36.28    3.73
   5   4  13   41.73    3.17
   4  -9  10 1412.03   57.94
   5   4  10 1460.26   57.91
  -5  -4 -10 1444.18   57.71
   5   4  10 1439.07   58.40
  -4   9 -10 1421.15   57.38
   5   4   7  146.63    7.47
  -4   9  -7  155.24    6.73
   4  -9   7  126.64    6.98
   5   4   7  144.61    7.28
  -4   9  -4  629.67   24.75
   4  -9   4  562.97   25.06
   5   4   4  591.63   25.37
   5   4   4  616.74   25.06
  -4   9  -1   99.32    4.90
   5   4   1   98.04    5.75
   4  -9   1   94.98    5.18
  -9   5   1  100.02    4.57
   5   4   1   98.89    4.90
  -9   5  -2   29.95    1.89
   4  -9  -2   27.47    2.54
   5   4  -2   31.20    2.03
  -9   5  -5    5.07    0.97
   5   4  -5    8.93    2.64
   5   4  -5    6.85    0.94
  -4   9   5    7.47    1.40
  -9   5  -8  179.79    7.92
  -4   9   8  183.02    8.13
   5   4  -8  171.43    7.50
  -4   9  11   11.36    1.75
  -9   5 -11    6.50    1.21
   4  -9 -11    8.00    2.28
  -9   5 -14  439.90   19.54
   5   4 -14  490.10   18.98
  -4   9  14  468.12   20.44
  -4   9  14  427.71   19.52
   5   4 -17   24.12    1.61
   5   4 -17   35.49    4.50
   4  -9 -17   34.14    3.28
   9  -5  17   28.93    2.52
  -4   9  17   30.41    2.52
  -4   9  17   21.47    3.73
  -9   5 -20  288.60   13.95
   5   4 -20  304.74   13.13
   4  -9 -20  352.52   14.71
   5   4 -20  362.72   15.51
  -4   9  20  336.13   14.15
   9  -5  20  357.00   14.03
  -9   5 -23   23.43    2.52
   4  -9 -23   25.86    3.15
   5   4 -23   22.92    3.41
  -9   5 -26    3.57    1.82
   4  -9 -26    2.00    2.31
  -9   5 -29    5.77    2.33
  -9   5 -32   12.92    3.09
  -5   9 -35    0.58    2.44
  -5   9 -32   11.84    2.67
  -5   9 -29   -1.08    2.51
  -5   9 -26   -2.37    2.19
   9  -4 -26    0.37    1.47
  -4  -5 -23    2.15    2.20
  -5   9 -23    0.32    1.67
   4   5  20  189.84    8.23
  -5   9 -20  188.23    8.41
  -5   9 -20  186.44    7.60
  -5   9 -17   61.82    3.75
   4   5  17   59.40    3.70
   5  -9  17   56.45    4.06
  -5   9 -17   63.67    3.26
  -9   4  17   52.58    3.36
   5  -9  14   12.57    2.09
   4   5  14   14.38    2.17
  -5   9 -14   15.03    1.90
  -5   9 -14   14.21    1.56
  -9   4  14   15.32    1.81
   4   5  14   13.25    2.82
  -5   9 -11   88.07    4.48
   5  -9  11   88.00    4.95
   4   5  11   91.59    4.98
   4   5  11   94.33    5.64
   4   5   8    1.72    1.96
  -5   9  -8    0.04    1.47
   4   5   8    1.33    1.73
   5  -9   8    2.25    1.49
   4   5   5  707.57   27.90
   4   5   5  647.20   27.86
   5  -9   5  628.35   27.78
  -9   4   5  684.78   26.96
  -5   9  -5  671.54   27.37
   5  -9   2  481.25   21.05
  -9   4   2  510.47   20.19
   4   5   2  484.63   21.24
   4   5   2  493.81   20.70
  -5   9  -2  500.63   20.59
  -5   9   1    7.02    1.30
  -9   4  -1    7.06    0.89
   4   5  -1    7.83    1.28
   5  -9  -1    8.31    1.61
  -9   4  -4   93.62    4.48
   4   5  -4  108.23    5.84
   4   5  -7  491.96   19.84
   5  -9  -7  497.11   19.46
  -5   9   7  457.18   18.67
   4   5 -10 1288.87   49.05
   5  -9 -10 1303.54   48.54
  -5   9  10 1116.50   47.71
  -9   4 -10 1130.52   47.61
   9  -4  10 1247.94   48.46
   4   5 -13    1.17    3.14
  -5   9  13    3.38    1.62
  -9   4 -16   22.18    2.24
   4   5 -16   32.56    3.72
   5  -9 -16   34.23    3.05
  -5   9  16   30.25    2.58
  -5   9  16   27.10    3.42
   4   5 -16   30.10    1.83
  -5   9  19    0.49    3.11
   5  -9 -19    5.36    2.31
   4   5 -19    5.13    1.22
   4   5 -19    5.78    2.78
  -9   4 -22   20.98    2.45
   4   5 -22   14.91    2.69
   4   5 -22   14.57    1.51
   5  -9 -22   22.21    2.83
   5  -9 -25    9.35    2.50
  -9   4 -25   10.43    2.16
  -9   4 -28   -1.46    2.20
   5  -9 -28    1.18    2.37
  -9   4 -31    4.76    2.71
  -9   4 -34   -0.43    2.72
  -6   9 -36    0.90    2.47
  -6   9 -33    9.95    2.82
  -6   9 -30   13.37    2.83
  -6   9 -27    2.84    2.27
   9  -3 -27    4.29    1.71
  -6   9 -24    0.60    1.78
   3   6  21  351.71   14.78
  -6   9 -21  360.80   15.01
   6  -9  21  313.67   15.07
  -9   3  18  572.72   23.49
   3   6  18  625.47   24.60
   6  -9  18  605.86   24.70
  -6   9 -18  630.27   24.72
  -3  -6 -18  665.77   27.31
   3   6  15   32.50    2.83
  -6   9 -15   34.64    2.62
  -3  -6 -15   25.42    4.19
  -6   9 -15   28.56    1.95
   6  -9  15   30.39    2.68
  -9   3  15   27.80    1.48
  -9   3  12   57.33    2.47
  -3  -6 -12   48.82    4.86
   3   6  12   54.17    3.72
   6  -9  12   53.79    3.61
   3   6  12   51.58    4.38
  -9   3  12   54.83    2.82
  -6   9 -12   54.74    3.03
  -9   3   9   28.23    1.44
   6  -9   9   25.45    2.46
  -3  -6  -9   21.81    3.66
   3   6   9   28.45    2.70
  -6   9  -9   25.47    1.98
   3   6   9   26.14    2.95
   6  -9   6  558.04   24.44
  -9   3   6  580.78   23.39
   3   6   6  597.98   24.53
  -3  -6  -6  581.02   26.11
  -6   9  -6  581.37   23.86
   3   6   6  614.66   24.51
   3   6   3  346.69   15.43
   6  -9   3  363.72   15.49
  -9   3   3  362.17   14.46
  -6   9  -3  352.08   14.87
   3   6   3  337.04   15.15
  -6   9   0    7.55    1.33
  -9   3   0    7.56    0.92
   6  -9   0    6.29    1.63
  -9   3  -3  113.56    5.14
   3   6  -3  108.87    6.04
  -9   3  -6   37.20    2.42
   9  -3   6   39.52    2.94
   3   6  -6   44.13    3.65
   6  -9  -9 2141.15   80.87
  -9   3  -9 1924.70   80.03
  -6   9   9 1914.34   80.13
   9  -3   9 2249.85   81.12
   3   6  -9 2017.78   80.97
  -9   3 -12  825.08   35.48
   6  -9 -12  929.92   36.18
   9  -3  12  985.36   36.75
   3   6 -12  871.57   36.30
  -6   9  12  846.28   35.55
  -9   3 -15    1.23    1.44
   6  -9 -15    4.93    1.97
   9  -3  15    2.17    2.35
   3   6 -15    1.53    0.93
   3   6 -15    1.75    2.29
   6  -9 -18   57.27    4.17
   3   6 -18   57.52    3.14
   3   6 -18   60.26    4.43
  -6   9  18   67.84    5.37
   3   6 -21  135.47    6.37
   3   6 -21  134.67    7.11
   6  -9 -24   88.85    5.16
  -9   3 -24   83.80    4.65
  -9   3 -27    2.20    2.19
   6  -9 -27    8.17    2.46
  -9   3 -30   10.94    2.84
  -9   3 -33    1.13    2.66
  -7   9 -34    3.07    2.58
  -7   9 -31    8.18    2.67
  -7   9 -28    0.09    2.37
  -7   9 -25    1.72    1.74
  -2  -7 -25    3.68    4.31
   2   7  22   23.47    2.59
  -2  -7 -22   29.29    4.99
  -7   9 -22   25.38    2.71
   7  -9  19  257.34   11.41
  -7   9 -19  241.26   11.39
   2   7  19  257.75   11.43
  -7   9 -16   45.29    3.24
  -2  -7 -16   50.51    4.91
   2   7  16   48.11    3.46
   7  -9  16   52.80    3.53
   7  -9  13   15.51    2.18
  -7   9 -13   17.77    1.95
  -2  -7 -13   13.87    3.33
   2   7  13   15.44    2.35
   7  -9  10   60.91    3.89
   2   7  10   60.69    3.83
  -7   9 -10   53.23    3.12
   2   7  10   61.09    4.32
  -2  -7 -10   61.61    5.05
  -2  -7  -7   24.19    3.76
   7  -9   7   25.60    2.86
   2   7   7   31.26    3.05
  -7   9  -7   26.38    2.20
   2   7   7   24.56    2.78
  -9   2   4  278.09   12.28
  -2  -7  -4  323.35   14.93
  -7   9  -4  302.57   12.71
   2   7   4  294.09   13.18
   2   7   4  310.75   13.35
  -9   2   1   21.32    1.52
  -7   9  -1   19.68    1.84
   7  -9   1   24.10    2.46
   7  -9  -2   47.15    3.28
   2   7  -2   46.52    3.38
  -9   2  -2   43.68    2.56
   9  -2   2   45.68    2.92
  -2  -7   2   46.67    5.18
  -7   9   2   41.62    2.78
  -9   2  -5  120.68    5.90
   2   7  -5  134.89    6.74
   9  -2   5  139.99    6.69
  -9   2  -8  305.48   13.68
   9  -2   8  360.10   14.67
   2   7  -8  314.36   14.35
   7  -9  -8  328.89   14.30
  -9   2 -11  607.46   26.30
   2   7 -11  612.33   26.82
   7  -9 -11  619.04   26.76
   7  -9 -14   22.81    2.55
   2   7 -14   23.71    2.83
   9  -2  14   27.07    3.48
  -9   2 -14   22.44    2.25
   9  -2  17   -0.56    2.69
  -9   2 -17    1.17    1.77
   2   7 -17    0.20    2.24
   7  -9 -17    0.08    2.02
   2   7 -17    1.06    1.13
  -7   9  17    4.36    2.53
   9  -2  20    0.89    2.07
   2   7 -20    2.61    1.23
   7  -9 -20    0.89    2.41
   2   7 -20    1.15    2.04
  -7   9  20    6.17    3.36
   7  -9 -23   69.93    4.57
   2   7 -23   54.89    3.31
  -9   2 -26   -0.58    2.11
   7  -9 -26   -0.93    2.42
  -9   2 -29   12.95    2.76
   7  -9 -29   16.31    3.09
  -9   2 -32   -3.15    2.67
  -8   9 -32    2.84    2.31
  -8   9 -29   -0.44    2.17
  -1  -8 -26    0.36    3.99
  -8   9 -26   -0.30    1.94
  -1  -8 -23   32.35    4.76
  -8   9 -23   17.55    2.38
   8  -9  20   44.80    3.10
  -1  -8 -20   46.28    5.04
   1   8  20   35.79    3.10
  -8   9 -20   46.92    3.28
  -1  -8 -17   22.15    3.78
  -8   9 -17   20.76    2.37
   1   8  17   22.88    2.63
   8  -9  17   24.26    2.56
  -1  -8 -14    6.50    2.93
   8  -9  14    4.33    1.97
  -8   9 -14    4.14    1.59
   1   8  14    4.34    2.00
   8  -9  11  920.78   39.60
   1   8  11 1002.95   39.16
  -1  -8 -11  969.83   40.29
   1   8  11  917.91   39.70
   8  -9   8  900.02   37.18
   1   8   8  959.31   36.87
   1   8   8  968.68   36.50
  -1  -8  -8  973.19   37.70
  -9   1   8  844.90   35.19
  -9   1   5   57.43    2.93
   1   8   5   58.86    3.92
  -1  -8  -5   60.99    4.80
   8  -9   5   65.70    4.28
   9  -1  -2  269.74   11.66
   8  -9   2  298.39   12.79
  -9   1   2  270.53   11.49
  -1  -8   1   67.41    5.83
   9  -1   1   67.76    3.77
   1   8  -1   57.74    3.99
   8  -9  -1   58.81    4.12
  -9   1  -1   64.26    3.35
  -1  -8   4  163.99    9.73
   9  -1   4  171.76    7.72
   1   8  -4  143.28    7.36
  -9   1  -4  139.31    6.79
  -9   1  -7    9.35    1.59
   9  -1   7   11.46    2.21
   1   8  -7   12.07    2.17
  -9   1 -10   -3.61    2.16
   8  -9 -10   -0.83    1.95
   1   8 -10    4.57    2.05
   9  -1  10    0.56    2.34
   8  -9 -13   22.22    2.67
   9  -1  13   25.84    3.43
   1   8 -13   23.83    2.77
  -9   1 -13   23.26    2.42
   1   8 -16   19.94    2.67
   8  -9 -16   13.37    2.41
   1   8 -16   19.89    1.80
   9  -1  16   11.85    2.82
  -9   1 -16   15.16    2.32
   1   8 -19  314.16   14.01
   9  -1  19  345.75   14.66
   8  -9 -19  338.64   14.89
  -8   9  19  363.59   16.31
   1   8 -19  321.13   14.58
  -9   1 -19  331.20   14.63
   8  -9 -22   61.16    4.42
   1   8 -22   49.92    3.21
  -8   9  22   52.17    5.78
   1   8 -25    9.74    1.71
   8  -9 -25   13.54    2.64
  -9   1 -28    8.10    2.47
   8  -9 -28    6.84    2.85
  -9   1 -31    6.83    2.70
  -9   9 -33    3.02    2.73
  -9   9 -30    1.97    2.51
  -9   9 -27   16.95    2.70
   0  -9 -24    9.57    3.53
  -9   9 -24    6.00    1.85
  -9   9 -21  157.73    7.58
   0   9  21  153.24    7.57
  -9   9 -18  163.93    8.17
   0   9  18  169.12    8.08
   9  -9  18  165.33    8.40
   0   9  15   26.26    2.64
  -9   9 -15   19.48    2.34
   9  -9  15   24.07    2.90
   0  -9 -15   24.12    3.59
   9  -9  12 1196.44   49.18
   0   9  12 1179.03   48.29
   0  -9 -12 1200.76   49.47
   0   9   9 2962.53  117.06
   0  -9  -9 2960.65  118.12
  -9   9  -9 2826.24  116.88
   0   9   9 2917.97  117.60
   9  -9   9 3113.89  118.27
   9  -9   6  107.79    5.98
   0  -9  -6   95.90    6.04
   0   9   6  101.35    5.18
  -9   0   3  727.95   31.00
   9   0  -3  818.74   31.23
   0   9   3  730.02   31.77
   9  -9   3  844.08   32.55
  -9   0   0  339.84   14.76
   9   0   0  391.78   15.35
   0   9   0  321.63   15.27
   0  -9   0  354.89   16.72
   9  -9   0  380.82   15.97
   9  -9  -3   69.61    4.73
   9   0   3   83.37    4.66
   0   9  -3   70.62    4.38
   0  -9   3   74.70    5.67
  -9   0  -3   70.07    3.88
   0  -9   6    9.10    3.38
  -9   0  -6    9.08    1.65
   0   9  -6    8.99    1.92
   9   0   6    8.74    2.17
  -9   0  -9   17.58    2.08
   0   9  -9   17.44    2.34
   9   0   9   16.69    2.68
   0  -9   9   14.72    4.09
   9  -9  -9   10.54    2.32
  -9   0 -12  231.75   10.27
   9   0  12  227.73   11.18
   9  -9 -12  214.02   10.66
   0   9 -12  221.68   10.41
   9   0  15   51.90    4.32
   0   9 -15   54.63    3.98
   9  -9 -15   51.52    3.94
  -9   0 -15   53.40    3.78
  -9   9  18  496.19   23.48
  -9   0 -18  536.81   22.58
   0   9 -18  499.48   22.04
   9   0  18  570.41   22.83
   0   9 -18  557.14   22.58
   9  -9 -18  547.74   22.81
  -9   0 -21  530.22   22.86
   0   9 -21  525.50   22.37
   0   9 -21  551.35   22.63
  -9   9  21  557.55   24.79
   9  -9 -21  537.71   23.12
   9  -9 -24   10.80    2.44
   0   9 -24    5.05    1.55
   9  -9 -27   35.44    3.73
  -9   0 -27   27.34    3.35
  -9   0 -30   35.19    3.57
  10  -9 -29   16.24    3.34
  -9  -1 -29   17.94    3.00
  10  -9 -26   10.86    2.60
  -1  10 -26    8.49    1.75
  -1  10 -23   36.74    2.92
  -9  -1 -23   42.14    3.59
  -1  10 -20  428.97   17.43
  -1  10 -20  384.63   17.10
  10  -9 -20  415.07   17.82
 -10   9  20  383.28   18.75
  -9  -1 -20  396.46   17.55
  -1  10 -17  124.16    6.19
   9   1  17  109.42    6.45
  10  -9 -17  107.68    6.32
  -9  -1 -17  104.44    6.00
  -1  10 -14  109.03    5.65
  10  -9 -14   98.29    6.03
  -9  -1 -14   95.10    5.46
   9   1  14  101.36    6.05
  10  -9 -11   23.43    2.79
   1 -10  11   26.20    4.75
   9   1  11   24.56    3.29
  -1  10 -11   22.85    2.55
  -9  -1 -11   24.58    2.52
   9   1  11   22.04    3.46
   9   1   8  109.93    6.22
   1 -10   8  116.62    7.64
  -1  10  -8  101.39    5.58
  10  -9  -8   92.69    5.76
  -9  -1  -8  105.98    5.46
  -1  10  -5    4.47    1.84
   1 -10   5    3.93    2.56
   9   1   5    3.00    1.95
  -9  -1  -5    5.22    1.54
  -1  10  -2   -0.95    1.84
  10  -9  -2   -0.24    1.61
  -9  -1  -2    1.04    1.27
   9   1   2   -0.89    1.74
   1 -10   2    0.60    2.02
   9   1  -1  310.83   12.02
   1 -10  -1  232.78   12.76
  10  -9   1  283.96   12.56
  -9  -1   1  250.25   11.51
  -1  10   4  539.54   23.80
   9   1  -4  578.28   23.31
  10  -9   4  587.31   24.62
   1 -10  -7  263.62   13.55
 -10   9  -7  283.69   12.43
  10  -9   7  293.44   13.59
  -1  10   7  273.14   12.53
   1 -10 -10 1842.99   76.32
  10  -9  10 1947.57   76.56
 -10   9 -10 1870.86   75.01
  -1  10  10 1844.40   75.10
  -1  10  13  296.40   13.62
   1 -10 -13  300.40   14.89
  -1  10  16   21.21    2.40
  10  -9  16   25.57    3.11
   1 -10 -16   21.45    3.55
 -10   9 -19   72.15    4.30
  10  -9  19   74.50    4.73
 -10   9 -22   43.50    3.19
   1 -10 -22   43.73    4.51
 -10   9 -25   -0.38    1.82
   1 -10 -25   -0.15    3.11
 -10   9 -28   18.21    2.79
 -10   9 -31   -0.59    2.48
  -8  -2 -30   -0.18    2.32
  -8  -2 -27    3.39    2.36
  10  -8 -27    4.91    2.25
  -2  10 -27    1.08    1.78
  10  -8 -24    8.80    2.16
  -2  10 -24    6.00    1.72
  -2  10 -21   86.13    4.79
  -8  -2 -21   80.54    5.16
  10  -8 -21   88.51    5.36
 -10   8  18   72.54    5.32
   8   2  18   72.25    4.66
  -2  10 -18   79.54    4.30
  -2  10 -18   68.06    4.07
  10  -8 -18   71.08    4.56
  -8  -2 -18   66.57    4.54
  10  -8 -15   53.78    3.91
  -2  10 -15   59.83    3.70
   8   2  15   56.06    4.25
   2 -10  15   51.57    5.78
  -8  -2 -15   53.47    3.79
   8   2  12  116.88    7.00
  -2  10 -12  114.61    5.81
   2 -10  12  124.99    7.90
  10  -8 -12  113.40    6.22
  -8  -2 -12  108.83    5.84
   8   2  12  104.81    6.35
   2 -10   9    3.23    2.64
   8   2   9    5.37    2.35
   8   2   9    0.94    2.47
  -2  10  -9    2.35    1.56
  10  -8  -9    0.30    1.64
  -8  -2  -9    1.86    1.56
   8   2   6   40.33    3.43
  -2  10  -6   41.48    2.94
   2 -10   6   37.44    3.59
  -8  -2  -6   39.80    2.84
   8   2   3    0.13    1.84
   2 -10   3    1.78    1.80
  -2  10  -3    4.77    1.69
  -8  -2  -3    1.76    1.36
  10  -8  -3    2.99    1.54
   2 -10   0   91.89    5.65
   8   2   0   97.90    5.17
  -2  10   0   88.68    5.18
  10  -8   0   87.79    5.26
  -8  -2   0   97.20    4.87
   8   2  -3   24.59    2.10
  10  -8   3   20.85    2.66
   8   2  -6    2.47    1.00
   2 -10  -6    0.93    2.42
  -2  10   6    2.28    1.86
 -10   8  -6    1.21    1.42
  10  -8   6   -1.25    2.05
 -10   8  -9  511.64   21.16
  -2  10   9  515.33   21.39
  10  -8   9  476.91   21.85
   2 -10  -9  512.99   22.41
  -2  10  12   92.95    5.43
 -10   8 -12   91.42    5.24
   2 -10 -12  116.35    6.78
  10  -8  12  122.99    6.91
  -2  10  12   99.35    6.11
  10  -8  15   15.84    3.04
  -2  10  15   10.22    2.04
   2 -10 -15    9.56    2.95
  -2  10  18   14.13    2.16
  10  -8  18   15.42    2.43
   2 -10 -18   13.43    3.15
   2 -10 -21   16.04    3.25
 -10   8 -21   15.32    2.07
   2 -10 -24   11.64    3.14
 -10   8 -24    8.36    2.11
 -10   8 -27   13.05    2.58
   2 -10 -27   20.21    3.73
 -10   8 -30   11.81    2.91
  -7  -3 -31    5.83    2.68
  -3  10 -28   58.85    4.06
  -7  -3 -28   55.02    4.42
  10  -7 -28   59.58    4.33
  10  -7 -25   13.28    2.43
  -3  10 -25    8.46    1.90
  10  -7 -22   -1.29    1.96
  -3  10 -22    0.51    1.60
  -3  10 -19    0.05    1.58
   7   3  19   -0.30    1.95
  -3  10 -19    0.25    1.53
  -7  -3 -19   -2.13    2.21
 -10   7  19    2.05    2.03
  10  -7 -19   -1.30    2.10
   7   3  16   88.42    5.26
  -3  10 -16   89.09    4.74
   3 -10  16   89.93    6.46
  -7  -3 -16   78.52    5.01
   7   3  13  139.02    8.08
  -3  10 -13  143.18    6.79
   7   3  13  146.30    7.38
  10  -7 -13  142.82    7.23
  -7  -3 -13  132.84    6.97
   3 -10  13  150.64    8.30
   7   3  10    1.94    2.34
   7   3  10    1.77    2.24
  -3  10 -10    0.43    1.36
  10  -7 -10    0.69    1.55
  -7  -3 -10   -0.06    1.54
   3 -10  10    3.48    2.13
   3 -10   7   21.36    2.67
   7   3   7   25.37    3.12
  -3  10  -7   27.45    2.24
   7   3   7   21.13    2.68
  -7  -3  -7   24.75    2.34
   3 -10   4   34.15    3.22
   7   3   4   39.09    3.18
  -3  10  -4   41.75    2.93
   7   3   4   42.15    3.88
  -7  -3  -4   48.78    3.03
   7   3   1  762.26   32.07
  -3  10  -1  824.01   32.22
   3 -10   1  765.51   32.64
 -10   7  -2  868.11   32.32
   7   3  -2  731.05   32.13
   7   3  -5   13.15    1.44
  -3  10   5   10.11    1.96
 -10   7  -5   11.63    1.60
   7   3  -8    7.87    1.00
  -3  10   8    0.81    1.75
   3 -10  -8    2.94    2.29
 -10   7  -8    2.61    1.34
  10  -7   8    1.26    1.90
 -10   7 -11   74.17    4.38
  10  -7  11   85.21    5.15
   3 -10 -11  103.59    5.98
  -3  10  11   95.28    4.87
   3 -10 -14  295.02   11.66
  10  -7  14  301.93   11.45
  -3  10  17    1.16    1.75
  10  -7  17    0.10    2.29
   3 -10 -17    0.21    2.51
 -10   7 -20   17.94    2.13
  10  -7  20   17.54    2.09
   3 -10 -20   17.38    3.20
 -10   7 -23   -1.24    1.54
   3 -10 -23   -0.45    2.45
 -10   7 -26    2.56    1.81
 -10   7 -29   24.12    3.23
 -10   7 -32    1.89    2.53
  -6  -4 -32    5.01    2.68
  -4  10 -32   -0.25    2.24
  -4  10 -29   44.65    3.52
  -6  -4 -29   48.59    4.14
  10  -6 -29   48.95    3.95
  10  -6 -26   25.26    2.66
  -4  10 -26   18.13    2.43
  -6  -4 -26   18.00    2.91
  -4  10 -23    5.85    1.65
  10  -6 -23    3.05    1.70
   6   4  20    4.35    1.72
  -4  10 -20    3.65    1.35
  -4  10 -20    4.59    1.59
  10  -6 -20    1.20    1.74
 -10   6  17   46.91    3.62
   4 -10  17   51.27    4.65
  -4  10 -17   49.43    3.35
  -6  -4 -17   44.72    3.66
   6   4  17   44.46    3.46
  -4  10 -17   51.07    3.01
  -4  10 -14  223.51    9.62
   6   4  14  223.88   10.27
  -6  -4 -14  200.27   10.05
   4 -10  14  236.53   11.09
   6   4  14  211.96   11.16
   6   4  11    4.33    2.46
  -4  10 -11    1.71    1.46
   4 -10  11    2.90    2.00
   6   4  11    0.90    2.09
  -6  -4 -11    4.60    1.71
   6   4   8    7.79    2.26
   6   4   8    5.34    2.21
  -4  10  -8    8.30    1.61
  -6  -4  -8    7.43    1.83
   4 -10   8    9.63    1.95
  -4  10  -5   39.55    2.73
   4 -10   5   34.03    3.06
   6   4   5   32.86    3.39
   6   4   5   43.15    3.10
  -4  10  -2  307.70   12.55
   6   4   2  283.98   13.31
   4 -10   2  256.68   12.81
   6   4   2  290.75   12.55
  -4  10   1 1386.03   57.46
   6   4  -1 1389.53   57.33
 -10   6  -1 1567.50   57.36
   4 -10  -1 1346.34   58.09
 -10   6  -4  152.75    6.91
   6   4  -4  171.90    8.86
   6   4  -4  149.52    6.80
   6   4  -7    4.94    1.01
   4 -10  -7    5.21    2.08
  -4  10   7    4.88    1.60
 -10   6  -7    2.90    1.01
 -10   6 -10   25.09    2.16
   4 -10 -10   30.36    3.17
  -4  10  10   29.22    2.55
   6   4 -10   33.91    1.73
 -10   6 -13  444.49   19.69
   6   4 -13  474.65   18.98
  10  -6  13  435.82   20.14
   6   4 -13  484.41   18.98
  -4  10  13  479.62   19.97
 -10   6 -16   83.08    4.80
   4 -10 -16  114.17    6.15
  10  -6  16  113.39    5.70
  -4  10  16   92.48    5.00
   6   4 -19   55.00    5.52
   4 -10 -19   45.90    4.04
  -4  10  19   43.03    3.24
  10  -6  19   45.10    3.65
 -10   6 -22   10.47    1.91
   4 -10 -22    8.96    2.59
   6   4 -22   11.67    3.60
 -10   6 -25    0.53    1.67
   4 -10 -25   -0.66    2.44
 -10   6 -28   14.52    2.59
   4 -10 -28   14.02    3.42
 -10   6 -31    4.38    2.68
  -5  10 -33    1.16    2.19
  -5  10 -30    0.72    2.36
  -5  10 -27   -1.86    2.17
  10  -5 -27    0.73    1.89
  -5  -5 -24    1.88    2.17
  -5  10 -24    1.42    1.58
  10  -5 -24    0.73    1.52
   5   5  21   62.11    3.88
  -5  10 -21   63.73    4.05
  -5  10 -18   69.05    4.07
   5   5  18   62.89    3.94
  -5  10 -18   73.37    3.58
 -10   5  18   60.90    3.73
   5 -10  18   67.14    5.03
   5 -10  15  136.95    7.03
  -5  10 -15  126.99    6.37
  -5  -5 -15  112.64    6.39
   5   5  15  129.98    6.50
 -10   5  15  121.00    6.19
  -5  10 -15  129.11    5.89
   5 -10  12   64.46    4.43
  -5  10 -12   69.20    3.72
   5   5  12   76.39    5.07
   5   5  12   64.88    4.34
   5   5   9    6.22    2.21
  -5  10  -9    6.48    1.42
   5   5   9    6.59    2.07
   5 -10   9    9.39    1.97
   5   5   6   34.70    3.04
   5 -10   6   32.84    2.93
   5   5   6   40.14    3.12
  -5  10  -6   37.83    2.51
   5   5   3   24.11    2.89
 -10   5   3   29.94    1.87
   5 -10   3   27.61    2.54
   5   5   3   28.52    2.45
  -5  10  -3   26.31    2.18
 -10   5   0   71.14    3.40
   5 -10   0   67.09    4.36
   5   5   0   57.50    4.53
   5   5   0   61.87    3.63
  -5  10   0   71.13    3.87
 -10   5  -3    1.53    0.90
   5   5  -3   -0.07    1.19
   5   5  -3    1.01    2.53
   5   5  -6   43.80    4.06
  -5  10   6   41.34    2.83
 -10   5  -6   40.07    2.53
   5 -10  -6   41.66    3.46
   5   5  -6   42.33    2.37
  -5  10   9  712.74   28.83
   5   5  -9  784.21   30.35
   5 -10  -9  759.09   29.75
 -10   5 -12   27.18    2.27
   5 -10 -12   34.83    3.34
   5   5 -12   24.58    4.17
  -5  10  12   29.07    2.48
 -10   5 -15  174.39    8.13
   5   5 -15  194.43    9.61
   5   5 -15  172.07    7.33
   5 -10 -15  191.69    9.09
  -5  10  15  160.74    8.04
  10  -5  18    7.87    1.81
   5   5 -18    5.07    0.92
   5   5 -18    5.52    3.17
  -5  10  18    5.68    1.85
   5 -10 -18    8.88    2.44
   5 -10 -21    5.27    2.30
   5   5 -21    3.60    2.76
   5 -10 -24    2.90    2.13
 -10   5 -24    0.15    1.72
 -10   5 -27    6.09    2.20
   5 -10 -27    7.26    2.81
 -10   5 -30    0.46    2.28
 -10   5 -33    0.10    2.59
  -6  10 -34    1.43    2.48
  -6  10 -31   34.08    3.53
  -6  10 -28   27.68    3.16
  10  -4 -28   27.11    2.80
  -6  10 -25    1.87    1.81
  -6  10 -22  192.71    9.11
   4   6  19  803.46   33.19
  -6  10 -19  834.68   33.39
  -6  10 -19  801.82   32.56
   6 -10  19  806.91   33.74
   6 -10  16   21.91    2.85
   4   6  16   20.74    2.45
  -6  10 -16   20.87    2.44
  -6  10 -16   23.26    1.93
 -10   4  16   18.30    1.67
   4   6  13  206.44   10.14
   6 -10  13  190.86    9.25
   4   6  13  191.75    9.10
  -6  10 -13  186.17    8.35
   6 -10  10   18.71    2.40
 -10   4  10   17.17    1.14
  -6  10 -10   15.61    1.70
   4   6  10   20.18    2.97
   4   6  10   12.80    2.28
   6 -10   7    8.30    1.90
  -6  10  -7    9.05    1.52
 -10   4   7    8.90    0.89
   4   6   7    7.72    2.09
   4   6   7   10.16    2.25
   4   6   4   80.16    4.98
 -10   4   4   86.81    3.99
   6 -10   4   88.51    5.13
  -6  10  -4   92.25    4.55
   4   6   4   82.73    4.78
 -10   4   1  173.07    7.50
   6 -10   1  181.74    8.66
   4   6   1  160.41    8.44
   4   6   1  169.12    7.95
  -6  10  -1  185.70    8.03
 -10   4  -2  472.64   20.06
   6 -10  -2  553.99   21.41
   4   6  -2  465.61   20.26
  -6  10   2  528.16   20.60
 -10   4  -5   62.43    3.31
   4   6  -5   68.22    4.68
 -10   4  -8 1719.73   70.80
   6 -10  -8 1847.79   71.76
   4   6  -8 1843.47   72.00
  -6  10   8 1769.34   71.01
   6 -10 -11 1979.25   77.42
 -10   4 -11 1958.11   76.66
  10  -4  11 2044.30   77.62
  -6  10  11 1774.63   76.61
   4   6 -11 1947.25   77.66
 -10   4 -14    9.23    1.72
   4   6 -14    9.44    2.82
   6 -10 -14   10.27    2.30
  -6  10  14    9.87    1.89
   6 -10 -17  150.35    7.63
   4   6 -17  142.23    6.21
   4   6 -17  142.76    7.60
  -6  10  17  142.13    7.88
 -10   4 -17  125.97    6.74
   6 -10 -20  163.54    7.58
   4   6 -20  150.08    7.31
   6 -10 -23   62.49    4.67
   6 -10 -26    3.86    2.49
 -10   4 -26    3.21    1.94
 -10   4 -29    4.42    2.44
 -10   4 -32    6.39    2.71
  -7  10 -35   -0.92    2.24
  -7  10 -32   26.51    3.30
  -7  10 -29   40.53    3.73
  10  -3 -29   31.44    3.00
  -7  10 -26    1.76    1.87
  -7  10 -23   95.59    5.35
   3   7  20  773.99   32.13
  -7  10 -20  760.23   32.28
   7 -10  20  780.61   32.47
   3   7  17  278.55   12.51
  -7  10 -17  271.40   12.61
   7 -10  17  301.37   13.05
  -3  -7 -17  288.25   15.19
  -3  -7 -14   97.26    7.31
   3   7  14  108.48    5.85
  -7  10 -14  110.89    5.64
  -7  10 -14  105.85    5.08
   7 -10  14  105.77    5.94
 -10   3  11   40.00    1.83
  -3  -7 -11   32.89    4.66
   7 -10  11   36.60    3.26
   3   7  11   39.01    3.26
  -7  10 -11   39.10    2.56
   3   7  11   38.12    3.88
 -10   3   8   14.06    1.01
   3   7   8   13.20    2.35
   7 -10   8   17.17    2.46
  -3  -7  -8    9.78    3.86
  -7  10  -8   14.27    1.65
   3   7   8   14.33    2.39
  -3  -7  -5   13.17    3.67
 -10   3   5   17.14    1.23
   3   7   5   18.19    2.42
   7 -10   5   16.18    2.36
  -7  10  -5   15.14    1.78
   3   7   5   16.55    2.22
   3   7   2   69.34    4.63
   7 -10   2   79.99    5.03
 -10   3   2   81.88    3.78
  -7  10  -2   80.99    4.25
   3   7   2   76.18    4.42
   7 -10  -1  419.18   17.42
 -10   3  -1  377.40   16.03
  -7  10   1  394.35   16.47
 -10   3  -4  439.84   18.15
   3   7  -4  433.79   18.97
  10  -3   4  441.63   18.71
   7 -10  -7  577.10   24.02
 -10   3  -7  549.44   23.06
   3   7  -7  556.20   23.90
  10  -3   7  614.39   24.03
  -7  10   7  541.74   23.21
 -10   3 -10 2173.75   90.42
   7 -10 -10 2360.42   91.29
   3   7 -10 2211.84   91.09
  -7  10  10 2201.04   90.51
 -10   3 -13  317.07   14.21
   7 -10 -13  343.81   14.94
   3   7 -13  312.06   14.73
 -10   3 -16   77.22    4.35
   7 -10 -16   84.24    5.10
   3   7 -16   69.89    4.67
   3   7 -16   71.62    3.71
   3   7 -19  112.80    6.42
   3   7 -19  117.50    5.57
  10  -3  19  118.24    6.47
 -10   3 -19  128.48    6.28
   3   7 -22   84.06    4.25
   3   7 -22   83.90    4.95
   7 -10 -22   95.62    5.66
   7 -10 -25    7.18    2.53
 -10   3 -28   20.46    3.02
   7 -10 -28   24.33    3.62
 -10   3 -31   -1.64    2.52
  -8  10 -33    7.79    2.76
  -8  10 -30    6.14    2.43
  -8  10 -27   -0.80    2.21
  -2  -8 -24   11.49    4.87
  -8  10 -24   11.05    2.07
   2   8  21   91.82    5.05
  -2  -8 -21   94.25    7.59
  -8  10 -21   79.37    4.96
  -2  -8 -18   59.39    6.07
   2   8  18   54.95    3.86
  -8  10 -18   53.11    3.90
   8 -10  18   60.38    4.23
  -2  -8 -15   93.10    6.79
   2   8  15   92.64    5.10
  -8  10 -15   90.16    5.11
   8 -10  15   82.21    5.29
   2   8  12    9.60    2.47
   2   8  12   -0.21    2.82
   8 -10  12   -0.09    2.30
  -8  10 -12    0.97    1.65
  -2  -8 -12   -0.14    3.41
  -2  -8  -9  262.51   13.06
   8 -10   9  256.42   11.91
   2   8   9  270.79   11.90
   2   8   9  255.55   11.33
 -10   2   9  237.31   10.00
  -2  -8  -6    8.64    3.21
   2   8   6    6.42    2.08
   8 -10   6    9.75    2.52
   2   8   6   11.17    2.35
 -10   2   6    8.44    0.99
 -10   2   3   38.03    2.22
   8 -10   3   40.34    3.71
  -2  -8  -3   37.95    5.00
  -8  10  -3   38.77    2.60
   2   8   3   38.41    3.26
 -10   2   0    1.07    0.91
   8 -10   0    2.55    1.78
  -8  10   0    1.60    1.35
   8 -10  -3  106.31    6.18
 -10   2  -3  108.34    5.28
  10  -2   3  117.91    5.92
   2   8  -3  107.45    6.03
 -10   2  -6   23.01    2.14
   2   8  -6   26.63    2.89
  10  -2   6   29.28    2.98
 -10   2  -9  384.29   17.01
   2   8  -9  396.79   17.67
   8 -10  -9  388.99   17.66
   8 -10 -12   93.08    5.58
   2   8 -12   95.13    5.67
 -10   2 -12   86.81    5.10
   8 -10 -15   43.39    3.66
   2   8 -15   39.59    3.52
 -10   2 -15   42.65    3.13
   2   8 -18   -0.28    2.30
 -10   2 -18    1.77    1.84
   8 -10 -18   -2.30    2.53
   2   8 -18   -0.81    1.30
  -8  10  18    2.69    2.77
  10  -2  18   -3.23    2.88
 -10   2 -21   -1.95    2.26
   2   8 -21    1.74    1.21
   8 -10 -21   -3.38    2.91
   2   8 -21   -3.12    2.50
   8 -10 -24    3.46    2.22
 -10   2 -27    2.31    2.26
   8 -10 -27    3.71    2.64
 -10   2 -30    0.09    2.47
  -9  10 -31    0.57    2.39
  -9  10 -28   20.17    3.02
  -1  -9 -25   17.34    5.03
  -9  10 -25    8.99    2.07
  -9  10 -22    6.60    1.77
  -1  -9 -22   12.96    4.30
   1   9  19   60.73    3.98
  -9  10 -19   53.87    3.69
   9 -10  19   51.94    4.14
  -1  -9 -19   64.12    5.76
   1   9  16  155.52    7.48
  -9  10 -16  145.48    7.43
   9 -10  16  140.63    7.92
  -1  -9 -16  153.60    9.13
  -1  -9 -13   -0.28    3.09
  -9  10 -13    0.07    1.69
   1   9  13   -0.41    2.19
   1   9  10  867.80   37.03
   1   9  10  916.76   36.49
  -1  -9 -10  868.01   37.81
   9 -10  10  863.53   37.44
   9 -10   7  190.77    9.21
   1   9   7  180.87    8.47
   1   9   7  180.53    8.06
  -1  -9  -7  171.83    9.41
   9 -10   4  243.94   11.50
   1   9   4  226.00   10.65
 -10   1   4  228.89    9.75
  -1  -9  -4  220.35   12.24
 -10   1   1   16.66    1.70
  10  -1  -1   17.03    1.93
   9 -10  -2   12.09    2.39
  -1  -9   2   12.61    3.92
   1   9  -2   13.09    2.36
  10  -1   2   15.00    2.20
 -10   1  -2   17.07    1.69
  10  -1   5   32.10    3.11
  -1  -9   5   26.18    4.99
 -10   1  -5   20.09    2.06
   1   9  -5   23.01    2.88
 -10   1  -8    3.33    1.55
   9 -10  -8    1.58    2.13
   1   9  -8    2.17    2.04
  10  -1  11   53.54    4.62
   9 -10 -11   44.78    3.94
   1   9 -11   55.28    4.00
 -10   1 -11   55.68    3.54
   1   9 -14  281.84   12.69
 -10   1 -14  274.52   12.34
   9 -10 -14  267.41   12.73
   9 -10 -17   23.00    2.91
  10  -1  17   25.32    3.20
   1   9 -17   25.57    2.93
   1   9 -17   15.90    2.08
 -10   1 -17   23.50    2.75
   9 -10 -20  249.83   11.55
   1   9 -20  222.58   10.45
   1   9 -20  237.49   11.13
  -9  10  20  247.36   12.79
 -10   1 -20  256.62   11.23
 -10   1 -23   13.24    2.49
   9 -10 -23   13.49    2.99
   1   9 -23   11.75    1.67
   9 -10 -26    4.67    2.69
   9 -10 -29    3.34    3.09
 -10   1 -29    5.85    2.50
 -10  10 -32    1.40    2.61
 -10  10 -29   10.39    2.57
 -10  10 -26   17.22    2.53
   0 -10 -26   26.35    5.22
 -10  10 -23    3.50    1.71
   0 -10 -23    5.33    3.75
 -10  10 -20   41.80    3.22
   0 -10 -20   47.77    5.35
  10 -10  17   82.76    5.58
 -10  10 -17   84.84    4.98
  10 -10  14    3.98    2.72
   0 -10 -14    4.06    3.00
   0  10  11  708.92   29.85
   0 -10 -11  680.26   31.28
  10 -10  11  778.99   31.67
   0  10   8  439.70   19.46
   0 -10  -8  436.53   20.85
   0  10   8  447.60   20.09
   0  10   5  365.79   14.28
   0 -10  -5  385.04   16.04
  10 -10   5  357.22   15.27
  10   0  -2  426.04   17.51
 -10   0   2  389.48   17.16
 -10   0  -1    4.33    1.42
   0  10  -1    2.81    1.95
   0 -10   1    6.05    3.26
  10   0   1    5.52    2.00
  10 -10  -1    2.75    2.27
  10   0   4   62.54    4.33
  10 -10  -4   58.39    4.42
   0  10  -4   53.15    3.99
 -10   0  -4   60.40    3.53
   0 -10   4   56.36    5.84
   0 -10   7  107.66    8.38
   0  10  -7  113.27    6.30
 -10   0  -7  112.13    5.88
 -10   0 -10    1.89    1.75
   0 -10  10    0.85    4.54
   0  10 -10   -0.94    2.17
  10   0  10    6.14    2.92
  10 -10 -10   -0.28    2.30
   0  10 -13  234.25   10.51
  10   0  13  195.43   10.61
  10 -10 -13  227.09   10.78
 -10   0 -13  221.81   10.20
  10   0  16    1.98    2.62
 -10   0 -16    4.97    2.18
  10 -10 -16    4.33    2.21
   0  10 -16   -0.36    2.04
   0  10 -19  304.46   13.32
   0  10 -19  324.43   13.76
 -10   0 -19  316.93   13.85
  10 -10 -19  326.53   14.25
   0  10 -22   88.63    4.85
 -10   0 -22   82.15    5.30
  10 -10 -22   95.13    5.79
 -10   0 -25    2.81    2.17
  10 -10 -25    4.92    2.44
  11 -10 -27    4.83    2.47
  11 -10 -24    7.93    2.56
  -1  11 -24    7.31    1.75
 -10  -1 -24    9.37    2.35
  -1  11 -21    7.77    1.81
  11 -10 -21    6.54    2.46
 -10  -1 -21    7.02    2.23
  11 -10 -18   15.38    2.77
  -1  11 -18   15.71    2.19
  10   1  18   12.88    2.69
  -1  11 -18   13.46    2.65
 -10  -1 -18   12.74    2.53
 -10  -1 -15   41.75    3.54
  -1  11 -15   52.57    3.84
  10   1  15   39.91    3.94
  11 -10 -15   47.33    4.05
  -1  11 -12    5.34    2.34
  10   1  12    4.35    3.00
  11 -10 -12    3.65    2.53
 -10  -1 -12    2.78    2.03
   1 -11  12    1.68    4.55
   1 -11   9  350.99   17.78
  10   1   9  364.31   16.02
  -1  11  -9  334.24   15.17
  11 -10  -9  366.38   15.92
 -10  -1  -9  328.52   14.90
  10   1   6  181.18    8.69
  -1  11  -6  163.84    8.20
 -10  -1  -6  156.70    7.76
   1 -11   6  160.32    9.87
  11 -10  -3    2.26    2.37
   1 -11   3    2.88    3.14
  10   1   3    0.93    2.09
 -10  -1  -3    2.41    1.51
  -1  11  -3    1.68    2.16
  11 -10   0   30.69    3.58
  10   1   0   32.01    2.99
  -1  11   0   29.38    3.10
 -10  -1   0   23.92    2.37
   1 -11   0   30.83    3.98
  10   1  -3  630.92   24.31
  11 -10   3  678.50   25.92
   1 -11  -6  227.24   11.06
  11 -10   6  246.94   10.79
   1 -11  -9  186.89   10.20
 -11  10  -9  169.55    8.53
  11 -10   9  185.68   10.16
   1 -11 -12   96.49    7.02
 -11  10 -12   86.24    5.15
  11 -10  15   -0.55    2.51
   1 -11 -15   -1.47    2.86
 -11  10 -18    5.62    1.76
  11 -10  18    5.58    2.05
   1 -11 -18   10.20    3.23
 -11  10 -21    7.49    1.91
   1 -11 -21   10.11    3.56
 -11  10 -24    0.78    1.87
   1 -11 -24    4.14    3.95
 -11  10 -27    5.31    2.41
 -11  10 -30   -0.10    2.56
  11  -9 -28    0.10    2.36
  11  -9 -25    9.64    2.43
  -2  11 -25    3.88    1.71
  -9  -2 -25    5.53    2.22
  11  -9 -22    2.23    2.24
  -9  -2 -22    1.66    2.12
  -2  11 -22    2.26    1.69
  -2  11 -19   14.22    2.13
  11  -9 -19   10.07    2.59
  -2  11 -19   13.83    2.30
  -9  -2 -19   10.14    2.43
  11  -9 -16    3.51    1.94
  -2  11 -16    2.94    1.97
   9   2  16    3.72    2.33
  -9  -2 -16    2.16    2.02
  11  -9 -13   17.61    2.66
   9   2  13   26.51    3.43
  -9  -2 -13   21.42    2.58
   2 -11  13   23.82    4.33
  -2  11 -13   21.86    2.52
   9   2  10   20.54    3.18
   9   2  10   22.52    3.45
   2 -11  10   25.35    4.21
  -2  11 -10   20.01    2.57
  -9  -2 -10   18.67    2.43
  11  -9 -10   20.06    2.82
   9   2   7   65.84    4.53
  -2  11  -7   66.80    4.07
   2 -11   7   63.31    5.17
   9   2   7   60.13    5.23
  -9  -2  -7   61.48    3.85
   9   2   4    1.58    2.06
   2 -11   4    4.96    2.35
  -2  11  -4    4.45    1.93
  -9  -2  -4    2.92    1.62
  11  -9  -4    4.19    2.03
   9   2   1  195.38    9.04
   2 -11   1  175.39    9.58
  -2  11  -1  182.89    8.98
  11  -9  -1  205.51    9.51
  -9  -2  -1  176.08    8.50
  11  -9   2    7.67    2.56
   9   2  -2    9.72    2.01
   2 -11  -5  320.36   16.24
  -2  11   5  341.77   15.33
   9   2  -5  347.76   14.51
 -11   9  -5  373.71   15.15
  11  -9   5  333.98   15.71
   2 -11  -8    0.89    2.98
  -2  11   8   -0.14    2.10
 -11   9  -8    1.39    1.78
   9   2  -8    4.08    0.73
  11  -9   8    1.50    2.88
 -11   9 -11   95.84    5.42
   2 -11 -11  111.07    7.12
  11  -9  11  116.32    7.20
   2 -11 -14    9.56    3.15
  11  -9  14   15.03    3.27
 -11   9 -14    6.87    1.48
   2 -11 -17   -1.62    2.90
  11  -9  17    3.28    2.15
   2 -11 -20    1.25    2.52
 -11   9 -20    1.14    1.50
 -11   9 -23    5.40    1.82
   2 -11 -23    6.57    3.14
 -11   9 -26    3.64    2.01
   2 -11 -26    6.07    3.51
 -11   9 -29   10.40    2.76
  -3  11 -29   41.63    3.43
  -8  -3 -29   35.82    3.68
  11  -8 -29   39.02    3.86
  -3  11 -26    5.39    1.86
  11  -8 -23   14.01    2.52
  -3  11 -23   13.47    2.19
  -8  -3 -23   13.43    2.53
  11  -8 -20   -0.24    2.07
  -3  11 -20   -0.27    1.65
  -8  -3 -20   -1.19    2.28
   8   3  17   -0.75    2.20
  -3  11 -17    0.22    1.61
   3 -11  17   -2.18    3.66
  -8  -3 -17   -0.77    1.91
  11  -8 -17    0.74    1.94
   3 -11  14   70.76    6.01
  -3  11 -14   75.45    4.15
   8   3  14   73.36    4.82
  11  -8 -14   68.34    4.50
  -8  -3 -14   63.21    4.26
   8   3  11  124.45    7.44
  -3  11 -11  135.39    6.49
   3 -11  11  143.38    8.12
  11  -8 -11  135.08    6.93
   8   3  11  127.93    7.17
  -8  -3 -11  123.11    6.56
   8   3   8   84.14    5.49
   8   3   8   87.45    5.54
  -3  11  -8   87.74    4.77
   3 -11   8   85.65    5.63
  -8  -3  -8   84.39    4.77
   8   3   5   38.45    3.20
   3 -11   5   29.21    3.23
  -3  11  -5   31.74    2.71
   8   3   5   31.97    3.75
  -8  -3  -5   31.77    2.72
   3 -11   2  738.22   33.09
  -3  11  -2  808.87   32.50
   8   3   2  780.50   32.48
  11  -8  -2  818.84   32.92
   8   3  -1 1333.20   54.77
  -3  11   1 1412.61   55.09
  11  -8   1 1395.79   55.42
   3 -11  -1 1298.18   55.73
   8   3  -4    2.37    1.51
 -11   8  -4    0.94    1.58
  11  -8   4    0.65    2.15
  -3  11   7  249.35   10.98
   8   3  -7  244.23   10.15
 -11   8  -7  237.57   10.63
  11  -8   7  214.63   11.14
   3 -11  -7  245.21   12.04
 -11   8 -10   55.50    3.53
  11  -8  10   49.99    4.27
   3 -11 -10   59.27    4.83
  -3  11  10   53.84    3.75
 -11   8 -13   29.28    2.51
   3 -11 -13   31.40    3.80
  11  -8  13   31.99    3.65
  11  -8  16   -0.75    2.62
 -11   8 -16    0.55    1.20
   3 -11 -16    1.70    2.56
  11  -8  19    1.28    1.74
   3 -11 -19   -1.20    2.51
 -11   8 -22    7.88    1.85
   3 -11 -22   12.39    3.08
   3 -11 -25   -0.98    3.25
 -11   8 -25   -0.99    1.88
 -11   8 -28   41.75    3.80
 -11   8 -31   26.66    3.42
  -4  11 -30   53.79    4.08
  -7  -4 -30   54.98    4.51
  -4  11 -27   44.98    3.40
  11  -7 -24    7.58    1.98
  -4  11 -24    5.57    1.82
  -4  11 -21    4.11    1.73
  -7  -4 -21    2.30    2.25
  11  -7 -21    2.09    1.94
   4 -11  18    6.44    3.31
  -4  11 -18    7.63    1.61
   7   4  18    6.24    2.11
  -4  11 -18    6.96    1.83
  -7  -4 -18    1.05    2.40
  11  -7 -18    5.44    1.87
  -4  11 -15   55.74    3.36
   7   4  15   51.53    4.00
  -7  -4 -15   48.58    3.75
  11  -7 -15   46.47    3.62
   4 -11  15   56.23    5.08
   7   4  12  210.54   10.73
  -4  11 -12  215.76    9.40
   7   4  12  205.15    9.97
   4 -11  12  215.06   10.65
  -7  -4 -12  195.74    9.64
   7   4   9  250.55   11.64
  -4  11  -9  243.45   10.63
   4 -11   9  237.03   11.49
   7   4   9  229.10   11.30
  -7  -4  -9  239.79   10.88
  -4  11  -6  103.01    5.17
   7   4   6  103.68    6.05
   4 -11   6   91.65    5.71
   7   4   6   97.78    5.76
  -4  11  -3  534.61   21.80
   7   4   3  518.37   22.69
   4 -11   3  483.97   22.32
   7   4   3  535.52   21.99
  -4  11   0 3100.26  126.85
   7   4   0 3248.53  128.05
 -11   7   0 3448.73  126.63
   4 -11   0 2987.77  127.56
   7   4   0 3077.29  126.74
 -11   7  -3  766.30   30.21
   7   4  -3  718.51   30.08
 -11   7  -6  141.99    6.84
   4 -11  -6  151.78    8.08
   7   4  -6  147.90    6.58
  -4  11   6  151.27    7.27
 -11   7  -9  261.16   12.24
   4 -11  -9  302.90   13.71
  -4  11   9  274.95   12.59
   7   4  -9  300.86   11.82
 -11   7 -12  220.25   10.14
  11  -7  12  215.32   10.77
  -4  11  12  235.94   10.44
   4 -11 -15   70.80    4.93
  11  -7  15   76.51    4.75
  11  -7  18    3.14    2.15
   4 -11 -18    3.06    2.49
   4 -11 -21   -1.02    2.56
 -11   7 -24    7.11    1.93
   4 -11 -24    6.69    2.81
 -11   7 -27   27.03    3.05
   4 -11 -27   34.23    4.31
 -11   7 -30   64.92    4.75
  -5  11 -31   12.78    2.88
  11  -6 -28   18.99    2.67
  -5  11 -28   20.40    2.62
  -5  11 -25    1.70    1.79
  11  -6 -25    3.99    1.95
  -5  11 -22    3.44    1.87
  11  -6 -22   -1.53    1.81
   5 -11  19   78.59    6.06
  -5  11 -19   85.77    4.32
  -5  11 -19   87.76    4.94
   6   5  19   76.77    4.74
  -6  -5 -19   74.11    5.02
  -6  -5 -16    2.95    1.98
   5 -11  16    5.20    2.82
  -5  11 -16    4.95    1.44
   6   5  16    3.24    2.23
  -5  11 -16   -0.85    2.01
 -11   6  16    3.48    1.53
   5 -11  13  161.61    8.62
   6   5  13  165.30    8.21
  -5  11 -13  160.17    7.46
   6   5  10   83.46    5.23
  -5  11 -10   91.59    4.66
   6   5  10   92.58    5.74
   5 -11  10   89.17    5.46
   6   5   7   26.90    3.00
   5 -11   7   24.27    2.76
   6   5   7   27.96    2.98
  -5  11  -7   27.83    2.33
 -11   6   4  115.53    5.12
   5 -11   4  101.43    6.06
   6   5   4  102.68    6.29
   6   5   4  110.55    5.86
  -5  11  -4  107.55    5.53
 -11   6   1 1327.85   49.15
   5 -11   1 1132.81   50.11
   6   5   1 1207.90   49.49
   6   5   1 1193.29   50.27
  -5  11  -1 1185.93   49.43
 -11   6  -2  552.82   21.87
   5 -11  -2  502.73   22.85
   6   5  -2  526.33   21.95
  -5  11   2  531.30   22.22
 -11   6  -5   32.71    2.34
   6   5  -5   36.11    4.22
   6   5  -5   35.38    2.37
   5 -11  -8   10.18    2.73
  -5  11   8   10.73    2.05
 -11   6  -8   10.39    1.60
   6   5  -8    8.50    3.58
   6   5  -8   11.52    1.37
   5 -11 -11    5.07    2.56
  -5  11  11    1.79    1.79
 -11   6 -11    2.38    1.33
   6   5 -11    4.10    1.00
   6   5 -14  134.57    7.90
   6   5 -14  104.92    4.89
   5 -11 -14  130.33    6.98
 -11   6 -14  106.67    5.67
   6   5 -14  130.41    5.06
   5 -11 -17    2.86    2.03
   6   5 -17    1.87    0.50
 -11   6 -17    1.18    1.48
   6   5 -17    1.17    3.32
  11  -6  17    2.36    1.62
  11  -6  20   -0.53    1.48
   5 -11 -20   -0.80    2.00
   5 -11 -23    2.57    2.47
 -11   6 -26    4.01    2.08
 -11   6 -29   26.71    3.28
  -6  11 -32    1.21    2.27
  -6  11 -29    4.25    2.36
  11  -5 -29    1.91    2.12
  -6  11 -26   11.74    2.24
  11  -5 -26   12.26    2.16
  -6  11 -23    3.33    1.82
   6 -11  20  284.30   14.29
  -6  11 -20  303.53   13.43
   5   6  20  304.70   13.33
   6 -11  17   64.56    4.76
  -6  11 -17   56.10    3.99
   5   6  17   55.19    3.96
  -6  11 -17   58.34    3.29
   6 -11  14  136.20    7.43
   5   6  14  126.58    6.92
  -6  11 -14  133.57    6.29
  -6  11 -11   71.78    3.94
   6 -11  11   67.77    4.85
   5   6  11   78.31    5.36
   5   6  11   71.11    4.66
   5   6   8   12.80    2.53
  -6  11  -8   12.95    1.69
   5   6   8   10.93    2.33
   6 -11   8   10.76    2.22
 -11   5   8   11.60    1.13
   5   6   5   21.79    2.54
  -6  11  -5   17.07    1.90
   6 -11   5   17.14    2.37
 -11   5   5   19.23    1.42
   5   6   5   14.58    2.50
 -11   5   2   57.69    2.87
   6 -11   2   53.65    3.97
   5   6   2   53.03    3.50
  -6  11  -2   47.52    3.28
 -11   5  -1   40.52    2.45
   6 -11  -1   42.53    3.89
   5   6  -1   36.66    2.81
  -6  11   1   40.30    3.03
 -11   5  -4  272.77   11.82
   5   6  -4  276.47   11.90
   5   6  -4  306.88   13.28
  -6  11   7   56.81    3.66
 -11   5  -7   53.31    3.34
   6 -11  -7   74.35    4.76
   5   6  -7   64.47    3.35
   5   6  -7   71.06    5.11
 -11   5 -10  811.78   34.58
   6 -11 -10  906.19   35.78
  -6  11  10  824.29   34.72
   5   6 -10  961.41   36.17
 -11   5 -13   33.73    2.67
   6 -11 -13   27.87    3.22
   5   6 -13   28.11    3.95
 -11   5 -16   30.72    2.58
   6 -11 -16   39.42    3.54
   5   6 -16   29.94    1.84
   5   6 -16   37.80    3.92
 -11   5 -19   28.65    2.61
   6 -11 -19   37.02    3.57
   5   6 -19   30.11    3.40
   6 -11 -22   14.68    2.91
   6 -11 -25    1.17    2.18
 -11   5 -25    0.46    1.94
 -11   5 -28   13.66    2.68
   6 -11 -28   12.22    3.36
 -11   5 -31    1.83    2.44
  -7  11 -33    4.15    2.40
  -7  11 -30   24.18    2.90
  -7  11 -27   24.93    2.94
  11  -4 -27   24.13    2.79
  -7  11 -24    0.07    1.80
   4   7  21  294.53   13.66
  -7  11 -21  336.00   14.10
   7 -11  18  323.25   14.36
   4   7  18  312.46   13.60
  -7  11 -18  298.98   13.66
  -7  11 -18  296.87   12.89
 -11   4  15   68.59    2.77
  -7  11 -15   67.20    4.24
   4   7  15   75.05    4.45
  -7  11 -15   70.52    3.56
   7 -11  15   68.44    4.80
 -11   4  12  187.74    7.77
   7 -11  12  184.08    9.47
   4   7  12  192.95    9.18
  -7  11 -12  192.41    8.51
  -7  11  -9    8.22    1.58
   4   7   9   10.01    2.61
   7 -11   9    7.09    2.17
 -11   4   9    9.47    0.94
   4   7   9    9.09    2.47
 -11   4   6   39.81    2.11
   7 -11   6   38.84    3.55
  -7  11  -6   38.60    2.65
   4   7   6   35.34    3.24
   4   7   6   33.63    3.30
  -7  11  -3    0.78    1.35
   7 -11   3    1.22    1.93
   4   7   3   -1.57    2.38
 -11   4   3    0.93    0.74
   4   7   3    1.60    1.72
 -11   4   0  201.11    8.64
  -7  11   0  205.94    9.15
   4   7   0  182.95    9.01
 -11   4  -3  829.85   33.07
   7 -11  -3  837.71   34.33
   4   7  -3  760.57   33.92
  -7  11   3  831.67   33.43
 -11   4  -6    2.05    1.33
   4   7  -6    1.00    2.53
 -11   4  -9 1583.60   64.09
   7 -11  -9 1673.05   65.13
   4   7  -9 1635.11   65.22
  11  -4   9 1693.35   65.11
  -7  11   9 1515.71   64.17
 -11   4 -12  590.59   25.97
   7 -11 -12  654.63   26.92
  11  -4  12  665.82   27.18
   4   7 -12  651.23   27.09
   4   7 -15   11.41    2.97
 -11   4 -15   10.95    1.83
   7 -11 -15   10.90    2.47
 -11   4 -18   88.33    4.83
   7 -11 -18   94.59    5.85
   4   7 -18   83.81    4.11
   4   7 -18   79.48    5.25
   7 -11 -21   70.07    4.68
 -11   4 -21   60.82    3.95
   7 -11 -24    0.43    2.07
   7 -11 -27   26.05    3.78
 -11   4 -27   18.06    2.83
 -11   4 -30    0.09    2.49
  -8  11 -31    4.92    2.54
  -8  11 -28    1.33    2.09
  -8  11 -25   -0.07    1.81
  -8  11 -22   97.07    5.51
   8 -11  19  198.86    9.86
   3   8  19  185.59    9.07
  -8  11 -19  191.42    9.26
  -3  -8 -19  201.95   12.55
   8 -11  16   22.83    3.13
  -8  11 -16   16.50    2.54
   3   8  16   20.63    2.76
  -3  -8 -16   15.27    4.87
  -3  -8 -13  268.02   14.68
   3   8  13  282.64   12.74
  -8  11 -13  292.12   12.61
   8 -11  13  265.14   13.08
 -11   3  10    2.52    0.72
   3   8  10    1.19    2.21
  -8  11 -10    3.29    1.50
  -3  -8 -10   -2.92    4.47
   8 -11  10    2.63    2.44
   3   8  10    5.28    2.84
 -11   3   7   21.73    1.47
  -3  -8  -7   15.71    4.53
   3   8   7   22.49    2.87
  -8  11  -7   22.51    2.12
   8 -11   7   21.93    3.19
   3   8   7   23.96    2.95
 -11   3   4   14.44    1.33
   3   8   4   15.01    2.41
   3   8   4   13.11    2.44
  -3  -8  -4    8.41    4.30
  -8  11  -4   14.85    1.83
 -11   3   1   41.77    2.49
   8 -11   1   46.94    4.04
  -8  11  -1   39.60    2.91
   3   8   1   39.58    3.12
   3   8  -2  108.61    6.26
 -11   3  -2  114.44    5.35
   8 -11  -2  117.25    6.64
  -8  11   2  106.33    5.65
 -11   3  -5   51.87    3.13
   3   8  -5   43.39    3.87
  11  -3   5   49.83    3.76
 -11   3  -8  391.52   17.02
   8 -11  -8  425.82   18.06
   3   8  -8  387.70   17.75
  -8  11   8  386.81   17.07
 -11   3 -11  445.01   20.07
   8 -11 -11  489.48   21.01
   3   8 -11  437.65   20.61
 -11   3 -14    6.03    1.77
   3   8 -14    3.67    2.49
   8 -11 -14    1.96    2.20
   3   8 -17   50.06    3.89
   8 -11 -17   57.59    4.44
   3   8 -17   51.22    2.99
 -11   3 -17   56.27    3.63
   3   8 -20   30.14    3.02
   3   8 -20   30.99    2.20
   8 -11 -20   28.11    3.52
 -11   3 -20   35.33    2.98
 -11   3 -23    5.14    2.12
   8 -11 -23    3.60    2.44
   8 -11 -26   21.19    3.17
 -11   3 -29   15.90    2.96
   8 -11 -29   20.52    3.92
  -9  11 -32    0.77    2.41
  -9  11 -29   11.37    2.46
  -9  11 -26   14.14    2.38
  -2  -9 -23    4.15    4.80
  -9  11 -23    6.25    1.99
  -2  -9 -20    7.19    4.31
  -9  11 -20    8.20    2.00
   9 -11  20   11.50    2.52
  -2  -9 -17   26.76    4.89
   9 -11  17   23.81    3.20
  -9  11 -17   20.93    2.60
  -2  -9 -14  240.40   13.46
   9 -11  14  246.94   12.44
  -9  11 -14  256.82   11.56
   2   9  11    3.21    2.32
  -2  -9 -11    2.68    3.68
   9 -11  11    2.75    2.52
  -2  -9  -8   15.47    4.41
   2   9   8   12.05    2.72
 -11   2   8   24.38    1.56
   9 -11   8   14.21    3.20
 -11   2   5    3.06    1.05
   2   9   5    2.46    2.20
  -2  -9  -5    0.54    4.06
   9 -11   5    1.41    2.60
   2   9   5    6.81    2.25
   2   9   2  217.89   11.05
 -11   2   2  235.65   10.11
   9 -11  -1  426.80   18.28
   2   9  -1  383.35   17.57
  11  -2   1  398.74   17.16
  -2  -9   1  420.90   21.00
 -11   2  -1  398.70   16.71
   9 -11  -4   19.69    2.79
  11  -2   4   23.47    2.89
   2   9  -4   21.03    2.92
 -11   2  -4   19.43    2.07
 -11   2  -7   -1.09    1.61
   2   9  -7   -0.24    2.31
  11  -2   7    1.19    2.35
 -11   2 -10   -0.85    1.76
   9 -11 -10    0.27    2.16
  11  -2  10   -0.11    2.84
   2   9 -10    0.24    2.50
   9 -11 -13  175.60    8.78
   2   9 -13  156.12    8.53
 -11   2 -13  169.75    8.03
   9 -11 -16   73.82    5.15
   2   9 -16   69.40    4.82
 -11   2 -16   70.72    4.31
 -11   2 -19    2.08    1.99
   9 -11 -19    0.49    2.52
   2   9 -19    2.84    1.37
   2   9 -19    0.44    2.19
 -11   2 -22    0.30    2.03
   2   9 -22    0.78    1.24
   9 -11 -22   -1.26    2.45
   9 -11 -25   -1.01    2.79
   9 -11 -28   42.49    4.63
 -10  11 -30   10.74    2.83
 -10  11 -27   40.10    3.58
  -1 -10 -24    3.26    4.67
 -10  11 -24    1.15    1.84
 -10  11 -21    2.19    1.78
  -1 -10 -21   -1.42    4.22
  10 -11  18   14.66    2.59
  -1 -10 -18   17.68    4.25
 -10  11 -18   18.15    2.56
  10 -11  15  115.67    7.39
 -10  11 -15  126.27    6.60
  -1 -10 -15  124.95    8.46
  -1 -10 -12    1.98    3.55
  10 -11  12    2.27    2.68
  10 -11   9   52.74    5.02
  -1 -10  -9   48.71    5.53
  10 -11   6   56.11    4.81
   1  10   6   50.60    3.91
   1  10   6   56.04    4.44
  -1 -10  -6   50.30    5.57
 -11   1   3    1.14    1.35
   1  10   3   -0.91    2.60
  10 -11   3    1.32    2.80
  -1 -10   0  493.26   24.85
  11  -1   0  522.96   22.09
 -11   1   0  517.55   21.62
  10 -11   0  573.72   23.40
  -1 -10   3  243.49   14.03
  11  -1   3  267.51   11.53
   1  10  -3  217.79   11.10
 -11   1  -3  228.99   10.47
  10 -11  -3  250.75   11.77
 -11   1  -6    3.06    1.72
  -1 -10   6    4.31    4.72
   1  10  -6    3.88    2.36
  11  -1   6    4.86    2.65
 -11   1  -9   18.81    2.44
  10 -11  -9   22.69    3.07
   1  10  -9   15.19    2.95
  10 -11 -12  230.76   11.37
   1  10 -12  232.08   11.15
 -11   1 -12  235.38   10.70
   1  10 -15  137.26    7.34
 -11   1 -15  137.10    7.00
  10 -11 -15  135.76    7.66
   1  10 -18   37.42    3.03
   1  10 -18   46.50    3.73
 -11   1 -18   44.67    3.57
  10 -11 -18   51.92    4.15
  10 -11 -21   37.62    3.74
   1  10 -21   32.94    2.61
 -11   1 -21   36.07    3.30
 -11   1 -24   -0.57    2.21
  10 -11 -24    0.55    2.36
  10 -11 -27    0.36    2.81
 -11  11 -28    6.62    2.53
 -11  11 -25   -1.06    2.16
   0 -11 -25   -1.37    4.76
   0 -11 -22    6.61    4.21
 -11  11 -22    2.57    1.88
   0 -11 -19   25.16    4.70
 -11  11 -19   28.01    2.81
  11 -11  19   24.99    3.36
   0 -11 -16   12.24    3.77
  11 -11  16   10.01    2.78
   0 -11 -13   12.95    4.13
  11 -11  13   11.36    3.15
   0 -11 -10   37.69    5.51
  11 -11  10   34.62    4.46
 -11  11 -10   32.92    3.01
   0 -11  -7   29.87    4.75
  11 -11   7   28.71    4.33
   0 -11  -4  222.34   12.04
  11 -11   4  260.95   11.29
  11 -11   1    1.94    2.73
  11   0  -1    3.09    1.85
 -11   0   1    2.89    1.49
  11   0   2   64.95    4.53
 -11   0  -2   55.16    3.50
  11 -11  -2   50.35    4.58
   0 -11   2   63.37    6.43
 -11   0  -5   18.19    2.23
  11 -11  -5   21.60    3.26
   0 -11   5   21.18    4.94
  11   0   5   23.73    3.40
  11   0   8  123.77    7.22
   0 -11   8  100.60    9.15
 -11   0  -8  107.65    5.79
 -11   0 -11   20.88    2.70
  11 -11 -11   22.87    3.25
  11   0  14   74.97    5.14
 -11   0 -14   76.81    4.79
  11 -11 -14   85.11    5.52
 -11   0 -17    1.48    2.08
  11 -11 -17    2.34    2.31
  11   0  17    2.23    2.34
  11 -11 -20   24.21    3.41
 -11   0 -20   21.41    2.83
   0  11 -20   19.41    2.34
  11 -11 -23    1.57    2.38
   0  11 -23    1.33    1.61
 -11   0 -23    0.98    2.10
  11 -11 -26   -0.23    2.69
 -11   0 -26    0.43    2.15
  12 -11 -28   -0.83    2.89
 -11  -1 -28   -2.34    2.39
  12 -11 -25    0.44    2.45
 -11  -1 -25    4.12    2.20
  12 -11 -22   23.65    3.26
  -1  12 -22   23.27    2.53
 -11  -1 -22   22.21    2.93
  12 -11 -19   24.05    3.16
  -1  12 -19   19.73    2.30
 -11  -1 -19   21.57    2.86
  11   1  16   25.66    3.27
 -11  -1 -16   35.71    3.23
  12 -11 -16   35.36    3.53
  11   1  13   30.42    3.74
 -11  -1 -13   28.50    3.16
  12 -11 -13   35.13    3.82
   1 -12  10  709.74   33.20
  12 -11 -10  755.80   30.92
 -11  -1 -10  700.76   29.77
   1 -12   7  238.26   13.45
 -11  -1  -7  213.01   10.41
  12 -11  -4   24.39    3.79
  11   1   4   31.52    3.63
   1 -12   4   29.81    4.69
 -11  -1  -4   28.76    2.57
  12 -11  -1   33.26    4.34
   1 -12   1   36.33    5.03
 -11  -1  -1   35.43    2.84
  11   1  -2   80.49    4.27
  12 -11   2   77.49    5.78
   1 -12  -5  159.25    9.32
  12 -11   5  166.68    8.66
 -12  11  -8    1.17    1.65
   1 -12  -8    2.16    3.32
  12 -11   8    3.05    3.06
  12 -11  11   -0.85    2.89
 -12  11 -11    6.25    1.84
   1 -12 -11    1.53    3.30
  12 -11  14   24.11    3.92
 -12  11 -14   14.23    2.29
   1 -12 -14   16.66    3.89
  12 -11  17   65.23    5.42
   1 -12 -17   76.81    6.56
 -12  11 -20  174.49    8.88
   1 -12 -20  208.86   11.66
   1 -12 -23   13.81    4.79
 -12  11 -23    9.33    2.28
   1 -12 -26    3.89    4.96
 -12  11 -26    0.51    2.22
  12 -10 -29    3.30    2.83
  12 -10 -26    2.24    2.42
  -2  12 -26    0.49    1.71
 -10  -2 -26    2.29    2.06
  -2  12 -23   41.01    3.30
 -10  -2 -23   41.71    3.61
  12 -10 -23   50.13    3.98
  -2  12 -20   39.88    3.00
 -10  -2 -20   29.73    3.23
  12 -10 -20   30.15    3.40
  12 -10 -17   18.85    2.97
  10   2  17   17.29    2.78
  -2  12 -17   15.70    2.62
 -10  -2 -17   19.65    2.64
  12 -10 -14    5.90    2.42
  -2  12 -14    6.87    2.32
   2 -12  14    5.25    4.42
  10   2  14    4.63    2.66
 -10  -2 -14    6.90    2.29
   2 -12  11  340.51   16.75
  10   2  11  305.97   14.60
  -2  12 -11  321.12   14.07
  12 -10 -11  301.14   14.49
 -10  -2 -11  317.11   13.96
  10   2   8  419.56   18.23
  -2  12  -8  402.55   17.36
  10   2   8  395.35   18.33
   2 -12   8  400.56   19.29
 -10  -2  -8  390.70   17.13
   2 -12   5    0.43    3.04
  10   2   5   -0.70    2.52
 -10  -2  -5    1.36    1.67
  12 -10  -5   -1.31    2.36
  12 -10  -2    4.07    2.35
  10   2   2    2.84    2.75
 -10  -2  -2    1.40    1.90
   2 -12   2    5.31    2.92
  12 -10   1    4.69    2.55
  10   2  -1    6.29    1.96
   2 -12  -1    4.19    3.22
  10   2  -4  281.01   12.60
 -12  10  -4  321.65   13.19
  12 -10   4  283.72   13.97
   2 -12  -7  109.12    7.06
 -12  10  -7  116.43    5.61
  12 -10   7  116.19    6.89
  12 -10  10   -1.45    2.95
   2 -12 -10    1.21    3.24
 -12  10 -10    2.33    1.58
  12 -10  13    1.79    2.68
   2 -12 -13    1.69    2.87
 -12  10 -13    2.27    1.63
   2 -12 -16   32.47    4.29
  12 -10  16   21.99    3.55
   2 -12 -19  165.82    9.84
 -12  10 -22   24.35    2.76
   2 -12 -22   33.55    4.58
 -12  10 -25   -0.65    2.02
   2 -12 -25    0.72    3.66
 -12  10 -28   -2.34    2.45
  -3  12 -27    6.69    1.96
  -3  12 -24   33.92    3.13
  12  -9 -24   34.93    3.47
  -9  -3 -24   33.08    3.34
  -3  12 -21   27.54    2.80
  -9  -3 -21   25.63    2.97
  12  -9 -18    0.52    1.99
   9   3  18    3.37    2.27
  -3  12 -18    1.62    1.91
  -3  12 -18    3.46    1.72
  -9  -3 -18    1.78    2.01
  -3  12 -15   15.23    2.23
   3 -12  15   21.03    4.29
   9   3  15   14.00    2.75
  -9  -3 -15   15.97    2.54
  12  -9 -15   14.56    2.55
  -9  -3 -12    3.72    2.01
   9   3  12    3.18    2.70
   3 -12  12    7.95    3.55
  -3  12 -12    4.75    2.01
  12  -9 -12    4.67    2.16
   3 -12   9    4.43    3.22
   9   3   9    1.99    2.63
  -3  12  -9    3.93    2.03
  -9  -3  -9   11.38    2.25
  12  -9  -9    4.02    2.38
   9   3   9    6.19    3.03
   9   3   6   31.74    4.07
  -3  12  -6   30.55    2.88
   9   3   6   30.28    3.35
   3 -12   6   32.61    3.71
  -9  -3  -6   33.90    2.83
   9   3   3   43.79    3.51
  -3  12  -3   33.87    3.21
   3 -12   3   34.04    3.77
   9   3   3   34.81    4.92
  12  -9  -3   37.54    3.45
   3 -12   0  584.10   26.92
   9   3   0  649.58   26.03
  -3  12   0  622.57   26.04
  12  -9   0  615.35   26.49
   9   3  -3    9.64    2.01
 -12   9  -3   10.19    2.01
  12  -9   3    9.10    2.48
   9   3  -6  295.62   12.83
 -12   9  -6  330.66   13.55
  12  -9   6  301.40   14.28
   3 -12  -6  299.66   14.80
 -12   9  -9   95.39    4.72
  12  -9   9   84.10    5.60
   3 -12  -9   97.58    6.39
  12  -9  12    9.14    2.86
 -12   9 -12    4.92    1.56
   3 -12 -12    7.28    2.97
  12  -9  15   17.05    3.29
 -12   9 -15   10.54    1.73
   3 -12 -15   10.66    3.03
   3 -12 -18   37.93    4.36
  12  -9  18   33.83    3.79
   3 -12 -21    0.58    2.88
   3 -12 -24   12.63    3.71
 -12   9 -24    8.29    2.26
 -12   9 -27    5.08    2.44
   3 -12 -27    8.23    3.89
  -4  12 -28   32.48    2.98
  12  -8 -28   36.82    3.59
  12  -8 -25    6.94    2.38
  -4  12 -25    6.71    1.98
  -8  -4 -25   11.96    2.65
  12  -8 -22   28.06    3.05
  -4  12 -22   34.65    2.97
  -8  -4 -22   28.89    3.09
  -4  12 -19   11.89    2.06
  -8  -4 -19    9.10    2.36
  12  -8 -19   10.91    2.28
  -4  12 -16   67.48    3.92
   8   4  16   64.24    4.50
   4 -12  16   74.46    6.36
  12  -8 -16   59.92    4.24
  -8  -4 -16   57.76    4.11
   4 -12  13   12.45    3.53
  -4  12 -13   12.07    1.95
   8   4  13    9.94    2.70
  12  -8 -13   10.76    2.24
  -8  -4 -13   10.65    2.20
   8   4  10  120.94    7.16
  -4  12 -10  122.78    6.02
   4 -12  10  117.82    7.17
   8   4  10  119.15    6.83
  12  -8 -10  114.93    6.45
  -8  -4 -10  116.30    6.24
   8   4   7  302.42   13.41
  -4  12  -7  294.76   12.67
   4 -12   7  271.76   13.48
   8   4   7  274.28   13.46
   4 -12   4   11.12    2.66
   8   4   4   13.45    2.47
   8   4   4    9.99    3.19
  -4  12  -4   12.96    2.23
   8   4   1 1774.23   71.87
  -4  12  -1 1750.77   71.88
   8   4   1 1745.39   73.15
   4 -12   1 1550.57   72.51
   8   4  -2 1255.27   51.43
  -4  12   2 1213.60   51.62
   4 -12  -2 1196.71   52.62
   8   4  -5   63.19    3.70
 -12   8  -5   68.22    3.85
   8   4  -8  311.63   12.93
 -12   8  -8  315.13   13.54
  12  -8   8  291.30   14.21
   4 -12  -8  324.64   15.04
 -12   8 -11   99.66    5.10
  12  -8  11   87.19    5.77
   4 -12 -11  107.18    6.65
 -12   8 -14    2.03    1.29
   4 -12 -14    1.25    2.41
  12  -8  14   -0.46    2.05
  12  -8  17   18.32    3.19
 -12   8 -17   12.47    1.89
   4 -12 -17   15.96    3.24
   4 -12 -20   -0.78    2.88
   4 -12 -23   46.66    4.72
 -12   8 -26    1.06    2.06
   4 -12 -26   -0.15    3.12
 -12   8 -29   56.55    4.54
  -5  12 -29   29.94    3.09
  -5  12 -26   -1.19    2.11
  12  -7 -26    1.38    2.06
  -5  12 -23   35.65    3.16
  12  -7 -23   34.89    3.19
  -7  -5 -23   34.66    3.44
   5 -12  20    4.67    3.70
  -7  -5 -20    1.04    2.12
  -5  12 -20    2.69    1.82
  12  -7 -20    2.87    1.85
  -5  12 -17   46.78    3.67
  12  -7 -17   43.86    3.60
   5 -12  17   66.59    5.69
  -7  -5 -17   45.81    3.79
   7   5  17   56.27    4.10
  -5  12 -17   57.92    3.35
   7   5  14   10.70    2.63
  -5  12 -14   12.24    1.73
   5 -12  14   14.30    3.35
   5 -12  11   67.35    5.01
   7   5  11   63.69    4.49
  -5  12 -11   66.67    3.90
   7   5   8  172.01    9.12
  -5  12  -8  183.00    8.45
   5 -12   8  184.16    9.49
   7   5   8  200.60    9.44
   7   5   5   16.00    2.59
   7   5   5   10.12    2.78
  -5  12  -5   10.44    1.98
 -12   7   5   12.16    1.45
   5 -12   5   10.57    2.45
 -12   7   2 1009.34   38.10
   5 -12   2  872.77   39.19
   7   5   2  917.49   39.22
   7   5   2  950.39   38.50
  -5  12  -2  906.23   38.31
 -12   7  -1 1608.71   61.59
   5 -12  -1 1439.75   62.77
   7   5  -1 1554.67   61.76
  -5  12   1 1488.80   61.86
   7   5  -4    6.28    1.75
 -12   7  -4    7.04    1.68
   7   5  -4    7.00    3.61
 -12   7  -7  241.72   11.23
   5 -12  -7  266.19   12.69
   7   5  -7  262.94   11.04
   5 -12 -10  108.45    6.71
   7   5 -10  119.38    5.01
 -12   7 -13   24.31    2.15
   5 -12 -13   27.07    3.39
  12  -7  13   26.19    2.92
   7   5 -13   27.99    1.55
   5 -12 -16   10.39    2.64
 -12   7 -16    4.84    1.46
  12  -7  16    9.21    2.17
  12  -7  19   16.02    2.62
 -12   7 -19   14.28    2.05
   5 -12 -19   17.18    3.17
   5 -12 -22   11.88    3.00
 -12   7 -25    3.74    2.15
   5 -12 -25    1.48    2.97
 -12   7 -28   27.66    3.21
  -6  12 -33    2.86    2.09
  -6  12 -30    3.13    2.13
  -6  12 -27    2.87    2.04
  12  -6 -27    0.40    1.88
  -6  12 -24   20.49    2.46
  12  -6 -24   17.05    2.44
  -6  12 -21    1.93    1.87
  -6  12 -18   38.31    3.40
   6   6  18   41.11    3.63
  -6  12 -18   45.03    3.03
  -6  12 -15   16.13    1.91
   6   6  15   15.53    2.87
   6 -12  15   15.41    3.07
   6 -12  12    7.86    2.69
  -6  12 -12    5.12    1.57
   6   6  12    3.20    2.39
   6   6   9   10.45    3.04
  -6  12  -9   10.42    1.92
 -12   6   9   11.01    1.32
   6 -12   9   10.50    2.67
   6   6   6    3.22    2.28
  -6  12  -6    2.84    1.49
   6 -12   6    4.66    2.18
 -12   6   6    4.83    1.08
   6   6   6    1.46    2.21
 -12   6   3  102.83    4.78
   6   6   3   94.35    6.07
   6 -12   3   99.53    6.14
   6   6   3  103.48    5.69
  -6  12  -3   99.51    5.26
 -12   6   0  165.53    7.25
   6 -12   0  155.56    8.58
   6   6   0  159.98    7.67
   6   6   0  159.05    8.50
  -6  12   0  155.17    7.67
 -12   6  -3   41.81    2.75
   6 -12  -3   42.15    4.09
  -6  12   3   44.36    3.25
   6   6  -3   36.31    4.34
   6   6  -3   45.34    3.04
   6   6  -6  188.11    8.12
 -12   6  -6  169.05    8.04
  -6  12   6  179.89    8.63
   6 -12  -9    5.27    2.63
 -12   6  -9    0.99    1.48
   6   6  -9    5.38    3.46
   6   6  -9    3.17    1.30
   6 -12 -12    1.01    2.29
 -12   6 -12    0.41    1.34
   6   6 -12    1.55    1.18
   6 -12 -15    2.09    2.20
 -12   6 -15   -1.59    1.50
   6   6 -15    0.42    0.67
 -12   6 -18   27.85    2.55
   6 -12 -18   36.24    3.69
  12  -6  18   32.60    3.28
 -12   6 -21    6.90    1.92
   6 -12 -24    3.75    2.79
 -12   6 -27    1.66    2.05
   6 -12 -27    1.20    3.11
 -12   6 -30    2.98    2.45
  -7  12 -31    1.09    2.21
  -7  12 -28    3.39    2.12
  12  -5 -28    0.96    2.03
  -7  12 -25   11.37    2.32
  -7  12 -22    0.81    2.01
  -7  12 -19   69.00    4.61
   5   7  16    9.23    2.44
   7 -12  16   13.15    3.10
  -7  12 -16    4.10    2.26
  -7  12 -16   10.63    1.77
  -7  12 -13    8.67    1.67
   5   7  13    4.30    2.49
 -12   5  13    8.39    1.00
   7 -12  13    7.98    2.68
  -7  12 -10  124.43    6.28
 -12   5  10  135.20    5.73
   7 -12  10  131.08    7.44
   5   7  10  126.47    7.01
   5   7   7  180.60    9.33
 -12   5   7  190.75    8.13
   7 -12   7  186.21    9.70
  -7  12  -7  193.73    8.82
   5   7   7  201.98    9.57
   7 -12   4   19.87    2.97
 -12   5   4   21.25    1.61
   5   7   4   13.20    2.80
  -7  12  -4   23.86    2.30
   5   7   4   19.11    2.61
 -12   5   1   12.11    1.39
  -7  12  -1   15.79    2.17
   5   7   1    9.48    2.60
   5   7   1   12.15    2.15
   7 -12   1   10.61    2.75
 -12   5  -2  438.56   18.10
   7 -12  -2  471.06   19.84
  -7  12   2  444.09   18.50
   5   7  -2  417.24   18.32
 -12   5  -5  416.36   17.23
   5   7  -5  435.97   18.69
   5   7  -5  400.06   17.27
 -12   5  -8   80.55    4.33
   7 -12  -8   87.93    5.63
   5   7  -8   75.86    5.60
 -12   5 -11  173.37    8.37
   7 -12 -11  203.80    9.74
 -12   5 -14    0.67    1.39
   7 -12 -14    4.03    2.16
 -12   5 -17    2.66    1.50
   5   7 -17    2.64    0.90
 -12   5 -20    7.59    2.04
   7 -12 -20   11.74    2.75
   7 -12 -23    0.73    2.63
 -12   5 -23    1.49    1.94
   7 -12 -26    5.69    2.87
 -12   5 -29   -0.27    2.28
  -8  12 -32    2.44    2.32
  -8  12 -29    0.77    2.03
  12  -4 -29   -0.51    2.25
  -8  12 -26    3.00    2.09
  -8  12 -23   -0.92    1.84
   8 -12  20   48.54    4.43
  -8  12 -20   40.09    3.54
  -8  12 -17   -1.57    2.31
   8 -12  17    6.86    2.92
  -8  12 -14   82.13    5.04
  -8  12 -14   90.29    4.62
   8 -12  14   91.67    6.21
   8 -12  11    3.47    2.49
 -12   4  11    2.64    0.76
  -8  12 -11    3.29    1.63
 -12   4   8  141.97    6.06
   8 -12   8  146.08    8.22
  -8  12  -8  134.82    6.67
   4   8   8  134.06    7.45
   4   8   8  138.80    7.77
 -12   4   5   38.17    2.22
   8 -12   5   37.12    3.85
  -8  12  -5   36.92    2.88
   4   8   5   33.15    3.41
   4   8   5   34.67    3.43
   4   8   2   27.30    3.30
 -12   4   2   28.88    2.10
  -8  12  -2   31.35    2.73
   8 -12   2   31.02    3.64
   4   8   2   35.44    2.94
 -12   4  -1   61.06    3.35
   8 -12  -1   58.83    4.69
  -8  12   1   54.53    3.73
   4   8  -1   58.78    3.77
 -12   4  -4  377.88   14.85
   8 -12  -4  376.15   16.23
   4   8  -4  327.77   15.62
  -8  12   4  316.33   14.93
 -12   4  -7    1.80    1.49
   4   8  -7   -0.60    2.51
 -12   4 -10  237.98   10.89
   8 -12 -10  246.98   11.97
  12  -4  10  261.05   12.14
 -12   4 -13   14.87    1.94
   8 -12 -13    3.62    2.45
 -12   4 -16    3.45    1.56
   8 -12 -16   -1.01    2.50
 -12   4 -19    0.07    1.76
   8 -12 -19   -2.50    2.78
 -12   4 -22   -0.82    1.98
   8 -12 -22   -0.66    2.47
   8 -12 -25   11.05    3.21
   8 -12 -28   11.68    3.50
  -9  12 -30   12.24    2.67
  -9  12 -27    3.12    2.17
  -9  12 -24   -0.56    1.83
  -9  12 -21    1.89    1.85
  -3  -9 -18   -1.14    4.98
  -9  12 -18    0.08    1.84
   9 -12  18    4.55    2.64
  -9  12 -15  104.44    5.92
  -3  -9 -15  107.21    8.40
   9 -12  15  107.09    6.93
   9 -12  12  147.07    8.60
  -3  -9 -12  146.59   10.19
  -3  -9  -9    7.55    4.71
 -12   3   9    6.97    1.02
   9 -12   9    7.73    3.12
 -12   3   6    3.25    1.11
  -3  -9  -6    1.96    4.46
   9 -12   6    3.77    2.95
  -9  12  -6    2.72    1.75
   3   9   6    2.51    2.19
 -12   3   3  222.79    9.71
   9 -12   3  251.48   11.95
  -9  12  -3  222.74   10.23
   3   9   3  225.93   10.68
 -12   3   0  679.35   28.71
   9 -12   0  771.44   30.73
  -9  12   0  716.69   29.14
 -12   3  -3   38.13    2.80
   9 -12  -3   35.70    3.99
 -12   3  -6   53.38    3.55
  12  -3   6   68.29    4.73
   9 -12  -9    1.16    2.30
  12  -3   9    1.75    2.67
 -12   3 -12   28.65    2.63
   9 -12 -12   27.86    3.35
   9 -12 -15   34.21    3.70
 -12   3 -15   39.05    3.05
 -12   3 -18    3.30    1.80
   9 -12 -18    1.73    2.38
   3   9 -18    2.20    1.22
 -12   3 -21    2.69    1.94
   9 -12 -21    6.63    2.61
 -12   3 -24   -0.32    2.10
   9 -12 -24   -0.60    2.76
   9 -12 -27   32.96    4.13
 -10  12 -28   41.09    3.81
 -10  12 -25    0.32    1.87
  -2 -10 -25    0.90    6.21
  -2 -10 -22    4.28    4.51
 -10  12 -22    4.57    1.92
  10 -12  19   -0.25    2.56
 -10  12 -19    1.07    1.72
  -2 -10 -19   -1.33    4.54
  10 -12  16   20.23    3.28
  -2 -10 -16   18.79    4.65
 -10  12 -16   20.74    2.57
  -2 -10 -13  141.52    9.50
  10 -12  13  122.26    8.10
 -10  12 -13  135.94    6.98
  -2 -10 -10   78.04    7.39
  10 -12  10   86.50    6.39
  10 -12   7  108.63    7.25
  -2 -10  -7  101.32    8.17
 -12   2   7   99.03    4.66
  10 -12   4   51.30    5.21
 -12   2   4   52.91    3.03
  -2 -10  -4   46.37    6.44
   2  10   4   56.84    4.35
  10 -12   1 1656.40   64.59
 -12   2   1 1537.33   62.49
  10 -12  -2 1049.06   43.72
  12  -2   2 1013.40   42.74
  -2 -10   2 1083.89   47.18
 -12   2  -2 1054.08   42.16
 -12   2  -5    0.86    1.79
  10 -12  -5    6.26    2.65
  12  -2   5    3.50    2.50
  12  -2   8  143.81    7.74
 -12   2  -8  105.14    5.86
  10 -12 -11  164.36    8.72
 -12   2 -11  156.34    7.69
  10 -12 -14  119.44    7.14
 -12   2 -14  118.36    6.28
 -12   2 -17   -2.83    1.92
  10 -12 -17   -0.55    2.43
 -12   2 -20    1.75    1.98
  10 -12 -20    1.11    2.45
   2  10 -20    1.06    1.28
 -12   2 -23    8.99    2.32
  10 -12 -23   11.60    2.97
 -12   2 -26    4.65    2.23
  10 -12 -26    5.55    3.06
  10 -12 -29   43.09    4.89
 -11  12 -29   18.31    2.96
 -11  12 -26   -1.26    2.22
  -1 -11 -23   10.04    5.65
 -11  12 -23    8.41    2.30
 -11  12 -20   10.08    2.27
  -1 -11 -20   11.12    5.01
  11 -12  17    5.73    2.88
 -11  12 -17    7.21    1.98
  -1 -11 -17    5.46    4.24
  -1 -11 -14   23.60    4.93
  11 -12  14   23.53    3.63
  -1 -11 -11   19.72    4.59
  11 -12  11   12.27    3.46
  11 -12   8   34.56    4.56
  -1 -11  -8   31.93    5.37
  11 -12   5   12.60    3.64
  -1 -11  -5   11.83    4.45
 -12   1   5    8.93    1.48
 -12   1   2  422.81   18.02
  11 -12   2  473.52   20.30
  -1 -11   1  953.11   40.85
  12  -1   1  877.84   37.19
 -12   1  -1  893.03   36.62
  11 -12  -1  951.70   38.53
  11 -12  -4   33.53    4.04
  12  -1   4   34.42    3.78
  -1 -11   4   29.79    6.22
 -12   1  -4   32.85    2.83
  12  -1   7   44.94    4.87
 -12   1  -7   42.12    3.39
 -12   1 -10    1.18    2.36
  11 -12 -10    8.67    2.80
 -12   1 -13   60.85    4.26
  11 -12 -13   65.63    4.99
 -12   1 -16   -0.82    2.00
  11 -12 -16    0.77    2.24
  12  -1  16   -1.48    2.35
 -12   1 -19   23.47    2.90
  11 -12 -19   28.39    3.43
   1  11 -19   21.81    2.34
 -12   1 -22    0.97    2.20
  11 -12 -22   -0.36    2.67
  11 -12 -25    3.05    2.76
 -12   1 -25    0.84    2.16
  11 -12 -28   16.98    3.84
 -12   1 -28   13.55    2.83
 -12  12 -27    1.09    2.53
 -12  12 -24    5.22    2.25
   0 -12 -24    2.32    5.06
 -12  12 -21   38.55    3.49
   0 -12 -21   41.41    6.57
 -12  12 -18   94.85    5.67
  12 -12  18   92.79    6.68
   0 -12 -15    6.23    4.10
  12 -12  15    1.56    2.67
   0 -12 -12    9.44    4.16
  12 -12  12    6.60    3.34
 -12  12 -12    7.72    2.05
   0 -12  -9    5.12    3.81
  12 -12   9    3.89    2.97
 -12  12  -9    1.92    1.79
  12 -12   6    6.28    3.24
   0 -12  -6    6.45    4.21
  12 -12   3   -0.14    3.03
  12   0  -3    2.02    1.35
 -12   0   3   -1.27    1.74
  12 -12   0   28.55    4.55
  12   0   0   38.76    3.14
   0 -12   0   33.79    5.80
 -12   0   0   29.28    2.58
   0 -12   3   17.85    5.12
  12 -12  -3   15.39    3.41
 -12   0  -3   20.30    2.31
  12   0   3   20.02    3.24
 -12   0  -6   26.98    2.82
  12 -12  -6   26.98    3.63
  12   0   6   33.82    4.08
   0 -12   6   30.37    5.77
   0 -12   9  162.28   12.34
 -12   0  -9  169.29    8.21
 -12   0 -12   24.04    2.84
  12 -12 -12   29.58    3.68
  12 -12 -15    7.07    2.53
 -12   0 -15    7.50    2.29
  12 -12 -18   -1.48    2.60
 -12   0 -18   -1.79    2.20
  12 -12 -21   -0.34    2.58
   0  12 -21    0.28    1.73
 -12   0 -21   -0.65    2.21
  12 -12 -24    3.22    2.78
 -12   0 -24    4.00    2.35
  12 -12 -27    3.79    2.91
 -12   0 -27    0.34    2.20
  13 -12 -29    2.50    3.08
  13 -12 -26    1.76    2.65
 -12  -1 -26   -1.03    2.22
  13 -12 -23    1.88    2.58
 -12  -1 -23    0.67    2.27
  13 -12 -20   15.77    3.10
 -12  -1 -20   13.24    2.62
  -1  13 -20   11.34    2.26
  13 -12 -17   27.49    3.56
 -12  -1 -17   25.39    2.95
  13 -12 -14    5.24    2.65
 -12  -1 -14    2.46    2.07
   1 -13  11  413.30   22.21
 -12  -1 -11  396.60   17.90
  13 -12 -11  458.40   19.33
   1 -13   8  289.95   16.19
 -12  -1  -8  273.26   12.38
   1 -13   5   71.01    7.12
  12   1   5   87.76    5.80
 -12  -1  -5   68.37    4.42
  13 -12  -5   75.83    5.71
  13 -12  -2  149.90    8.75
   1 -13   2  144.41    9.71
 -12  -1  -2  130.79    6.97
 -12  -1   1    4.87    1.84
  13 -12   1   10.98    3.41
   1 -13  -1    8.02    3.85
  12   1  -1   12.02    2.07
  13 -12   4   -1.01    2.71
  12   1  -4    0.24    1.10
   1 -13  -7   13.40    4.27
  13 -12   7   10.18    3.49
 -13  12  -7    9.83    2.18
  13 -12  10    1.12    3.32
 -13  12 -10    2.30    1.95
   1 -13 -10    0.62    3.79
  13 -12  13   86.16    7.27
 -13  12 -13   74.05    5.01
   1 -13 -13   94.33    7.63
  13 -12  16   -0.81    3.05
   1 -13 -16    6.37    4.40
   1 -13 -19  230.20   14.10
   1 -13 -22   45.17    6.82
 -13  12 -22   41.07    3.56
 -13  12 -25    0.36    2.31
   1 -13 -25    4.09    5.29
  13 -11 -27    3.87    2.62
 -11  -2 -27    3.52    2.25
  -2  13 -24    6.69    2.00
 -11  -2 -24    4.86    2.27
  -2  13 -21   53.70    3.84
 -11  -2 -21   45.36    3.87
  13 -11 -21   54.70    4.40
 -11  -2 -18   47.54    3.80
  13 -11 -18   53.28    4.40
  13 -11 -15    0.67    2.47
 -11  -2 -15    6.86    2.17
   2 -13  12  395.90   20.75
  13 -11 -12  435.52   18.52
 -11  -2 -12  378.58   17.21
   2 -13   9  809.28   34.77
 -11  -2  -9  751.62   31.52
  11   2   6   38.77    3.91
   2 -13   6   34.44    4.84
 -11  -2  -6   29.11    2.98
  13 -11  -6   33.46    3.98
  11   2   3  103.85    5.95
   2 -13   3   95.45    7.15
 -11  -2  -3   84.46    5.11
  13 -11  -3   99.89    6.33
  13 -11   0   12.67    3.13
  11   2   0   10.71    2.38
   2 -13   0   10.40    3.29
  13 -11   3    7.70    2.89
  11   2  -3    6.96    1.61
  13 -11   6    1.56    2.78
  11   2  -6    1.38    0.96
 -13  11  -6    1.77    1.66
   2 -13  -6    2.83    3.21
  13 -11   9    0.64    2.92
   2 -13  -9    4.50    3.20
 -13  11  -9    1.07    1.71
   2 -13 -12   58.69    5.77
 -13  11 -12   54.87    3.98
  13 -11  12   62.89    5.96
  13 -11  15   11.18    3.37
 -13  11 -15    8.18    2.12
   2 -13 -15   11.57    3.68
   2 -13 -18  190.10   11.38
   2 -13 -21  167.45   10.87
 -13  11 -24    1.10    2.05
   2 -13 -24    5.07    4.41
 -13  11 -27    4.44    2.66
  13 -10 -28    9.58    2.85
  13 -10 -25    4.74    2.39
  -3  13 -25    4.81    1.98
 -10  -3 -25    5.12    2.35
  -3  13 -22   38.24    3.36
 -10  -3 -22   37.78    3.53
  13 -10 -22   41.47    3.83
  13 -10 -19    6.49    2.67
 -10  -3 -19    6.59    2.26
  -3  13 -19    6.56    2.04
  13 -10 -16    1.87    2.18
   3 -13  16   -4.08    4.85
 -10  -3 -16    3.36    2.13
   3 -13  13  102.57    8.22
  13 -10 -13  101.31    6.25
 -10  -3 -13   93.34    5.54
  13 -10 -10  232.66   11.23
   3 -13  10  233.11   12.56
 -10  -3 -10  212.44   10.35
   3 -13   7   18.26    3.98
  10   3   7   18.26    3.17
 -10  -3  -7   14.69    2.59
  10   3   4   66.87    4.64
   3 -13   4   62.63    5.30
  13 -10  -4   72.17    5.17
 -10  -3  -4   64.53    4.21
  10   3   1    5.48    2.29
   3 -13   1    6.39    2.83
  13 -10  -1    6.67    2.67
   3 -13  -2    7.13    3.17
  10   3  -2   11.47    2.10
 -13  10  -2   10.08    2.01
  13 -10   2    9.50    2.82
  10   3  -5   37.52    2.54
  13 -10   5   31.86    3.85
  13 -10   8    5.29    2.55
   3 -13  -8    4.82    3.12
  10   3  -8    3.49    0.81
 -13  10  -8    4.80    1.63
   3 -13 -11    1.43    3.10
  13 -10  11    1.08    2.84
 -13  10 -11    1.02    1.61
   3 -13 -14    1.77    3.20
  13 -10  14    3.93    3.34
 -13  10 -14    0.89    1.60
   3 -13 -17   48.21    5.39
 -13  10 -17   49.84    3.54
  13 -10  17   43.23    4.82
   3 -13 -20   83.88    6.88
 -13  10 -26    0.77    2.19
   3 -13 -26    5.62    4.17
  13  -9 -29   10.98    2.91
  13  -9 -26    0.20    2.16
  -4  13 -26   -1.42    1.86
  -9  -4 -26    1.84    2.33
  -4  13 -23   23.87    2.82
  -9  -4 -23   27.59    3.06
  13  -9 -23   25.78    3.04
  -4  13 -20    6.25    2.11
  -9  -4 -20    6.80    2.35
  13  -9 -20    4.50    2.23
  -4  13 -17   61.54    3.96
   4 -13  17   63.67    6.48
  13  -9 -17   55.57    4.34
  -9  -4 -17   58.52    4.19
  -4  13 -14   34.36    2.95
   4 -13  14   35.71    5.22
  13  -9 -14   28.26    3.12
  -9  -4 -14   28.39    3.01
   4 -13  11    0.94    3.20
  -9  -4 -11   -1.85    2.17
  13  -9 -11   -2.83    2.45
   9   4   8   86.25    5.77
   4 -13   8   79.64    5.94
   9   4   5  210.02    9.96
   4 -13   5  181.17   10.24
  13  -9  -5  205.27   10.12
   9   4   2   55.07    3.93
  13  -9  -2   57.10    4.30
   9   4  -1  332.59   14.55
 -13   9  -1  357.86   14.45
  13  -9   1  316.94   15.29
   4 -13  -1  300.95   15.63
   9   4  -4    5.34    1.64
 -13   9  -4    0.94    1.51
  13  -9   4   -0.10    2.06
   9   4  -7   64.50    3.42
 -13   9  -7   55.54    3.66
  13  -9   7   54.20    4.44
   4 -13  -7   62.70    5.14
   9   4 -10    1.23    0.60
 -13   9 -10    1.52    1.36
   4 -13 -10    0.28    2.71
  13  -9  10    4.10    2.18
 -13   9 -13    9.41    1.71
  13  -9  13   12.35    2.95
   4 -13 -13    9.35    3.12
  13  -9  16   20.91    3.67
 -13   9 -16   14.10    2.06
   4 -13 -16   15.30    3.51
 -13   9 -19    7.07    1.85
   4 -13 -19    5.56    3.59
   4 -13 -22   30.08    4.53
   4 -13 -25   17.20    4.26
 -13   9 -25   17.02    2.73
 -13   9 -28   10.55    2.77
  -5  13 -30    8.48    2.38
  13  -8 -27    4.70    2.05
  -5  13 -27    3.83    2.08
  -5  13 -24   19.72    2.79
  13  -8 -24   19.18    2.78
  -5  13 -21    1.56    2.09
  -8  -5 -21    0.17    2.37
  13  -8 -21    2.22    2.14
  -5  13 -18   78.53    4.74
  13  -8 -18   68.15    4.72
  -8  -5 -18   72.67    4.75
   5 -13  15   44.06    5.15
  13  -8 -15   35.09    3.39
  -5  13 -15   37.16    2.94
  -5  13 -12    3.84    1.73
   5 -13  12    5.34    2.91
   5 -13   9   73.11    5.51
  -5  13  -9   68.32    4.11
   8   5   6  293.76   13.18
   5 -13   6  266.25   13.49
   8   5   3    9.31    2.39
 -13   8   3   10.72    1.61
   5 -13   3   10.07    2.81
 -13   8   0  616.48   25.22
   5 -13   0  574.62   26.64
   8   5   0  627.86   25.57
 -13   8  -3   93.44    4.91
   5 -13  -3   87.60    6.32
   8   5  -3   96.28    5.04
 -13   8  -6   75.53    4.33
   8   5  -6   87.20    4.34
 -13   8  -9   18.79    2.05
   5 -13  -9   20.75    3.30
   8   5  -9   19.74    1.67
   5 -13 -12    1.16    2.33
 -13   8 -12    2.20    1.30
  13  -8  12    1.70    2.06
 -13   8 -15    8.74    1.69
   5 -13 -15   12.24    3.04
  13  -8  15   12.40    2.84
  13  -8  18   20.95    3.73
 -13   8 -18   14.44    2.12
   5 -13 -18   16.45    3.28
 -13   8 -21   12.72    2.30
   5 -13 -21   11.96    3.37
   5 -13 -24   52.86    5.16
 -13   8 -27    4.14    2.19
   5 -13 -27    3.18    3.69
  -6  13 -31    3.34    2.19
  -6  13 -28    4.89    2.23
  -6  13 -25    7.43    2.11
  13  -7 -25    8.43    2.14
  -6  13 -22   14.29    2.37
  13  -7 -22   12.66    2.40
  -6  13 -19    2.93    2.00
   6 -13  19    9.99    4.09
   6 -13  16    3.71    3.56
  -6  13 -16    4.65    1.64
  -6  13 -13    3.70    1.61
   6 -13  13    3.26    2.68
 -13   7  10   57.22    3.15
  -6  13 -10   58.08    3.67
   6 -13  10   59.26    5.11
   7   6   7   10.20    2.72
  -6  13  -7    5.42    1.89
 -13   7   7    6.59    1.31
   6 -13   7    6.05    2.62
   7   6   4    9.52    2.56
  -6  13  -4   10.75    2.01
 -13   7   4    9.71    1.46
 -13   7   1  114.35    5.45
   6 -13   1  109.48    7.03
   7   6   1  109.17    5.98
   6 -13  -2   34.20    4.04
 -13   7  -2   33.89    2.51
   7   6  -2   41.62    3.06
 -13   7  -5   72.32    4.10
   7   6  -5   81.29    4.27
 -13   7  -8   34.18    2.51
   7   6  -8   36.14    2.48
   6 -13  -8   36.22    3.84
   6 -13 -11    4.04    2.44
 -13   7 -11    2.33    1.35
   7   6 -11    5.13    1.27
   6 -13 -14    1.85    2.29
 -13   7 -14    2.83    1.40
 -13   7 -17   58.72    3.84
   6 -13 -17   61.42    5.03
  13  -7  17   62.26    4.80
 -13   7 -20   47.59    3.64
   6 -13 -20   55.74    4.84
 -13   7 -23    3.50    2.12
   6 -13 -23    8.76    3.38
   6 -13 -26    5.46    3.55
  -7  13 -32    2.42    2.23
  -7  13 -29    0.16    2.07
  13  -6 -29    0.27    2.07
  -7  13 -26    0.41    2.19
  13  -6 -26    1.69    1.95
  -7  13 -23   20.88    2.73
   7 -13  20   11.24    3.80
  -7  13 -20   10.06    2.31
  -7  13 -17    7.76    2.19
   7 -13  17   14.28    3.62
  -7  13 -14    1.59    1.58
   7 -13  14    3.26    3.08
 -13   6  14   -0.54    1.01
 -13   6  11  361.95   14.84
  -7  13 -11  357.47   15.43
   7 -13  11  364.38   17.07
 -13   6   8  399.20   15.98
   7 -13   8  347.07   17.82
  -7  13  -8  385.72   16.53
   6   7   5    0.40    2.30
  -7  13  -5    2.13    1.85
   7 -13   5    0.48    2.50
 -13   6   5    1.05    1.13
   7 -13   2   23.71    3.26
 -13   6   2   23.25    1.94
   6   7   2   26.23    2.75
 -13   6  -1   64.35    3.53
   7 -13  -1   67.14    5.27
   6   7  -1   62.90    4.05
 -13   6  -4  243.96   10.78
   7 -13  -4  263.93   12.71
   6   7  -4  247.99   10.96
 -13   6  -7   30.47    2.43
   6   7  -7   36.98    2.64
 -13   6 -10   -0.87    1.26
   6   7 -10    3.52    1.66
   7 -13 -10    2.05    2.37
 -13   6 -13    8.01    1.70
   7 -13 -13    7.66    2.57
   7 -13 -16   30.00    3.68
 -13   6 -16   22.28    2.34
 -13   6 -19  165.49    8.28
   7 -13 -19  185.90    9.62
 -13   6 -22   33.72    3.19
   7 -13 -22   41.99    4.19
   7 -13 -25   -0.13    2.88
   7 -13 -28    8.31    3.53
  -8  13 -30    3.44    2.26
  -8  13 -27   -0.08    1.77
  13  -5 -27   -0.81    2.15
  -8  13 -24   10.54    2.19
  -8  13 -21    9.59    2.18
   8 -13  18   15.16    3.83
  -8  13 -18   11.49    2.53
  -8  13 -15    5.11    2.13
   8 -13  15   11.02    3.17
  -8  13 -15    9.49    1.77
 -13   5  12  170.63    7.30
  -8  13 -12  176.35    8.15
   8 -13  12  191.77   10.11
 -13   5   9  573.95   22.92
   8 -13   9  581.63   25.34
  -8  13  -9  548.04   23.61
 -13   5   6   74.57    3.73
   8 -13   6   79.76    5.89
  -8  13  -6   75.00    4.38
   5   8   6   74.30    5.19
 -13   5   3   16.29    1.72
  -8  13  -3   22.02    2.41
   5   8   3   18.86    2.79
 -13   5   0   41.80    2.77
   5   8   0   44.47    3.39
 -13   5  -3  246.17   10.87
   8 -13  -3  260.48   12.58
   5   8  -3  249.01   11.21
 -13   5  -6   84.33    4.77
   5   8  -6  105.21    5.21
 -13   5  -9    9.02    1.66
   8 -13  -9   13.10    2.76
 -13   5 -12    1.60    1.42
   8 -13 -12    3.40    2.29
 -13   5 -15    2.35    1.53
   8 -13 -15    1.56    2.30
 -13   5 -18   92.38    5.25
   8 -13 -18   97.43    6.32
   8 -13 -21  101.26    6.53
 -13   5 -21   86.03    5.30
   8 -13 -24    6.36    3.16
 -13   5 -24    9.46    2.30
   8 -13 -27   -0.79    3.04
  -9  13 -28    7.96    2.53
  -9  13 -25    2.29    1.90
  -9  13 -22   11.19    2.34
   9 -13  19    0.45    3.23
  -9  13 -19    1.66    2.00
  -9  13 -16    0.39    1.88
   9 -13  16    6.65    3.11
   9 -13  13    4.48    3.26
 -13   4  10   48.68    2.58
   9 -13  10   54.64    5.35
  -9  13 -10   50.07    3.49
 -13   4   7    4.86    1.21
  -9  13  -7    1.86    1.89
   9 -13   7   -0.72    3.50
 -13   4   4   -0.67    1.30
   9 -13   4   -0.82    2.97
   4   9   4    0.08    2.38
 -13   4   1  184.08    8.21
   9 -13   1  186.13   10.45
   4   9   1  178.26    8.90
 -13   4  -2   36.67    2.79
   9 -13  -2   33.80    4.22
   4   9  -2   42.40    3.50
 -13   4  -5   64.79    3.76
   9 -13  -5   58.54    5.02
 -13   4  -8   -0.45    1.49
 -13   4 -11    4.29    1.60
   9 -13 -11    0.11    2.56
 -13   4 -14    0.91    1.57
   9 -13 -14    1.44    2.36
 -13   4 -17    6.51    1.90
   9 -13 -17   10.45    2.78
 -13   4 -20   11.61    2.52
   9 -13 -20   18.12    3.27
 -13   4 -23   -0.08    2.10
   9 -13 -23   -1.58    2.71
 -13   4 -26    4.19    2.32
   9 -13 -29    5.59    3.83
 -10  13 -29   35.50    3.76
 -10  13 -26    3.09    2.02
 -10  13 -23   21.87    2.71
 -10  13 -20   -0.17    1.89
  10 -13  17    2.72    3.05
 -10  13 -17    4.04    2.00
  -3 -10 -17   -0.76    4.97
  10 -13  14    7.81    3.23
  -3 -10 -14    5.41    4.59
 -10  13 -14    6.01    1.84
  -3 -10 -11   45.92    6.30
  10 -13  11   44.22    5.37
  10 -13   8  130.19    8.65
  -3 -10  -8  131.22   10.43
 -13   3   8  135.84    5.94
  10 -13   5   39.54    4.53
 -13   3   5   33.13    2.32
  10 -13   2  659.13   27.82
   3  10   2  603.54   26.35
 -13   3   2  620.13   25.39
 -13   3  -1 1171.40   47.18
  10 -13  -1 1170.29   49.21
 -13   3  -4   17.66    2.25
  10 -13  -4   16.79    3.55
  13  -3   7   72.64    5.57
 -13   3  -7   72.65    4.23
  10 -13 -10   55.44    4.80
 -13   3 -10   61.59    3.89
 -13   3 -13   19.69    2.36
  10 -13 -13   12.19    2.96
 -13   3 -16   -2.71    1.98
  10 -13 -16   -0.71    2.44
 -13   3 -19    1.66    2.03
  10 -13 -19    1.82    2.61
 -13   3 -22   21.53    2.85
  10 -13 -22   16.90    3.35
 -13   3 -25    3.05    2.25
  10 -13 -25    5.35    3.04
  10 -13 -28   29.35    4.44
 -11  13 -27    9.00    2.54
 -11  13 -24   29.25    3.30
  -2 -11 -24   36.69    8.24
  -2 -11 -21   -0.56    6.28
 -11  13 -21    4.74    2.18
  11 -13  18   17.27    3.61
 -11  13 -18   22.30    2.78
  -2 -11 -18   20.29    5.57
  11 -13  15    1.88    3.09
  -2 -11 -15   -1.41    4.78
 -11  13 -15   -0.34    2.07
  -2 -11 -12   32.50    5.74
  11 -13  12   19.76    4.29
  11 -13   9  103.22    7.44
  -2 -11  -9  106.58    9.10
  11 -13   6  128.18    7.98
  -2 -11  -6  128.47    9.71
  11 -13   3  244.28   12.26
 -13   2   3  215.48    9.65
  11 -13   0 1374.90   57.03
 -13   2   0 1362.15   54.80
  11 -13  -3  216.16   11.47
  13  -2   3  213.03   10.50
 -13   2  -3  214.13    9.67
  13  -2   6  143.23    8.01
 -13   2  -6  132.95    6.79
  11 -13  -9   84.86    6.06
 -13   2  -9   85.77    5.00
 -13   2 -12   23.25    2.84
  11 -13 -12   29.93    3.67
 -13   2 -15    1.10    1.89
  11 -13 -15    0.12    2.49
 -13   2 -18   24.61    2.95
  11 -13 -18   30.49    3.80
 -13   2 -21    2.69    2.17
  11 -13 -21    1.99    2.69
 -13   2 -24   20.84    2.91
  11 -13 -24   22.94    3.79
 -13   2 -27    7.56    2.42
  11 -13 -27    6.73    3.31
 -12  13 -25   17.99    2.97
  -1 -12 -25   17.16    7.21
  -1 -12 -22   18.25    6.31
 -12  13 -22    8.71    2.53
  -1 -12 -19   26.92    6.42
 -12  13 -19   26.18    3.13
  -1 -12 -16    2.99    5.01
  12 -13  16    4.60    3.17
  12 -13  13   -1.98    3.44
  -1 -12 -13    2.97    4.59
  12 -13  10    3.21    3.30
 -12  13 -10    2.43    1.86
  -1 -12 -10    1.24    4.75
  12 -13   7    4.99    3.35
  -1 -12  -7    3.22    4.47
  -1 -12  -4    9.97    5.17
  12 -13   4    8.75    3.46
 -13   1   4    2.95    1.36
 -13   1   1  214.40    9.64
  12 -13   1  224.26   11.71
  -1 -12   2   49.53    7.25
  12 -13  -2   40.44    4.69
  13  -1   2   40.82    3.77
 -13   1  -2   37.22    3.02
  13  -1   5  229.72   10.66
  -1 -12   5  191.58   14.04
 -13   1  -5  193.19    9.28
  12 -13  -5  190.59   10.69
 -13   1  -8   40.86    3.38
 -13   1 -11   -1.63    2.41
  12 -13 -11    0.76    2.59
 -13   1 -14    3.82    1.98
  12 -13 -14    2.57    2.45
 -13   1 -17   23.22    2.87
 -13   1 -20   12.60    2.77
  12 -13 -20   10.61    3.32
  12 -13 -23    4.39    3.01
 -13   1 -23    5.35    2.46
  12 -13 -26   -1.92    3.02
 -13   1 -26    1.05    2.28
 -13  13 -23    5.14    2.38
   0 -13 -23    7.11    6.26
 -13  13 -20   29.30    3.20
   0 -13 -20   28.14    6.64
   0 -13 -17   14.86    5.64
  13 -13  17    7.96    3.43
   0 -13 -14    5.84    4.90
 -13  13 -14    2.55    2.34
  13 -13  14    1.52    3.60
   0 -13 -11   21.37    5.62
  13 -13  11   13.24    4.25
 -13  13 -11   15.59    2.67
  13 -13   8   76.55    6.76
 -13  13  -8   71.05    4.73
   0 -13  -8   76.73    7.64
  13 -13   5   10.25    3.36
   0 -13  -5   12.85    4.77
  13 -13   2    0.46    2.95
  13   0  -2    0.36    1.34
 -13   0   2   -1.63    1.76
   0 -13   1   32.24    5.64
  13 -13  -1   33.57    4.26
  13   0   1   37.61    3.33
 -13   0  -1   28.72    2.62
   0 -13   4  259.51   15.68
  13   0   4  284.07   13.02
 -13   0  -4  249.64   11.74
  13 -13  -4  292.42   13.84
   0 -13   7   21.46    6.16
 -13   0  -7   15.30    2.52
 -13   0 -10   62.72    4.34
  13 -13 -10   68.99    5.75
  13 -13 -13    2.24    2.62
 -13   0 -13    1.86    2.08
  13 -13 -16    0.52    2.70
 -13   0 -16   -1.66    2.27
  13 -13 -19   11.32    3.34
 -13   0 -19    9.59    2.56
  13 -13 -22    1.13    2.77
 -13   0 -22    0.67    2.13
  13 -13 -25   -0.67    2.78
 -13   0 -25    0.60    2.24
  13 -13 -28    0.28    3.12
 -13  -1 -24    2.04    2.16
  14 -13 -21    0.64    2.74
 -13  -1 -21   -1.18    2.28
  14 -13 -18    2.25    2.83
 -13  -1 -18    0.57    2.32
  14 -13 -15   10.30    3.05
 -13  -1 -15    6.69    2.26
  14 -13 -12   30.21    3.99
 -13  -1 -12   27.90    2.99
   1 -14   9  132.07   10.66
 -13  -1  -9  120.92    6.47
  14 -13  -6   14.15    3.46
   1 -14   6   13.17    4.99
 -13  -1  -6   10.02    2.09
  13   1   3  134.63    7.05
  14 -13  -3  115.80    7.61
   1 -14   3  124.31    9.30
  14 -13   0    6.64    3.15
   1 -14   0    5.34    3.81
 -13  -1   0    3.29    1.76
  14 -13   3    0.97    3.06
   1 -14  -6   46.68    6.27
  14 -13   6   42.30    5.02
 -14  13  -6   36.87    3.56
   1 -14  -9   36.80    6.29
  14 -13   9   40.31    5.61
 -14  13  -9   39.29    3.78
   1 -14 -12   19.63    5.93
  14 -13  12   25.83    5.40
 -14  13 -12   16.61    3.05
   1 -14 -15   33.72    6.16
  14 -13  15   23.96    4.79
 -14  13 -15   30.05    3.51
   1 -14 -18   25.56    6.11
   1 -14 -21   17.44    5.97
 -14  13 -24   -1.92    2.24
   1 -14 -24    7.25    6.31
  14 -12 -25    5.11    2.78
 -12  -2 -25   -0.43    2.17
  14 -12 -22    2.92    2.71
  -2  14 -22    4.11    2.09
 -12  -2 -22    2.22    2.20
  14 -12 -19   30.18    3.80
 -12  -2 -19   24.95    2.99
 -12  -2 -16   37.62    3.36
  14 -12 -16   39.40    4.11
  14 -12 -13   19.57    3.44
   2 -14  13   27.85    6.50
 -12  -2 -13   18.00    2.51
   2 -14  10  321.86   17.21
 -12  -2 -10  293.88   13.27
  14 -12 -10  294.55   14.84
 -12  -2  -7   32.27    3.12
  14 -12  -7   39.31    4.36
   2 -14   7   42.93    5.77
  12   2   4   86.14    5.60
   2 -14   4   78.16    6.78
 -12  -2  -4   64.78    4.45
  14 -12  -4   83.22    6.09
  14 -12  -1   31.35    4.13
   2 -14   1   24.30    4.42
  12   2   1   28.52    3.10
  14 -12   2    1.91    2.86
   2 -14  -2    4.33    3.37
  14 -12   5   10.27    3.18
 -14  12  -5    6.56    2.15
  14 -12   8   10.46    3.42
 -14  12  -8    8.32    2.40
   2 -14  -8    7.39    3.94
   2 -14 -11   60.79    6.50
 -14  12 -11   49.67    4.02
  14 -12  11   52.99    5.94
   2 -14 -14  155.83   10.26
 -14  12 -14  143.69    7.61
  14 -12  14  128.95    9.36
 -14  12 -17   10.62    2.64
   2 -14 -17   10.16    4.47
   2 -14 -20  113.14    9.22
   2 -14 -23   25.80    5.95
 -14  12 -23   13.27    2.64
   2 -14 -26   -2.10    5.27
  14 -11 -26    1.19    2.23
 -11  -3 -26    2.46    2.28
  14 -11 -23    1.08    2.41
  -3  14 -23    2.73    1.97
 -11  -3 -23    1.28    2.20
  14 -11 -20    6.66    2.66
  -3  14 -20    5.12    2.12
 -11  -3 -20    8.10    2.53
  14 -11 -17    9.13    2.94
 -11  -3 -17    8.83    2.43
  14 -11 -14   -0.54    2.30
 -11  -3 -14    3.65    2.24
   3 -14  14    2.32    4.72
  14 -11 -11  156.05    8.63
 -11  -3 -11  149.17    7.72
   3 -14  11  166.15   11.07
   3 -14   8   76.27    6.82
 -11  -3  -8   70.51    4.60
   3 -14   5   17.15    3.93
  11   3   5   24.08    3.17
 -11  -3  -5   12.60    2.37
  14 -11  -5   16.16    3.30
  11   3   2   46.11    3.68
  14 -11  -2   39.02    4.13
   3 -14   2   33.42    4.36
  14 -11   1    2.71    2.41
  11   3  -1    2.76    1.72
   3 -14  -1    1.87    2.61
 -14  11  -1    3.07    1.68
  14 -11   4   14.79    2.77
 -14  11  -4   -0.80    1.82
  14 -11   7   22.45    4.02
   3 -14  -7   21.95    4.14
 -14  11  -7   19.86    2.57
  14 -11  10   17.48    3.77
   3 -14 -10   13.38    3.97
 -14  11 -10    8.27    2.30
   3 -14 -13   59.43    6.13
 -14  11 -13   56.32    4.04
  14 -11  13   60.96    6.20
  14 -11  16    4.18    3.52
   3 -14 -16    5.85    4.02
 -14  11 -16    6.03    2.21
   3 -14 -19   71.65    6.40
 -14  11 -19   55.52    4.17
   3 -14 -22   26.87    5.00
 -14  11 -25   -0.28    2.28
   3 -14 -25    2.69    4.25
  14 -10 -27    0.94    2.40
  14 -10 -24    2.50    2.29
  -4  14 -24   -0.74    2.04
 -10  -4 -24    1.55    2.26
  14 -10 -21   11.59    2.70
  -4  14 -21   10.50    2.59
 -10  -4 -21   10.79    2.71
   4 -14  18   34.11    7.11
  14 -10 -18   39.96    3.89
 -10  -4 -18   40.05    3.60
   4 -14  15    1.95    4.71
 -10  -4 -15    4.78    2.19
  14 -10 -15    3.88    2.45
 -10  -4 -12    3.18    2.14
   4 -14  12    1.36    3.59
  14 -10 -12    5.34    2.53
   4 -14   9   -1.17    3.61
  10   4   6   71.10    5.04
   4 -14   6   69.43    5.65
  14 -10  -6   63.89    5.08
   4 -14   3   67.63    5.81
  14 -10  -3   73.90    5.37
   4 -14   0    1.85    2.78
  10   4   0    2.17    1.96
 -14  10   0    2.80    1.53
  14 -10   0    1.44    2.25
   4 -14  -3    0.75    2.60
  10   4  -3    2.28    1.77
 -14  10  -3    1.13    1.52
  14 -10   3    2.22    2.19
 -14  10  -6    5.01    1.66
  14 -10   6    8.13    2.77
 -14  10  -9  158.13    7.90
  14 -10   9  156.19    9.14
   4 -14  -9  162.49    9.87
 -14  10 -12   54.95    3.77
  14 -10  12   47.45    5.16
   4 -14 -12   57.40    5.69
  14 -10  15    2.45    3.66
 -14  10 -15   -0.94    1.94
   4 -14 -15   -3.75    3.55
 -14  10 -18    0.86    1.96
   4 -14 -18   -2.98    4.15
   4 -14 -21   -0.17    3.78
 -14  10 -21    2.77    2.04
   4 -14 -24   13.01    4.27
   4 -14 -27    3.35    4.15
  14  -9 -28    1.24    2.41
  -5  14 -28    1.57    2.06
  14  -9 -25    5.72    2.20
  -5  14 -25   -1.24    2.16
  -5  14 -22   12.59    2.69
  14  -9 -22   13.17    2.79
   5 -14  19  145.70   10.91
  -5  14 -19  135.72    7.18
  14  -9 -19  124.32    7.27
  14  -9 -16   50.25    4.12
   5 -14  16   60.57    7.05
   5 -14  13    0.94    3.58
  14  -9 -13    1.28    2.24
   5 -14  10   11.87    3.49
  14  -9 -10    3.61    2.60
   5 -14   7  125.43    7.87
   5 -14   4  171.47   10.10
   9   5   4  192.11    9.36
 -14   9   4  187.81    8.49
   9   5   1    0.72    1.98
 -14   9   1    1.07    1.34
   5 -14   1   -0.53    2.57
   9   5  -2    1.67    1.78
 -14   9  -2    0.67    1.28
   5 -14  -2   -0.55    2.40
   9   5  -5    2.61    1.56
 -14   9  -5    3.30    1.54
  14  -9   5    3.46    2.28
 -14   9  -8   99.98    5.39
  14  -9   8  105.95    6.55
   5 -14  -8  116.40    7.52
 -14   9 -11  210.69    9.66
  14  -9  11  201.18   10.80
   5 -14 -11  228.23   11.83
 -14   9 -14   18.42    2.29
   5 -14 -14   19.74    3.97
  14  -9  14   26.81    4.10
  14  -9  17   -3.18    3.59
 -14   9 -17   -1.59    1.92
   5 -14 -17   -3.32    3.65
 -14   9 -20   12.61    2.44
   5 -14 -20   10.01    3.77
   5 -14 -23   53.09    5.65
   5 -14 -26    0.88    3.99
  14  -8 -29    1.58    2.59
  -6  14 -29    0.08    1.96
  -6  14 -26   -0.82    2.11
  14  -8 -26    0.48    2.03
  -6  14 -23    1.43    2.17
  14  -8 -23   -0.09    2.14
  -6  14 -20   30.77    3.22
  14  -8 -20   22.20    3.03
   6 -14  17   44.90    5.84
  14  -8 -17   25.86    3.14
   6 -14  14    4.83    3.70
   6 -14  11   19.20    3.98
   6 -14   8   -1.78    3.19
 -14   8   8    0.38    1.19
 -14   8   5  170.01    7.68
   6 -14   5  156.11    9.39
   8   6   5  174.24    8.67
   8   6   2   21.90    2.78
 -14   8   2   16.84    1.88
   6 -14   2   15.07    3.32
   8   6  -1    5.50    1.94
   6 -14  -1    4.93    2.78
 -14   8  -1    5.33    1.50
   8   6  -4    3.49    1.64
 -14   8  -4    2.10    1.28
   8   6  -7   12.06    1.81
   6 -14  -7    8.99    2.94
 -14   8  -7   10.68    1.67
 -14   8 -10   71.00    4.11
   6 -14 -10   77.41    5.89
   6 -14 -13    9.46    3.29
 -14   8 -13    8.57    1.80
  14  -8  13    8.66    2.81
 -14   8 -16    1.07    1.71
   6 -14 -16    1.78    2.87
  14  -8  16    4.32    2.82
 -14   8 -19   14.85    2.39
   6 -14 -19   15.20    3.56
 -14   8 -22    8.45    2.30
   6 -14 -22    7.42    3.68
   6 -14 -25   21.41    4.22
   6 -14 -28   -3.26    3.88
  -7  14 -30   -1.46    2.02
  -7  14 -27   -0.26    2.12
  14  -7 -27    1.72    2.15
  -7  14 -24    3.18    2.36
  14  -7 -24    2.80    2.05
  -7  14 -21   11.90    2.55
  14  -7 -21    8.28    2.41
   7 -14  18   14.37    4.88
  -7  14 -18   12.96    2.36
   7 -14  15   13.76    4.19
   7 -14  12  155.12    9.35
 -14   7  12  143.66    6.50
 -14   7   9  385.60   16.03
   7 -14   9  396.83   18.46
   7   7   6   -1.49    2.70
   7 -14   6   -0.97    3.00
 -14   7   6    0.04    1.20
 -14   7   3   81.94    4.32
   7 -14   3   95.07    6.49
   7   7   3   90.99    5.42
   7   7   0    6.73    2.07
   7 -14   0    8.08    2.92
 -14   7   0    5.74    1.32
   7   7  -3    8.49    1.99
   7 -14  -3    8.19    2.95
 -14   7  -3    8.92    1.40
 -14   7  -6   -0.05    1.18
   7   7  -6   -0.05    1.64
   7 -14  -9    1.50    2.45
 -14   7  -9    0.21    1.28
   7 -14 -12   16.43    3.26
 -14   7 -12   17.23    2.00
   7 -14 -15    7.27    2.89
 -14   7 -15    5.51    1.85
 -14   7 -18   96.67    5.71
   7 -14 -18  111.57    7.01
  14  -7  18  118.91    7.57
 -14   7 -21   59.30    4.28
   7 -14 -21   67.50    5.59
 -14   7 -24    2.06    2.15
   7 -14 -24    2.18    3.42
   7 -14 -27    4.47    3.46
  -8  14 -28    6.35    2.10
  14  -6 -28    2.88    2.44
  -8  14 -25   -1.27    2.01
  14  -6 -25    1.72    1.98
  -8  14 -22   32.43    3.18
  -8  14 -19   64.56    4.68
   8 -14  19   78.13    7.16
   8 -14  16   40.19    5.26
  -8  14 -16   34.40    3.17
   8 -14  13  132.74    8.95
 -14   6  10  825.71   33.38
   8 -14  10  864.83   36.37
 -14   6   7  220.47    9.53
   8 -14   7  233.29   12.16
 -14   6   4   76.43    3.92
   8 -14   4   80.19    6.08
   6   8   4   79.55    5.15
 -14   6   1   56.74    3.29
   8 -14   1   58.97    5.39
   6   8   1   63.02    4.18
   8 -14  -2   28.36    3.92
 -14   6  -2   21.71    2.02
   6   8  -2   25.51    2.62
 -14   6  -5    2.68    1.33
   6   8  -5    6.45    1.95
 -14   6  -8   -0.86    1.34
   6   8  -8    1.04    1.77
   8 -14  -8    1.07    2.48
 -14   6 -11   32.20    2.65
   8 -14 -11   33.23    4.14
 -14   6 -14   51.33    3.56
   8 -14 -14   54.46    5.01
 -14   6 -17   61.60    4.23
   8 -14 -17   76.86    5.73
 -14   6 -20  204.90    9.95
   8 -14 -20  217.37   11.33
   8 -14 -23   27.55    3.93
 -14   6 -23   27.49    2.95
 -14   6 -26    4.76    2.20
   8 -14 -26    6.52    3.44
  -9  14 -29    6.47    2.38
  14  -5 -29    8.22    2.74
  -9  14 -26    3.66    2.10
  -9  14 -23   14.44    2.64
  -9  14 -20   19.97    2.77
   9 -14  17    9.25    4.15
  -9  14 -17    4.52    1.98
  -9  14 -14   32.99    2.82
   9 -14  14   40.99    5.08
   9 -14  11  343.82   17.28
 -14   5   8  179.88    7.79
   9 -14   8  176.83   10.48
 -14   5   5   50.13    2.95
   9 -14   5   59.91    5.60
 -14   5   2   34.95    2.59
   5   9   2   30.04    3.26
 -14   5  -1   -0.93    1.63
   5   9  -1    0.27    1.96
 -14   5  -4    3.77    1.44
   9 -14  -4    3.88    2.33
   5   9  -4    4.72    2.16
 -14   5  -7    2.38    1.49
   5   9  -7    5.59    2.38
 -14   5 -10    1.03    1.49
   9 -14 -10   -1.78    2.77
 -14   5 -13   15.73    2.26
   9 -14 -13   18.02    3.34
 -14   5 -16    2.25    1.98
   9 -14 -16    5.30    2.86
   9 -14 -19   99.03    6.67
 -14   5 -19   88.78    5.43
 -14   5 -22   26.84    3.10
   9 -14 -25    2.19    3.18
 -14   5 -25   -0.50    2.01
 -10  14 -27    7.62    2.43
 -10  14 -24    5.36    2.23
 -10  14 -21    2.82    2.16
 -10  14 -18   17.32    2.55
  10 -14  18   15.17    4.25
  10 -14  15   30.44    4.71
 -10  14 -15   26.63    2.80
  10 -14  12   13.88    3.85
  10 -14   9   -6.89    4.31
 -14   4   6  139.54    6.43
  10 -14   6  151.10    9.36
 -14   4   3   16.51    1.95
  10 -14   3   28.66    4.44
 -14   4   0  167.52    7.99
  10 -14   0  182.24   10.56
   4  10   0  186.43    9.00
 -14   4  -3   19.28    2.17
  10 -14  -3   15.84    3.63
   4  10  -3   23.80    3.00
 -14   4  -6    6.43    1.81
 -14   4  -9    1.14    1.59
  10 -14  -9   -2.70    3.04
 -14   4 -12   -1.15    1.77
  10 -14 -12   -1.01    2.60
 -14   4 -15   -3.61    2.24
  10 -14 -15   -1.99    2.58
 -14   4 -18    4.94    2.26
  10 -14 -18    5.96    3.11
 -14   4 -21    2.68    2.17
  10 -14 -21    0.79    3.01
 -14   4 -24   13.78    2.62
  10 -14 -24   13.30    3.65
  10 -14 -27    3.86    3.54
 -11  14 -25    4.20    2.33
 -11  14 -22    7.26    2.51
 -11  14 -19   25.92    3.11
  11 -14  16   42.54    5.34
 -11  14 -16   40.64    3.61
  11 -14  13   -0.40    3.53
 -11  14 -13   -0.96    1.91
  -3 -11 -13   -4.63    5.25
  -3 -11 -10   29.96    6.33
  11 -14  10   31.91    5.18
  11 -14   7  233.29   11.87
 -14   3   7  182.53    8.19
  11 -14   4   47.79    5.23
 -14   3   4   53.34    3.10
  11 -14   1  297.09   15.10
 -14   3   1  285.82   12.42
  11 -14  -2  169.24   10.38
 -14   3  -2  189.04    8.50
  11 -14  -5   27.37    4.12
 -14   3  -5   34.66    2.81
 -14   3  -8   26.89    2.65
 -14   3 -11   -0.21    1.86
  11 -14 -11   -2.54    2.95
 -14   3 -14   12.31    2.27
  11 -14 -14    9.59    2.99
 -14   3 -17   11.18    2.51
  11 -14 -17   12.32    3.28
 -14   3 -20    2.11    2.25
  11 -14 -20    3.46    2.96
  11 -14 -23   34.22    4.49
 -14   3 -23   36.96    3.52
 -14   3 -26    3.23    2.41
  11 -14 -26    3.61    3.27
  11 -14 -29   19.80    4.34
  -2 -12 -23   27.47    8.09
 -12  14 -23   26.38    3.32
 -12  14 -20    2.58    2.31
  -2 -12 -20   -4.72    6.92
  -2 -12 -17   13.30    6.00
  12 -14  17   18.56    4.17
 -12  14 -17   17.93    2.87
  -2 -12 -14   -1.37    5.54
  12 -14  14    0.42    3.60
  12 -14  11   -1.03    3.92
  -2 -12 -11   -0.55    5.42
  -2 -12  -8   15.95    5.68
  12 -14   8   13.49    4.08
  -2 -12  -5   25.62    6.46
  12 -14   5   35.87    4.77
 -14   2   5   25.00    2.07
  12 -14   2   74.15    6.34
 -14   2   2   65.83    3.79
  12 -14  -1  138.73    8.61
 -14   2  -1  127.44    6.36
  12 -14  -4   46.05    4.91
  14  -2   4   41.73    4.02
 -14   2  -4   44.64    3.32
 -14   2  -7   94.44    5.35
 -14   2 -10    3.80    2.12
  12 -14 -10    5.92    3.15
 -14   2 -13    1.59    2.14
  12 -14 -13    1.79    2.81
  12 -14 -16   26.99    3.94
 -14   2 -16   29.99    3.19
 -14   2 -19   28.71    3.28
  12 -14 -19   35.87    4.33
 -14   2 -22    6.74    2.46
  12 -14 -22    6.57    3.37
 -14   2 -25    8.02    2.66
  12 -14 -25   10.00    3.38
  12 -14 -28    1.23    3.25
  -1 -13 -24   26.78    8.11
 -13  14 -24   19.95    2.90
 -13  14 -21    7.12    2.52
  -1 -13 -21    9.20    6.75
  -1 -13 -18   -0.60    5.88
 -13  14 -18    1.99    2.40
  -1 -13 -15   -3.20    5.72
  13 -14  15    0.20    3.47
  -1 -13 -12   53.39    7.94
 -13  14 -12   46.27    3.90
  13 -14  12   41.74    5.83
  13 -14   9  127.72    9.41
 -13  14  -9  129.10    7.05
  -1 -13  -6   15.61    5.85
  13 -14   6   13.53    4.20
  13 -14   3    5.03    3.53
 -14   1   3   -1.26    1.31
  -1 -13   0    2.60    4.80
  13 -14   0    2.35    2.87
 -14   1   0    0.41    1.42
  14  -1   3   69.79    4.95
  -1 -13   3   73.02    8.74
 -14   1  -3   69.72    4.19
  13 -14  -3   71.37    5.76
 -14   1  -6  105.97    5.69
  13 -14  -6  112.92    7.40
 -14   1  -9    4.58    2.12
 -14   1 -12   -0.67    2.06
  13 -14 -12   -2.16    2.94
 -14   1 -15    3.82    2.24
  13 -14 -15    1.91    2.74
  13 -14 -18   80.62    6.01
 -14   1 -18   70.07    4.99
  13 -14 -21   29.56    4.18
 -14   1 -21   22.10    3.23
  13 -14 -24    0.71    3.01
 -14   1 -24    2.74    2.47
  13 -14 -27    1.04    3.31
   0 -14 -25    2.89    6.96
   0 -14 -22    6.60    6.22
 -14  14 -22    5.36    2.43
   0 -14 -19    0.63    6.18
   0 -14 -16    5.95    5.58
  14 -14  16    2.51    3.52
 -14  14 -13    7.14    2.82
  14 -14  13    9.18    4.53
   0 -14 -13    8.81    6.15
  14 -14  10  175.64   11.97
 -14  14 -10  192.41    9.69
  14 -14   7  110.76    8.84
 -14  14  -7  115.61    6.66
  14 -14   4   -0.53    3.15
   0 -14  -1    1.66    4.89
  14 -14   1    6.70    3.26
 -14   0   1    0.05    1.62
   0 -14   2   34.98    6.20
 -14   0  -2   33.53    2.85
  14 -14  -2   45.46    4.92
   0 -14   5   49.07    7.14
 -14   0  -5   43.49    3.30
  14 -14  -5   54.27    5.15
 -14   0  -8    2.74    1.78
  14 -14 -11    1.76    3.03
 -14   0 -11    4.57    2.17
  14 -14 -14    5.92    3.21
 -14   0 -14    4.02    2.26
  14 -14 -17   15.56    3.55
 -14   0 -17   13.08    2.59
  14 -14 -20   41.67    4.39
 -14   0 -20   35.77    3.62
  14 -14 -23    8.03    3.15
 -14   0 -23    8.19    2.63
  14 -14 -26    0.73    3.19
  15 -14 -22    2.87    2.97
 -14  -1 -22    2.94    2.35
  15 -14 -19    2.25    3.09
 -14  -1 -19    3.25    2.31
  15 -14 -16    1.28    2.80
 -14  -1 -16    0.40    2.28
  15 -14 -13    0.74    3.01
 -14  -1 -13    1.58    2.16
 -14  -1 -10    6.29    1.99
   1 -15   7   -0.28    4.81
  15 -14  -7    6.64    3.27
 -14  -1  -7    2.29    1.74
  15 -14  -4    8.86    3.36
   1 -15   4    3.46    4.64
 -14  -1  -4    8.44    2.04
  15 -14  -1    7.54    3.55
 -14  -1  -1    3.29    1.71
   1 -15   1    7.13    5.16
  15 -14   2    1.69    3.36
   1 -15  -2    1.34    4.92
  15 -14   5   -0.39    3.57
   1 -15  -5    0.27    5.14
 -15  14  -5   -2.19    2.64
  15 -14   8   29.91    5.21
   1 -15  -8   39.31    7.14
 -15  14  -8   35.36    3.72
  15 -14  11   12.29    4.74
 -15  14 -11   13.39    3.17
   1 -15 -14    7.05    5.93
  15 -14  14    4.20    4.21
 -15  14 -14    4.52    2.66
   1 -15 -17    0.29    5.38
 -15  14 -17    1.21    2.34
   1 -15 -23    3.29    5.76
  15 -13 -26   10.39    3.12
  15 -13 -23    1.87    2.59
 -13  -2 -23   -1.74    2.41
  15 -13 -20   -3.08    2.92
  -2  15 -20    0.09    2.00
 -13  -2 -20   -6.54    2.46
  15 -13 -17   16.89    3.31
 -13  -2 -17   10.35    2.60
  15 -13 -14   14.34    3.38
 -13  -2 -14   12.35    2.41
  15 -13 -11   11.18    3.43
   2 -15  11   12.16    5.63
 -13  -2 -11    5.77    2.21
   2 -15   8   10.41    4.89
 -13  -2  -8    9.51    2.26
  15 -13  -5    9.83    3.35
   2 -15   5   12.93    4.44
 -13  -2  -5    7.12    2.05
  15 -13  -2    9.93    3.38
   2 -15   2    6.20    3.99
   2 -15  -1   70.93    6.91
  15 -13   1   66.26    5.91
  15 -13   4   24.87    4.04
 -15  13  -4   18.69    2.98
  15 -13   7    6.17    3.65
 -15  13  -7    1.03    2.73
   2 -15  -7    7.19    4.65
  15 -13  10    7.28    4.59
 -15  13 -10    4.87    2.53
   2 -15 -10    3.64    4.81
 -15  13 -13   93.09    6.02
   2 -15 -13   97.10    8.89
  15 -13  13   86.52    7.96
 -15  13 -16   12.08    2.74
   2 -15 -16   24.11    5.78
 -15  13 -19    5.94    2.35
   2 -15 -22   11.85    5.46
  15 -12 -27    6.54    3.00
  15 -12 -24    0.47    2.51
 -12  -3 -24    0.87    2.30
  15 -12 -21    0.35    2.46
  -3  15 -21   -0.26    2.18
 -12  -3 -21   -1.96    2.47
  15 -12 -18    4.41    2.74
 -12  -3 -18   -0.33    2.25
  15 -12 -15   29.83    3.93
 -12  -3 -15   26.43    3.16
   3 -15  15   37.77    7.67
  15 -12 -12   -1.20    2.62
   3 -15  12    1.38    4.83
 -12  -3 -12    0.88    1.96
   3 -15   9   14.11    4.44
 -12  -3  -9   10.02    2.32
  15 -12  -6    2.48    2.55
   3 -15   6    0.59    3.37
  15 -12  -3    0.54    2.71
   3 -15   3    0.40    3.36
  12   3   3    1.53    2.33
  15 -12   0   33.04    4.13
   3 -15   0   38.78    4.80
  15 -12   3   20.68    4.17
 -15  12  -3   19.79    2.68
  15 -12   6   10.01    3.68
 -15  12  -6    3.26    2.29
   3 -15  -6    9.95    4.04
  15 -12   9    8.90    4.27
   3 -15  -9    6.41    4.12
 -15  12  -9    2.49    2.25
   3 -15 -12   69.83    7.08
 -15  12 -12   65.06    4.74
  15 -12  12   79.89    7.46
   3 -15 -15   82.76    7.49
 -15  12 -15   69.59    4.92
  15 -12  15   72.98    7.09
 -15  12 -18    0.85    2.20
   3 -15 -18    9.70    4.11
 -15  12 -21   11.55    2.61
   3 -15 -21   20.46    5.10
   3 -15 -24    7.94    4.90
  15 -11 -28    1.36    2.65
  15 -11 -25   -0.22    2.21
  -4  15 -25   -0.80    2.14
  15 -11 -22    8.61    2.84
  -4  15 -22    9.71    2.67
 -11  -4 -22    9.06    2.51
  15 -11 -19   29.23    3.96
 -11  -4 -19   29.45    3.26
  15 -11 -16    2.43    2.60
   4 -15  16    3.74    5.31
 -11  -4 -16    2.61    2.31
 -11  -4 -13   17.74    2.62
   4 -15  13   20.38    5.81
  15 -11 -13   17.68    3.13
   4 -15  10    1.04    3.88
  15 -11  -7    0.64    2.80
   4 -15   7    0.55    3.36
  11   4   4   10.26    2.57
   4 -15   4    5.74    2.92
  15 -11  -4    9.15    2.78
  11   4   1    1.73    1.99
   4 -15   1   -2.73    3.12
 -15  11   1   -0.53    1.52
  15 -11  -1    2.21    2.73
   4 -15  -2    5.70    3.19
 -15  11  -2    2.94    1.92
  15 -11   2    1.08    2.66
 -15  11  -5   -1.44    2.01
  15 -11   5    2.82    2.87
   4 -15  -8  130.10    8.74
 -15  11  -8  129.34    6.67
   4 -15 -11   62.91    6.73
 -15  11 -11   62.79    4.30
  15 -11  11   67.64    6.84
   4 -15 -14   20.15    4.84
  15 -11  14   24.04    5.15
 -15  11 -14   17.86    2.79
   4 -15 -17   13.61    4.11
 -15  11 -17    5.06    2.31
   4 -15 -20    2.67    3.58
 -15  11 -20   -0.42    2.07
   4 -15 -23    2.78    3.76
   4 -15 -26    7.17    4.41
  15 -10 -29    3.96    2.42
  15 -10 -26    5.16    2.59
  -5  15 -26    5.23    2.31
  15 -10 -23    9.30    2.57
  -5  15 -23   11.65    2.54
  -5  15 -20  123.10    6.72
  15 -10 -20  112.30    6.94
   5 -15  17   65.58    8.82
  15 -10 -17   55.37    4.66
   5 -15  14   13.00    5.52
  15 -10 -14   10.75    2.55
   5 -15  11   13.48    4.46
  15 -10 -11   10.65    2.74
   5 -15   8   -2.44    3.33
  10   5   5   41.57    3.70
 -15  10   5   34.28    2.57
  15 -10  -5   32.68    3.79
   5 -15   2   14.18    3.24
  10   5   2   18.51    2.76
 -15  10   2   19.55    2.00
  15 -10  -2   17.65    3.04
   5 -15  -1   30.63    4.16
  10   5  -1   32.47    3.14
 -15  10  -1   34.99    2.78
  15 -10   1   34.91    3.70
 -15  10  -4   28.92    2.72
  15 -10   4   29.45    3.66
 -15  10  -7  131.26    6.60
  15 -10   7  118.53    7.60
   5 -15  -7  136.65    8.79
 -15  10 -10  499.95   21.06
  15 -10  10  498.01   23.01
   5 -15 -10  485.27   23.14
 -15  10 -13   57.66    3.95
  15 -10  13   65.69    6.05
   5 -15 -13   53.57    5.78
 -15  10 -16    6.23    2.17
   5 -15 -16    3.17    3.62
 -15  10 -19   13.91    2.52
   5 -15 -19   12.56    4.16
 -15  10 -22   18.97    2.94
   5 -15 -22   19.92    4.70
  15  -9 -27    1.79    2.32
  -6  15 -27    4.56    2.23
  -6  15 -24    1.88    2.35
  15  -9 -24    3.89    2.41
  -6  15 -21   77.11    5.12
  15  -9 -21   55.84    4.78
   6 -15  18  113.19   10.04
  15  -9 -18   64.95    4.97
   6 -15  15    6.93    5.05
  15  -9 -15   -0.10    2.28
  15  -9 -12    9.01    2.47
   6 -15  12   15.46    4.28
   6 -15   9    3.80    3.22
 -15   9   9    5.82    1.39
   6 -15   6   20.72    3.84
 -15   9   6   24.48    2.14
   9   6   3   39.36    3.51
 -15   9   3   33.90    2.55
   6 -15   3   28.50    4.10
   9   6   0    9.28    2.28
 -15   9   0    8.51    1.60
   6 -15   0    9.81    3.04
 -15   9  -3   20.82    2.12
   6 -15  -3   24.64    4.02
   9   6  -3   22.67    2.63
 -15   9  -6   32.04    2.67
 -15   9  -9  375.25   16.51
  15  -9   9  393.78   18.10
   6 -15  -9  410.84   18.86
 -15   9 -12  135.81    6.85
  15  -9  12  138.03    8.58
   6 -15 -12  138.77    9.02
 -15   9 -15    0.62    1.91
   6 -15 -15   -1.26    3.37
  15  -9  15    3.29    3.90
 -15   9 -18    2.61    2.25
   6 -15 -18    2.37    3.41
 -15   9 -21   12.34    2.34
   6 -15 -21   10.73    4.01
 -15   9 -24   13.27    2.45
   6 -15 -24   13.36    4.00
   6 -15 -27   -4.50    4.12
  -7  15 -28    1.72    2.24
  -7  15 -25    1.65    2.28
  15  -8 -25    1.94    2.29
  -7  15 -22    3.26    2.41
  15  -8 -22    3.35    2.28
  -7  15 -19    4.14    2.12
  15  -8 -19    0.92    2.59
   7 -15  16   21.79    5.49
   7 -15  13    9.44    4.28
   7 -15  10  123.97    8.35
 -15   8  10  106.42    5.20
 -15   8   7   10.76    1.52
   7 -15   7    9.59    3.57
 -15   8   4   51.24    3.11
   7 -15   4   43.55    5.21
   8   7   4   56.30    4.21
   8   7   1    7.61    2.10
   7 -15   1    2.45    2.94
 -15   8   1    2.93    1.17
   8   7  -2    1.51    1.84
   7 -15  -2    4.31    2.95
 -15   8  -2    2.46    1.30
 -15   8  -5    9.58    1.58
 -15   8  -8   79.74    4.43
   7 -15  -8   80.11    6.23
   7 -15 -11   13.96    3.95
 -15   8 -11   17.55    2.30
 -15   8 -14   26.28    2.68
   7 -15 -14   25.74    4.39
  15  -8  14   30.13    4.09
 -15   8 -17   -0.71    2.02
   7 -15 -17   -1.48    3.25
  15  -8  17    4.30    3.82
 -15   8 -20   11.10    2.52
   7 -15 -20   13.07    3.85
 -15   8 -23    5.01    2.17
   7 -15 -26   -0.17    3.68
  15  -7 -29    4.57    2.74
  -8  15 -26    9.65    2.40
  15  -7 -26    7.85    2.63
  -8  15 -23    0.82    2.00
  15  -7 -23    0.10    2.37
  -8  15 -20   19.41    2.96
   8 -15  17   71.76    7.72
  -8  15 -17   54.31    4.12
   8 -15  14   10.50    4.37
   8 -15  11  288.63   15.44
 -15   7   8  198.99    8.81
   8 -15   8  227.34   12.11
 -15   7   5   23.05    1.99
   8 -15   5   23.55    4.17
 -15   7   2   42.79    2.77
   8 -15   2   44.55    5.10
   7   8   2   48.82    3.92
   7   8  -1    5.48    2.09
   8 -15  -1    6.81    2.85
 -15   7  -1    4.98    1.32
   8 -15  -4   14.94    3.37
 -15   7  -4   14.57    1.73
   7   8  -4   19.68    2.53
 -15   7  -7   11.98    1.79
   8 -15 -10    4.95    3.11
 -15   7 -10    6.55    1.74
 -15   7 -13  138.05    6.94
   8 -15 -13  143.15    8.70
   8 -15 -16    9.32    3.15
 -15   7 -16   10.35    2.40
 -15   7 -19   89.67    5.38
   8 -15 -19   88.83    6.64
 -15   7 -22   29.92    3.27
   8 -15 -22   38.66    4.69
 -15   7 -25    3.14    2.11
   8 -15 -25   -0.16    3.32
   8 -15 -28    0.34    3.75
  -9  15 -27   14.98    2.72
  15  -6 -27    9.71    2.91
  -9  15 -24    1.79    2.16
  -9  15 -21   10.10    2.44
   9 -15  18   26.87    5.79
  -9  15 -18   20.44    2.81
   9 -15  15   13.78    4.71
   9 -15  12  164.58   10.64
   9 -15   9  278.13   15.19
   9 -15   6    1.57    3.58
 -15   6   6    0.66    1.27
 -15   6   3  136.03    6.40
   9 -15   3  142.27    8.86
   9 -15   0    4.46    3.27
 -15   6   0    4.90    1.39
   6   9   0    4.95    2.34
 -15   6  -3    4.49    1.41
   6   9  -3    6.57    2.31
   9 -15  -3    8.28    2.93
 -15   6  -6   11.89    1.87
   6   9  -6   16.50    2.74
 -15   6  -9    2.91    1.61
   9 -15  -9    1.46    3.23
 -15   6 -12   57.14    3.83
   9 -15 -12   52.34    5.26
 -15   6 -15   30.32    3.03
   9 -15 -15   38.61    4.56
 -15   6 -18   43.05    3.76
   9 -15 -18   57.14    5.33
   9 -15 -21   70.41    5.82
 -15   6 -21   61.47    4.42
   9 -15 -24    2.43    3.25
 -15   6 -24    4.31    2.27
   9 -15 -27    2.09    3.34
 -10  15 -25    1.28    2.19
 -10  15 -22    0.55    2.15
 -10  15 -19    9.44    2.46
 -10  15 -16    5.02    2.06
  10 -15  16   14.79    4.78
  10 -15  13   20.15    5.11
  10 -15  10   44.59    6.01
  10 -15   7    9.20    4.15
 -15   5   7    9.20    1.52
 -15   5   4  172.35    8.00
  10 -15   4  204.59   11.36
 -15   5   1   19.74    2.10
  10 -15   1   23.15    4.26
 -15   5  -2    0.11    1.39
  10 -15  -2    0.31    2.66
   5  10  -2    3.40    2.32
 -15   5  -5    0.92    1.34
  10 -15  -5    1.04    2.69
   5  10  -5    1.77    2.57
 -15   5  -8   43.58    3.22
 -15   5 -11   23.72    2.61
  10 -15 -11   20.11    3.84
 -15   5 -14    0.22    2.07
 -15   5 -17   -0.15    2.09
  10 -15 -17    0.82    2.90
 -15   5 -20    4.85    2.21
  10 -15 -20    2.59    2.91
 -15   5 -23    1.34    2.23
  10 -15 -23    1.99    3.27
 -11  15 -23   -0.64    2.13
 -11  15 -20   40.41    3.71
 -11  15 -17   66.96    4.78
  11 -15  17   78.79    7.60
  11 -15  14    8.45    4.46
 -11  15 -14    3.90    1.98
  11 -15  11   -2.54    4.02
  11 -15   8   48.84    6.30
  11 -15   5  161.84   10.31
 -15   4   5  155.07    7.14
 -15   4   2    9.17    1.81
  11 -15   2    8.50    3.62
 -15   4  -1   10.20    1.84
  11 -15  -1    8.93    3.49
 -15   4  -4    3.86    1.71
  11 -15  -4    0.91    3.35
   4  11  -4    3.27    2.98
 -15   4  -7   15.12    2.20
  11 -15 -10  123.01    7.80
 -15   4 -10  118.65    6.30
  11 -15 -13   48.36    4.69
 -15   4 -13   37.70    3.57
 -15   4 -16   -0.39    2.29
  11 -15 -16   -1.67    3.00
 -15   4 -19    2.86    2.22
  11 -15 -19    2.34    3.04
 -15   4 -22   25.04    3.12
  11 -15 -22   25.57    4.01
  11 -15 -25   14.76    3.72
  11 -15 -28    4.26    3.62
 -12  15 -24    1.04    2.30
 -12  15 -21    6.60    2.69
 -12  15 -18   40.56    3.71
  12 -15  15    5.17    4.14
 -12  15 -15    2.44    2.12
  12 -15  12   -0.48    4.01
  12 -15   9   -1.56    4.30
  12 -15   6   63.67    6.67
 -15   3   3    9.72    1.63
  12 -15   3    6.88    3.61
  12 -15   0   26.91    4.48
 -15   3   0   25.94    2.37
 -15   3  -3    0.94    1.76
  12 -15  -3    0.16    3.20
 -15   3  -6    2.34    1.84
  12 -15  -6    6.26    3.06
 -15   3  -9   56.35    3.96
  12 -15 -12   57.03    5.39
 -15   3 -12   56.39    4.01
 -15   3 -15   14.33    2.61
  12 -15 -15   12.51    3.54
 -15   3 -18    1.25    2.35
  12 -15 -18    4.43    3.33
 -15   3 -21    8.69    2.64
  12 -15 -21    9.18    3.37
 -15   3 -24   17.41    3.00
  12 -15 -24   13.87    3.90
  12 -15 -27    4.35    3.42
  -2 -13 -22    1.98    7.08
 -13  15 -22    5.78    2.41
  -2 -13 -19   -5.01    7.76
 -13  15 -19   -0.75    2.37
  13 -15  16    1.73    3.65
 -13  15 -16   -0.09    2.54
  -2 -13 -16   -4.02    6.83
  -2 -13 -13   -1.30    6.39
  13 -15  13    5.64    4.05
  -2 -13 -10   86.98   10.27
  13 -15   7    8.45    4.14
  -2 -13  -7    2.37    6.32
  13 -15   4    4.54    3.91
  -2 -13  -4    5.23    6.56
  13 -15   1   -2.32    3.34
 -15   2   1    0.87    1.45
 -15   2  -2   -0.17    1.64
  13 -15  -2    1.35    3.17
 -15   2  -5   19.98    2.38
  13 -15  -5   17.45    3.71
 -15   2  -8    0.78    2.00
 -15   2 -11    1.91    2.17
  13 -15 -11    0.61    3.20
 -15   2 -14   -1.30    2.39
  13 -15 -14   -1.66    3.38
  13 -15 -17   33.79    4.57
 -15   2 -17   28.92    3.28
 -15   2 -20   24.34    3.31
  13 -15 -20   31.73    4.57
 -15   2 -23   -0.18    2.38
  13 -15 -26    1.22    3.34
  -1 -14 -23    6.71    7.69
 -14  15 -20   18.94    2.88
  -1 -14 -20   14.99    7.24
  -1 -14 -17   19.47    7.24
  -1 -14 -14    0.68    6.79
 -14  15 -14    0.65    2.43
  14 -15  14    4.02    4.09
  14 -15  11  157.60   11.49
 -14  15 -11  175.21    8.99
  14 -15   8  161.26   11.36
  -1 -14  -8  196.54   14.48
  14 -15   5    4.49    4.03
  -1 -14  -5   -2.99    6.05
  14 -15   2   22.71    4.42
  -1 -14   1   -1.70    6.26
  14 -15  -1    6.20    3.42
 -15   1  -1    5.01    1.64
  14 -15  -4    6.34    3.26
 -15   1  -4    7.66    1.96
  14 -15  -7   -1.59    3.18
 -15   1  -7   -0.20    1.86
 -15   1 -10   -0.15    2.13
  14 -15 -13   25.21    4.03
 -15   1 -13   20.14    2.89
  14 -15 -16    6.30    3.56
 -15   1 -16    5.02    2.45
  14 -15 -19   71.55    6.12
 -15   1 -19   70.40    5.00
  14 -15 -22   22.89    4.35
 -15   1 -22   25.10    3.31
   0 -15 -24   -0.40    7.61
   0 -15 -18   17.43    6.92
 -15  15 -15   -2.23    2.33
   0 -15 -15    4.94    6.39
  15 -15  12   60.56    7.35
 -15  15 -12   66.96    4.95
   0 -15 -12   78.05   10.11
  15 -15   9  118.48    9.76
 -15  15  -9  128.82    7.31
   0 -15  -6   25.06    7.12
  15 -15   6    2.64    3.84
  15 -15   3   33.15    5.07
  15 -15   0    1.07    3.44
   0 -15   0   -2.48    5.91
  15 -15  -3   -1.21    3.21
 -15   0  -3    0.42    1.66
  15 -15  -6    3.72    3.23
   0 -15   6   -3.04    6.14
 -15   0  -6    4.57    1.93
 -15   0  -9    3.29    1.95
  15 -15 -12    9.46    3.41
 -15   0 -12    6.72    2.35
  15 -15 -15    4.89    3.32
 -15   0 -15    4.17    2.42
  15 -15 -18   25.50    4.21
 -15   0 -18   17.52    2.95
  15 -15 -21   27.46    4.55
 -15   0 -21   28.62    3.44
 -15  -1 -20    2.07    2.41
  16 -15 -17   -0.47    3.02
 -15  -1 -17    0.33    2.14
  16 -15 -14    0.65    3.20
 -15  -1 -14   -1.17    2.29
 -15  -1 -11   -1.85    2.21
  16 -15  -8    2.33    3.28
   1 -16   8    1.74    5.45
 -15  -1  -8    2.24    1.91
   1 -16   5   -0.31    5.60
  16 -15  -5   -0.68    3.31
 -15  -1  -5   -0.13    1.83
  16 -15  -2    9.37    3.87
   1 -16   2   -2.09    5.44
   1 -16  -1    0.62    5.41
  16 -15   1    7.97    4.15
  16 -15   4   27.91    4.99
 -16  15  -4   24.48    3.18
  16 -15   7    1.50    3.90
 -16  15  -7    6.49    2.65
   1 -16  -7    5.80    6.26
  16 -15  10   12.90    5.01
   1 -16 -10   18.16    7.08
 -16  15 -10   16.27    3.08
  16 -15  13    8.20    4.57
 -16  15 -13    6.87    2.69
   1 -16 -13   16.66    6.74
 -16  15 -16   -0.99    2.26
   1 -16 -16    2.09    5.85
   1 -16 -19   -1.08    6.43
   1 -16 -22   -3.01    7.17
 -14  -2 -21   -1.32    2.55
  16 -14 -18    0.57    2.87
 -14  -2 -18   -1.68    2.42
  16 -14 -15    1.87    2.92
 -14  -2 -15    0.72    2.21
  16 -14 -12    1.37    3.18
 -14  -2 -12    2.21    2.26
   2 -16   9   -3.97    5.44
 -14  -2  -9   -0.07    1.87
  16 -14  -6    7.42    3.44
   2 -16   6    4.10    4.76
 -14  -2  -6    3.77    1.99
  16 -14  -3   27.80    4.43
   2 -16   3   19.16    5.49
   2 -16   0  144.98   10.80
  16 -14   0  142.71    9.38
  16 -14   3   19.11    4.47
 -16  14  -3   17.33    3.10
   2 -16  -6   11.44    5.49
  16 -14   6   10.21    4.17
 -16  14  -6    7.71    2.73
   2 -16  -9    6.44    5.56
  16 -14   9    0.69    4.56
 -16  14  -9    6.84    2.63
   2 -16 -12   11.06    5.96
  16 -14  12    8.08    4.43
 -16  14 -12    9.56    2.75
   2 -16 -15    4.16    5.55
 -16  14 -15    2.00    2.31
   2 -16 -18    3.25    5.18
 -16  14 -18    2.48    2.35
   2 -16 -21    0.91    5.03
   2 -16 -24    3.26    6.16
  16 -13 -22    1.78    2.81
 -13  -3 -22   -1.93    2.42
  16 -13 -19    3.01    2.81
 -13  -3 -19   -2.45    2.54
  16 -13 -16    6.00    3.10
 -13  -3 -16    4.45    2.28
  16 -13 -13   15.79    3.64
   3 -16  13   10.01    6.28
 -13  -3 -13   12.61    2.52
   3 -16  10    4.31    4.72
 -13  -3 -10    6.83    2.12
  16 -13  -7   10.08    3.61
   3 -16   7   12.25    4.58
  16 -13  -4   13.73    3.74
   3 -16   4   14.53    4.34
   3 -16   1  217.80   13.25
  16 -13  -1  232.67   12.61
   3 -16  -2  140.39   10.07
 -16  13  -2  134.05    7.46
  16 -13   2  154.20    9.42
  16 -13   5    5.20    3.82
 -16  13  -5   -1.95    2.66
  16 -13   8    2.69    4.23
 -16  13  -8    3.28    2.50
   3 -16  -8    5.93    4.65
  16 -13  11   24.81    5.40
 -16  13 -11   29.23    3.48
   3 -16 -11   25.31    5.74
 -16  13 -14   37.65    3.74
  16 -13  14   40.43    5.91
   3 -16 -14   44.49    6.44
 -16  13 -17    0.55    2.12
   3 -16 -17    2.93    4.32
 -16  13 -20   -1.32    2.13
   3 -16 -23   -1.67    4.93
  16 -12 -23    0.96    2.56
  -4  16 -23   -0.10    2.35
  16 -12 -20    9.49    3.04
  -4  16 -20    9.38    2.66
 -12  -4 -20    5.77    2.52
  16 -12 -17   -0.78    2.67
 -12  -4 -17   -0.33    2.39
   4 -16  14   50.14    8.40
  16 -12 -14   34.05    4.04
  16 -12 -11   16.51    3.43
   4 -16  11   20.41    5.64
   4 -16   8    1.33    3.76
  16 -12  -5    8.03    3.11
   4 -16   5    8.00    3.73
   4 -16   2   73.58    6.54
 -16  12   2   75.65    4.76
  16 -12  -2   79.11    6.20
   4 -16  -1   46.59    5.55
 -16  12  -1   47.89    3.84
  16 -12   1   49.74    5.27
  16 -12   4    0.93    3.38
 -16  12  -4   -1.63    2.44
  16 -12   7    2.24    3.93
   4 -16  -7    7.57    4.13
 -16  12  -7    2.34    2.36
  16 -12  10   17.91    5.23
   4 -16 -10   13.09    4.67
 -16  12 -10   16.28    2.75
  16 -12  13   16.54    5.49
   4 -16 -13   10.73    4.79
 -16  12 -13   12.34    2.72
   4 -16 -16   13.41    4.47
 -16  12 -16   13.49    2.62
 -16  12 -19   -0.61    2.29
   4 -16 -22    1.11    4.11
  16 -11 -24   -1.66    2.54
  -5  16 -24    0.38    2.14
  -5  16 -21   34.34    3.61
  16 -11 -21   30.47    3.58
  16 -11 -18   36.24    4.01
   5 -16  18   58.81    9.82
   5 -16  15   20.63    6.66
  16 -11 -15   17.87    3.30
   5 -16  12   45.56    6.77
  16 -11 -12   33.53    3.94
   5 -16   9   -0.22    3.63
 -16  11   6    6.37    1.71
   5 -16   6    7.81    3.45
  16 -11  -6    8.39    2.93
   5 -16   3    3.87    3.17
 -16  11   3    5.46    1.74
  16 -11  -3    8.13    2.99
   5 -16   0    7.00    3.59
 -16  11   0    1.93    1.82
  16 -11   0    3.03    2.76
 -16  11  -3   85.98    4.91
  16 -11   3   91.87    6.38
 -16  11  -6   13.57    2.55
  16 -11   6    5.88    3.59
   5 -16  -9  195.58   11.89
 -16  11  -9  190.73    9.26
  16 -11   9  189.86   11.24
   5 -16 -12   54.77    6.45
 -16  11 -12   55.44    4.13
   5 -16 -15    5.42    4.09
  16 -11  15    9.44    5.19
 -16  11 -15    2.02    2.11
   5 -16 -18    8.75    4.27
 -16  11 -18    7.75    2.27
   5 -16 -21    9.32    3.78
 -16  11 -21    5.29    2.29
  16 -10 -25    1.82    2.46
  -6  16 -25    1.16    2.26
  -6  16 -22   27.49    3.45
  -6  16 -19   86.94    5.27
  16 -10 -19   67.63    5.44
   6 -16  16   -0.34    6.30
  16 -10 -16   -0.78    2.38
  16 -10 -13   32.42    3.61
 -16  10  10    0.09    1.27
   6 -16  10    1.24    3.48
   6 -16   7   11.18    3.73
 -16  10   7   14.97    1.79
  16 -10  -7   20.01    3.25
   6 -16   4    4.26    3.27
 -16  10   4   -0.16    1.39
  16 -10  -4   -0.25    2.43
 -16  10   1    3.94    1.48
  16 -10  -1    7.88    2.75
   6 -16   1    5.29    3.21
 -16  10  -2  111.15    5.86
  16 -10   2  112.48    7.26
   6 -16  -2  119.65    8.26
 -16  10  -5   42.47    3.32
  16 -10   5   52.71    4.76
 -16  10  -8  169.56    8.20
  16 -10   8  164.59    9.80
   6 -16  -8  174.21   10.68
 -16  10 -11  225.49   10.46
  16 -10  11  233.95   12.80
   6 -16 -11  226.55   12.88
 -16  10 -14    3.58    2.09
   6 -16 -14    0.70    3.78
  16 -10  14    8.03    4.42
 -16  10 -17   11.67    2.41
   6 -16 -17   12.27    3.84
 -16  10 -20   11.81    2.60
   6 -16 -20    5.99    3.74
 -16  10 -23    2.46    2.13
   6 -16 -23    2.42    3.69
   6 -16 -26   -1.44    4.22
  -7  16 -26    3.45    2.49
  16  -9 -26    1.89    2.57
  -7  16 -23    4.47    2.31
  16  -9 -23    5.56    2.48
  -7  16 -20   36.60    3.49
  16  -9 -20   25.26    3.43
   7 -16  17    7.40    6.29
  16  -9 -17   -0.45    2.38
  16  -9 -14   30.36    3.59
   7 -16  14   48.39    6.81
   7 -16  11   -1.10    3.87
   7 -16   8   30.63    4.75
 -16   9   8   24.90    2.10
 -16   9   5    0.69    1.21
   7 -16   5    1.63    3.26
   9   7   2    4.75    2.49
 -16   9   2    1.97    1.34
   7 -16   2    1.05    2.98
 -16   9  -1    0.52    1.37
   7 -16  -1   -2.67    3.41
 -16   9  -4   11.32    1.90
   7 -16  -4   11.31    3.74
 -16   9  -7   29.00    2.67
 -16   9 -10  101.70    5.48
  16  -9  10  102.07    7.17
   7 -16 -10   98.86    7.63
 -16   9 -13    1.86    2.06
   7 -16 -13   -0.48    3.75
  16  -9  13    0.17    3.19
 -16   9 -16    6.53    2.32
   7 -16 -16    5.75    3.46
  16  -9  16   10.44    4.51
 -16   9 -19   -2.57    2.14
   7 -16 -19    0.50    3.50
 -16   9 -22    3.29    2.11
   7 -16 -25    0.36    3.55
  -8  16 -27   15.47    2.85
  16  -8 -27   10.17    2.95
  -8  16 -24    3.10    2.36
  16  -8 -24    2.34    2.34
  -8  16 -21    3.17    2.20
  16  -8 -21   -0.57    2.61
  -8  16 -18    6.16    2.28
   8 -16  15   67.32    8.29
   8 -16  12    0.73    4.47
   8 -16   9   45.70    5.76
 -16   8   6    0.56    1.16
   8 -16   6    0.98    3.46
 -16   8   3    0.54    1.19
   8 -16   3    1.49    3.27
 -16   8   0   56.84    3.45
   8 -16   0   65.26    6.00
   8   8   0   66.13    4.67
 -16   8  -3   35.96    2.60
   8 -16  -3   38.16    4.86
 -16   8  -6    4.96    1.54
   8 -16  -9    2.26    3.41
 -16   8  -9    3.20    1.78
 -16   8 -12   46.16    3.53
   8 -16 -12   37.65    5.09
 -16   8 -15   52.24    3.85
   8 -16 -15   50.43    5.44
 -16   8 -18    5.31    2.22
 -16   8 -21    6.27    2.23
   8 -16 -21    5.82    3.44
   8 -16 -24   -3.98    3.50
  -9  16 -25    6.08    2.50
  16  -7 -25    5.53    2.89
  -9  16 -22    1.97    2.06
  -9  16 -19    3.03    1.98
   9 -16  16   39.18    7.35
   9 -16  13   13.88    4.91
   9 -16  10   40.85    5.96
 -16   7   7    1.15    1.16
   9 -16   7    1.27    3.63
 -16   7   4   21.07    1.89
   9 -16   4   23.81    4.52
 -16   7   1   16.66    1.87
   9 -16   1   16.66    4.07
 -16   7  -2   77.05    4.48
   9 -16  -2   87.05    6.78
   9 -16  -5   13.34    3.46
 -16   7  -5   13.68    2.01
 -16   7  -8    1.83    1.84
   9 -16 -11   31.81    4.70
 -16   7 -11   31.20    2.94
 -16   7 -14   94.04    5.47
   9 -16 -14   91.57    6.98
   9 -16 -17    4.21    3.01
 -16   7 -17    3.39    2.10
 -16   7 -20   29.14    3.15
   9 -16 -20   29.60    4.28
 -16   7 -23    6.11    2.27
   9 -16 -23    2.09    3.15
   9 -16 -26   -0.35    3.68
 -10  16 -23   -0.38    2.09
 -10  16 -20    6.07    2.27
  10 -16  17   -2.18    6.04
 -10  16 -17   -0.49    2.07
  10 -16  14    3.09    4.58
  10 -16  11    6.41    4.54
  10 -16   8    1.63    3.95
 -16   6   5   29.35    2.30
  10 -16   5   32.86    4.92
  10 -16   2   14.66    4.24
 -16   6   2   13.20    1.78
  10 -16  -1    7.05    3.82
 -16   6  -1    5.77    1.69
 -16   6  -4    3.94    1.68
  10 -16  -4   -1.58    3.48
 -16   6  -7   22.79    2.53
 -16   6 -10   38.53    3.33
  10 -16 -10   35.59    4.72
 -16   6 -13   11.62    2.51
  10 -16 -13   13.44    3.90
 -16   6 -16   11.12    2.50
  10 -16 -16   17.36    4.01
  10 -16 -19    4.88    3.44
 -16   6 -19    8.24    2.39
  10 -16 -22    3.34    3.40
 -16   6 -22    8.68    2.34
 -11  16 -21   29.32    3.32
 -11  16 -18   48.42    4.07
  11 -16  15    3.18    5.06
 -11  16 -15   -0.72    2.05
  11 -16  12    6.21    4.70
  11 -16   9    1.20    3.84
  11 -16   6   26.24    4.98
 -16   5   3   30.20    2.56
  11 -16   3   37.72    5.40
 -16   5   0    5.74    1.67
  11 -16   0    4.34    3.64
 -16   5  -3    6.67    1.89
  11 -16  -3    7.06    3.47
 -16   5  -6   10.16    2.23
  11 -16  -6   10.94    3.48
 -16   5  -9  207.60    9.81
  11 -16 -12   79.69    6.60
 -16   5 -12   79.17    5.03
 -16   5 -15    1.02    2.08
  11 -16 -15    0.30    3.04
 -16   5 -18   17.69    2.76
  11 -16 -18   18.10    3.68
 -16   5 -21    5.55    2.55
  11 -16 -21    8.69    3.48
  11 -16 -24    5.78    3.63
 -12  16 -22   16.56    3.10
 -12  16 -19   66.60    4.75
  12 -16  16   13.74    5.78
 -12  16 -16    6.59    2.35
  12 -16  13   22.24    5.52
 -12  16 -13    8.02    2.16
  12 -16  10    3.45    4.21
  12 -16   7    4.86    4.11
  12 -16   4   17.00    4.52
 -16   4   1    4.26    1.65
  12 -16   1    0.19    3.77
 -16   4  -2    7.56    1.93
  12 -16  -2    7.18    3.61
 -16   4  -5    1.71    1.99
  12 -16  -5    2.64    3.18
 -16   4  -8  124.04    6.66
  12 -16 -11  195.65   11.21
 -16   4 -11  200.13    9.59
 -16   4 -14   16.49    2.78
  12 -16 -14   18.72    4.01
 -16   4 -17    9.42    2.54
  12 -16 -17   10.75    3.76
 -16   4 -20   14.21    2.82
  12 -16 -20    7.87    3.59
  12 -16 -23   13.38    3.61
 -13  16 -20   11.26    2.64
 -13  16 -17   -0.27    2.17
  13 -16  11    4.92    4.46
  13 -16   8   14.74    4.76
  13 -16   5    1.14    4.06
  13 -16   2    0.39    3.79
 -16   3  -1    2.66    1.65
  13 -16  -1   -2.07    3.72
 -16   3  -4    1.99    1.83
  13 -16  -4    2.30    3.25
 -16   3  -7   10.99    2.16
  13 -16  -7    9.54    3.67
 -16   3 -10   46.03    3.77
 -16   3 -13    6.44    2.55
  13 -16 -13    2.62    3.42
 -16   3 -16    2.82    2.51
  13 -16 -16    2.61    3.60
 -16   3 -19    3.22    2.52
  13 -16 -19    2.69    3.43
 -16   3 -22   -0.73    2.27
  13 -16 -22    0.80    3.24
 -14  16 -18    8.80    2.54
  14 -16  15   15.50    5.16
  -2 -14 -15   12.99    7.45
  -2 -14 -12   19.34    8.61
 -14  16 -12   15.62    2.76
  14 -16  12   28.71    5.82
  14 -16   9   89.97    8.93
  -2 -14  -9  107.84   12.13
  14 -16   6   -0.23    4.16
  -2 -14  -6   -4.02    7.86
  14 -16   3    7.79    4.27
  14 -16   0   -2.93    3.92
  14 -16  -3   -2.38    3.47
 -16   2  -3    0.49    1.68
 -16   2  -6    1.23    1.99
  14 -16  -6   -1.24    3.29
 -16   2  -9    0.59    2.14
 -16   2 -12   24.46    3.19
  14 -16 -12   29.97    4.59
 -16   2 -15    8.13    2.71
  14 -16 -15    9.21    3.78
 -16   2 -18   17.35    2.97
  14 -16 -18   19.16    4.27
  14 -16 -21   18.25    4.32
 -16   2 -21   20.12    3.13
  -1 -15 -22   -0.45    7.80
  -1 -15 -19   16.46    8.23
  -1 -15 -16   13.02    7.20
 -15  16 -13   15.72    2.83
  15 -16  13   11.81    4.81
  -1 -15 -13   21.42    8.06
  15 -16  10  117.95    9.73
 -15  16 -10  113.23    6.72
  -1 -15  -7   14.93    7.44
  15 -16   7   10.02    4.82
  15 -16   4   39.01    5.87
  15 -16   1    9.49    4.43
  -1 -15  -1    0.38    7.70
  15 -16  -2   -0.97    3.77
  15 -16  -5   11.12    3.92
 -16   1  -5    7.20    1.99
  15 -16  -8    6.63    3.66
 -16   1  -8    7.81    2.08
 -16   1 -11   14.44    2.65
  15 -16 -14   36.62    5.03
 -16   1 -14   27.80    3.37
  15 -16 -17    6.71    3.52
 -16   1 -17   10.84    2.81
  15 -16 -20   35.38    4.93
 -16   1 -20   27.92    3.28
   0 -16 -20   -0.83    7.38
   0 -16 -17   -0.41    7.09
   0 -16 -14    4.11    6.86
 -16  16 -14    5.39    2.42
 -16  16 -11   35.88    3.75
  16 -16  11   33.34    6.25
   0 -16  -8    7.67    7.66
  16 -16   8    4.67    4.30
 -16  16  -8    8.21    2.55
  16 -16   5   45.22    6.17
   0 -16  -5   74.52   10.28
  16 -16   2   28.92    5.16
  16 -16  -1   -2.06    3.82
   0 -16   1   -8.95    7.29
   0 -16   4   -0.36    6.68
  16 -16  -4    5.47    3.70
  16 -16  -7   22.19    4.25
 -16   0  -7   19.02    2.60
 -16   0 -10    5.79    2.17
  16 -16 -13    6.58    3.51
 -16   0 -13    2.55    2.38
  16 -16 -16    3.75    3.41
 -16   0 -16   -0.25    2.38
 -16   0 -19    4.61    2.43
 -16  -1 -18    2.45    2.45
 -16  -1 -15    1.08    2.22
  17 -16 -12    7.14    3.87
 -16  -1 -12    6.24    2.28
  17 -16  -9   24.70    4.87
 -16  -1  -9   19.46    2.83
  17 -16  -6    2.72    3.85
   1 -17   6   -2.59    6.17
   1 -17   3   -4.07    5.91
  17 -16  -3   -1.20    4.06
  17 -16   0    0.41    4.06
   1 -17   0   -2.77    6.03
  17 -16   3   18.66    4.71
 -17  16  -3   20.67    3.00
   1 -17  -6   42.61    8.69
  17 -16   6   32.14    5.63
 -17  16  -6   39.51    3.71
  17 -16   9    0.54    4.49
 -17  16  -9    3.21    2.41
   1 -17  -9   -1.24    6.73
  17 -16  12    3.90    4.70
 -17  16 -12    1.63    2.35
   1 -17 -12    3.81    6.93
   1 -17 -15    2.93    6.99
 -15  -2 -19    0.88    2.32
  17 -15 -16   -0.62    2.94
 -15  -2 -16    2.24    2.32
  17 -15 -13   -1.35    3.54
 -15  -2 -13   -1.57    2.40
   2 -17  10   -0.39    6.62
 -15  -2 -10   -0.82    2.17
  17 -15  -7    8.76    3.71
 -15  -2  -7    5.80    2.24
   2 -17   7    2.57    5.53
  17 -15  -4    0.18    3.61
   2 -17   4    3.33    5.12
   2 -17   1   62.39    8.24
  17 -15  -1   58.77    6.62
  17 -15   2   17.69    4.91
   2 -17  -2   20.24    6.58
 -17  15  -2   22.68    3.18
  17 -15   5   21.56    5.19
 -17  15  -5   27.48    3.35
  17 -15   8   16.67    4.97
   2 -17  -8   15.77    6.50
 -17  15  -8   23.28    3.23
   2 -17 -11    0.35    5.88
  17 -15  11   -1.07    4.20
 -17  15 -11    0.41    2.25
   2 -17 -14    0.34    5.76
 -17  15 -14    4.15    2.32
   2 -17 -17   16.03    6.83
   2 -17 -20    0.34    5.91
 -14  -3 -20   -0.70    2.50
  17 -14 -17   -0.44    3.12
 -14  -3 -17    2.68    2.25
  17 -14 -14   -1.99    2.99
 -14  -3 -14   -1.28    2.20
   3 -17  11    4.68    6.29
  17 -14  -8   38.42    4.98
   3 -17   8   28.02    6.40
  17 -14  -5   13.23    4.00
   3 -17   5   10.52    5.18
   3 -17   2  109.96    9.62
  17 -14  -2  135.18    8.89
 -17  14  -1  176.85    8.99
   3 -17  -1  186.60   12.45
  17 -14   1  182.87   11.28
  17 -14   4    5.48    4.08
 -17  14  -4    2.34    2.55
   3 -17  -7   23.88    6.28
  17 -14   7   21.37    5.29
 -17  14  -7   20.60    3.13
  17 -14  10    5.36    4.71
 -17  14 -10   12.54    2.85
   3 -17 -10   12.92    5.57
  17 -14  13   -0.54    4.34
 -17  14 -13    1.23    2.23
   3 -17 -13    7.36    5.47
   3 -17 -16    4.22    5.31
 -17  14 -16    1.90    2.43
   3 -17 -19    6.92    5.87
  -4  17 -21   -0.50    2.39
  17 -13 -18    1.94    2.75
  17 -13 -15    0.15    2.66
   4 -17  15    4.27    7.52
  17 -13 -12   12.10    3.57
   4 -17  12    8.98    6.30
   4 -17   9    6.04    5.09
  17 -13  -6    5.47    3.29
   4 -17   6    2.19    4.02
 -17  13   3   58.28    4.28
   4 -17   3   63.02    7.02
  17 -13  -3   66.40    5.97
   4 -17   0  163.00   11.16
 -17  13   0  163.28    8.41
  17 -13   0  183.24   10.87
  17 -13   3   17.37    4.82
 -17  13  -3   19.23    3.02
  17 -13   6    8.75    4.47
 -17  13  -6    4.15    2.41
  17 -13   9   -1.89    4.70
 -17  13  -9    2.90    2.43
   4 -17  -9    2.22    4.27
  17 -13  12    6.22    4.60
 -17  13 -12    1.89    2.23
   4 -17 -12    1.24    4.43
 -17  13 -15   -0.09    2.07
   4 -17 -15    4.90    4.31
 -17  13 -18    0.76    2.10
   4 -17 -18   -0.24    4.51
   4 -17 -21    2.48    4.57
  -5  17 -22    0.30    2.20
  17 -12 -19   14.18    3.20
  17 -12 -16    1.49    2.50
   5 -17  16    3.70    7.96
   5 -17  13   22.22    6.99
   5 -17  10    3.33    5.26
 -17  12   7   13.09    2.14
  17 -12  -7   12.95    3.51
 -17  12   4   26.01    2.68
   5 -17   4   26.38    4.75
  17 -12  -4   31.41    4.44
 -17  12   1   28.96    3.07
   5 -17   1   30.62    5.11
  17 -12  -1   25.42    4.53
   5 -17  -2    6.55    4.33
 -17  12  -2    0.57    2.35
  17 -12   2    6.29    3.77
  17 -12   5   36.01    5.09
 -17  12  -5   30.28    3.18
  17 -12   8    1.55    3.64
   5 -17  -8    6.73    4.38
 -17  12  -8    6.01    2.29
  17 -12  11   19.96    5.31
   5 -17 -11   12.53    4.66
 -17  12 -11    8.68    2.40
  17 -12  14   -3.63    5.07
   5 -17 -14   -0.22    4.13
 -17  12 -14   -0.50    2.05
   5 -17 -17    1.52    3.79
 -17  12 -17   -1.66    2.15
   5 -17 -23    0.91    4.02
  -6  17 -23    2.85    2.45
  17 -11 -20   13.84    3.00
  -6  17 -20   17.55    3.15
   6 -17  17   12.34    8.66
  17 -11 -17    2.67    2.61
   6 -17  14   18.56    6.97
  17 -11 -14   11.98    2.95
  17 -11 -11    0.88    2.59
   6 -17   8   51.47    6.35
 -17  11   8   41.78    3.03
  17 -11  -8   46.02    4.64
 -17  11   5   21.97    2.38
   6 -17   5   28.86    4.84
  17 -11  -5   25.82    3.88
   6 -17   2    4.87    3.65
 -17  11   2   -0.88    1.85
  17 -11  -2    1.39    2.88
   6 -17  -1   33.70    5.41
 -17  11  -1   39.43    3.22
  17 -11   1   37.64    4.69
   6 -17  -4  147.82   10.07
 -17  11  -4  136.37    7.13
  17 -11   4  152.64    9.06
 -17  11  -7    1.13    2.00
  17 -11   7    5.95    3.62
 -17  11 -10   68.71    4.37
  17 -11  10   65.14    6.92
   6 -17 -10   71.39    7.08
  17 -11  13   11.65    4.90
 -17  11 -13    7.41    2.27
   6 -17 -13    9.64    4.14
 -17  11 -16   -2.26    2.26
   6 -17 -16   -0.40    3.71
   6 -17 -19   -4.61    3.99
 -17  11 -19   -1.94    2.15
   6 -17 -22   -1.24    3.95
  -7  17 -24   -0.91    2.38
  -7  17 -21    7.46    2.75
  17 -10 -21    8.83    2.82
  17 -10 -18    7.42    2.82
   7 -17  15   15.97    7.59
  17 -10 -12    3.31    2.69
   7 -17  12    1.46    4.64
   7 -17   9   23.86    5.32
   7 -17   6   13.17    4.30
 -17  10   6   11.67    1.77
   7 -17   3    2.09    3.72
 -17  10   3    2.80    1.60
 -17  10   0    2.05    1.64
   7 -17   0   -1.41    4.15
 -17  10  -3   62.70    4.07
  17 -10   3   65.53    5.51
   7 -17  -3   71.74    6.79
 -17  10  -6   21.32    2.60
  17 -10   6   39.50    4.66
 -17  10  -9   28.11    2.86
   7 -17  -9   29.23    5.23
  17 -10   9   29.56    4.45
 -17  10 -12   10.13    2.24
   7 -17 -12    6.89    4.07
  17 -10  12   15.21    4.25
 -17  10 -15   -2.43    2.01
   7 -17 -15    1.69    3.63
  17 -10  15    0.27    4.39
 -17  10 -18   -0.60    2.15
   7 -17 -18    0.74    3.39
 -17  10 -21   -0.45    2.13
   7 -17 -21    1.48    3.57
  -8  17 -22   -0.79    2.41
  17  -9 -22   -0.12    2.46
  -8  17 -19    3.55    2.22
  17  -9 -19    2.97    2.65
   8 -17  16   14.34    7.44
   8 -17  13   29.23    6.92
   8 -17  10   -0.27    4.32
   8 -17   7   -0.94    4.06
 -17   9   4    1.67    1.35
   8 -17   4   -1.07    3.73
 -17   9   1   88.04    4.75
   8 -17   1  103.07    8.26
 -17   9  -2   36.79    2.85
   8 -17  -2   50.16    6.04
 -17   9  -5    6.74    1.93
   8 -17  -5    5.71    3.96
 -17   9  -8   -1.53    2.10
 -17   9 -11    0.74    1.96
   8 -17 -11   -3.22    3.84
 -17   9 -14    9.99    2.40
   8 -17 -14    8.51    3.84
  17  -9  14   16.20    4.43
 -17   9 -17    1.76    1.91
   8 -17 -17   -0.51    3.24
 -17   9 -20    1.12    2.07
   8 -17 -20   -1.25    3.53
   8 -17 -23    0.19    3.53
  -9  17 -23    1.87    2.25
  17  -8 -23    2.35    2.72
  -9  17 -20   -1.04    2.21
  -9  17 -17    0.41    1.77
   9 -17  14   24.68    7.23
   9 -17  11   13.24    5.39
   9 -17   8   13.04    4.62
 -17   8   5    3.72    1.36
   9 -17   5    4.75    4.05
 -17   8   2   94.16    4.87
   9 -17   2  106.73    8.51
 -17   8  -1  222.66   10.12
   9 -17  -1  249.25   13.59
   9 -17  -4   27.34    5.03
 -17   8  -4   21.83    2.42
 -17   8  -7   -0.93    2.07
   9 -17 -10    8.45    3.95
 -17   8 -10    9.44    2.24
 -17   8 -13   40.17    3.42
   9 -17 -13   37.33    4.99
 -17   8 -16    6.28    2.13
   9 -17 -16    3.73    3.18
 -17   8 -19    7.68    2.16
   9 -17 -19    3.10    3.12
   9 -17 -22   -2.64    3.62
 -10  17 -21    2.07    2.28
 -10  17 -18   -0.34    2.06
  10 -17  15   11.58    7.37
  10 -17  12   10.05    5.81
  10 -17   9    1.74    4.40
  10 -17   6    3.26    4.20
  10 -17   3   19.36    5.06
 -17   7   3   16.09    1.98
 -17   7   0  107.20    5.66
  10 -17   0  117.08    8.63
 -17   7  -3   23.71    2.52
  10 -17  -3   32.60    4.82
  10 -17  -6   -0.91    3.73
 -17   7  -6   -0.44    1.87
 -17   7  -9   -0.07    2.12
  10 -17 -12    7.17    3.88
 -17   7 -12    5.74    2.16
  10 -17 -15   13.72    3.74
 -17   7 -15   14.73    2.47
  10 -17 -18    2.22    3.06
 -17   7 -18    4.23    2.21
 -17   7 -21    0.35    2.05
  10 -17 -21    3.28    3.16
  10 -17 -24   -0.89    3.27
 -11  17 -19   25.76    3.14
 -11  17 -16   -2.42    2.36
  11 -17  16   -3.81    5.98
  11 -17  13   11.86    6.09
  11 -17  10    2.15    4.97
  11 -17   7   -0.54    4.68
  11 -17   4    0.69    3.84
  11 -17   1    1.10    4.05
 -17   6   1   -0.65    1.62
 -17   6  -2    3.25    1.89
  11 -17  -2    4.97    4.28
 -17   6  -5    4.29    2.13
  11 -17  -5    6.37    4.05
 -17   6  -8   44.59    3.70
 -17   6 -11   60.47    4.33
  11 -17 -11   61.97    6.15
 -17   6 -14    2.63    2.23
  11 -17 -14    5.21    3.43
 -17   6 -17    8.96    2.34
  11 -17 -17    9.93    3.65
  11 -17 -20    4.53    3.42
 -17   6 -20    3.55    2.25
  11 -17 -23   -0.17    3.41
 -12  17 -20   41.49    3.83
 -12  17 -17    9.67    2.47
  12 -17  14   19.34    6.28
 -12  17 -14   10.49    2.17
  12 -17  11    9.07    6.08
  12 -17   5    2.12    4.36
  12 -17   2   -1.38    4.01
  12 -17  -1   27.97    5.22
 -17   5  -1   27.63    2.68
  12 -17  -4   46.30    5.54
 -17   5  -4   36.23    3.17
 -17   5  -7   21.17    2.69
  12 -17  -7   21.10    4.56
  12 -17 -10  162.37   10.31
 -17   5 -10  173.27    8.62
  12 -17 -13   34.84    4.90
 -17   5 -13   33.55    3.31
 -17   5 -16   12.40    2.49
  12 -17 -16   12.01    3.70
 -17   5 -19    4.97    2.47
  12 -17 -19   12.21    3.66
  12 -17 -22    3.76    3.65
 -13  17 -18   14.25    2.69
  13 -17  15   20.37    6.22
 -13  17 -15   12.62    2.39
  13 -17   9    8.97    5.27
  13 -17   6    8.47    4.56
  13 -17   3   -0.92    4.13
  13 -17  -3   25.65    4.78
 -17   4  -3   21.61    2.56
 -17   4  -6    3.00    2.09
  13 -17  -6    2.00    3.60
 -17   4  -9   80.40    5.09
 -17   4 -12   24.65    3.15
  13 -17 -12   28.24    4.74
 -17   4 -15    6.27    2.53
  13 -17 -15    6.57    3.75
 -17   4 -18    6.86    2.72
  13 -17 -18    2.42    3.44
  13 -17 -21    6.35    3.51
 -14  17 -16    9.56    2.37
  14 -17  13   11.64    5.31
  14 -17  10   12.89    5.60
  14 -17   7    9.02    4.68
  14 -17   4   -4.14    5.19
  14 -17   1    4.20    4.12
  14 -17  -2    2.99    3.82
 -17   3  -5    1.39    1.93
  14 -17  -5   -0.58    3.76
 -17   3  -8    3.65    2.31
  14 -17  -8    6.00    4.06
 -17   3 -11    7.37    2.41
  14 -17 -11    0.18    3.76
 -17   3 -14   20.32    3.00
  14 -17 -14   22.34    4.35
 -17   3 -17    3.67    2.59
  14 -17 -17    0.87    3.46
 -17   3 -20   -0.46    2.40
 -15  17 -14    7.15    2.55
  -2 -15 -11   13.49    8.39
 -15  17 -11   12.12    2.42
  15 -17  11   17.62    5.64
  15 -17   8   10.46    5.30
  15 -17   5   -1.19    4.44
  15 -17   2   -2.93    4.82
  15 -17  -1   18.25    4.89
  15 -17  -4   14.02    4.40
  15 -17  -7   -2.90    3.73
 -17   2  -7    2.61    2.16
 -17   2 -10    6.33    2.49
  15 -17 -13   43.43    5.58
 -17   2 -13   41.86    3.92
  15 -17 -16    7.55    3.76
 -17   2 -16    5.86    2.59
 -17   2 -19   10.37    2.90
  -1 -16 -18   -1.93    8.50
  -1 -16 -15    2.85    7.82
  -1 -16 -12    8.14    8.52
 -16  17 -12    5.97    2.42
  16 -17  12    7.63    4.69
 -16  17  -9    7.37    2.34
  16 -17   9    8.42    4.56
  -1 -16  -9    5.71    7.94
  -1 -16  -6   24.35    8.62
  16 -17   6    7.56    4.43
  16 -17   3   14.90    4.98
  16 -17   0   -1.72    4.27
  16 -17  -3    4.53    4.01
  16 -17  -6   13.81    4.56
 -17   1  -9    5.23    2.31
  16 -17 -12    8.05    4.18
 -17   1 -12    7.28    2.56
 -17   1 -15    6.43    2.50
 -17   1 -18    5.86    2.51
   0 -17 -13    0.95    7.97
 -17  17 -10    3.25    2.34
  17 -17  10    1.15    4.56
   0 -17 -10    4.28    8.04
  17 -17   7    9.02    4.76
 -17  17  -7   11.94    2.52
   0 -17  -7   15.60    8.06
  17 -17   4   29.18    5.71
 -17  17  -4   29.39    3.22
   0 -17  -1    7.17    7.08
  17 -17   1    5.05    4.54
  17 -17  -2   -2.38    4.11
   0 -17   2   -0.41    6.18
  17 -17  -5   -0.21    3.96
  17 -17  -8   35.80    5.71
 -17   0 -11   20.30    2.88
 -17   0 -14    1.93    2.29
 -17   0 -17    1.61    2.38
 -17  -1 -16    3.37    2.59
 -17  -1 -13   10.64    2.69
  18 -17  -7   10.94    4.55
   1 -18   4    2.03    6.44
  18 -17  -4    0.21    3.98
   1 -18   1    2.37    6.37
  18 -17  -1   -0.65    4.15
  18 -17   2    1.90    4.18
 -18  17  -2    1.46    2.23
   1 -18  -2   -3.69    6.71
  18 -17   5    5.83    4.64
 -18  17  -5    7.52    2.50
  18 -17   8    0.28    4.54
 -18  17  -8    2.73    2.36
  18 -17  11   -0.30    4.92
 -16  -2 -17    3.11    2.46
 -16  -2 -14    4.55    2.45
 -16  -2 -11    7.23    2.50
  18 -16  -8    2.09    3.77
   2 -18   8   -2.83    6.78
  18 -16  -5    7.66    4.12
   2 -18   5    2.46    5.63
  18 -16  -2    1.88    3.90
   2 -18   2   -6.57    6.12
   2 -18  -1    9.68    6.30
  18 -16   1    9.75    4.54
 -18  16  -1    9.95    2.67
  18 -16   4    3.36    4.30
 -18  16  -4    8.34    2.45
  18 -16   7    9.80    4.48
 -18  16  -7    8.89    2.69
   2 -18  -7   20.38    7.25
  18 -16  10   -1.50    4.91
 -18  16 -10    0.41    2.13
   2 -18 -10   -2.45    6.50
 -15  -3 -18    7.70    2.64
   3 -18  12   -2.43    7.74
   3 -18   9    3.74    6.14
  18 -15  -6   32.79    5.18
   3 -18   6   31.77    7.28
  18 -15  -3    4.95    3.90
 -18  15   3    2.13    2.29
   3 -18   3    2.49    5.41
 -18  15   0   64.13    4.62
   3 -18   0   67.79    8.54
  18 -15   0   59.21    6.86
  18 -15   3    6.39    4.46
   3 -18  -3   11.96    5.81
 -18  15  -3   10.97    2.84
  18 -15   6    7.34    4.53
 -18  15  -6    8.72    2.46
   3 -18  -9    2.07    5.63
  18 -15   9    2.54    4.56
 -18  15  -9    1.11    2.41
   3 -18 -12   -1.39    5.67
  18 -15  12    1.75    4.52
 -18  15 -12    1.12    2.09
   3 -18 -15    7.88    6.29
  18 -14 -13   -1.48    3.30
   4 -18  13   -1.45    8.18
   4 -18  10    3.37    6.17
  18 -14  -7   27.12    4.97
   4 -18   7   27.99    6.52
  18 -14  -4    4.55    4.02
   4 -18   4    8.01    4.89
 -18  14   4    2.74    2.08
 -18  14   1   61.25    4.39
   4 -18   1   63.72    7.64
  18 -14  -1   61.03    6.52
   4 -18  -2   51.88    7.20
  18 -14   2   44.73    6.04
 -18  14  -2   38.94    3.71
 -18  14  -5   -0.35    2.16
  18 -14   8    7.70    4.38
 -18  14  -8    1.97    2.36
   4 -18  -8    2.31    4.75
  18 -14  11    1.84    4.72
 -18  14 -11   -1.31    2.24
   4 -18 -11    1.73    4.61
 -18  14 -14   -0.50    2.15
   4 -18 -14    0.85    4.44
   4 -18 -17    5.92    5.17
  -5  18 -20    1.22    2.39
   5 -18  17    9.50   11.45
  18 -13 -14    4.60    3.30
   5 -18  14    1.51    7.29
   5 -18  11    5.35    6.39
   5 -18   8    0.30    5.10
 -18  13   8    1.78    1.91
  18 -13  -5    5.75    3.69
   5 -18   5    1.64    4.62
 -18  13   5    1.06    1.89
  18 -13  -2    7.88    3.96
 -18  13   2   11.65    2.43
   5 -18   2   11.80    4.93
  18 -13   1    7.37    3.98
 -18  13  -1    7.99    2.36
   5 -18  -1    9.25    4.83
  18 -13   4    4.21    3.82
 -18  13  -4    0.72    2.17
   5 -18  -4    5.03    4.63
  18 -13   7   -1.65    4.20
 -18  13  -7    1.15    2.01
  18 -13  10    3.97    5.05
 -18  13 -10   -1.49    2.05
   5 -18 -10   -0.77    4.35
  18 -13  13   -0.34    5.20
 -18  13 -13   -1.70    2.04
 -18  13 -16    2.14    2.27
   5 -18 -16    2.71    4.02
  -6  18 -21   -1.74    2.46
  18 -12 -18    1.80    2.60
   6 -18  15    9.76    8.64
   6 -18  12   18.59    7.06
  18 -12 -12    9.34    3.31
   6 -18   9   70.02    8.87
 -18  12   6   16.77    2.36
   6 -18   6   29.93    6.01
  18 -12  -6   23.89    4.30
 -18  12   3    0.74    1.81
   6 -18   3    2.39    4.13
  18 -12  -3    0.65    3.31
   6 -18   0    3.31    4.60
 -18  12   0   -1.39    1.84
  18 -12   0   -2.03    4.02
   6 -18  -3   39.72    6.17
 -18  12  -3   33.03    3.28
  18 -12   3   40.61    5.38
 -18  12  -6   17.14    2.59
  18 -12   6   26.92    5.07
  18 -12   9    1.58    3.72
 -18  12  -9    0.63    1.93
   6 -18 -12    0.23    4.01
 -18  12 -12   -1.45    1.89
   6 -18 -15    1.82    3.97
 -18  12 -15   -0.95    1.90
   6 -18 -18   12.83    4.47
  -7  18 -22   -0.78    2.78
  -7  18 -19   -0.10    2.36
   7 -18  16    1.14    9.21
  18 -11 -16    3.78    2.80
   7 -18  13    6.39    7.17
  18 -11 -13    3.94    2.81
   7 -18  10   58.80    8.29
   7 -18   7   44.51    6.55
  18 -11  -7   34.22    4.48
   7 -18   4    3.94    4.35
 -18  11   4    1.05    1.80
  18 -11  -4    1.98    3.13
   7 -18   1   -4.33    4.79
 -18  11   1   -0.29    1.68
  18 -11  -1   -1.25    3.48
   7 -18  -2   16.90    5.20
 -18  11  -2   20.24    2.52
  18 -11   2   27.57    4.39
 -18  11  -5   47.85    3.80
  18 -11   5   63.35    5.78
   7 -18  -5   55.84    6.94
 -18  11  -8   -1.11    1.91
  18 -11   8    4.41    3.55
 -18  11 -11    0.82    1.93
   7 -18 -11    0.43    3.76
  18 -11  11    6.14    4.37
 -18  11 -14   -0.66    1.84
   7 -18 -14   -3.75    3.83
 -18  11 -17    3.94    2.30
   7 -18 -17    5.15    3.78
   7 -18 -20    4.17    3.95
  -8  18 -20   -0.77    2.28
  18 -10 -17    2.88    2.67
  18 -10 -14    2.21    2.77
   8 -18  14   -0.47    7.45
   8 -18  11    3.89    5.58
   8 -18   8    2.66    4.96
   8 -18   5    2.67    4.65
 -18  10   2   24.65    2.45
   8 -18   2   35.73    6.17
 -18  10  -1   30.68    2.73
   8 -18  -1   34.95    5.87
 -18  10  -4    9.88    1.98
   8 -18  -4   11.38    4.88
 -18  10  -7    9.12    2.17
 -18  10 -10   -1.15    1.97
   8 -18 -10   -3.14    3.99
  18 -10  10    1.12    3.40
 -18  10 -13   -2.54    1.96
   8 -18 -13    1.82    3.63
  18 -10  13    2.52    3.72
 -18  10 -16    1.59    1.88
   8 -18 -16   -0.99    3.60
 -18  10 -19    1.29    2.14
   8 -18 -19   -0.60    3.61
  -9  18 -18   -0.53    1.89
   9 -18  15    4.98    8.00
   9 -18  12    9.32    6.62
   9 -18   9   27.59    6.97
 -18   9   3   20.68    2.23
   9 -18   3   25.78    5.92
 -18   9   0  163.70    7.95
   9 -18   0  232.04   12.97
 -18   9  -3   29.51    2.79
   9 -18  -3   28.89    5.86
 -18   9  -6   12.39    2.27
   9 -18  -6   13.59    4.86
 -18   9  -9    7.12    2.17
   9 -18  -9    8.81    4.10
 -18   9 -12    3.84    1.93
   9 -18 -12    4.62    3.63
 -18   9 -15    0.08    1.86
   9 -18 -15    0.37    3.32
 -18   9 -18    0.87    2.04
   9 -18 -18    0.55    3.45
 -10  18 -19    3.82    2.11
  10 -18  13   12.85    8.13
  10 -18  10   16.71    6.57
  10 -18   7   36.76    6.88
  10 -18   4    7.03    5.25
 -18   8   1  135.91    6.73
  10 -18   1  157.23   10.96
 -18   8  -2   81.11    4.96
  10 -18  -2   90.33    8.21
  10 -18  -5    3.79    4.23
 -18   8  -5    0.77    2.02
 -18   8  -8    6.59    2.13
  10 -18 -11    5.23    3.45
 -18   8 -11    4.03    2.14
 -18   8 -14    2.50    2.03
  10 -18 -14    0.18    3.25
 -18   8 -17    4.42    2.13
  10 -18 -20   -2.98    3.66
 -11  18 -17    1.72    2.10
  11 -18  14    0.96    7.58
  11 -18  11    4.99    6.52
  11 -18   8   -4.53    5.73
  11 -18   2   25.69    5.79
  11 -18  -1    6.03    4.75
 -18   7  -1    8.76    2.14
  11 -18  -4   18.08    4.60
 -18   7  -4   12.37    2.39
 -18   7  -7    5.08    2.16
  11 -18 -10    2.69    3.72
 -18   7 -10    2.14    2.18
 -18   7 -13    1.22    1.97
  11 -18 -16    0.69    3.14
 -18   7 -16    0.51    2.12
 -18   7 -19    2.69    2.31
 -12  18 -15   -0.54    2.03
  12 -18  12    0.43    6.81
  12 -18   9   15.76    6.71
  12 -18   6   24.07    6.02
  12 -18   3    9.67    4.85
  12 -18   0   -2.66    4.67
 -18   6  -3   54.19    4.05
  12 -18  -3   73.35    7.28
 -18   6  -6   17.63    2.65
  12 -18  -6   15.15    4.68
 -18   6  -9   28.59    3.19
 -18   6 -12   21.60    2.79
  12 -18 -12   21.35    4.48
 -18   6 -15    3.95    2.10
  12 -18 -15    4.02    3.63
  12 -18 -18   -0.19    3.53
 -18   6 -18    0.36    2.25
 -13  18 -16    0.08    1.86
  13 -18  13   20.97    7.39
 -13  18 -13   10.55    2.19
  13 -18  10    3.57    5.90
  13 -18   7   22.21    6.05
  13 -18   4    9.83    5.09
  13 -18   1   -3.49    4.55
  13 -18  -2   17.85    4.94
 -18   5  -5   20.27    2.88
  13 -18  -5   32.02    5.19
 -18   5  -8   16.51    2.81
  13 -18 -11   45.83    5.33
 -18   5 -11   31.93    3.38
 -18   5 -14   -1.12    2.41
  13 -18 -14    4.69    3.61
 -18   5 -17    2.28    2.56
  14 -18  11    2.35    5.52
  14 -18   8   -0.67    5.41
  14 -18   5    3.69    5.05
  14 -18   2   19.16    5.30
  14 -18  -1    3.37    4.40
  14 -18  -4    6.16    3.97
 -18   4  -7    0.53    2.23
  14 -18  -7    1.87    4.16
 -18   4 -10    3.44    2.43
 -18   4 -13    2.95    2.40
  14 -18 -13    4.14    3.85
 -18   4 -16    4.03    2.64
  15 -18  12    5.80    5.68
 -15  18 -12    6.34    2.11
  15 -18   6   -1.40    4.53
  15 -18   3    6.59    4.71
  15 -18   0   54.55    6.76
  15 -18  -3   21.45    5.03
  15 -18  -6   -3.69    4.45
 -18   3  -9    3.40    2.44
 -18   3 -12   17.71    3.05
  15 -18 -12   14.31    4.59
 -18   3 -15    9.26    2.72
 -16  18 -10    0.42    1.83
  16 -18  10   -1.56    4.98
  16 -18   1   23.29    5.49
  16 -18  -2   32.71    5.71
  16 -18  -5    1.08    4.29
  16 -18  -8   -2.76    4.13
 -18   2 -11    3.54    2.45
 -18   2 -14    7.63    2.65
 -18   2 -17    0.18    2.24
  17 -18  11    3.10    4.86
 -17  18  -8    2.44    2.01
  17 -18   8   -2.53    4.38
  17 -18   5    4.58    4.85
  17 -18   2   -0.74    4.29
  17 -18  -1   -2.08    4.46
  17 -18  -4   -2.90    4.41
  17 -18  -7    8.03    4.44
 -18   1 -13    1.33    2.25
 -18   1 -16    1.85    2.43
  18 -18   9   -5.10    5.21
  18 -18   6    1.69    4.40
  18 -18   3   -0.77    4.09
 -18  18  -3    0.38    2.30
  18 -18   0   -1.95    4.16
  18 -18  -3    9.26    4.57
 -19  18  -1    1.83    2.44
  19 -18   4    2.49    4.50
  19 -18   7    0.60    5.05
  19 -18  10    5.30    5.85
  19 -17  -3    1.15    4.18
  19 -17   0    3.35    4.33
 -19  17   0    2.41    2.44
  19 -17   3    1.73    4.23
 -19  17  -3    3.27    2.63
  19 -17   6   -1.68    4.68
 -19  17  -6   -0.42    2.59
  19 -17   9   -0.32    5.14
   3 -19   7    4.81    6.54
  19 -16  -4    6.76    4.34
   3 -19   4    2.59    5.84
 -19  16   4    9.32    2.55
  19 -16  -1    3.65    4.35
 -19  16   1    2.94    2.13
   3 -19   1    2.21    5.77
 -19  16  -2    3.86    2.37
   3 -19  -2    6.74    6.22
  19 -16   5    2.39    4.51
 -19  16  -5    2.61    2.41
  19 -16   8    1.49    4.83
 -19  16  -8    1.14    2.32
  19 -16  11    6.32    6.04
   4 -19  11   -6.42    9.14
  19 -15  -8    5.85    4.03
   4 -19   8   11.58    6.96
  19 -15  -5   30.05    5.34
 -19  15   5   26.44    3.04
   4 -19   5   36.95    7.36
   4 -19   2    4.54    5.24
 -19  15   2    5.35    2.36
  19 -15   1    8.35    4.64
   4 -19  -1    3.91    5.62
 -19  15  -1    6.19    2.32
  19 -15   4    0.49    4.02
   4 -19  -4   -0.68    5.32
 -19  15  -4    0.09    2.29
   4 -19  -7    4.63    6.06
 -19  15  -7   -0.10    2.33
  19 -15  10   12.06    5.90
 -19  15 -10    8.96    2.64
   5 -19  15    6.12   12.40
   5 -19  12    3.16    8.07
  19 -14  -9   -1.48    3.79
   5 -19   9    5.29    6.84
  19 -14  -6   16.22    4.71
   5 -19   6   16.62    6.52
  19 -14  -3   14.34    4.89
   5 -19   3    9.87    5.48
 -19  14   3    9.72    2.37
   5 -19   0    3.10    5.35
  19 -14   0    4.94    4.53
 -19  14   0    3.78    2.10
  19 -14   3    0.47    4.17
 -19  14  -3    0.08    1.99
   5 -19  -3    3.54    4.43
  19 -14   6    2.09    4.15
 -19  14  -6    0.78    2.02
  19 -14   9    5.84    5.02
 -19  14  -9    1.36    2.13
   5 -19  -9    5.91    4.95
  19 -14  12    4.55    6.01
 -19  14 -12    0.19    2.20
   6 -19  16    8.01   13.35
   6 -19  13    6.40   10.30
   6 -19  10   54.91    9.31
   6 -19   7   11.10    6.27
  19 -13  -7    8.94    4.06
 -19  13   4    9.44    2.15
   6 -19   4    7.70    5.30
  19 -13  -4   12.00    4.12
 -19  13   1    6.11    2.00
   6 -19   1    6.66    4.95
  19 -13  -1    2.63    3.77
  19 -13   2   -1.19    3.71
 -19  13  -2    1.19    1.89
   6 -19  -2    2.21    4.63
  19 -13   5    4.87    3.98
   6 -19  -5    3.58    4.68
 -19  13  -5   -0.15    1.86
  19 -13   8    3.29    4.80
   6 -19  -8   -1.36    4.55
 -19  13  -8   -0.82    1.97
  19 -13  11    1.42    5.76
 -19  13 -11    0.68    1.86
 -19  13 -14    1.61    2.13
   7 -19  14   10.86   11.04
   7 -19  11   70.10   11.16
  19 -12  -8   50.53    5.53
   7 -19   8   66.57    8.89
   7 -19   5    2.73    5.52
  19 -12  -5   -2.11    3.23
   7 -19   2    6.48    5.21
 -19  12   2    6.10    1.97
  19 -12  -2   10.41    3.78
   7 -19  -1    1.09    4.40
 -19  12  -1    1.51    1.71
  19 -12   1    1.80    3.69
   7 -19  -4    8.61    4.85
 -19  12  -4    3.88    1.78
  19 -12   4   10.21    3.91
 -19  12  -7   -1.33    1.74
  19 -12   7   -0.22    3.72
  19 -12  10    1.87    4.28
   7 -19 -10   -0.25    4.36
 -19  12 -10   -2.64    2.00
   7 -19 -13    3.41    4.33
 -19  12 -13    1.71    2.01
   8 -19  15    1.42   10.86
  19 -11 -12   12.02    3.53
   8 -19  12   27.61    9.71
   8 -19   9   27.98    8.08
  19 -11  -9   19.42    4.36
   8 -19   6   -0.33    5.47
  19 -11  -6    0.16    3.35
   8 -19   3    3.01    4.96
  19 -11  -3    5.63    3.51
   8 -19   0    6.72    5.15
 -19  11   0    3.61    1.70
  19 -11   0    4.96    3.92
 -19  11  -3   -1.05    1.65
  19 -11   3    1.59    3.53
   8 -19  -3   -4.47    5.01
 -19  11  -6    3.11    1.81
  19 -11   6    4.03    3.44
 -19  11  -9    0.44    1.78
   8 -19  -9    1.17    4.04
  19 -11   9    3.60    3.49
 -19  11 -12   -1.41    1.84
   8 -19 -12   -2.46    4.16
  19 -11  12    2.29    4.88
 -19  11 -15    0.46    2.24
   8 -19 -15   -0.43    3.87
   9 -19  13    0.58    8.47
  19 -10 -13    1.36    2.86
   9 -19  10   -1.81    7.87
   9 -19   7   26.66    7.50
   9 -19   4   12.53    6.13
 -19  10   1   30.78    2.70
 -19  10  -2   22.01    2.45
   9 -19  -2   37.92    6.50
 -19  10  -5   -0.19    1.71
   9 -19  -5   -1.00    4.35
 -19  10  -8    2.46    1.69
  19 -10   8    5.07    3.50
 -19  10 -11   -1.94    2.12
   9 -19 -11   -1.57    3.88
  19 -10  11    4.89    3.78
 -19  10 -14    0.42    1.90
   9 -19 -14    1.95    3.76
  10 -19  14    4.01   10.41
  10 -19  11    1.59    8.17
  10 -19   8   55.62    9.55
  10 -19   5   23.48    7.18
  10 -19   2   49.02    7.85
 -19   9  -1   60.61    3.89
  10 -19  -1   75.78    8.31
 -19   9  -4   -1.63    2.20
  10 -19  -4   -1.97    4.60
 -19   9  -7    6.80    1.98
 -19   9 -10    0.53    1.86
  10 -19 -10   -0.22    3.75
 -19   9 -13    0.74    2.02
 -19   9 -16    1.58    2.19
  11 -19  12    4.70    9.03
  11 -19   9   -0.46    7.39
  11 -19   6    4.23    6.54
  11 -19   3   13.62    5.77
  11 -19   0   46.17    6.97
 -19   8  -3   -1.98    2.18
  11 -19  -3   -3.03    4.93
 -19   8  -6   10.49    2.34
  11 -19  -6   24.01    5.22
 -19   8  -9    3.35    2.09
 -19   8 -12    0.33    1.93
  11 -19 -12    0.81    3.59
 -19   8 -15    2.27    2.20
  11 -19 -15    6.01    3.89
  12 -19  13    1.76    8.79
  12 -19   7   25.32    7.92
  12 -19   4    2.35    5.67
  12 -19   1    1.95    4.79
  12 -19  -2   14.09    5.02
 -19   7  -5   32.03    3.19
  12 -19  -5   35.76    5.52
 -19   7  -8    3.93    2.19
  12 -19 -11    2.47    3.65
 -19   7 -11    2.12    2.08
  12 -19 -14   -2.61    3.51
 -19   7 -14    1.63    2.24
 -19   7 -17    3.11    2.33
  13 -19  11   18.03    9.34
  13 -19   8   48.92    9.50
  13 -19   5    4.91    5.31
  13 -19   2   -2.30    4.84
  13 -19  -1   12.80    5.10
  13 -19  -4   40.18    6.23
 -19   6  -7    5.56    2.40
  13 -19  -7    2.97    4.03
 -19   6 -10    8.62    2.44
 -19   6 -13    0.60    2.22
 -19   6 -16    0.09    2.41
  14 -19  12   -2.27    6.99
  14 -19   9    0.78    6.16
  14 -19   0    4.56    4.75
  14 -19  -3   11.98    4.84
  14 -19  -6    9.71    4.38
 -19   5  -9    1.14    2.34
 -19   5 -12   -0.52    2.41
 -19   5 -15   -0.82    2.34
  15 -19  10    1.46    5.84
  15 -19   7    5.23    5.51
  15 -19   4    1.50    4.78
  15 -19   1   46.99    6.78
  15 -19  -5    1.82    4.24
  15 -19  -8   -0.66    4.49
 -19   4 -11   -1.03    2.53
 -19   4 -14   -1.17    2.50
  16 -19  11    3.00    5.45
  16 -19   8    7.85    5.59
  16 -19   5    5.00    5.14
  16 -19  -1   67.29    7.54
  16 -19  -4    2.98    4.35
 -19   3 -13    0.26    2.43
  17 -19   9   -2.65    5.22
  17 -19   3    9.32    5.05
  17 -19   0   21.00    5.26
  18 -19   7   -3.92    5.22
 -20  18   4   -1.05    2.30
 -20  17   2   -1.11    2.33
 -20  17  -1   -0.20    2.44
  20 -17   7    6.42    5.76
 -20  16   3    4.92    2.39
 -20  16   0   -1.34    2.31
  20 -16   3    5.39    4.93
 -20  16  -3    1.58    2.29
  20 -16   6    4.93    4.70
 -20  16  -6   -0.10    2.38
  20 -16   9   33.88    8.09
   5 -20  13   -0.78   11.14
   5 -20  10   -3.87    9.01
   5 -20   7    8.59    7.65
   5 -20   4   12.17    6.22
  20 -15  -1    1.65    4.36
   5 -20   1    7.28    5.90
 -20  15   1    2.47    2.00
  20 -15   2    3.53    4.52
 -20  15  -2    1.53    2.03
  20 -15   5    0.84    4.47
 -20  15  -5    2.84    2.19
  20 -15   8   20.84    6.60
 -20  15  -8   13.80    2.73
   6 -20  14    1.77   13.26
   6 -20   8   19.47    8.58
  20 -14  -5   11.72    4.17
   6 -20   5    6.55    6.92
   6 -20   2   13.82    6.71
  20 -14  -2   13.22    4.55
 -20  14   2   10.16    2.31
  20 -14   1    3.16    4.52
 -20  14  -1   -1.07    2.10
   6 -20  -1    2.99    5.60
  20 -14   4    5.73    4.98
 -20  14  -4    1.32    1.86
   6 -20  -4    0.32    5.07
  20 -14   7   11.60    5.92
 -20  14  -7    5.95    2.42
  20 -14  10    5.38    6.63
 -20  14 -10    1.80    2.16
   7 -20  12    9.57   11.02
   7 -20   9   48.84   10.52
   7 -20   6   -2.43    6.75
  20 -13  -6    7.22    3.93
   7 -20   3   18.96    6.60
  20 -13  -3   17.25    4.51
 -20  13   0   -1.10    1.74
   7 -20   0    2.28    5.30
  20 -13   0   -1.67    3.83
 -20  13  -3    2.79    1.80
   7 -20  -3    2.81    5.14
  20 -13   3    4.46    4.04
  20 -13   6    2.20    4.35
 -20  13  -6    2.09    1.86
  20 -13   9   -0.30    4.96
 -20  13  -9   -0.24    1.93
 -20  13 -12    9.46    2.47
   8 -20  13   21.01   14.12
   8 -20  10   30.80   10.58
   8 -20   7    9.90    7.33
  20 -12  -7    1.92    3.77
   8 -20   4    4.82    6.40
  20 -12  -4    6.35    3.87
   8 -20   1    6.06    5.79
  20 -12  -1    1.11    3.49
   8 -20  -2    7.29    5.17
 -20  12  -2    1.83    1.61
   8 -20  -5    3.30    4.96
 -20  12  -5    0.41    1.61
 -20  12  -8    0.67    1.83
  20 -12   8    5.69    4.45
 -20  12 -11    2.39    2.08
   9 -20  14    6.94   17.07
   9 -20  11    8.55   11.07
  20 -11  -8   -1.22    3.51
  20 -11  -5   11.73    4.11
   9 -20   2   -5.08    6.57
  20 -11  -2    0.73    3.47
  20 -11   1    8.23    3.90
   9 -20  -1    8.03    5.96
 -20  11  -4   -0.26    1.64
  20 -11   4    5.87    3.68
   9 -20  -4   -1.75    4.81
 -20  11  -7    1.57    1.71
 -20  11 -10    5.53    2.15
  20 -11  10    6.03    4.68
 -20  11 -13    1.11    2.20
  10 -20  12   -1.61   11.67
  10 -20   9    7.75   10.41
  10 -20   3    1.91    6.41
  10 -20   0    5.90    5.91
 -20  10  -3    2.11    1.79
  10 -20  -3    0.60    5.01
 -20  10  -6   -0.29    1.83
  10 -20  -6    1.09    4.47
 -20  10  -9    6.91    2.12
  20 -10   9   11.06    4.11
 -20  10 -12    5.81    2.15
  20 -10  12   15.31    5.11
  11 -20  13   -1.80   13.59
  11 -20  10   -3.46   10.74
  11 -20   7   12.77    9.14
  11 -20   4   -1.25    6.66
  11 -20   1    5.29    6.19
  11 -20  -2   -2.09    5.39
 -20   9  -5    1.19    1.82
 -20   9  -8    0.83    1.85
 -20   9 -11    3.03    2.09
 -20   9 -14    0.80    2.33
  12 -20  11   21.02   12.78
  12 -20   8   21.71    9.83
  12 -20   5    2.63    7.44
  12 -20   2    0.71    5.72
  12 -20  -1   -2.75    5.40
  12 -20  -4    7.66    4.97
 -20   8  -7    1.78    1.99
  12 -20  -7    0.50    4.16
 -20   8 -10    1.72    2.04
 -20   8 -13    1.39    2.34
  13 -20  12   20.81   12.20
  13 -20   9   95.03   14.02
  13 -20   3    6.91    6.25
  13 -20   0    2.40    4.95
  13 -20  -3    7.85    4.88
  13 -20  -6    2.87    4.34
 -20   7  -9    2.06    2.20
 -20   7 -12    1.57    2.35
  14 -20   7    5.31    7.11
  14 -20   4    5.57    6.05
  14 -20   1    3.67    4.81
  14 -20  -2    0.84    4.82
  14 -20  -5    0.80    4.42
 -20   6 -11   -1.22    2.40
 -20   6 -14   -0.55    2.44
  15 -20  11   11.98    8.65
  15 -20   8    1.64    6.41
  15 -20   5   18.41    6.47
  15 -20   2    5.21    5.85
  15 -20  -1   19.08    5.60
 -20   5 -13   -1.47    2.55
  16 -20   6    8.54    6.53
  16 -20   3    6.33    5.69
  17 -20  10   -3.62    5.85
  17 -20   7    1.79    5.52
 -21  17   1    0.36    2.38
 -21  16  -1    3.45    2.30
 -21  15  -3    1.26    1.99
  21 -15   6    9.50    6.54
 -21  15  -6    2.80    2.26
  21 -15   9   21.16    8.23
 -21  14  -2    8.22    2.23
 -21  14  -5    5.47    2.10
  21 -14   8    1.09    6.81
 -21  14  -8    3.43    2.28
  21 -13   1    6.23    4.73
 -21  13  -4    4.42    1.85
  21 -13   4    6.26    4.55
  21 -13   7    1.98    5.05
 -21  13  -7    0.60    2.01
  21 -13  10   -5.03    7.38
   9 -21  12    3.53   18.66
   9 -21   9    8.18   12.51
  21 -12   3    0.43    3.90
 -21  12  -6    0.22    1.95
  21 -12   6    3.79    4.60
 -21  12  -9    6.32    2.36
  21 -12   9    8.85    6.27
  10 -21  13    1.43   21.57
  10 -21  10   -8.40   13.99
  10 -21   7   11.15   10.71
  10 -21   4   10.35    8.40
  21 -11  -1    2.98    3.53
  21 -11   2    3.69    3.75
  21 -11   5    2.58    4.13
 -21  11  -8   11.49    2.46
 -21  11 -11   15.55    2.72
  11 -21  11   -3.47   17.00
  11 -21   8    3.15   11.57
  11 -21   2   -0.87    7.21
 -21  10 -10   15.29    2.75
  21 -10  10   21.30    5.13
  12 -21  12    1.27   18.54
  12 -21   9    4.33   14.47
  12 -21   6   -2.41    9.68
  12 -21   3    4.21    7.97
 -21   9 -12   -1.32    2.65
  13 -21  10   46.06   15.89
  13 -21   7    6.89   10.63
  13 -21   4   -0.47    7.07
  14 -21  11   31.58   13.79
   0   0   0    0.00    0.00



TITL 20220905D6 in R-3
REM R-3 (#148 in standard setting)
CELL 0.71073  16.540951  16.540951  29.824877  90.0000  90.0000 120.0000
ZERR   31.00   0.000921   0.000921   0.001861   0.0000   0.0000   0.0000
LATT  3
SYMM -y, x-y, z
SYMM -x+y,-x, z
SFAC C H N O
UNIT 341.00 310.00 31.00 31.00
TREF
HKLF 4
END
_computing_structure_solution     'SHELXT 2018/2 (Sheldrick, 2018)'
_computing_structure_solution     'SHELXT 2018/2 (Sheldrick, 2018)'
;
_shelx_hkl_checksum              1973
_shelx_fab_file
;
0 0 6 0.0000 0.0000
0 0 9 0.0000 0.0000
0 0 12 0.0000 0.0000
0 0 15 0.0000 0.0000
0 0 18 0.0000 0.0000
0 0 21 0.0000 0.0000
0 0 24 0.0000 0.0000
0 0 27 0.0000 0.0000
0 0 30 0.0000 0.0000
0 0 33 0.0000 0.0000
0 0 36 0.0000 0.0000
0 1 -37 0.0000 0.0000
0 1 -34 0.0000 0.0000
0 1 -31 0.0000 0.0000
0 1 -28 0.0000 0.0000
0 1 -25 0.0000 0.0000
0 1 -22 0.0000 0.0000
0 1 -19 0.0000 0.0000
0 1 -16 0.0000 0.0000
0 1 -13 0.0000 0.0000
0 1 -10 0.0000 0.0000
0 1 -7 0.0000 0.0000
0 1 2 0.0000 0.0000
0 1 5 0.0000 0.0000
0 1 8 0.0000 0.0000
0 1 11 0.0000 0.0000
0 1 14 0.0000 0.0000
0 1 17 0.0000 0.0000
0 1 20 0.0000 0.0000
0 1 23 0.0000 0.0000
0 1 26 0.0000 0.0000
0 1 29 0.0000 0.0000
0 1 32 0.0000 0.0000
0 1 35 0.0000 0.0000
0 2 -38 0.0000 0.0000
0 2 -35 0.0000 0.0000
0 2 -32 0.0000 0.0000
0 2 -29 0.0000 0.0000
0 2 -26 0.0000 0.0000
0 2 -23 0.0000 0.0000
0 2 -20 0.0000 0.0000
0 2 -17 0.0000 0.0000
0 2 -14 0.0000 0.0000
0 2 -11 0.0000 0.0000
0 2 -8 0.0000 0.0000
0 2 -5 0.0000 0.0000
0 2 -2 0.0000 0.0000
0 2 1 0.0000 0.0000
0 2 4 0.0000 0.0000
0 2 7 0.0000 0.0000
0 2 10 0.0000 0.0000
0 2 13 0.0000 0.0000
0 2 16 0.0000 0.0000
0 2 19 0.0000 0.0000
0 2 22 0.0000 0.0000
0 2 25 0.0000 0.0000
0 2 28 0.0000 0.0000
0 2 31 0.0000 0.0000
0 2 34 0.0000 0.0000
0 2 37 0.0000 0.0000
0 3 -39 0.0000 0.0000
0 3 -36 0.0000 0.0000
0 3 -33 0.0000 0.0000
0 3 -30 0.0000 0.0000
0 3 -27 0.0000 0.0000
0 3 -24 0.0000 0.0000
0 3 -21 0.0000 0.0000
0 3 -18 0.0000 0.0000
0 3 -15 0.0000 0.0000
0 3 -12 0.0000 0.0000
0 3 -9 0.0000 0.0000
0 3 -6 0.0000 0.0000
0 3 -3 0.0000 0.0000
0 3 0 0.0000 0.0000
0 3 3 0.0000 0.0000
0 3 6 0.0000 0.0000
0 3 9 0.0000 0.0000
0 3 12 0.0000 0.0000
0 3 15 0.0000 0.0000
0 3 18 0.0000 0.0000
0 3 21 0.0000 0.0000
0 3 24 0.0000 0.0000
0 3 27 0.0000 0.0000
0 3 30 0.0000 0.0000
0 3 33 0.0000 0.0000
0 3 36 0.0000 0.0000
0 4 -37 0.0000 0.0000
0 4 -34 0.0000 0.0000
0 4 -31 0.0000 0.0000
0 4 -28 0.0000 0.0000
0 4 -25 0.0000 0.0000
0 4 -22 0.0000 0.0000
0 4 -19 0.0000 0.0000
0 4 -16 0.0000 0.0000
0 4 -13 0.0000 0.0000
0 4 -10 0.0000 0.0000
0 4 -7 0.0000 0.0000
0 4 -4 0.0000 0.0000
0 4 -1 0.0000 0.0000
0 4 2 0.0000 0.0000
0 4 5 0.0000 0.0000
0 4 8 0.0000 0.0000
0 4 11 0.0000 0.0000
0 4 14 0.0000 0.0000
0 4 17 0.0000 0.0000
0 4 20 0.0000 0.0000
0 4 23 0.0000 0.0000
0 4 26 0.0000 0.0000
0 4 29 0.0000 0.0000
0 4 32 0.0000 0.0000
0 4 35 0.0000 0.0000
0 4 38 0.0000 0.0000
0 5 -35 0.0000 0.0000
0 5 -32 0.0000 0.0000
0 5 -29 0.0000 0.0000
0 5 -26 0.0000 0.0000
0 5 -23 0.0000 0.0000
0 5 -20 0.0000 0.0000
0 5 -17 0.0000 0.0000
0 5 -14 0.0000 0.0000
0 5 -11 0.0000 0.0000
0 5 -8 0.0000 0.0000
0 5 -5 0.0000 0.0000
0 5 -2 0.0000 0.0000
0 5 1 0.0000 0.0000
0 5 4 0.0000 0.0000
0 5 7 0.0000 0.0000
0 5 10 0.0000 0.0000
0 5 13 0.0000 0.0000
0 5 16 0.0000 0.0000
0 5 19 0.0000 0.0000
0 5 22 0.0000 0.0000
0 5 25 0.0000 0.0000
0 5 28 0.0000 0.0000
0 5 31 0.0000 0.0000
0 5 34 0.0000 0.0000
0 5 37 0.0000 0.0000
0 6 -36 0.0000 0.0000
0 6 -33 0.0000 0.0000
0 6 -30 0.0000 0.0000
0 6 -27 0.0000 0.0000
0 6 -24 0.0000 0.0000
0 6 -21 0.0000 0.0000
0 6 -18 0.0000 0.0000
0 6 -15 0.0000 0.0000
0 6 -12 0.0000 0.0000
0 6 -9 0.0000 0.0000
0 6 -6 0.0000 0.0000
0 6 -3 0.0000 0.0000
0 6 0 0.0000 0.0000
0 6 3 0.0000 0.0000
0 6 6 0.0000 0.0000
0 6 9 0.0000 0.0000
0 6 12 0.0000 0.0000
0 6 15 0.0000 0.0000
0 6 18 0.0000 0.0000
0 6 21 0.0000 0.0000
0 6 24 0.0000 0.0000
0 6 27 0.0000 0.0000
0 6 30 0.0000 0.0000
0 6 33 0.0000 0.0000
0 6 36 0.0000 0.0000
0 7 -34 0.0000 0.0000
0 7 -31 0.0000 0.0000
0 7 -28 0.0000 0.0000
0 7 -25 0.0000 0.0000
0 7 -22 0.0000 0.0000
0 7 -19 0.0000 0.0000
0 7 -16 0.0000 0.0000
0 7 -13 0.0000 0.0000
0 7 -10 0.0000 0.0000
0 7 -7 0.0000 0.0000
0 7 -4 0.0000 0.0000
0 7 -1 0.0000 0.0000
0 7 2 0.0000 0.0000
0 7 5 0.0000 0.0000
0 7 8 0.0000 0.0000
0 7 11 0.0000 0.0000
0 7 14 0.0000 0.0000
0 7 17 0.0000 0.0000
0 7 20 0.0000 0.0000
0 7 23 0.0000 0.0000
0 7 26 0.0000 0.0000
0 7 29 0.0000 0.0000
0 7 32 0.0000 0.0000
0 7 35 0.0000 0.0000
0 8 -32 0.0000 0.0000
0 8 -29 0.0000 0.0000
0 8 -26 0.0000 0.0000
0 8 -23 0.0000 0.0000
0 8 -20 0.0000 0.0000
0 8 -17 0.0000 0.0000
0 8 -14 0.0000 0.0000
0 8 -11 0.0000 0.0000
0 8 -8 0.0000 0.0000
0 8 -5 0.0000 0.0000
0 8 -2 0.0000 0.0000
0 8 1 0.0000 0.0000
0 8 4 0.0000 0.0000
0 8 7 0.0000 0.0000
0 8 10 0.0000 0.0000
0 8 13 0.0000 0.0000
0 8 16 0.0000 0.0000
0 8 19 0.0000 0.0000
0 8 22 0.0000 0.0000
0 8 25 0.0000 0.0000
0 8 28 0.0000 0.0000
0 8 31 0.0000 0.0000
0 8 34 0.0000 0.0000
0 9 -30 0.0000 0.0000
0 9 -27 0.0000 0.0000
0 9 -24 0.0000 0.0000
0 9 -21 0.0000 0.0000
0 9 -18 0.0000 0.0000
0 9 -15 0.0000 0.0000
0 9 -12 0.0000 0.0000
0 9 -9 0.0000 0.0000
0 9 -6 0.0000 0.0000
0 9 -3 0.0000 0.0000
0 9 0 0.0000 0.0000
0 9 3 0.0000 0.0000
0 9 6 0.0000 0.0000
0 9 9 0.0000 0.0000
0 9 12 0.0000 0.0000
0 9 15 0.0000 0.0000
0 9 18 0.0000 0.0000
0 9 21 0.0000 0.0000
0 9 24 0.0000 0.0000
0 9 27 0.0000 0.0000
0 9 30 0.0000 0.0000
0 9 33 0.0000 0.0000
0 10 -25 0.0000 0.0000
0 10 -22 0.0000 0.0000
0 10 -19 0.0000 0.0000
0 10 -16 0.0000 0.0000
0 10 -13 0.0000 0.0000
0 10 -10 0.0000 0.0000
0 10 -7 0.0000 0.0000
0 10 -4 0.0000 0.0000
0 10 -1 0.0000 0.0000
0 10 2 0.0000 0.0000
0 10 5 0.0000 0.0000
0 10 8 0.0000 0.0000
0 10 11 0.0000 0.0000
0 10 14 0.0000 0.0000
0 10 17 0.0000 0.0000
0 10 20 0.0000 0.0000
0 10 23 0.0000 0.0000
0 10 26 0.0000 0.0000
0 10 29 0.0000 0.0000
0 10 32 0.0000 0.0000
0 11 -26 0.0000 0.0000
0 11 -23 0.0000 0.0000
0 11 -20 0.0000 0.0000
0 11 -17 0.0000 0.0000
0 11 -14 0.0000 0.0000
0 11 -11 0.0000 0.0000
0 11 -8 0.0000 0.0000
0 11 -5 0.0000 0.0000
0 11 -2 0.0000 0.0000
0 11 1 0.0000 0.0000
0 11 4 0.0000 0.0000
0 11 7 0.0000 0.0000
0 11 10 0.0000 0.0000
0 11 13 0.0000 0.0000
0 11 16 0.0000 0.0000
0 11 19 0.0000 0.0000
0 11 22 0.0000 0.0000
0 11 25 0.0000 0.0000
0 11 28 0.0000 0.0000
0 12 -27 0.0000 0.0000
0 12 -24 0.0000 0.0000
0 12 -21 0.0000 0.0000
0 12 -18 0.0000 0.0000
0 12 -15 0.0000 0.0000
0 12 -12 0.0000 0.0000
0 12 -9 0.0000 0.0000
0 12 -6 0.0000 0.0000
0 12 -3 0.0000 0.0000
0 12 0 0.0000 0.0000
0 12 3 0.0000 0.0000
0 12 6 0.0000 0.0000
0 12 9 0.0000 0.0000
0 12 12 0.0000 0.0000
0 12 15 0.0000 0.0000
0 12 18 0.0000 0.0000
0 12 21 0.0000 0.0000
0 12 24 0.0000 0.0000
0 12 27 0.0000 0.0000
0 13 -28 0.0000 0.0000
0 13 -25 0.0000 0.0000
0 13 -22 0.0000 0.0000
0 13 -19 0.0000 0.0000
0 13 -16 0.0000 0.0000
0 13 -13 0.0000 0.0000
0 13 -10 0.0000 0.0000
0 13 -7 0.0000 0.0000
0 13 -4 0.0000 0.0000
0 13 -1 0.0000 0.0000
0 13 2 0.0000 0.0000
0 13 5 0.0000 0.0000
0 13 8 0.0000 0.0000
0 13 11 0.0000 0.0000
0 13 14 0.0000 0.0000
0 13 17 0.0000 0.0000
0 13 20 0.0000 0.0000
0 13 23 0.0000 0.0000
0 14 -26 0.0000 0.0000
0 14 -23 0.0000 0.0000
0 14 -20 0.0000 0.0000
0 14 -17 0.0000 0.0000
0 14 -14 0.0000 0.0000
0 14 -11 0.0000 0.0000
0 14 -8 0.0000 0.0000
0 14 -5 0.0000 0.0000
0 14 -2 0.0000 0.0000
0 14 1 0.0000 0.0000
0 14 4 0.0000 0.0000
0 14 7 0.0000 0.0000
0 14 10 0.0000 0.0000
0 14 13 0.0000 0.0000
0 14 16 0.0000 0.0000
0 14 19 0.0000 0.0000
0 14 22 0.0000 0.0000
0 14 25 0.0000 0.0000
0 15 -21 0.0000 0.0000
0 15 -18 0.0000 0.0000
0 15 -15 0.0000 0.0000
0 15 -12 0.0000 0.0000
0 15 -9 0.0000 0.0000
0 15 -6 0.0000 0.0000
0 15 -3 0.0000 0.0000
0 15 0 0.0000 0.0000
0 15 3 0.0000 0.0000
0 15 6 0.0000 0.0000
0 15 9 0.0000 0.0000
0 15 12 0.0000 0.0000
0 15 15 0.0000 0.0000
0 15 18 0.0000 0.0000
0 15 24 0.0000 0.0000
0 16 -19 0.0000 0.0000
0 16 -16 0.0000 0.0000
0 16 -13 0.0000 0.0000
0 16 -10 0.0000 0.0000
0 16 -7 0.0000 0.0000
0 16 -4 0.0000 0.0000
0 16 -1 0.0000 0.0000
0 16 2 0.0000 0.0000
0 16 5 0.0000 0.0000
0 16 8 0.0000 0.0000
0 16 11 0.0000 0.0000
0 16 14 0.0000 0.0000
0 16 17 0.0000 0.0000
0 16 20 0.0000 0.0000
0 17 -17 0.0000 0.0000
0 17 -14 0.0000 0.0000
0 17 -11 0.0000 0.0000
0 17 -8 0.0000 0.0000
0 17 -5 0.0000 0.0000
0 17 -2 0.0000 0.0000
0 17 1 0.0000 0.0000
0 17 4 0.0000 0.0000
0 17 7 0.0000 0.0000
0 17 10 0.0000 0.0000
0 17 13 0.0000 0.0000
0 18 -3 0.0000 0.0000
0 18 0 0.0000 0.0000
0 18 3 0.0000 0.0000
0 18 6 0.0000 0.0000
0 18 9 0.0000 0.0000
1 1 -36 0.0000 0.0000
1 1 -33 0.0000 0.0000
1 1 -30 0.0000 0.0000
1 1 -27 0.0000 0.0000
1 1 -24 0.0000 0.0000
1 1 -21 0.0000 0.0000
1 1 -18 0.0000 0.0000
1 1 -15 0.0000 0.0000
1 1 -12 0.0000 0.0000
1 1 -9 0.0000 0.0000
1 1 -6 0.0000 0.0000
1 1 -3 0.0000 0.0000
1 1 6 0.0000 0.0000
1 1 9 0.0000 0.0000
1 1 12 0.0000 0.0000
1 1 15 0.0000 0.0000
1 1 18 0.0000 0.0000
1 1 21 0.0000 0.0000
1 1 24 0.0000 0.0000
1 1 27 0.0000 0.0000
1 1 30 0.0000 0.0000
1 1 33 0.0000 0.0000
1 1 36 0.0000 0.0000
1 2 -40 0.0000 0.0000
1 2 -37 0.0000 0.0000
1 2 -34 0.0000 0.0000
1 2 -31 0.0000 0.0000
1 2 -28 0.0000 0.0000
1 2 -25 0.0000 0.0000
1 2 -22 0.0000 0.0000
1 2 -19 0.0000 0.0000
1 2 -16 0.0000 0.0000
1 2 -13 0.0000 0.0000
1 2 -10 0.0000 0.0000
1 2 -7 0.0000 0.0000
1 2 -4 0.0000 0.0000
1 2 -1 0.0000 0.0000
1 2 2 0.0000 0.0000
1 2 5 0.0000 0.0000
1 2 8 0.0000 0.0000
1 2 11 0.0000 0.0000
1 2 14 0.0000 0.0000
1 2 17 0.0000 0.0000
1 2 20 0.0000 0.0000
1 2 23 0.0000 0.0000
1 2 26 0.0000 0.0000
1 2 29 0.0000 0.0000
1 2 32 0.0000 0.0000
1 2 35 0.0000 0.0000
1 3 -38 0.0000 0.0000
1 3 -35 0.0000 0.0000
1 3 -32 0.0000 0.0000
1 3 -29 0.0000 0.0000
1 3 -26 0.0000 0.0000
1 3 -23 0.0000 0.0000
1 3 -20 0.0000 0.0000
1 3 -17 0.0000 0.0000
1 3 -14 0.0000 0.0000
1 3 -11 0.0000 0.0000
1 3 -8 0.0000 0.0000
1 3 -5 0.0000 0.0000
1 3 -2 0.0000 0.0000
1 3 1 0.0000 0.0000
1 3 4 0.0000 0.0000
1 3 7 0.0000 0.0000
1 3 10 0.0000 0.0000
1 3 13 0.0000 0.0000
1 3 16 0.0000 0.0000
1 3 19 0.0000 0.0000
1 3 22 0.0000 0.0000
1 3 25 0.0000 0.0000
1 3 28 0.0000 0.0000
1 3 31 0.0000 0.0000
1 3 34 0.0000 0.0000
1 3 37 0.0000 0.0000
1 4 -36 0.0000 0.0000
1 4 -33 0.0000 0.0000
1 4 -30 0.0000 0.0000
1 4 -27 0.0000 0.0000
1 4 -24 0.0000 0.0000
1 4 -21 0.0000 0.0000
1 4 -18 0.0000 0.0000
1 4 -15 0.0000 0.0000
1 4 -12 0.0000 0.0000
1 4 -9 0.0000 0.0000
1 4 -6 0.0000 0.0000
1 4 -3 0.0000 0.0000
1 4 0 0.0000 0.0000
1 4 3 0.0000 0.0000
1 4 6 0.0000 0.0000
1 4 9 0.0000 0.0000
1 4 12 0.0000 0.0000
1 4 15 0.0000 0.0000
1 4 18 0.0000 0.0000
1 4 21 0.0000 0.0000
1 4 24 0.0000 0.0000
1 4 27 0.0000 0.0000
1 4 30 0.0000 0.0000
1 4 33 0.0000 0.0000
1 4 36 0.0000 0.0000
1 5 -34 0.0000 0.0000
1 5 -31 0.0000 0.0000
1 5 -28 0.0000 0.0000
1 5 -25 0.0000 0.0000
1 5 -22 0.0000 0.0000
1 5 -19 0.0000 0.0000
1 5 -16 0.0000 0.0000
1 5 -13 0.0000 0.0000
1 5 -10 0.0000 0.0000
1 5 -7 0.0000 0.0000
1 5 -4 0.0000 0.0000
1 5 -1 0.0000 0.0000
1 5 2 0.0000 0.0000
1 5 5 0.0000 0.0000
1 5 8 0.0000 0.0000
1 5 11 0.0000 0.0000
1 5 14 0.0000 0.0000
1 5 17 0.0000 0.0000
1 5 20 0.0000 0.0000
1 5 23 0.0000 0.0000
1 5 26 0.0000 0.0000
1 5 29 0.0000 0.0000
1 5 32 0.0000 0.0000
1 5 35 0.0000 0.0000
1 5 38 0.0000 0.0000
1 6 -35 0.0000 0.0000
1 6 -32 0.0000 0.0000
1 6 -29 0.0000 0.0000
1 6 -26 0.0000 0.0000
1 6 -23 0.0000 0.0000
1 6 -20 0.0000 0.0000
1 6 -17 0.0000 0.0000
1 6 -14 0.0000 0.0000
1 6 -11 0.0000 0.0000
1 6 -8 0.0000 0.0000
1 6 -5 0.0000 0.0000
1 6 -2 0.0000 0.0000
1 6 1 0.0000 0.0000
1 6 4 0.0000 0.0000
1 6 7 0.0000 0.0000
1 6 10 0.0000 0.0000
1 6 13 0.0000 0.0000
1 6 16 0.0000 0.0000
1 6 19 0.0000 0.0000
1 6 22 0.0000 0.0000
1 6 25 0.0000 0.0000
1 6 28 0.0000 0.0000
1 6 31 0.0000 0.0000
1 6 34 0.0000 0.0000
1 6 37 0.0000 0.0000
1 7 -33 0.0000 0.0000
1 7 -30 0.0000 0.0000
1 7 -27 0.0000 0.0000
1 7 -24 0.0000 0.0000
1 7 -21 0.0000 0.0000
1 7 -18 0.0000 0.0000
1 7 -15 0.0000 0.0000
1 7 -12 0.0000 0.0000
1 7 -9 0.0000 0.0000
1 7 -6 0.0000 0.0000
1 7 -3 0.0000 0.0000
1 7 0 0.0000 0.0000
1 7 3 0.0000 0.0000
1 7 6 0.0000 0.0000
1 7 9 0.0000 0.0000
1 7 12 0.0000 0.0000
1 7 15 0.0000 0.0000
1 7 18 0.0000 0.0000
1 7 21 0.0000 0.0000
1 7 24 0.0000 0.0000
1 7 27 0.0000 0.0000
1 7 30 0.0000 0.0000
1 7 33 0.0000 0.0000
1 7 36 0.0000 0.0000
1 8 -31 0.0000 0.0000
1 8 -28 0.0000 0.0000
1 8 -25 0.0000 0.0000
1 8 -22 0.0000 0.0000
1 8 -19 0.0000 0.0000
1 8 -16 0.0000 0.0000
1 8 -13 0.0000 0.0000
1 8 -10 0.0000 0.0000
1 8 -7 0.0000 0.0000
1 8 -4 0.0000 0.0000
1 8 -1 0.0000 0.0000
1 8 2 0.0000 0.0000
1 8 5 0.0000 0.0000
1 8 8 0.0000 0.0000
1 8 11 0.0000 0.0000
1 8 14 0.0000 0.0000
1 8 17 0.0000 0.0000
1 8 20 0.0000 0.0000
1 8 23 0.0000 0.0000
1 8 26 0.0000 0.0000
1 8 29 0.0000 0.0000
1 8 32 0.0000 0.0000
1 9 -29 0.0000 0.0000
1 9 -26 0.0000 0.0000
1 9 -23 0.0000 0.0000
1 9 -20 0.0000 0.0000
1 9 -17 0.0000 0.0000
1 9 -14 0.0000 0.0000
1 9 -11 0.0000 0.0000
1 9 -8 0.0000 0.0000
1 9 -5 0.0000 0.0000
1 9 -2 0.0000 0.0000
1 9 1 0.0000 0.0000
1 9 4 0.0000 0.0000
1 9 7 0.0000 0.0000
1 9 10 0.0000 0.0000
1 9 13 0.0000 0.0000
1 9 16 0.0000 0.0000
1 9 19 0.0000 0.0000
1 9 22 0.0000 0.0000
1 9 25 0.0000 0.0000
1 9 28 0.0000 0.0000
1 9 31 0.0000 0.0000
1 10 -27 0.0000 0.0000
1 10 -24 0.0000 0.0000
1 10 -21 0.0000 0.0000
1 10 -18 0.0000 0.0000
1 10 -15 0.0000 0.0000
1 10 -12 0.0000 0.0000
1 10 -9 0.0000 0.0000
1 10 -6 0.0000 0.0000
1 10 -3 0.0000 0.0000
1 10 0 0.0000 0.0000
1 10 3 0.0000 0.0000
1 10 6 0.0000 0.0000
1 10 9 0.0000 0.0000
1 10 12 0.0000 0.0000
1 10 15 0.0000 0.0000
1 10 18 0.0000 0.0000
1 10 21 0.0000 0.0000
1 10 24 0.0000 0.0000
1 10 27 0.0000 0.0000
1 10 30 0.0000 0.0000
1 11 -28 0.0000 0.0000
1 11 -25 0.0000 0.0000
1 11 -22 0.0000 0.0000
1 11 -19 0.0000 0.0000
1 11 -16 0.0000 0.0000
1 11 -13 0.0000 0.0000
1 11 -10 0.0000 0.0000
1 11 -7 0.0000 0.0000
1 11 -4 0.0000 0.0000
1 11 -1 0.0000 0.0000
1 11 2 0.0000 0.0000
1 11 5 0.0000 0.0000
1 11 8 0.0000 0.0000
1 11 11 0.0000 0.0000
1 11 14 0.0000 0.0000
1 11 17 0.0000 0.0000
1 11 20 0.0000 0.0000
1 11 23 0.0000 0.0000
1 11 26 0.0000 0.0000
1 11 29 0.0000 0.0000
1 12 -26 0.0000 0.0000
1 12 -23 0.0000 0.0000
1 12 -20 0.0000 0.0000
1 12 -17 0.0000 0.0000
1 12 -14 0.0000 0.0000
1 12 -11 0.0000 0.0000
1 12 -8 0.0000 0.0000
1 12 -5 0.0000 0.0000
1 12 -2 0.0000 0.0000
1 12 1 0.0000 0.0000
1 12 4 0.0000 0.0000
1 12 7 0.0000 0.0000
1 12 10 0.0000 0.0000
1 12 13 0.0000 0.0000
1 12 16 0.0000 0.0000
1 12 19 0.0000 0.0000
1 12 22 0.0000 0.0000
1 12 25 0.0000 0.0000
1 13 -27 0.0000 0.0000
1 13 -24 0.0000 0.0000
1 13 -21 0.0000 0.0000
1 13 -18 0.0000 0.0000
1 13 -15 0.0000 0.0000
1 13 -12 0.0000 0.0000
1 13 -9 0.0000 0.0000
1 13 -6 0.0000 0.0000
1 13 -3 0.0000 0.0000
1 13 0 0.0000 0.0000
1 13 3 0.0000 0.0000
1 13 6 0.0000 0.0000
1 13 9 0.0000 0.0000
1 13 12 0.0000 0.0000
1 13 15 0.0000 0.0000
1 13 18 0.0000 0.0000
1 13 21 0.0000 0.0000
1 13 24 0.0000 0.0000
1 14 -22 0.0000 0.0000
1 14 -19 0.0000 0.0000
1 14 -16 0.0000 0.0000
1 14 -13 0.0000 0.0000
1 14 -10 0.0000 0.0000
1 14 -7 0.0000 0.0000
1 14 -4 0.0000 0.0000
1 14 -1 0.0000 0.0000
1 14 2 0.0000 0.0000
1 14 5 0.0000 0.0000
1 14 8 0.0000 0.0000
1 14 11 0.0000 0.0000
1 14 14 0.0000 0.0000
1 14 17 0.0000 0.0000
1 14 20 0.0000 0.0000
1 14 23 0.0000 0.0000
1 15 -20 0.0000 0.0000
1 15 -17 0.0000 0.0000
1 15 -14 0.0000 0.0000
1 15 -11 0.0000 0.0000
1 15 -8 0.0000 0.0000
1 15 -5 0.0000 0.0000
1 15 -2 0.0000 0.0000
1 15 1 0.0000 0.0000
1 15 4 0.0000 0.0000
1 15 7 0.0000 0.0000
1 15 10 0.0000 0.0000
1 15 13 0.0000 0.0000
1 15 16 0.0000 0.0000
1 15 19 0.0000 0.0000
1 15 22 0.0000 0.0000
1 16 -18 0.0000 0.0000
1 16 -15 0.0000 0.0000
1 16 -12 0.0000 0.0000
1 16 -9 0.0000 0.0000
1 16 -6 0.0000 0.0000
1 16 -3 0.0000 0.0000
1 16 0 0.0000 0.0000
1 16 3 0.0000 0.0000
1 16 6 0.0000 0.0000
1 16 9 0.0000 0.0000
1 16 12 0.0000 0.0000
1 16 15 0.0000 0.0000
1 16 18 0.0000 0.0000
1 17 -16 0.0000 0.0000
1 17 -13 0.0000 0.0000
1 17 -7 0.0000 0.0000
1 17 -4 0.0000 0.0000
1 17 -1 0.0000 0.0000
1 17 2 0.0000 0.0000
1 17 5 0.0000 0.0000
1 17 8 0.0000 0.0000
1 17 11 0.0000 0.0000
1 18 7 0.0000 0.0000
2 1 -38 0.0000 0.0000
2 1 -35 0.0000 0.0000
2 1 -32 0.0000 0.0000
2 1 -29 0.0000 0.0000
2 1 -26 0.0000 0.0000
2 1 -23 0.0000 0.0000
2 1 -20 0.0000 0.0000
2 1 -17 0.0000 0.0000
2 1 -14 0.0000 0.0000
2 1 -11 0.0000 0.0000
2 1 -8 0.0000 0.0000
2 1 -5 0.0000 0.0000
2 1 -2 0.0000 0.0000
2 1 1 0.0000 0.0000
2 1 4 0.0000 0.0000
2 1 7 0.0000 0.0000
2 1 10 0.0000 0.0000
2 1 13 0.0000 0.0000
2 1 16 0.0000 0.0000
2 1 19 0.0000 0.0000
2 1 22 0.0000 0.0000
2 1 25 0.0000 0.0000
2 1 28 0.0000 0.0000
2 1 31 0.0000 0.0000
2 1 34 0.0000 0.0000
2 1 37 0.0000 0.0000
2 1 40 0.0000 0.0000
2 2 -39 0.0000 0.0000
2 2 -36 0.0000 0.0000
2 2 -33 0.0000 0.0000
2 2 -30 0.0000 0.0000
2 2 -27 0.0000 0.0000
2 2 -24 0.0000 0.0000
2 2 -21 0.0000 0.0000
2 2 -18 0.0000 0.0000
2 2 -15 0.0000 0.0000
2 2 -12 0.0000 0.0000
2 2 -9 0.0000 0.0000
2 2 -6 0.0000 0.0000
2 2 -3 0.0000 0.0000
2 2 0 0.0000 0.0000
2 2 3 0.0000 0.0000
2 2 6 0.0000 0.0000
2 2 9 0.0000 0.0000
2 2 12 0.0000 0.0000
2 2 15 0.0000 0.0000
2 2 18 0.0000 0.0000
2 2 21 0.0000 0.0000
2 2 24 0.0000 0.0000
2 2 27 0.0000 0.0000
2 2 30 0.0000 0.0000
2 2 33 0.0000 0.0000
2 2 36 0.0000 0.0000
2 3 -37 0.0000 0.0000
2 3 -34 0.0000 0.0000
2 3 -31 0.0000 0.0000
2 3 -28 0.0000 0.0000
2 3 -25 0.0000 0.0000
2 3 -22 0.0000 0.0000
2 3 -19 0.0000 0.0000
2 3 -16 0.0000 0.0000
2 3 -13 0.0000 0.0000
2 3 -10 0.0000 0.0000
2 3 -7 0.0000 0.0000
2 3 -4 0.0000 0.0000
2 3 -1 0.0000 0.0000
2 3 2 0.0000 0.0000
2 3 5 0.0000 0.0000
2 3 8 0.0000 0.0000
2 3 11 0.0000 0.0000
2 3 14 0.0000 0.0000
2 3 17 0.0000 0.0000
2 3 20 0.0000 0.0000
2 3 23 0.0000 0.0000
2 3 26 0.0000 0.0000
2 3 29 0.0000 0.0000
2 3 32 0.0000 0.0000
2 3 35 0.0000 0.0000
2 4 -35 0.0000 0.0000
2 4 -32 0.0000 0.0000
2 4 -29 0.0000 0.0000
2 4 -26 0.0000 0.0000
2 4 -23 0.0000 0.0000
2 4 -20 0.0000 0.0000
2 4 -17 0.0000 0.0000
2 4 -14 0.0000 0.0000
2 4 -11 0.0000 0.0000
2 4 -8 0.0000 0.0000
2 4 -5 0.0000 0.0000
2 4 -2 0.0000 0.0000
2 4 1 0.0000 0.0000
2 4 4 0.0000 0.0000
2 4 7 0.0000 0.0000
2 4 10 0.0000 0.0000
2 4 13 0.0000 0.0000
2 4 16 0.0000 0.0000
2 4 19 0.0000 0.0000
2 4 22 0.0000 0.0000
2 4 25 0.0000 0.0000
2 4 28 0.0000 0.0000
2 4 31 0.0000 0.0000
2 4 34 0.0000 0.0000
2 4 37 0.0000 0.0000
2 5 -33 0.0000 0.0000
2 5 -30 0.0000 0.0000
2 5 -27 0.0000 0.0000
2 5 -24 0.0000 0.0000
2 5 -21 0.0000 0.0000
2 5 -18 0.0000 0.0000
2 5 -15 0.0000 0.0000
2 5 -12 0.0000 0.0000
2 5 -9 0.0000 0.0000
2 5 -6 0.0000 0.0000
2 5 -3 0.0000 0.0000
2 5 0 0.0000 0.0000
2 5 3 0.0000 0.0000
2 5 6 0.0000 0.0000
2 5 9 0.0000 0.0000
2 5 12 0.0000 0.0000
2 5 15 0.0000 0.0000
2 5 18 0.0000 0.0000
2 5 21 0.0000 0.0000
2 5 24 0.0000 0.0000
2 5 27 0.0000 0.0000
2 5 30 0.0000 0.0000
2 5 33 0.0000 0.0000
2 5 36 0.0000 0.0000
2 6 -34 0.0000 0.0000
2 6 -31 0.0000 0.0000
2 6 -28 0.0000 0.0000
2 6 -25 0.0000 0.0000
2 6 -22 0.0000 0.0000
2 6 -19 0.0000 0.0000
2 6 -16 0.0000 0.0000
2 6 -13 0.0000 0.0000
2 6 -10 0.0000 0.0000
2 6 -7 0.0000 0.0000
2 6 -4 0.0000 0.0000
2 6 -1 0.0000 0.0000
2 6 2 0.0000 0.0000
2 6 5 0.0000 0.0000
2 6 8 0.0000 0.0000
2 6 11 0.0000 0.0000
2 6 14 0.0000 0.0000
2 6 17 0.0000 0.0000
2 6 20 0.0000 0.0000
2 6 23 0.0000 0.0000
2 6 26 0.0000 0.0000
2 6 29 0.0000 0.0000
2 6 32 0.0000 0.0000
2 6 35 0.0000 0.0000
2 7 -32 0.0000 0.0000
2 7 -29 0.0000 0.0000
2 7 -26 0.0000 0.0000
2 7 -23 0.0000 0.0000
2 7 -20 0.0000 0.0000
2 7 -17 0.0000 0.0000
2 7 -14 0.0000 0.0000
2 7 -11 0.0000 0.0000
2 7 -8 0.0000 0.0000
2 7 -5 0.0000 0.0000
2 7 -2 0.0000 0.0000
2 7 1 0.0000 0.0000
2 7 4 0.0000 0.0000
2 7 7 0.0000 0.0000
2 7 10 0.0000 0.0000
2 7 13 0.0000 0.0000
2 7 16 0.0000 0.0000
2 7 19 0.0000 0.0000
2 7 22 0.0000 0.0000
2 7 25 0.0000 0.0000
2 7 28 0.0000 0.0000
2 7 31 0.0000 0.0000
2 7 34 0.0000 0.0000
2 8 -30 0.0000 0.0000
2 8 -27 0.0000 0.0000
2 8 -24 0.0000 0.0000
2 8 -21 0.0000 0.0000
2 8 -18 0.0000 0.0000
2 8 -15 0.0000 0.0000
2 8 -12 0.0000 0.0000
2 8 -9 0.0000 0.0000
2 8 -6 0.0000 0.0000
2 8 -3 0.0000 0.0000
2 8 0 0.0000 0.0000
2 8 3 0.0000 0.0000
2 8 6 0.0000 0.0000
2 8 9 0.0000 0.0000
2 8 12 0.0000 0.0000
2 8 15 0.0000 0.0000
2 8 18 0.0000 0.0000
2 8 21 0.0000 0.0000
2 8 24 0.0000 0.0000
2 8 27 0.0000 0.0000
2 8 30 0.0000 0.0000
2 8 33 0.0000 0.0000
2 9 -28 0.0000 0.0000
2 9 -25 0.0000 0.0000
2 9 -22 0.0000 0.0000
2 9 -19 0.0000 0.0000
2 9 -16 0.0000 0.0000
2 9 -13 0.0000 0.0000
2 9 -10 0.0000 0.0000
2 9 -7 0.0000 0.0000
2 9 -4 0.0000 0.0000
2 9 -1 0.0000 0.0000
2 9 2 0.0000 0.0000
2 9 5 0.0000 0.0000
2 9 8 0.0000 0.0000
2 9 11 0.0000 0.0000
2 9 14 0.0000 0.0000
2 9 17 0.0000 0.0000
2 9 20 0.0000 0.0000
2 9 23 0.0000 0.0000
2 9 26 0.0000 0.0000
2 9 29 0.0000 0.0000
2 9 32 0.0000 0.0000
2 10 -29 0.0000 0.0000
2 10 -26 0.0000 0.0000
2 10 -23 0.0000 0.0000
2 10 -20 0.0000 0.0000
2 10 -17 0.0000 0.0000
2 10 -14 0.0000 0.0000
2 10 -11 0.0000 0.0000
2 10 -8 0.0000 0.0000
2 10 -5 0.0000 0.0000
2 10 -2 0.0000 0.0000
2 10 1 0.0000 0.0000
2 10 4 0.0000 0.0000
2 10 7 0.0000 0.0000
2 10 10 0.0000 0.0000
2 10 13 0.0000 0.0000
2 10 16 0.0000 0.0000
2 10 19 0.0000 0.0000
2 10 22 0.0000 0.0000
2 10 25 0.0000 0.0000
2 10 28 0.0000 0.0000
2 11 -27 0.0000 0.0000
2 11 -24 0.0000 0.0000
2 11 -21 0.0000 0.0000
2 11 -18 0.0000 0.0000
2 11 -15 0.0000 0.0000
2 11 -12 0.0000 0.0000
2 11 -9 0.0000 0.0000
2 11 -6 0.0000 0.0000
2 11 -3 0.0000 0.0000
2 11 0 0.0000 0.0000
2 11 3 0.0000 0.0000
2 11 6 0.0000 0.0000
2 11 9 0.0000 0.0000
2 11 12 0.0000 0.0000
2 11 15 0.0000 0.0000
2 11 18 0.0000 0.0000
2 11 21 0.0000 0.0000
2 11 24 0.0000 0.0000
2 11 27 0.0000 0.0000
2 12 -28 0.0000 0.0000
2 12 -25 0.0000 0.0000
2 12 -22 0.0000 0.0000
2 12 -19 0.0000 0.0000
2 12 -16 0.0000 0.0000
2 12 -13 0.0000 0.0000
2 12 -10 0.0000 0.0000
2 12 -7 0.0000 0.0000
2 12 -4 0.0000 0.0000
2 12 -1 0.0000 0.0000
2 12 2 0.0000 0.0000
2 12 5 0.0000 0.0000
2 12 8 0.0000 0.0000
2 12 11 0.0000 0.0000
2 12 14 0.0000 0.0000
2 12 17 0.0000 0.0000
2 12 20 0.0000 0.0000
2 12 23 0.0000 0.0000
2 13 -26 0.0000 0.0000
2 13 -23 0.0000 0.0000
2 13 -20 0.0000 0.0000
2 13 -17 0.0000 0.0000
2 13 -14 0.0000 0.0000
2 13 -11 0.0000 0.0000
2 13 -8 0.0000 0.0000
2 13 -5 0.0000 0.0000
2 13 -2 0.0000 0.0000
2 13 1 0.0000 0.0000
2 13 4 0.0000 0.0000
2 13 7 0.0000 0.0000
2 13 10 0.0000 0.0000
2 13 13 0.0000 0.0000
2 13 16 0.0000 0.0000
2 13 19 0.0000 0.0000
2 13 22 0.0000 0.0000
2 14 -21 0.0000 0.0000
2 14 -18 0.0000 0.0000
2 14 -15 0.0000 0.0000
2 14 -12 0.0000 0.0000
2 14 -9 0.0000 0.0000
2 14 -6 0.0000 0.0000
2 14 -3 0.0000 0.0000
2 14 0 0.0000 0.0000
2 14 3 0.0000 0.0000
2 14 6 0.0000 0.0000
2 14 9 0.0000 0.0000
2 14 12 0.0000 0.0000
2 14 15 0.0000 0.0000
2 14 18 0.0000 0.0000
2 15 -19 0.0000 0.0000
2 15 -16 0.0000 0.0000
2 15 -13 0.0000 0.0000
2 15 -10 0.0000 0.0000
2 15 -7 0.0000 0.0000
2 15 -4 0.0000 0.0000
2 15 -1 0.0000 0.0000
2 15 2 0.0000 0.0000
2 15 5 0.0000 0.0000
2 15 8 0.0000 0.0000
2 15 11 0.0000 0.0000
2 15 14 0.0000 0.0000
2 16 -17 0.0000 0.0000
2 16 -14 0.0000 0.0000
2 16 -11 0.0000 0.0000
2 16 -8 0.0000 0.0000
2 16 -5 0.0000 0.0000
2 16 -2 0.0000 0.0000
2 16 1 0.0000 0.0000
2 16 10 0.0000 0.0000
2 17 0 0.0000 0.0000
2 17 3 0.0000 0.0000
2 17 9 0.0000 0.0000
3 1 -37 0.0000 0.0000
3 1 -34 0.0000 0.0000
3 1 -31 0.0000 0.0000
3 1 -28 0.0000 0.0000
3 1 -25 0.0000 0.0000
3 1 -22 0.0000 0.0000
3 1 -19 0.0000 0.0000
3 1 -16 0.0000 0.0000
3 1 -13 0.0000 0.0000
3 1 -10 0.0000 0.0000
3 1 -7 0.0000 0.0000
3 1 -4 0.0000 0.0000
3 1 -1 0.0000 0.0000
3 1 2 0.0000 0.0000
3 1 5 0.0000 0.0000
3 1 11 0.0000 0.0000
3 1 14 0.0000 0.0000
3 1 17 0.0000 0.0000
3 1 20 0.0000 0.0000
3 1 23 0.0000 0.0000
3 1 26 0.0000 0.0000
3 1 29 0.0000 0.0000
3 1 32 0.0000 0.0000
3 1 35 0.0000 0.0000
3 1 38 0.0000 0.0000
3 2 -38 0.0000 0.0000
3 2 -35 0.0000 0.0000
3 2 -32 0.0000 0.0000
3 2 -29 0.0000 0.0000
3 2 -26 0.0000 0.0000
3 2 -23 0.0000 0.0000
3 2 -20 0.0000 0.0000
3 2 -17 0.0000 0.0000
3 2 -14 0.0000 0.0000
3 2 -11 0.0000 0.0000
3 2 -8 0.0000 0.0000
3 2 -5 0.0000 0.0000
3 2 -2 0.0000 0.0000
3 2 1 0.0000 0.0000
3 2 4 0.0000 0.0000
3 2 7 0.0000 0.0000
3 2 10 0.0000 0.0000
3 2 13 0.0000 0.0000
3 2 16 0.0000 0.0000
3 2 19 0.0000 0.0000
3 2 22 0.0000 0.0000
3 2 25 0.0000 0.0000
3 2 28 0.0000 0.0000
3 2 31 0.0000 0.0000
3 2 34 0.0000 0.0000
3 2 37 0.0000 0.0000
3 3 -36 0.0000 0.0000
3 3 -33 0.0000 0.0000
3 3 -30 0.0000 0.0000
3 3 -27 0.0000 0.0000
3 3 -24 0.0000 0.0000
3 3 -21 0.0000 0.0000
3 3 -18 0.0000 0.0000
3 3 -15 0.0000 0.0000
3 3 -12 0.0000 0.0000
3 3 -9 0.0000 0.0000
3 3 -6 0.0000 0.0000
3 3 -3 0.0000 0.0000
3 3 0 0.0000 0.0000
3 3 3 0.0000 0.0000
3 3 6 0.0000 0.0000
3 3 9 0.0000 0.0000
3 3 12 0.0000 0.0000
3 3 15 0.0000 0.0000
3 3 18 0.0000 0.0000
3 3 21 0.0000 0.0000
3 3 24 0.0000 0.0000
3 3 27 0.0000 0.0000
3 3 30 0.0000 0.0000
3 3 33 0.0000 0.0000
3 3 36 0.0000 0.0000
3 4 -34 0.0000 0.0000
3 4 -31 0.0000 0.0000
3 4 -28 0.0000 0.0000
3 4 -25 0.0000 0.0000
3 4 -22 0.0000 0.0000
3 4 -19 0.0000 0.0000
3 4 -16 0.0000 0.0000
3 4 -13 0.0000 0.0000
3 4 -10 0.0000 0.0000
3 4 -7 0.0000 0.0000
3 4 -4 0.0000 0.0000
3 4 -1 0.0000 0.0000
3 4 2 0.0000 0.0000
3 4 5 0.0000 0.0000
3 4 8 0.0000 0.0000
3 4 11 0.0000 0.0000
3 4 14 0.0000 0.0000
3 4 17 0.0000 0.0000
3 4 20 0.0000 0.0000
3 4 23 0.0000 0.0000
3 4 26 0.0000 0.0000
3 4 29 0.0000 0.0000
3 4 32 0.0000 0.0000
3 4 35 0.0000 0.0000
3 5 -35 0.0000 0.0000
3 5 -32 0.0000 0.0000
3 5 -29 0.0000 0.0000
3 5 -26 0.0000 0.0000
3 5 -23 0.0000 0.0000
3 5 -20 0.0000 0.0000
3 5 -17 0.0000 0.0000
3 5 -14 0.0000 0.0000
3 5 -11 0.0000 0.0000
3 5 -8 0.0000 0.0000
3 5 -5 0.0000 0.0000
3 5 -2 0.0000 0.0000
3 5 1 0.0000 0.0000
3 5 4 0.0000 0.0000
3 5 7 0.0000 0.0000
3 5 10 0.0000 0.0000
3 5 13 0.0000 0.0000
3 5 16 0.0000 0.0000
3 5 19 0.0000 0.0000
3 5 22 0.0000 0.0000
3 5 25 0.0000 0.0000
3 5 28 0.0000 0.0000
3 5 31 0.0000 0.0000
3 5 34 0.0000 0.0000
3 6 -33 0.0000 0.0000
3 6 -30 0.0000 0.0000
3 6 -27 0.0000 0.0000
3 6 -24 0.0000 0.0000
3 6 -21 0.0000 0.0000
3 6 -18 0.0000 0.0000
3 6 -15 0.0000 0.0000
3 6 -12 0.0000 0.0000
3 6 -9 0.0000 0.0000
3 6 -6 0.0000 0.0000
3 6 -3 0.0000 0.0000
3 6 0 0.0000 0.0000
3 6 3 0.0000 0.0000
3 6 6 0.0000 0.0000
3 6 9 0.0000 0.0000
3 6 12 0.0000 0.0000
3 6 15 0.0000 0.0000
3 6 18 0.0000 0.0000
3 6 21 0.0000 0.0000
3 6 24 0.0000 0.0000
3 6 27 0.0000 0.0000
3 6 30 0.0000 0.0000
3 6 33 0.0000 0.0000
3 6 36 0.0000 0.0000
3 7 -31 0.0000 0.0000
3 7 -28 0.0000 0.0000
3 7 -25 0.0000 0.0000
3 7 -22 0.0000 0.0000
3 7 -19 0.0000 0.0000
3 7 -16 0.0000 0.0000
3 7 -13 0.0000 0.0000
3 7 -10 0.0000 0.0000
3 7 -7 0.0000 0.0000
3 7 -4 0.0000 0.0000
3 7 -1 0.0000 0.0000
3 7 2 0.0000 0.0000
3 7 5 0.0000 0.0000
3 7 8 0.0000 0.0000
3 7 11 0.0000 0.0000
3 7 14 0.0000 0.0000
3 7 17 0.0000 0.0000
3 7 20 0.0000 0.0000
3 7 23 0.0000 0.0000
3 7 26 0.0000 0.0000
3 7 29 0.0000 0.0000
3 7 32 0.0000 0.0000
3 7 35 0.0000 0.0000
3 8 -29 0.0000 0.0000
3 8 -26 0.0000 0.0000
3 8 -23 0.0000 0.0000
3 8 -20 0.0000 0.0000
3 8 -17 0.0000 0.0000
3 8 -14 0.0000 0.0000
3 8 -11 0.0000 0.0000
3 8 -8 0.0000 0.0000
3 8 -5 0.0000 0.0000
3 8 -2 0.0000 0.0000
3 8 1 0.0000 0.0000
3 8 4 0.0000 0.0000
3 8 7 0.0000 0.0000
3 8 10 0.0000 0.0000
3 8 13 0.0000 0.0000
3 8 16 0.0000 0.0000
3 8 19 0.0000 0.0000
3 8 22 0.0000 0.0000
3 8 25 0.0000 0.0000
3 8 28 0.0000 0.0000
3 8 31 0.0000 0.0000
3 9 -27 0.0000 0.0000
3 9 -24 0.0000 0.0000
3 9 -21 0.0000 0.0000
3 9 -18 0.0000 0.0000
3 9 -15 0.0000 0.0000
3 9 -12 0.0000 0.0000
3 9 -9 0.0000 0.0000
3 9 -6 0.0000 0.0000
3 9 -3 0.0000 0.0000
3 9 0 0.0000 0.0000
3 9 3 0.0000 0.0000
3 9 6 0.0000 0.0000
3 9 9 0.0000 0.0000
3 9 12 0.0000 0.0000
3 9 15 0.0000 0.0000
3 9 18 0.0000 0.0000
3 9 21 0.0000 0.0000
3 9 24 0.0000 0.0000
3 9 27 0.0000 0.0000
3 9 30 0.0000 0.0000
3 10 -28 0.0000 0.0000
3 10 -25 0.0000 0.0000
3 10 -22 0.0000 0.0000
3 10 -19 0.0000 0.0000
3 10 -16 0.0000 0.0000
3 10 -13 0.0000 0.0000
3 10 -10 0.0000 0.0000
3 10 -7 0.0000 0.0000
3 10 -4 0.0000 0.0000
3 10 -1 0.0000 0.0000
3 10 2 0.0000 0.0000
3 10 5 0.0000 0.0000
3 10 8 0.0000 0.0000
3 10 11 0.0000 0.0000
3 10 14 0.0000 0.0000
3 10 17 0.0000 0.0000
3 10 20 0.0000 0.0000
3 10 23 0.0000 0.0000
3 10 26 0.0000 0.0000
3 10 29 0.0000 0.0000
3 11 -29 0.0000 0.0000
3 11 -26 0.0000 0.0000
3 11 -23 0.0000 0.0000
3 11 -20 0.0000 0.0000
3 11 -17 0.0000 0.0000
3 11 -14 0.0000 0.0000
3 11 -11 0.0000 0.0000
3 11 -8 0.0000 0.0000
3 11 -5 0.0000 0.0000
3 11 -2 0.0000 0.0000
3 11 1 0.0000 0.0000
3 11 4 0.0000 0.0000
3 11 7 0.0000 0.0000
3 11 10 0.0000 0.0000
3 11 13 0.0000 0.0000
3 11 16 0.0000 0.0000
3 11 19 0.0000 0.0000
3 11 22 0.0000 0.0000
3 11 25 0.0000 0.0000
3 12 -27 0.0000 0.0000
3 12 -24 0.0000 0.0000
3 12 -21 0.0000 0.0000
3 12 -18 0.0000 0.0000
3 12 -15 0.0000 0.0000
3 12 -12 0.0000 0.0000
3 12 -9 0.0000 0.0000
3 12 -6 0.0000 0.0000
3 12 -3 0.0000 0.0000
3 12 0 0.0000 0.0000
3 12 3 0.0000 0.0000
3 12 6 0.0000 0.0000
3 12 9 0.0000 0.0000
3 12 12 0.0000 0.0000
3 12 15 0.0000 0.0000
3 12 18 0.0000 0.0000
3 12 21 0.0000 0.0000
3 12 24 0.0000 0.0000
3 13 -22 0.0000 0.0000
3 13 -19 0.0000 0.0000
3 13 -16 0.0000 0.0000
3 13 -13 0.0000 0.0000
3 13 -10 0.0000 0.0000
3 13 -7 0.0000 0.0000
3 13 -4 0.0000 0.0000
3 13 -1 0.0000 0.0000
3 13 2 0.0000 0.0000
3 13 5 0.0000 0.0000
3 13 8 0.0000 0.0000
3 13 11 0.0000 0.0000
3 13 17 0.0000 0.0000
3 13 20 0.0000 0.0000
3 14 -20 0.0000 0.0000
3 14 -17 0.0000 0.0000
3 14 -14 0.0000 0.0000
3 14 -11 0.0000 0.0000
3 14 -8 0.0000 0.0000
3 14 -5 0.0000 0.0000
3 14 -2 0.0000 0.0000
3 14 1 0.0000 0.0000
3 14 4 0.0000 0.0000
3 14 7 0.0000 0.0000
3 14 10 0.0000 0.0000
3 14 13 0.0000 0.0000
3 14 16 0.0000 0.0000
3 15 -15 0.0000 0.0000
3 15 -12 0.0000 0.0000
3 15 -9 0.0000 0.0000
3 15 -6 0.0000 0.0000
3 15 -3 0.0000 0.0000
3 15 0 0.0000 0.0000
3 15 3 0.0000 0.0000
3 15 6 0.0000 0.0000
3 15 12 0.0000 0.0000
3 16 -13 0.0000 0.0000
3 16 -4 0.0000 0.0000
3 16 -1 0.0000 0.0000
3 16 5 0.0000 0.0000
3 16 8 0.0000 0.0000
3 16 11 0.0000 0.0000
3 17 7 0.0000 0.0000
3 17 10 0.0000 0.0000
4 1 -36 0.0000 0.0000
4 1 -33 0.0000 0.0000
4 1 -30 0.0000 0.0000
4 1 -27 0.0000 0.0000
4 1 -24 0.0000 0.0000
4 1 -21 0.0000 0.0000
4 1 -18 0.0000 0.0000
4 1 -15 0.0000 0.0000
4 1 -12 0.0000 0.0000
4 1 -9 0.0000 0.0000
4 1 -6 0.0000 0.0000
4 1 -3 0.0000 0.0000
4 1 0 0.0000 0.0000
4 1 3 0.0000 0.0000
4 1 6 0.0000 0.0000
4 1 9 0.0000 0.0000
4 1 12 0.0000 0.0000
4 1 15 0.0000 0.0000
4 1 18 0.0000 0.0000
4 1 21 0.0000 0.0000
4 1 24 0.0000 0.0000
4 1 27 0.0000 0.0000
4 1 30 0.0000 0.0000
4 1 33 0.0000 0.0000
4 1 36 0.0000 0.0000
4 2 -37 0.0000 0.0000
4 2 -34 0.0000 0.0000
4 2 -31 0.0000 0.0000
4 2 -28 0.0000 0.0000
4 2 -25 0.0000 0.0000
4 2 -22 0.0000 0.0000
4 2 -19 0.0000 0.0000
4 2 -16 0.0000 0.0000
4 2 -13 0.0000 0.0000
4 2 -10 0.0000 0.0000
4 2 -7 0.0000 0.0000
4 2 -4 0.0000 0.0000
4 2 -1 0.0000 0.0000
4 2 2 0.0000 0.0000
4 2 5 0.0000 0.0000
4 2 8 0.0000 0.0000
4 2 11 0.0000 0.0000
4 2 14 0.0000 0.0000
4 2 17 0.0000 0.0000
4 2 20 0.0000 0.0000
4 2 23 0.0000 0.0000
4 2 26 0.0000 0.0000
4 2 29 0.0000 0.0000
4 2 32 0.0000 0.0000
4 2 35 0.0000 0.0000
4 3 -35 0.0000 0.0000
4 3 -32 0.0000 0.0000
4 3 -29 0.0000 0.0000
4 3 -26 0.0000 0.0000
4 3 -23 0.0000 0.0000
4 3 -20 0.0000 0.0000
4 3 -17 0.0000 0.0000
4 3 -14 0.0000 0.0000
4 3 -11 0.0000 0.0000
4 3 -8 0.0000 0.0000
4 3 -5 0.0000 0.0000
4 3 -2 0.0000 0.0000
4 3 1 0.0000 0.0000
4 3 4 0.0000 0.0000
4 3 7 0.0000 0.0000
4 3 10 0.0000 0.0000
4 3 13 0.0000 0.0000
4 3 16 0.0000 0.0000
4 3 19 0.0000 0.0000
4 3 22 0.0000 0.0000
4 3 25 0.0000 0.0000
4 3 28 0.0000 0.0000
4 3 31 0.0000 0.0000
4 3 34 0.0000 0.0000
4 4 -33 0.0000 0.0000
4 4 -30 0.0000 0.0000
4 4 -27 0.0000 0.0000
4 4 -24 0.0000 0.0000
4 4 -21 0.0000 0.0000
4 4 -18 0.0000 0.0000
4 4 -15 0.0000 0.0000
4 4 -12 0.0000 0.0000
4 4 -9 0.0000 0.0000
4 4 -6 0.0000 0.0000
4 4 -3 0.0000 0.0000
4 4 0 0.0000 0.0000
4 4 3 0.0000 0.0000
4 4 6 0.0000 0.0000
4 4 9 0.0000 0.0000
4 4 12 0.0000 0.0000
4 4 15 0.0000 0.0000
4 4 18 0.0000 0.0000
4 4 21 0.0000 0.0000
4 4 24 0.0000 0.0000
4 4 27 0.0000 0.0000
4 4 30 0.0000 0.0000
4 4 33 0.0000 0.0000
4 5 -34 0.0000 0.0000
4 5 -31 0.0000 0.0000
4 5 -28 0.0000 0.0000
4 5 -25 0.0000 0.0000
4 5 -22 0.0000 0.0000
4 5 -19 0.0000 0.0000
4 5 -16 0.0000 0.0000
4 5 -13 0.0000 0.0000
4 5 -10 0.0000 0.0000
4 5 -7 0.0000 0.0000
4 5 -4 0.0000 0.0000
4 5 -1 0.0000 0.0000
4 5 2 0.0000 0.0000
4 5 5 0.0000 0.0000
4 5 8 0.0000 0.0000
4 5 11 0.0000 0.0000
4 5 14 0.0000 0.0000
4 5 17 0.0000 0.0000
4 5 20 0.0000 0.0000
4 5 23 0.0000 0.0000
4 5 26 0.0000 0.0000
4 5 29 0.0000 0.0000
4 5 32 0.0000 0.0000
4 5 35 0.0000 0.0000
4 6 -32 0.0000 0.0000
4 6 -29 0.0000 0.0000
4 6 -26 0.0000 0.0000
4 6 -23 0.0000 0.0000
4 6 -20 0.0000 0.0000
4 6 -17 0.0000 0.0000
4 6 -14 0.0000 0.0000
4 6 -11 0.0000 0.0000
4 6 -8 0.0000 0.0000
4 6 -5 0.0000 0.0000
4 6 -2 0.0000 0.0000
4 6 1 0.0000 0.0000
4 6 4 0.0000 0.0000
4 6 7 0.0000 0.0000
4 6 10 0.0000 0.0000
4 6 13 0.0000 0.0000
4 6 16 0.0000 0.0000
4 6 19 0.0000 0.0000
4 6 22 0.0000 0.0000
4 6 25 0.0000 0.0000
4 6 28 0.0000 0.0000
4 6 31 0.0000 0.0000
4 6 34 0.0000 0.0000
4 7 -30 0.0000 0.0000
4 7 -27 0.0000 0.0000
4 7 -24 0.0000 0.0000
4 7 -21 0.0000 0.0000
4 7 -18 0.0000 0.0000
4 7 -15 0.0000 0.0000
4 7 -12 0.0000 0.0000
4 7 -9 0.0000 0.0000
4 7 -6 0.0000 0.0000
4 7 -3 0.0000 0.0000
4 7 0 0.0000 0.0000
4 7 3 0.0000 0.0000
4 7 6 0.0000 0.0000
4 7 9 0.0000 0.0000
4 7 12 0.0000 0.0000
4 7 15 0.0000 0.0000
4 7 18 0.0000 0.0000
4 7 21 0.0000 0.0000
4 7 24 0.0000 0.0000
4 7 27 0.0000 0.0000
4 7 30 0.0000 0.0000
4 7 33 0.0000 0.0000
4 8 -28 0.0000 0.0000
4 8 -25 0.0000 0.0000
4 8 -22 0.0000 0.0000
4 8 -19 0.0000 0.0000
4 8 -16 0.0000 0.0000
4 8 -13 0.0000 0.0000
4 8 -10 0.0000 0.0000
4 8 -7 0.0000 0.0000
4 8 -4 0.0000 0.0000
4 8 -1 0.0000 0.0000
4 8 2 0.0000 0.0000
4 8 5 0.0000 0.0000
4 8 8 0.0000 0.0000
4 8 11 0.0000 0.0000
4 8 14 0.0000 0.0000
4 8 17 0.0000 0.0000
4 8 20 0.0000 0.0000
4 8 23 0.0000 0.0000
4 8 26 0.0000 0.0000
4 8 29 0.0000 0.0000
4 8 32 0.0000 0.0000
4 9 -29 0.0000 0.0000
4 9 -26 0.0000 0.0000
4 9 -23 0.0000 0.0000
4 9 -20 0.0000 0.0000
4 9 -17 0.0000 0.0000
4 9 -14 0.0000 0.0000
4 9 -11 0.0000 0.0000
4 9 -8 0.0000 0.0000
4 9 -5 0.0000 0.0000
4 9 -2 0.0000 0.0000
4 9 1 0.0000 0.0000
4 9 4 0.0000 0.0000
4 9 7 0.0000 0.0000
4 9 10 0.0000 0.0000
4 9 13 0.0000 0.0000
4 9 16 0.0000 0.0000
4 9 19 0.0000 0.0000
4 9 22 0.0000 0.0000
4 9 25 0.0000 0.0000
4 9 28 0.0000 0.0000
4 10 -27 0.0000 0.0000
4 10 -24 0.0000 0.0000
4 10 -21 0.0000 0.0000
4 10 -18 0.0000 0.0000
4 10 -15 0.0000 0.0000
4 10 -12 0.0000 0.0000
4 10 -9 0.0000 0.0000
4 10 -6 0.0000 0.0000
4 10 -3 0.0000 0.0000
4 10 0 0.0000 0.0000
4 10 3 0.0000 0.0000
4 10 6 0.0000 0.0000
4 10 9 0.0000 0.0000
4 10 12 0.0000 0.0000
4 10 15 0.0000 0.0000
4 10 18 0.0000 0.0000
4 10 21 0.0000 0.0000
4 10 24 0.0000 0.0000
4 10 27 0.0000 0.0000
4 11 -28 0.0000 0.0000
4 11 -25 0.0000 0.0000
4 11 -22 0.0000 0.0000
4 11 -19 0.0000 0.0000
4 11 -16 0.0000 0.0000
4 11 -13 0.0000 0.0000
4 11 -10 0.0000 0.0000
4 11 -7 0.0000 0.0000
4 11 -4 0.0000 0.0000
4 11 -1 0.0000 0.0000
4 11 2 0.0000 0.0000
4 11 5 0.0000 0.0000
4 11 8 0.0000 0.0000
4 11 11 0.0000 0.0000
4 11 14 0.0000 0.0000
4 11 17 0.0000 0.0000
4 11 20 0.0000 0.0000
4 11 23 0.0000 0.0000
4 12 -23 0.0000 0.0000
4 12 -20 0.0000 0.0000
4 12 -17 0.0000 0.0000
4 12 -14 0.0000 0.0000
4 12 -11 0.0000 0.0000
4 12 -8 0.0000 0.0000
4 12 -5 0.0000 0.0000
4 12 -2 0.0000 0.0000
4 12 1 0.0000 0.0000
4 12 4 0.0000 0.0000
4 12 7 0.0000 0.0000
4 12 10 0.0000 0.0000
4 12 13 0.0000 0.0000
4 12 16 0.0000 0.0000
4 12 19 0.0000 0.0000
4 12 22 0.0000 0.0000
4 13 -21 0.0000 0.0000
4 13 -18 0.0000 0.0000
4 13 -15 0.0000 0.0000
4 13 -12 0.0000 0.0000
4 13 -9 0.0000 0.0000
4 13 -6 0.0000 0.0000
4 13 -3 0.0000 0.0000
4 13 3 0.0000 0.0000
4 13 6 0.0000 0.0000
4 13 9 0.0000 0.0000
4 13 15 0.0000 0.0000
4 13 18 0.0000 0.0000
4 14 -16 0.0000 0.0000
4 14 -13 0.0000 0.0000
4 14 -10 0.0000 0.0000
4 14 -7 0.0000 0.0000
4 14 -4 0.0000 0.0000
4 14 -1 0.0000 0.0000
4 14 2 0.0000 0.0000
4 14 5 0.0000 0.0000
4 14 8 0.0000 0.0000
4 14 11 0.0000 0.0000
4 15 -14 0.0000 0.0000
4 15 -11 0.0000 0.0000
4 15 -8 0.0000 0.0000
4 15 -5 0.0000 0.0000
4 15 1 0.0000 0.0000
4 15 4 0.0000 0.0000
4 15 7 0.0000 0.0000
4 15 10 0.0000 0.0000
4 16 3 0.0000 0.0000
4 16 6 0.0000 0.0000
5 1 -35 0.0000 0.0000
5 1 -32 0.0000 0.0000
5 1 -29 0.0000 0.0000
5 1 -26 0.0000 0.0000
5 1 -23 0.0000 0.0000
5 1 -20 0.0000 0.0000
5 1 -17 0.0000 0.0000
5 1 -14 0.0000 0.0000
5 1 -11 0.0000 0.0000
5 1 -8 0.0000 0.0000
5 1 -5 0.0000 0.0000
5 1 -2 0.0000 0.0000
5 1 1 0.0000 0.0000
5 1 4 0.0000 0.0000
5 1 7 0.0000 0.0000
5 1 10 0.0000 0.0000
5 1 13 0.0000 0.0000
5 1 16 0.0000 0.0000
5 1 19 0.0000 0.0000
5 1 22 0.0000 0.0000
5 1 25 0.0000 0.0000
5 1 28 0.0000 0.0000
5 1 31 0.0000 0.0000
5 1 34 0.0000 0.0000
5 2 -36 0.0000 0.0000
5 2 -33 0.0000 0.0000
5 2 -30 0.0000 0.0000
5 2 -27 0.0000 0.0000
5 2 -24 0.0000 0.0000
5 2 -21 0.0000 0.0000
5 2 -18 0.0000 0.0000
5 2 -15 0.0000 0.0000
5 2 -12 0.0000 0.0000
5 2 -9 0.0000 0.0000
5 2 -6 0.0000 0.0000
5 2 -3 0.0000 0.0000
5 2 0 0.0000 0.0000
5 2 3 0.0000 0.0000
5 2 6 0.0000 0.0000
5 2 9 0.0000 0.0000
5 2 12 0.0000 0.0000
5 2 15 0.0000 0.0000
5 2 18 0.0000 0.0000
5 2 21 0.0000 0.0000
5 2 24 0.0000 0.0000
5 2 27 0.0000 0.0000
5 2 30 0.0000 0.0000
5 2 33 0.0000 0.0000
5 3 -34 0.0000 0.0000
5 3 -31 0.0000 0.0000
5 3 -28 0.0000 0.0000
5 3 -25 0.0000 0.0000
5 3 -22 0.0000 0.0000
5 3 -19 0.0000 0.0000
5 3 -16 0.0000 0.0000
5 3 -13 0.0000 0.0000
5 3 -10 0.0000 0.0000
5 3 -7 0.0000 0.0000
5 3 -4 0.0000 0.0000
5 3 -1 0.0000 0.0000
5 3 2 0.0000 0.0000
5 3 5 0.0000 0.0000
5 3 8 0.0000 0.0000
5 3 11 0.0000 0.0000
5 3 14 0.0000 0.0000
5 3 17 0.0000 0.0000
5 3 20 0.0000 0.0000
5 3 23 0.0000 0.0000
5 3 26 0.0000 0.0000
5 3 29 0.0000 0.0000
5 3 32 0.0000 0.0000
5 3 35 0.0000 0.0000
5 4 -32 0.0000 0.0000
5 4 -29 0.0000 0.0000
5 4 -26 0.0000 0.0000
5 4 -23 0.0000 0.0000
5 4 -20 0.0000 0.0000
5 4 -17 0.0000 0.0000
5 4 -14 0.0000 0.0000
5 4 -11 0.0000 0.0000
5 4 -8 0.0000 0.0000
5 4 -5 0.0000 0.0000
5 4 -2 0.0000 0.0000
5 4 1 0.0000 0.0000
5 4 4 0.0000 0.0000
5 4 7 0.0000 0.0000
5 4 10 0.0000 0.0000
5 4 13 0.0000 0.0000
5 4 16 0.0000 0.0000
5 4 19 0.0000 0.0000
5 4 22 0.0000 0.0000
5 4 25 0.0000 0.0000
5 4 28 0.0000 0.0000
5 4 31 0.0000 0.0000
5 5 -33 0.0000 0.0000
5 5 -30 0.0000 0.0000
5 5 -27 0.0000 0.0000
5 5 -24 0.0000 0.0000
5 5 -21 0.0000 0.0000
5 5 -18 0.0000 0.0000
5 5 -15 0.0000 0.0000
5 5 -12 0.0000 0.0000
5 5 -9 0.0000 0.0000
5 5 -6 0.0000 0.0000
5 5 -3 0.0000 0.0000
5 5 0 0.0000 0.0000
5 5 3 0.0000 0.0000
5 5 6 0.0000 0.0000
5 5 9 0.0000 0.0000
5 5 12 0.0000 0.0000
5 5 15 0.0000 0.0000
5 5 18 0.0000 0.0000
5 5 21 0.0000 0.0000
5 5 24 0.0000 0.0000
5 5 27 0.0000 0.0000
5 5 30 0.0000 0.0000
5 5 33 0.0000 0.0000
5 6 -31 0.0000 0.0000
5 6 -28 0.0000 0.0000
5 6 -25 0.0000 0.0000
5 6 -22 0.0000 0.0000
5 6 -19 0.0000 0.0000
5 6 -16 0.0000 0.0000
5 6 -13 0.0000 0.0000
5 6 -10 0.0000 0.0000
5 6 -7 0.0000 0.0000
5 6 -4 0.0000 0.0000
5 6 -1 0.0000 0.0000
5 6 2 0.0000 0.0000
5 6 5 0.0000 0.0000
5 6 8 0.0000 0.0000
5 6 11 0.0000 0.0000
5 6 14 0.0000 0.0000
5 6 17 0.0000 0.0000
5 6 20 0.0000 0.0000
5 6 23 0.0000 0.0000
5 6 26 0.0000 0.0000
5 6 29 0.0000 0.0000
5 6 32 0.0000 0.0000
5 7 -29 0.0000 0.0000
5 7 -26 0.0000 0.0000
5 7 -23 0.0000 0.0000
5 7 -20 0.0000 0.0000
5 7 -17 0.0000 0.0000
5 7 -14 0.0000 0.0000
5 7 -11 0.0000 0.0000
5 7 -8 0.0000 0.0000
5 7 -5 0.0000 0.0000
5 7 -2 0.0000 0.0000
5 7 1 0.0000 0.0000
5 7 4 0.0000 0.0000
5 7 7 0.0000 0.0000
5 7 10 0.0000 0.0000
5 7 13 0.0000 0.0000
5 7 16 0.0000 0.0000
5 7 19 0.0000 0.0000
5 7 22 0.0000 0.0000
5 7 25 0.0000 0.0000
5 7 28 0.0000 0.0000
5 7 31 0.0000 0.0000
5 8 -27 0.0000 0.0000
5 8 -24 0.0000 0.0000
5 8 -21 0.0000 0.0000
5 8 -18 0.0000 0.0000
5 8 -15 0.0000 0.0000
5 8 -12 0.0000 0.0000
5 8 -9 0.0000 0.0000
5 8 -6 0.0000 0.0000
5 8 -3 0.0000 0.0000
5 8 0 0.0000 0.0000
5 8 3 0.0000 0.0000
5 8 6 0.0000 0.0000
5 8 9 0.0000 0.0000
5 8 12 0.0000 0.0000
5 8 15 0.0000 0.0000
5 8 18 0.0000 0.0000
5 8 21 0.0000 0.0000
5 8 24 0.0000 0.0000
5 8 27 0.0000 0.0000
5 8 30 0.0000 0.0000
5 9 -25 0.0000 0.0000
5 9 -22 0.0000 0.0000
5 9 -19 0.0000 0.0000
5 9 -16 0.0000 0.0000
5 9 -13 0.0000 0.0000
5 9 -10 0.0000 0.0000
5 9 -7 0.0000 0.0000
5 9 -4 0.0000 0.0000
5 9 -1 0.0000 0.0000
5 9 2 0.0000 0.0000
5 9 5 0.0000 0.0000
5 9 8 0.0000 0.0000
5 9 11 0.0000 0.0000
5 9 14 0.0000 0.0000
5 9 17 0.0000 0.0000
5 9 20 0.0000 0.0000
5 9 23 0.0000 0.0000
5 9 26 0.0000 0.0000
5 9 29 0.0000 0.0000
5 10 -23 0.0000 0.0000
5 10 -20 0.0000 0.0000
5 10 -17 0.0000 0.0000
5 10 -14 0.0000 0.0000
5 10 -11 0.0000 0.0000
5 10 -8 0.0000 0.0000
5 10 -5 0.0000 0.0000
5 10 -2 0.0000 0.0000
5 10 1 0.0000 0.0000
5 10 4 0.0000 0.0000
5 10 7 0.0000 0.0000
5 10 10 0.0000 0.0000
5 10 13 0.0000 0.0000
5 10 16 0.0000 0.0000
5 10 19 0.0000 0.0000
5 10 22 0.0000 0.0000
5 10 25 0.0000 0.0000
5 11 -24 0.0000 0.0000
5 11 -21 0.0000 0.0000
5 11 -18 0.0000 0.0000
5 11 -15 0.0000 0.0000
5 11 -12 0.0000 0.0000
5 11 -9 0.0000 0.0000
5 11 -6 0.0000 0.0000
5 11 -3 0.0000 0.0000
5 11 0 0.0000 0.0000
5 11 3 0.0000 0.0000
5 11 6 0.0000 0.0000
5 11 9 0.0000 0.0000
5 11 12 0.0000 0.0000
5 11 15 0.0000 0.0000
5 11 18 0.0000 0.0000
5 11 21 0.0000 0.0000
5 12 -22 0.0000 0.0000
5 12 -19 0.0000 0.0000
5 12 -16 0.0000 0.0000
5 12 -13 0.0000 0.0000
5 12 -10 0.0000 0.0000
5 12 -7 0.0000 0.0000
5 12 -4 0.0000 0.0000
5 12 -1 0.0000 0.0000
5 12 2 0.0000 0.0000
5 12 5 0.0000 0.0000
5 12 11 0.0000 0.0000
5 12 14 0.0000 0.0000
5 12 17 0.0000 0.0000
5 12 20 0.0000 0.0000
5 13 -17 0.0000 0.0000
5 13 -14 0.0000 0.0000
5 13 -11 0.0000 0.0000
5 13 -8 0.0000 0.0000
5 13 -5 0.0000 0.0000
5 13 -2 0.0000 0.0000
5 13 1 0.0000 0.0000
5 13 4 0.0000 0.0000
5 13 7 0.0000 0.0000
5 13 10 0.0000 0.0000
5 13 13 0.0000 0.0000
5 13 16 0.0000 0.0000
5 14 -15 0.0000 0.0000
5 14 -12 0.0000 0.0000
5 14 -9 0.0000 0.0000
5 14 -6 0.0000 0.0000
5 14 -3 0.0000 0.0000
5 14 0 0.0000 0.0000
5 14 9 0.0000 0.0000
5 14 12 0.0000 0.0000
5 15 -13 0.0000 0.0000
5 15 -1 0.0000 0.0000
5 15 2 0.0000 0.0000
5 15 5 0.0000 0.0000
5 15 8 0.0000 0.0000
5 15 11 0.0000 0.0000
6 1 -34 0.0000 0.0000
6 1 -31 0.0000 0.0000
6 1 -28 0.0000 0.0000
6 1 -25 0.0000 0.0000
6 1 -22 0.0000 0.0000
6 1 -19 0.0000 0.0000
6 1 -16 0.0000 0.0000
6 1 -13 0.0000 0.0000
6 1 -10 0.0000 0.0000
6 1 -7 0.0000 0.0000
6 1 -4 0.0000 0.0000
6 1 -1 0.0000 0.0000
6 1 2 0.0000 0.0000
6 1 5 0.0000 0.0000
6 1 8 0.0000 0.0000
6 1 11 0.0000 0.0000
6 1 14 0.0000 0.0000
6 1 17 0.0000 0.0000
6 1 20 0.0000 0.0000
6 1 23 0.0000 0.0000
6 1 26 0.0000 0.0000
6 1 29 0.0000 0.0000
6 1 32 0.0000 0.0000
6 1 35 0.0000 0.0000
6 2 -35 0.0000 0.0000
6 2 -32 0.0000 0.0000
6 2 -29 0.0000 0.0000
6 2 -26 0.0000 0.0000
6 2 -23 0.0000 0.0000
6 2 -20 0.0000 0.0000
6 2 -17 0.0000 0.0000
6 2 -14 0.0000 0.0000
6 2 -11 0.0000 0.0000
6 2 -8 0.0000 0.0000
6 2 -5 0.0000 0.0000
6 2 -2 0.0000 0.0000
6 2 1 0.0000 0.0000
6 2 4 0.0000 0.0000
6 2 7 0.0000 0.0000
6 2 10 0.0000 0.0000
6 2 13 0.0000 0.0000
6 2 16 0.0000 0.0000
6 2 19 0.0000 0.0000
6 2 22 0.0000 0.0000
6 2 25 0.0000 0.0000
6 2 28 0.0000 0.0000
6 2 31 0.0000 0.0000
6 2 34 0.0000 0.0000
6 3 -33 0.0000 0.0000
6 3 -30 0.0000 0.0000
6 3 -27 0.0000 0.0000
6 3 -24 0.0000 0.0000
6 3 -21 0.0000 0.0000
6 3 -18 0.0000 0.0000
6 3 -15 0.0000 0.0000
6 3 -12 0.0000 0.0000
6 3 -9 0.0000 0.0000
6 3 -6 0.0000 0.0000
6 3 -3 0.0000 0.0000
6 3 0 0.0000 0.0000
6 3 3 0.0000 0.0000
6 3 6 0.0000 0.0000
6 3 9 0.0000 0.0000
6 3 12 0.0000 0.0000
6 3 15 0.0000 0.0000
6 3 18 0.0000 0.0000
6 3 21 0.0000 0.0000
6 3 24 0.0000 0.0000
6 3 27 0.0000 0.0000
6 3 30 0.0000 0.0000
6 3 33 0.0000 0.0000
6 4 -31 0.0000 0.0000
6 4 -28 0.0000 0.0000
6 4 -25 0.0000 0.0000
6 4 -22 0.0000 0.0000
6 4 -19 0.0000 0.0000
6 4 -16 0.0000 0.0000
6 4 -13 0.0000 0.0000
6 4 -10 0.0000 0.0000
6 4 -7 0.0000 0.0000
6 4 -4 0.0000 0.0000
6 4 -1 0.0000 0.0000
6 4 2 0.0000 0.0000
6 4 5 0.0000 0.0000
6 4 8 0.0000 0.0000
6 4 11 0.0000 0.0000
6 4 14 0.0000 0.0000
6 4 17 0.0000 0.0000
6 4 20 0.0000 0.0000
6 4 23 0.0000 0.0000
6 4 26 0.0000 0.0000
6 4 29 0.0000 0.0000
6 4 32 0.0000 0.0000
6 5 -29 0.0000 0.0000
6 5 -26 0.0000 0.0000
6 5 -23 0.0000 0.0000
6 5 -20 0.0000 0.0000
6 5 -17 0.0000 0.0000
6 5 -14 0.0000 0.0000
6 5 -11 0.0000 0.0000
6 5 -8 0.0000 0.0000
6 5 -5 0.0000 0.0000
6 5 -2 0.0000 0.0000
6 5 1 0.0000 0.0000
6 5 4 0.0000 0.0000
6 5 7 0.0000 0.0000
6 5 10 0.0000 0.0000
6 5 13 0.0000 0.0000
6 5 16 0.0000 0.0000
6 5 19 0.0000 0.0000
6 5 22 0.0000 0.0000
6 5 25 0.0000 0.0000
6 5 28 0.0000 0.0000
6 5 31 0.0000 0.0000
6 6 -30 0.0000 0.0000
6 6 -27 0.0000 0.0000
6 6 -24 0.0000 0.0000
6 6 -21 0.0000 0.0000
6 6 -18 0.0000 0.0000
6 6 -15 0.0000 0.0000
6 6 -12 0.0000 0.0000
6 6 -9 0.0000 0.0000
6 6 -6 0.0000 0.0000
6 6 -3 0.0000 0.0000
6 6 0 0.0000 0.0000
6 6 3 0.0000 0.0000
6 6 6 0.0000 0.0000
6 6 9 0.0000 0.0000
6 6 12 0.0000 0.0000
6 6 15 0.0000 0.0000
6 6 18 0.0000 0.0000
6 6 21 0.0000 0.0000
6 6 24 0.0000 0.0000
6 6 27 0.0000 0.0000
6 6 30 0.0000 0.0000
6 6 33 0.0000 0.0000
6 7 -28 0.0000 0.0000
6 7 -25 0.0000 0.0000
6 7 -22 0.0000 0.0000
6 7 -19 0.0000 0.0000
6 7 -16 0.0000 0.0000
6 7 -13 0.0000 0.0000
6 7 -10 0.0000 0.0000
6 7 -7 0.0000 0.0000
6 7 -4 0.0000 0.0000
6 7 -1 0.0000 0.0000
6 7 2 0.0000 0.0000
6 7 5 0.0000 0.0000
6 7 8 0.0000 0.0000
6 7 11 0.0000 0.0000
6 7 14 0.0000 0.0000
6 7 17 0.0000 0.0000
6 7 20 0.0000 0.0000
6 7 23 0.0000 0.0000
6 7 26 0.0000 0.0000
6 7 29 0.0000 0.0000
6 7 32 0.0000 0.0000
6 8 -26 0.0000 0.0000
6 8 -23 0.0000 0.0000
6 8 -20 0.0000 0.0000
6 8 -17 0.0000 0.0000
6 8 -14 0.0000 0.0000
6 8 -11 0.0000 0.0000
6 8 -8 0.0000 0.0000
6 8 -5 0.0000 0.0000
6 8 -2 0.0000 0.0000
6 8 1 0.0000 0.0000
6 8 4 0.0000 0.0000
6 8 7 0.0000 0.0000
6 8 10 0.0000 0.0000
6 8 13 0.0000 0.0000
6 8 16 0.0000 0.0000
6 8 19 0.0000 0.0000
6 8 22 0.0000 0.0000
6 8 25 0.0000 0.0000
6 8 28 0.0000 0.0000
6 9 -27 0.0000 0.0000
6 9 -24 0.0000 0.0000
6 9 -21 0.0000 0.0000
6 9 -18 0.0000 0.0000
6 9 -15 0.0000 0.0000
6 9 -12 0.0000 0.0000
6 9 -9 0.0000 0.0000
6 9 -6 0.0000 0.0000
6 9 -3 0.0000 0.0000
6 9 0 0.0000 0.0000
6 9 3 0.0000 0.0000
6 9 6 0.0000 0.0000
6 9 9 0.0000 0.0000
6 9 12 0.0000 0.0000
6 9 15 0.0000 0.0000
6 9 18 0.0000 0.0000
6 9 21 0.0000 0.0000
6 9 24 0.0000 0.0000
6 9 27 0.0000 0.0000
6 10 -22 0.0000 0.0000
6 10 -19 0.0000 0.0000
6 10 -16 0.0000 0.0000
6 10 -13 0.0000 0.0000
6 10 -10 0.0000 0.0000
6 10 -7 0.0000 0.0000
6 10 -4 0.0000 0.0000
6 10 -1 0.0000 0.0000
6 10 2 0.0000 0.0000
6 10 5 0.0000 0.0000
6 10 8 0.0000 0.0000
6 10 11 0.0000 0.0000
6 10 14 0.0000 0.0000
6 10 17 0.0000 0.0000
6 10 20 0.0000 0.0000
6 10 23 0.0000 0.0000
6 11 -23 0.0000 0.0000
6 11 -20 0.0000 0.0000
6 11 -17 0.0000 0.0000
6 11 -14 0.0000 0.0000
6 11 -11 0.0000 0.0000
6 11 -8 0.0000 0.0000
6 11 -5 0.0000 0.0000
6 11 -2 0.0000 0.0000
6 11 1 0.0000 0.0000
6 11 4 0.0000 0.0000
6 11 7 0.0000 0.0000
6 11 10 0.0000 0.0000
6 11 13 0.0000 0.0000
6 11 16 0.0000 0.0000
6 11 19 0.0000 0.0000
6 12 -18 0.0000 0.0000
6 12 -15 0.0000 0.0000
6 12 -12 0.0000 0.0000
6 12 -9 0.0000 0.0000
6 12 -6 0.0000 0.0000
6 12 -3 0.0000 0.0000
6 12 0 0.0000 0.0000
6 12 3 0.0000 0.0000
6 12 6 0.0000 0.0000
6 12 9 0.0000 0.0000
6 12 12 0.0000 0.0000
6 12 15 0.0000 0.0000
6 13 -16 0.0000 0.0000
6 13 -13 0.0000 0.0000
6 13 -10 0.0000 0.0000
6 13 -7 0.0000 0.0000
6 13 -4 0.0000 0.0000
6 13 -1 0.0000 0.0000
6 13 2 0.0000 0.0000
6 13 5 0.0000 0.0000
6 13 8 0.0000 0.0000
6 13 11 0.0000 0.0000
6 14 -14 0.0000 0.0000
6 14 -11 0.0000 0.0000
6 14 -5 0.0000 0.0000
6 14 -2 0.0000 0.0000
6 14 1 0.0000 0.0000
6 14 4 0.0000 0.0000
6 14 7 0.0000 0.0000
7 1 -33 0.0000 0.0000
7 1 -30 0.0000 0.0000
7 1 -27 0.0000 0.0000
7 1 -24 0.0000 0.0000
7 1 -21 0.0000 0.0000
7 1 -18 0.0000 0.0000
7 1 -15 0.0000 0.0000
7 1 -12 0.0000 0.0000
7 1 -9 0.0000 0.0000
7 1 -6 0.0000 0.0000
7 1 -3 0.0000 0.0000
7 1 0 0.0000 0.0000
7 1 3 0.0000 0.0000
7 1 6 0.0000 0.0000
7 1 9 0.0000 0.0000
7 1 12 0.0000 0.0000
7 1 15 0.0000 0.0000
7 1 18 0.0000 0.0000
7 1 21 0.0000 0.0000
7 1 24 0.0000 0.0000
7 1 27 0.0000 0.0000
7 1 30 0.0000 0.0000
7 1 33 0.0000 0.0000
7 2 -34 0.0000 0.0000
7 2 -31 0.0000 0.0000
7 2 -28 0.0000 0.0000
7 2 -25 0.0000 0.0000
7 2 -22 0.0000 0.0000
7 2 -19 0.0000 0.0000
7 2 -16 0.0000 0.0000
7 2 -13 0.0000 0.0000
7 2 -10 0.0000 0.0000
7 2 -7 0.0000 0.0000
7 2 -4 0.0000 0.0000
7 2 -1 0.0000 0.0000
7 2 2 0.0000 0.0000
7 2 5 0.0000 0.0000
7 2 8 0.0000 0.0000
7 2 11 0.0000 0.0000
7 2 14 0.0000 0.0000
7 2 17 0.0000 0.0000
7 2 20 0.0000 0.0000
7 2 23 0.0000 0.0000
7 2 26 0.0000 0.0000
7 2 29 0.0000 0.0000
7 2 32 0.0000 0.0000
7 3 -32 0.0000 0.0000
7 3 -29 0.0000 0.0000
7 3 -26 0.0000 0.0000
7 3 -23 0.0000 0.0000
7 3 -20 0.0000 0.0000
7 3 -17 0.0000 0.0000
7 3 -14 0.0000 0.0000
7 3 -11 0.0000 0.0000
7 3 -8 0.0000 0.0000
7 3 -5 0.0000 0.0000
7 3 -2 0.0000 0.0000
7 3 1 0.0000 0.0000
7 3 4 0.0000 0.0000
7 3 7 0.0000 0.0000
7 3 10 0.0000 0.0000
7 3 13 0.0000 0.0000
7 3 16 0.0000 0.0000
7 3 19 0.0000 0.0000
7 3 22 0.0000 0.0000
7 3 25 0.0000 0.0000
7 3 28 0.0000 0.0000
7 3 31 0.0000 0.0000
7 4 -30 0.0000 0.0000
7 4 -27 0.0000 0.0000
7 4 -24 0.0000 0.0000
7 4 -21 0.0000 0.0000
7 4 -18 0.0000 0.0000
7 4 -15 0.0000 0.0000
7 4 -12 0.0000 0.0000
7 4 -9 0.0000 0.0000
7 4 -6 0.0000 0.0000
7 4 -3 0.0000 0.0000
7 4 0 0.0000 0.0000
7 4 3 0.0000 0.0000
7 4 6 0.0000 0.0000
7 4 9 0.0000 0.0000
7 4 12 0.0000 0.0000
7 4 15 0.0000 0.0000
7 4 18 0.0000 0.0000
7 4 21 0.0000 0.0000
7 4 24 0.0000 0.0000
7 4 27 0.0000 0.0000
7 4 30 0.0000 0.0000
7 5 -28 0.0000 0.0000
7 5 -25 0.0000 0.0000
7 5 -22 0.0000 0.0000
7 5 -19 0.0000 0.0000
7 5 -16 0.0000 0.0000
7 5 -13 0.0000 0.0000
7 5 -10 0.0000 0.0000
7 5 -7 0.0000 0.0000
7 5 -4 0.0000 0.0000
7 5 -1 0.0000 0.0000
7 5 2 0.0000 0.0000
7 5 5 0.0000 0.0000
7 5 8 0.0000 0.0000
7 5 11 0.0000 0.0000
7 5 14 0.0000 0.0000
7 5 17 0.0000 0.0000
7 5 20 0.0000 0.0000
7 5 23 0.0000 0.0000
7 5 26 0.0000 0.0000
7 5 29 0.0000 0.0000
7 6 -26 0.0000 0.0000
7 6 -23 0.0000 0.0000
7 6 -20 0.0000 0.0000
7 6 -17 0.0000 0.0000
7 6 -14 0.0000 0.0000
7 6 -11 0.0000 0.0000
7 6 -8 0.0000 0.0000
7 6 -5 0.0000 0.0000
7 6 -2 0.0000 0.0000
7 6 1 0.0000 0.0000
7 6 4 0.0000 0.0000
7 6 7 0.0000 0.0000
7 6 10 0.0000 0.0000
7 6 13 0.0000 0.0000
7 6 16 0.0000 0.0000
7 6 19 0.0000 0.0000
7 6 22 0.0000 0.0000
7 6 25 0.0000 0.0000
7 6 28 0.0000 0.0000
7 6 31 0.0000 0.0000
7 7 -27 0.0000 0.0000
7 7 -24 0.0000 0.0000
7 7 -21 0.0000 0.0000
7 7 -18 0.0000 0.0000
7 7 -15 0.0000 0.0000
7 7 -12 0.0000 0.0000
7 7 -9 0.0000 0.0000
7 7 -6 0.0000 0.0000
7 7 -3 0.0000 0.0000
7 7 0 0.0000 0.0000
7 7 3 0.0000 0.0000
7 7 6 0.0000 0.0000
7 7 9 0.0000 0.0000
7 7 12 0.0000 0.0000
7 7 15 0.0000 0.0000
7 7 18 0.0000 0.0000
7 7 21 0.0000 0.0000
7 7 24 0.0000 0.0000
7 7 27 0.0000 0.0000
7 7 30 0.0000 0.0000
7 8 -28 0.0000 0.0000
7 8 -25 0.0000 0.0000
7 8 -22 0.0000 0.0000
7 8 -19 0.0000 0.0000
7 8 -16 0.0000 0.0000
7 8 -13 0.0000 0.0000
7 8 -10 0.0000 0.0000
7 8 -7 0.0000 0.0000
7 8 -4 0.0000 0.0000
7 8 -1 0.0000 0.0000
7 8 2 0.0000 0.0000
7 8 5 0.0000 0.0000
7 8 8 0.0000 0.0000
7 8 11 0.0000 0.0000
7 8 14 0.0000 0.0000
7 8 17 0.0000 0.0000
7 8 20 0.0000 0.0000
7 8 23 0.0000 0.0000
7 8 26 0.0000 0.0000
7 8 29 0.0000 0.0000
7 9 -26 0.0000 0.0000
7 9 -23 0.0000 0.0000
7 9 -20 0.0000 0.0000
7 9 -17 0.0000 0.0000
7 9 -14 0.0000 0.0000
7 9 -11 0.0000 0.0000
7 9 -8 0.0000 0.0000
7 9 -5 0.0000 0.0000
7 9 -2 0.0000 0.0000
7 9 1 0.0000 0.0000
7 9 4 0.0000 0.0000
7 9 7 0.0000 0.0000
7 9 10 0.0000 0.0000
7 9 13 0.0000 0.0000
7 9 16 0.0000 0.0000
7 9 19 0.0000 0.0000
7 9 22 0.0000 0.0000
7 9 25 0.0000 0.0000
7 10 -24 0.0000 0.0000
7 10 -21 0.0000 0.0000
7 10 -18 0.0000 0.0000
7 10 -15 0.0000 0.0000
7 10 -12 0.0000 0.0000
7 10 -9 0.0000 0.0000
7 10 -6 0.0000 0.0000
7 10 -3 0.0000 0.0000
7 10 0 0.0000 0.0000
7 10 3 0.0000 0.0000
7 10 6 0.0000 0.0000
7 10 9 0.0000 0.0000
7 10 12 0.0000 0.0000
7 10 15 0.0000 0.0000
7 10 18 0.0000 0.0000
7 10 21 0.0000 0.0000
7 11 -19 0.0000 0.0000
7 11 -16 0.0000 0.0000
7 11 -13 0.0000 0.0000
7 11 -10 0.0000 0.0000
7 11 -7 0.0000 0.0000
7 11 -4 0.0000 0.0000
7 11 -1 0.0000 0.0000
7 11 2 0.0000 0.0000
7 11 8 0.0000 0.0000
7 11 11 0.0000 0.0000
7 11 14 0.0000 0.0000
7 11 17 0.0000 0.0000
7 12 -17 0.0000 0.0000
7 12 -14 0.0000 0.0000
7 12 -11 0.0000 0.0000
7 12 -8 0.0000 0.0000
7 12 -5 0.0000 0.0000
7 12 -2 0.0000 0.0000
7 12 1 0.0000 0.0000
7 12 4 0.0000 0.0000
7 12 7 0.0000 0.0000
7 12 13 0.0000 0.0000
7 13 -12 0.0000 0.0000
7 13 -9 0.0000 0.0000
7 13 -6 0.0000 0.0000
7 13 -3 0.0000 0.0000
7 13 0 0.0000 0.0000
7 13 3 0.0000 0.0000
7 13 9 0.0000 0.0000
7 13 12 0.0000 0.0000
7 14 11 0.0000 0.0000
8 1 -32 0.0000 0.0000
8 1 -29 0.0000 0.0000
8 1 -26 0.0000 0.0000
8 1 -23 0.0000 0.0000
8 1 -20 0.0000 0.0000
8 1 -17 0.0000 0.0000
8 1 -14 0.0000 0.0000
8 1 -11 0.0000 0.0000
8 1 -8 0.0000 0.0000
8 1 -5 0.0000 0.0000
8 1 -2 0.0000 0.0000
8 1 1 0.0000 0.0000
8 1 4 0.0000 0.0000
8 1 7 0.0000 0.0000
8 1 10 0.0000 0.0000
8 1 13 0.0000 0.0000
8 1 16 0.0000 0.0000
8 1 19 0.0000 0.0000
8 1 22 0.0000 0.0000
8 1 25 0.0000 0.0000
8 1 28 0.0000 0.0000
8 1 31 0.0000 0.0000
8 2 -30 0.0000 0.0000
8 2 -27 0.0000 0.0000
8 2 -24 0.0000 0.0000
8 2 -21 0.0000 0.0000
8 2 -18 0.0000 0.0000
8 2 -15 0.0000 0.0000
8 2 -12 0.0000 0.0000
8 2 -9 0.0000 0.0000
8 2 -6 0.0000 0.0000
8 2 -3 0.0000 0.0000
8 2 0 0.0000 0.0000
8 2 3 0.0000 0.0000
8 2 6 0.0000 0.0000
8 2 9 0.0000 0.0000
8 2 12 0.0000 0.0000
8 2 15 0.0000 0.0000
8 2 18 0.0000 0.0000
8 2 21 0.0000 0.0000
8 2 24 0.0000 0.0000
8 2 27 0.0000 0.0000
8 2 30 0.0000 0.0000
8 3 -31 0.0000 0.0000
8 3 -28 0.0000 0.0000
8 3 -25 0.0000 0.0000
8 3 -22 0.0000 0.0000
8 3 -19 0.0000 0.0000
8 3 -16 0.0000 0.0000
8 3 -13 0.0000 0.0000
8 3 -10 0.0000 0.0000
8 3 -7 0.0000 0.0000
8 3 -4 0.0000 0.0000
8 3 -1 0.0000 0.0000
8 3 2 0.0000 0.0000
8 3 5 0.0000 0.0000
8 3 8 0.0000 0.0000
8 3 11 0.0000 0.0000
8 3 14 0.0000 0.0000
8 3 17 0.0000 0.0000
8 3 20 0.0000 0.0000
8 3 23 0.0000 0.0000
8 3 26 0.0000 0.0000
8 3 29 0.0000 0.0000
8 4 -29 0.0000 0.0000
8 4 -26 0.0000 0.0000
8 4 -23 0.0000 0.0000
8 4 -20 0.0000 0.0000
8 4 -17 0.0000 0.0000
8 4 -14 0.0000 0.0000
8 4 -11 0.0000 0.0000
8 4 -8 0.0000 0.0000
8 4 -5 0.0000 0.0000
8 4 -2 0.0000 0.0000
8 4 1 0.0000 0.0000
8 4 4 0.0000 0.0000
8 4 7 0.0000 0.0000
8 4 10 0.0000 0.0000
8 4 13 0.0000 0.0000
8 4 16 0.0000 0.0000
8 4 19 0.0000 0.0000
8 4 22 0.0000 0.0000
8 4 25 0.0000 0.0000
8 4 28 0.0000 0.0000
8 5 -27 0.0000 0.0000
8 5 -24 0.0000 0.0000
8 5 -21 0.0000 0.0000
8 5 -18 0.0000 0.0000
8 5 -15 0.0000 0.0000
8 5 -12 0.0000 0.0000
8 5 -9 0.0000 0.0000
8 5 -6 0.0000 0.0000
8 5 -3 0.0000 0.0000
8 5 0 0.0000 0.0000
8 5 3 0.0000 0.0000
8 5 6 0.0000 0.0000
8 5 9 0.0000 0.0000
8 5 12 0.0000 0.0000
8 5 15 0.0000 0.0000
8 5 18 0.0000 0.0000
8 5 21 0.0000 0.0000
8 5 24 0.0000 0.0000
8 5 27 0.0000 0.0000
8 5 30 0.0000 0.0000
8 6 -28 0.0000 0.0000
8 6 -25 0.0000 0.0000
8 6 -22 0.0000 0.0000
8 6 -19 0.0000 0.0000
8 6 -16 0.0000 0.0000
8 6 -13 0.0000 0.0000
8 6 -10 0.0000 0.0000
8 6 -7 0.0000 0.0000
8 6 -4 0.0000 0.0000
8 6 -1 0.0000 0.0000
8 6 2 0.0000 0.0000
8 6 5 0.0000 0.0000
8 6 8 0.0000 0.0000
8 6 11 0.0000 0.0000
8 6 14 0.0000 0.0000
8 6 17 0.0000 0.0000
8 6 20 0.0000 0.0000
8 6 23 0.0000 0.0000
8 6 26 0.0000 0.0000
8 6 29 0.0000 0.0000
8 7 -26 0.0000 0.0000
8 7 -23 0.0000 0.0000
8 7 -20 0.0000 0.0000
8 7 -17 0.0000 0.0000
8 7 -14 0.0000 0.0000
8 7 -11 0.0000 0.0000
8 7 -8 0.0000 0.0000
8 7 -5 0.0000 0.0000
8 7 -2 0.0000 0.0000
8 7 1 0.0000 0.0000
8 7 4 0.0000 0.0000
8 7 7 0.0000 0.0000
8 7 10 0.0000 0.0000
8 7 13 0.0000 0.0000
8 7 16 0.0000 0.0000
8 7 19 0.0000 0.0000
8 7 22 0.0000 0.0000
8 7 25 0.0000 0.0000
8 7 28 0.0000 0.0000
8 8 -24 0.0000 0.0000
8 8 -21 0.0000 0.0000
8 8 -18 0.0000 0.0000
8 8 -15 0.0000 0.0000
8 8 -12 0.0000 0.0000
8 8 -9 0.0000 0.0000
8 8 -6 0.0000 0.0000
8 8 -3 0.0000 0.0000
8 8 0 0.0000 0.0000
8 8 3 0.0000 0.0000
8 8 6 0.0000 0.0000
8 8 9 0.0000 0.0000
8 8 12 0.0000 0.0000
8 8 15 0.0000 0.0000
8 8 18 0.0000 0.0000
8 8 21 0.0000 0.0000
8 8 24 0.0000 0.0000
8 8 27 0.0000 0.0000
8 9 -22 0.0000 0.0000
8 9 -19 0.0000 0.0000
8 9 -16 0.0000 0.0000
8 9 -13 0.0000 0.0000
8 9 -10 0.0000 0.0000
8 9 -7 0.0000 0.0000
8 9 -4 0.0000 0.0000
8 9 -1 0.0000 0.0000
8 9 2 0.0000 0.0000
8 9 5 0.0000 0.0000
8 9 8 0.0000 0.0000
8 9 11 0.0000 0.0000
8 9 14 0.0000 0.0000
8 9 17 0.0000 0.0000
8 9 20 0.0000 0.0000
8 9 23 0.0000 0.0000
8 10 -20 0.0000 0.0000
8 10 -17 0.0000 0.0000
8 10 -14 0.0000 0.0000
8 10 -11 0.0000 0.0000
8 10 -8 0.0000 0.0000
8 10 -5 0.0000 0.0000
8 10 -2 0.0000 0.0000
8 10 1 0.0000 0.0000
8 10 4 0.0000 0.0000
8 10 7 0.0000 0.0000
8 10 10 0.0000 0.0000
8 10 13 0.0000 0.0000
8 10 19 0.0000 0.0000
8 11 -15 0.0000 0.0000
8 11 -12 0.0000 0.0000
8 11 -9 0.0000 0.0000
8 11 -6 0.0000 0.0000
8 11 -3 0.0000 0.0000
8 11 0 0.0000 0.0000
8 11 3 0.0000 0.0000
8 11 6 0.0000 0.0000
8 11 9 0.0000 0.0000
8 11 12 0.0000 0.0000
8 12 -13 0.0000 0.0000
8 12 -10 0.0000 0.0000
8 12 -7 0.0000 0.0000
8 12 -4 0.0000 0.0000
8 12 -1 0.0000 0.0000
8 12 2 0.0000 0.0000
8 12 5 0.0000 0.0000
8 12 8 0.0000 0.0000
8 12 11 0.0000 0.0000
8 13 4 0.0000 0.0000
8 13 7 0.0000 0.0000
8 13 10 0.0000 0.0000
9 1 -31 0.0000 0.0000
9 1 -28 0.0000 0.0000
9 1 -25 0.0000 0.0000
9 1 -22 0.0000 0.0000
9 1 -19 0.0000 0.0000
9 1 -16 0.0000 0.0000
9 1 -13 0.0000 0.0000
9 1 -10 0.0000 0.0000
9 1 -7 0.0000 0.0000
9 1 -4 0.0000 0.0000
9 1 -1 0.0000 0.0000
9 1 2 0.0000 0.0000
9 1 5 0.0000 0.0000
9 1 8 0.0000 0.0000
9 1 11 0.0000 0.0000
9 1 14 0.0000 0.0000
9 1 17 0.0000 0.0000
9 1 20 0.0000 0.0000
9 1 23 0.0000 0.0000
9 1 26 0.0000 0.0000
9 1 29 0.0000 0.0000
9 2 -29 0.0000 0.0000
9 2 -26 0.0000 0.0000
9 2 -23 0.0000 0.0000
9 2 -20 0.0000 0.0000
9 2 -17 0.0000 0.0000
9 2 -14 0.0000 0.0000
9 2 -11 0.0000 0.0000
9 2 -8 0.0000 0.0000
9 2 -5 0.0000 0.0000
9 2 -2 0.0000 0.0000
9 2 1 0.0000 0.0000
9 2 4 0.0000 0.0000
9 2 7 0.0000 0.0000
9 2 10 0.0000 0.0000
9 2 13 0.0000 0.0000
9 2 16 0.0000 0.0000
9 2 19 0.0000 0.0000
9 2 22 0.0000 0.0000
9 2 25 0.0000 0.0000
9 2 28 0.0000 0.0000
9 3 -27 0.0000 0.0000
9 3 -24 0.0000 0.0000
9 3 -21 0.0000 0.0000
9 3 -18 0.0000 0.0000
9 3 -15 0.0000 0.0000
9 3 -12 0.0000 0.0000
9 3 -9 0.0000 0.0000
9 3 -6 0.0000 0.0000
9 3 -3 0.0000 0.0000
9 3 0 0.0000 0.0000
9 3 3 0.0000 0.0000
9 3 6 0.0000 0.0000
9 3 9 0.0000 0.0000
9 3 12 0.0000 0.0000
9 3 15 0.0000 0.0000
9 3 18 0.0000 0.0000
9 3 21 0.0000 0.0000
9 3 24 0.0000 0.0000
9 3 27 0.0000 0.0000
9 4 -28 0.0000 0.0000
9 4 -25 0.0000 0.0000
9 4 -22 0.0000 0.0000
9 4 -19 0.0000 0.0000
9 4 -16 0.0000 0.0000
9 4 -13 0.0000 0.0000
9 4 -10 0.0000 0.0000
9 4 -7 0.0000 0.0000
9 4 -4 0.0000 0.0000
9 4 -1 0.0000 0.0000
9 4 2 0.0000 0.0000
9 4 5 0.0000 0.0000
9 4 8 0.0000 0.0000
9 4 11 0.0000 0.0000
9 4 14 0.0000 0.0000
9 4 17 0.0000 0.0000
9 4 20 0.0000 0.0000
9 4 23 0.0000 0.0000
9 4 26 0.0000 0.0000
9 4 29 0.0000 0.0000
9 5 -26 0.0000 0.0000
9 5 -23 0.0000 0.0000
9 5 -20 0.0000 0.0000
9 5 -17 0.0000 0.0000
9 5 -14 0.0000 0.0000
9 5 -11 0.0000 0.0000
9 5 -8 0.0000 0.0000
9 5 -5 0.0000 0.0000
9 5 -2 0.0000 0.0000
9 5 1 0.0000 0.0000
9 5 4 0.0000 0.0000
9 5 7 0.0000 0.0000
9 5 10 0.0000 0.0000
9 5 13 0.0000 0.0000
9 5 16 0.0000 0.0000
9 5 19 0.0000 0.0000
9 5 22 0.0000 0.0000
9 5 25 0.0000 0.0000
9 5 28 0.0000 0.0000
9 6 -27 0.0000 0.0000
9 6 -24 0.0000 0.0000
9 6 -21 0.0000 0.0000
9 6 -18 0.0000 0.0000
9 6 -15 0.0000 0.0000
9 6 -12 0.0000 0.0000
9 6 -9 0.0000 0.0000
9 6 -6 0.0000 0.0000
9 6 -3 0.0000 0.0000
9 6 0 0.0000 0.0000
9 6 3 0.0000 0.0000
9 6 6 0.0000 0.0000
9 6 9 0.0000 0.0000
9 6 12 0.0000 0.0000
9 6 15 0.0000 0.0000
9 6 18 0.0000 0.0000
9 6 21 0.0000 0.0000
9 6 24 0.0000 0.0000
9 6 27 0.0000 0.0000
9 7 -25 0.0000 0.0000
9 7 -22 0.0000 0.0000
9 7 -19 0.0000 0.0000
9 7 -16 0.0000 0.0000
9 7 -13 0.0000 0.0000
9 7 -10 0.0000 0.0000
9 7 -7 0.0000 0.0000
9 7 -4 0.0000 0.0000
9 7 -1 0.0000 0.0000
9 7 2 0.0000 0.0000
9 7 5 0.0000 0.0000
9 7 8 0.0000 0.0000
9 7 11 0.0000 0.0000
9 7 14 0.0000 0.0000
9 7 17 0.0000 0.0000
9 7 20 0.0000 0.0000
9 7 23 0.0000 0.0000
9 7 26 0.0000 0.0000
9 8 -23 0.0000 0.0000
9 8 -20 0.0000 0.0000
9 8 -17 0.0000 0.0000
9 8 -14 0.0000 0.0000
9 8 -11 0.0000 0.0000
9 8 -8 0.0000 0.0000
9 8 -5 0.0000 0.0000
9 8 -2 0.0000 0.0000
9 8 1 0.0000 0.0000
9 8 4 0.0000 0.0000
9 8 7 0.0000 0.0000
9 8 10 0.0000 0.0000
9 8 13 0.0000 0.0000
9 8 16 0.0000 0.0000
9 8 19 0.0000 0.0000
9 8 22 0.0000 0.0000
9 9 -18 0.0000 0.0000
9 9 -15 0.0000 0.0000
9 9 -12 0.0000 0.0000
9 9 -9 0.0000 0.0000
9 9 -6 0.0000 0.0000
9 9 -3 0.0000 0.0000
9 9 0 0.0000 0.0000
9 9 3 0.0000 0.0000
9 9 9 0.0000 0.0000
9 9 12 0.0000 0.0000
9 9 15 0.0000 0.0000
9 9 18 0.0000 0.0000
9 10 -16 0.0000 0.0000
9 10 -13 0.0000 0.0000
9 10 -10 0.0000 0.0000
9 10 -7 0.0000 0.0000
9 10 -4 0.0000 0.0000
9 10 -1 0.0000 0.0000
9 10 2 0.0000 0.0000
9 10 5 0.0000 0.0000
9 10 8 0.0000 0.0000
9 10 11 0.0000 0.0000
9 10 14 0.0000 0.0000
9 11 -14 0.0000 0.0000
9 11 -11 0.0000 0.0000
9 11 -8 0.0000 0.0000
9 11 -5 0.0000 0.0000
9 11 -2 0.0000 0.0000
9 11 1 0.0000 0.0000
9 11 4 0.0000 0.0000
9 11 7 0.0000 0.0000
9 11 10 0.0000 0.0000
9 11 13 0.0000 0.0000
9 12 -12 0.0000 0.0000
9 12 3 0.0000 0.0000
9 12 6 0.0000 0.0000
9 12 9 0.0000 0.0000
9 12 12 0.0000 0.0000
10 1 -30 0.0000 0.0000
10 1 -27 0.0000 0.0000
10 1 -24 0.0000 0.0000
10 1 -21 0.0000 0.0000
10 1 -18 0.0000 0.0000
10 1 -15 0.0000 0.0000
10 1 -12 0.0000 0.0000
10 1 -9 0.0000 0.0000
10 1 -6 0.0000 0.0000
10 1 -3 0.0000 0.0000
10 1 0 0.0000 0.0000
10 1 3 0.0000 0.0000
10 1 6 0.0000 0.0000
10 1 9 0.0000 0.0000
10 1 12 0.0000 0.0000
10 1 15 0.0000 0.0000
10 1 18 0.0000 0.0000
10 1 21 0.0000 0.0000
10 1 24 0.0000 0.0000
10 1 27 0.0000 0.0000
10 2 -28 0.0000 0.0000
10 2 -25 0.0000 0.0000
10 2 -22 0.0000 0.0000
10 2 -19 0.0000 0.0000
10 2 -16 0.0000 0.0000
10 2 -13 0.0000 0.0000
10 2 -10 0.0000 0.0000
10 2 -7 0.0000 0.0000
10 2 -4 0.0000 0.0000
10 2 -1 0.0000 0.0000
10 2 2 0.0000 0.0000
10 2 5 0.0000 0.0000
10 2 8 0.0000 0.0000
10 2 11 0.0000 0.0000
10 2 14 0.0000 0.0000
10 2 17 0.0000 0.0000
10 2 20 0.0000 0.0000
10 2 23 0.0000 0.0000
10 2 26 0.0000 0.0000
10 2 29 0.0000 0.0000
10 3 -26 0.0000 0.0000
10 3 -20 0.0000 0.0000
10 3 -17 0.0000 0.0000
10 3 -14 0.0000 0.0000
10 3 -11 0.0000 0.0000
10 3 -8 0.0000 0.0000
10 3 -5 0.0000 0.0000
10 3 -2 0.0000 0.0000
10 3 1 0.0000 0.0000
10 3 4 0.0000 0.0000
10 3 7 0.0000 0.0000
10 3 10 0.0000 0.0000
10 3 13 0.0000 0.0000
10 3 16 0.0000 0.0000
10 3 19 0.0000 0.0000
10 3 22 0.0000 0.0000
10 3 25 0.0000 0.0000
10 3 28 0.0000 0.0000
10 4 -27 0.0000 0.0000
10 4 -24 0.0000 0.0000
10 4 -21 0.0000 0.0000
10 4 -18 0.0000 0.0000
10 4 -15 0.0000 0.0000
10 4 -12 0.0000 0.0000
10 4 -9 0.0000 0.0000
10 4 -6 0.0000 0.0000
10 4 -3 0.0000 0.0000
10 4 0 0.0000 0.0000
10 4 3 0.0000 0.0000
10 4 6 0.0000 0.0000
10 4 9 0.0000 0.0000
10 4 12 0.0000 0.0000
10 4 15 0.0000 0.0000
10 4 18 0.0000 0.0000
10 4 21 0.0000 0.0000
10 4 24 0.0000 0.0000
10 4 27 0.0000 0.0000
10 5 -22 0.0000 0.0000
10 5 -19 0.0000 0.0000
10 5 -16 0.0000 0.0000
10 5 -13 0.0000 0.0000
10 5 -10 0.0000 0.0000
10 5 -7 0.0000 0.0000
10 5 -4 0.0000 0.0000
10 5 -1 0.0000 0.0000
10 5 2 0.0000 0.0000
10 5 5 0.0000 0.0000
10 5 8 0.0000 0.0000
10 5 11 0.0000 0.0000
10 5 14 0.0000 0.0000
10 5 17 0.0000 0.0000
10 5 20 0.0000 0.0000
10 5 23 0.0000 0.0000
10 5 26 0.0000 0.0000
10 5 29 0.0000 0.0000
10 6 -26 0.0000 0.0000
10 6 -23 0.0000 0.0000
10 6 -20 0.0000 0.0000
10 6 -17 0.0000 0.0000
10 6 -14 0.0000 0.0000
10 6 -11 0.0000 0.0000
10 6 -8 0.0000 0.0000
10 6 -5 0.0000 0.0000
10 6 -2 0.0000 0.0000
10 6 1 0.0000 0.0000
10 6 4 0.0000 0.0000
10 6 7 0.0000 0.0000
10 6 10 0.0000 0.0000
10 6 13 0.0000 0.0000
10 6 16 0.0000 0.0000
10 6 19 0.0000 0.0000
10 6 22 0.0000 0.0000
10 6 25 0.0000 0.0000
10 7 -21 0.0000 0.0000
10 7 -18 0.0000 0.0000
10 7 -15 0.0000 0.0000
10 7 -12 0.0000 0.0000
10 7 -9 0.0000 0.0000
10 7 -6 0.0000 0.0000
10 7 -3 0.0000 0.0000
10 7 0 0.0000 0.0000
10 7 3 0.0000 0.0000
10 7 6 0.0000 0.0000
10 7 9 0.0000 0.0000
10 7 12 0.0000 0.0000
10 7 15 0.0000 0.0000
10 7 18 0.0000 0.0000
10 7 21 0.0000 0.0000
10 7 24 0.0000 0.0000
10 8 -19 0.0000 0.0000
10 8 -16 0.0000 0.0000
10 8 -13 0.0000 0.0000
10 8 -10 0.0000 0.0000
10 8 -7 0.0000 0.0000
10 8 -4 0.0000 0.0000
10 8 -1 0.0000 0.0000
10 8 2 0.0000 0.0000
10 8 5 0.0000 0.0000
10 8 8 0.0000 0.0000
10 8 11 0.0000 0.0000
10 8 14 0.0000 0.0000
10 8 17 0.0000 0.0000
10 8 20 0.0000 0.0000
10 9 -14 0.0000 0.0000
10 9 -11 0.0000 0.0000
10 9 -8 0.0000 0.0000
10 9 -5 0.0000 0.0000
10 9 -2 0.0000 0.0000
10 9 1 0.0000 0.0000
10 9 4 0.0000 0.0000
10 9 7 0.0000 0.0000
10 9 10 0.0000 0.0000
10 9 13 0.0000 0.0000
10 10 -12 0.0000 0.0000
10 10 -9 0.0000 0.0000
10 10 -6 0.0000 0.0000
10 10 -3 0.0000 0.0000
10 10 0 0.0000 0.0000
10 10 3 0.0000 0.0000
10 10 9 0.0000 0.0000
10 10 12 0.0000 0.0000
10 11 -10 0.0000 0.0000
10 11 2 0.0000 0.0000
10 11 8 0.0000 0.0000
10 11 11 0.0000 0.0000
11 1 -26 0.0000 0.0000
11 1 -23 0.0000 0.0000
11 1 -20 0.0000 0.0000
11 1 -17 0.0000 0.0000
11 1 -14 0.0000 0.0000
11 1 -11 0.0000 0.0000
11 1 -8 0.0000 0.0000
11 1 -5 0.0000 0.0000
11 1 -2 0.0000 0.0000
11 1 1 0.0000 0.0000
11 1 4 0.0000 0.0000
11 1 7 0.0000 0.0000
11 1 10 0.0000 0.0000
11 1 13 0.0000 0.0000
11 1 16 0.0000 0.0000
11 1 19 0.0000 0.0000
11 1 22 0.0000 0.0000
11 1 25 0.0000 0.0000
11 1 28 0.0000 0.0000
11 2 -27 0.0000 0.0000
11 2 -24 0.0000 0.0000
11 2 -21 0.0000 0.0000
11 2 -18 0.0000 0.0000
11 2 -15 0.0000 0.0000
11 2 -12 0.0000 0.0000
11 2 -9 0.0000 0.0000
11 2 -6 0.0000 0.0000
11 2 -3 0.0000 0.0000
11 2 0 0.0000 0.0000
11 2 3 0.0000 0.0000
11 2 6 0.0000 0.0000
11 2 9 0.0000 0.0000
11 2 12 0.0000 0.0000
11 2 15 0.0000 0.0000
11 2 18 0.0000 0.0000
11 2 21 0.0000 0.0000
11 2 24 0.0000 0.0000
11 2 27 0.0000 0.0000
11 3 -25 0.0000 0.0000
11 3 -22 0.0000 0.0000
11 3 -19 0.0000 0.0000
11 3 -16 0.0000 0.0000
11 3 -13 0.0000 0.0000
11 3 -10 0.0000 0.0000
11 3 -7 0.0000 0.0000
11 3 -4 0.0000 0.0000
11 3 -1 0.0000 0.0000
11 3 2 0.0000 0.0000
11 3 5 0.0000 0.0000
11 3 8 0.0000 0.0000
11 3 11 0.0000 0.0000
11 3 14 0.0000 0.0000
11 3 17 0.0000 0.0000
11 3 20 0.0000 0.0000
11 3 23 0.0000 0.0000
11 3 26 0.0000 0.0000
11 4 -26 0.0000 0.0000
11 4 -23 0.0000 0.0000
11 4 -20 0.0000 0.0000
11 4 -17 0.0000 0.0000
11 4 -14 0.0000 0.0000
11 4 -11 0.0000 0.0000
11 4 -8 0.0000 0.0000
11 4 -5 0.0000 0.0000
11 4 -2 0.0000 0.0000
11 4 1 0.0000 0.0000
11 4 4 0.0000 0.0000
11 4 7 0.0000 0.0000
11 4 10 0.0000 0.0000
11 4 13 0.0000 0.0000
11 4 16 0.0000 0.0000
11 4 19 0.0000 0.0000
11 4 22 0.0000 0.0000
11 4 25 0.0000 0.0000
11 4 28 0.0000 0.0000
11 5 -21 0.0000 0.0000
11 5 -18 0.0000 0.0000
11 5 -15 0.0000 0.0000
11 5 -12 0.0000 0.0000
11 5 -9 0.0000 0.0000
11 5 -6 0.0000 0.0000
11 5 -3 0.0000 0.0000
11 5 0 0.0000 0.0000
11 5 3 0.0000 0.0000
11 5 6 0.0000 0.0000
11 5 9 0.0000 0.0000
11 5 12 0.0000 0.0000
11 5 15 0.0000 0.0000
11 5 18 0.0000 0.0000
11 5 21 0.0000 0.0000
11 5 24 0.0000 0.0000
11 6 -22 0.0000 0.0000
11 6 -19 0.0000 0.0000
11 6 -16 0.0000 0.0000
11 6 -13 0.0000 0.0000
11 6 -10 0.0000 0.0000
11 6 -7 0.0000 0.0000
11 6 -4 0.0000 0.0000
11 6 -1 0.0000 0.0000
11 6 2 0.0000 0.0000
11 6 5 0.0000 0.0000
11 6 8 0.0000 0.0000
11 6 11 0.0000 0.0000
11 6 14 0.0000 0.0000
11 6 17 0.0000 0.0000
11 6 20 0.0000 0.0000
11 6 23 0.0000 0.0000
11 7 -20 0.0000 0.0000
11 7 -17 0.0000 0.0000
11 7 -14 0.0000 0.0000
11 7 -11 0.0000 0.0000
11 7 -8 0.0000 0.0000
11 7 -5 0.0000 0.0000
11 7 -2 0.0000 0.0000
11 7 1 0.0000 0.0000
11 7 4 0.0000 0.0000
11 7 7 0.0000 0.0000
11 7 10 0.0000 0.0000
11 7 13 0.0000 0.0000
11 7 16 0.0000 0.0000
11 7 19 0.0000 0.0000
11 7 22 0.0000 0.0000
11 8 -15 0.0000 0.0000
11 8 -12 0.0000 0.0000
11 8 -9 0.0000 0.0000
11 8 -6 0.0000 0.0000
11 8 -3 0.0000 0.0000
11 8 0 0.0000 0.0000
11 8 3 0.0000 0.0000
11 8 6 0.0000 0.0000
11 8 9 0.0000 0.0000
11 8 12 0.0000 0.0000
11 8 15 0.0000 0.0000
11 9 -13 0.0000 0.0000
11 9 -10 0.0000 0.0000
11 9 -7 0.0000 0.0000
11 9 -4 0.0000 0.0000
11 9 -1 0.0000 0.0000
11 9 2 0.0000 0.0000
11 9 5 0.0000 0.0000
11 9 8 0.0000 0.0000
11 9 11 0.0000 0.0000
11 9 14 0.0000 0.0000
11 10 -11 0.0000 0.0000
11 10 -8 0.0000 0.0000
11 10 -5 0.0000 0.0000
11 10 -2 0.0000 0.0000
11 10 1 0.0000 0.0000
11 10 4 0.0000 0.0000
11 10 7 0.0000 0.0000
11 10 10 0.0000 0.0000
11 10 13 0.0000 0.0000
12 1 -25 0.0000 0.0000
12 1 -22 0.0000 0.0000
12 1 -19 0.0000 0.0000
12 1 -16 0.0000 0.0000
12 1 -13 0.0000 0.0000
12 1 -10 0.0000 0.0000
12 1 -7 0.0000 0.0000
12 1 -4 0.0000 0.0000
12 1 -1 0.0000 0.0000
12 1 2 0.0000 0.0000
12 1 5 0.0000 0.0000
12 1 8 0.0000 0.0000
12 1 11 0.0000 0.0000
12 1 14 0.0000 0.0000
12 1 17 0.0000 0.0000
12 1 20 0.0000 0.0000
12 1 23 0.0000 0.0000
12 1 26 0.0000 0.0000
12 1 29 0.0000 0.0000
12 2 -26 0.0000 0.0000
12 2 -23 0.0000 0.0000
12 2 -20 0.0000 0.0000
12 2 -17 0.0000 0.0000
12 2 -14 0.0000 0.0000
12 2 -11 0.0000 0.0000
12 2 -8 0.0000 0.0000
12 2 -5 0.0000 0.0000
12 2 -2 0.0000 0.0000
12 2 1 0.0000 0.0000
12 2 4 0.0000 0.0000
12 2 7 0.0000 0.0000
12 2 10 0.0000 0.0000
12 2 13 0.0000 0.0000
12 2 16 0.0000 0.0000
12 2 19 0.0000 0.0000
12 2 22 0.0000 0.0000
12 2 25 0.0000 0.0000
12 3 -24 0.0000 0.0000
12 3 -21 0.0000 0.0000
12 3 -18 0.0000 0.0000
12 3 -15 0.0000 0.0000
12 3 -12 0.0000 0.0000
12 3 -9 0.0000 0.0000
12 3 -6 0.0000 0.0000
12 3 -3 0.0000 0.0000
12 3 0 0.0000 0.0000
12 3 3 0.0000 0.0000
12 3 6 0.0000 0.0000
12 3 9 0.0000 0.0000
12 3 12 0.0000 0.0000
12 3 15 0.0000 0.0000
12 3 18 0.0000 0.0000
12 3 21 0.0000 0.0000
12 3 24 0.0000 0.0000
12 3 27 0.0000 0.0000
12 4 -22 0.0000 0.0000
12 4 -19 0.0000 0.0000
12 4 -16 0.0000 0.0000
12 4 -13 0.0000 0.0000
12 4 -10 0.0000 0.0000
12 4 -7 0.0000 0.0000
12 4 -4 0.0000 0.0000
12 4 -1 0.0000 0.0000
12 4 2 0.0000 0.0000
12 4 5 0.0000 0.0000
12 4 8 0.0000 0.0000
12 4 11 0.0000 0.0000
12 4 14 0.0000 0.0000
12 4 17 0.0000 0.0000
12 4 20 0.0000 0.0000
12 4 23 0.0000 0.0000
12 5 -23 0.0000 0.0000
12 5 -17 0.0000 0.0000
12 5 -14 0.0000 0.0000
12 5 -11 0.0000 0.0000
12 5 -8 0.0000 0.0000
12 5 -5 0.0000 0.0000
12 5 -2 0.0000 0.0000
12 5 1 0.0000 0.0000
12 5 4 0.0000 0.0000
12 5 7 0.0000 0.0000
12 5 10 0.0000 0.0000
12 5 13 0.0000 0.0000
12 5 16 0.0000 0.0000
12 5 19 0.0000 0.0000
12 5 22 0.0000 0.0000
12 6 -18 0.0000 0.0000
12 6 -15 0.0000 0.0000
12 6 -12 0.0000 0.0000
12 6 -9 0.0000 0.0000
12 6 -6 0.0000 0.0000
12 6 -3 0.0000 0.0000
12 6 0 0.0000 0.0000
12 6 3 0.0000 0.0000
12 6 6 0.0000 0.0000
12 6 9 0.0000 0.0000
12 6 12 0.0000 0.0000
12 6 15 0.0000 0.0000
12 6 18 0.0000 0.0000
12 6 21 0.0000 0.0000
12 7 -13 0.0000 0.0000
12 7 -10 0.0000 0.0000
12 7 -7 0.0000 0.0000
12 7 -4 0.0000 0.0000
12 7 -1 0.0000 0.0000
12 7 2 0.0000 0.0000
12 7 5 0.0000 0.0000
12 7 8 0.0000 0.0000
12 7 11 0.0000 0.0000
12 7 14 0.0000 0.0000
12 8 -11 0.0000 0.0000
12 8 -8 0.0000 0.0000
12 8 -5 0.0000 0.0000
12 8 -2 0.0000 0.0000
12 8 1 0.0000 0.0000
12 8 4 0.0000 0.0000
12 8 7 0.0000 0.0000
12 8 10 0.0000 0.0000
12 8 13 0.0000 0.0000
12 9 -9 0.0000 0.0000
12 9 -6 0.0000 0.0000
12 9 -3 0.0000 0.0000
12 9 9 0.0000 0.0000
12 9 12 0.0000 0.0000
13 1 -24 0.0000 0.0000
13 1 -21 0.0000 0.0000
13 1 -18 0.0000 0.0000
13 1 -15 0.0000 0.0000
13 1 -12 0.0000 0.0000
13 1 -9 0.0000 0.0000
13 1 -6 0.0000 0.0000
13 1 -3 0.0000 0.0000
13 1 0 0.0000 0.0000
13 1 3 0.0000 0.0000
13 1 6 0.0000 0.0000
13 1 9 0.0000 0.0000
13 1 12 0.0000 0.0000
13 1 15 0.0000 0.0000
13 1 18 0.0000 0.0000
13 1 21 0.0000 0.0000
13 1 24 0.0000 0.0000
13 2 -22 0.0000 0.0000
13 2 -19 0.0000 0.0000
13 2 -16 0.0000 0.0000
13 2 -13 0.0000 0.0000
13 2 -10 0.0000 0.0000
13 2 -7 0.0000 0.0000
13 2 -4 0.0000 0.0000
13 2 -1 0.0000 0.0000
13 2 2 0.0000 0.0000
13 2 5 0.0000 0.0000
13 2 8 0.0000 0.0000
13 2 11 0.0000 0.0000
13 2 14 0.0000 0.0000
13 2 17 0.0000 0.0000
13 2 20 0.0000 0.0000
13 2 23 0.0000 0.0000
13 2 26 0.0000 0.0000
13 3 -23 0.0000 0.0000
13 3 -20 0.0000 0.0000
13 3 -17 0.0000 0.0000
13 3 -14 0.0000 0.0000
13 3 -11 0.0000 0.0000
13 3 -8 0.0000 0.0000
13 3 -5 0.0000 0.0000
13 3 -2 0.0000 0.0000
13 3 1 0.0000 0.0000
13 3 4 0.0000 0.0000
13 3 7 0.0000 0.0000
13 3 10 0.0000 0.0000
13 3 13 0.0000 0.0000
13 3 16 0.0000 0.0000
13 3 19 0.0000 0.0000
13 3 22 0.0000 0.0000
13 4 -21 0.0000 0.0000
13 4 -18 0.0000 0.0000
13 4 -15 0.0000 0.0000
13 4 -12 0.0000 0.0000
13 4 -9 0.0000 0.0000
13 4 -6 0.0000 0.0000
13 4 -3 0.0000 0.0000
13 4 0 0.0000 0.0000
13 4 3 0.0000 0.0000
13 4 6 0.0000 0.0000
13 4 9 0.0000 0.0000
13 4 12 0.0000 0.0000
13 4 15 0.0000 0.0000
13 4 18 0.0000 0.0000
13 4 21 0.0000 0.0000
13 5 -16 0.0000 0.0000
13 5 -13 0.0000 0.0000
13 5 -10 0.0000 0.0000
13 5 -7 0.0000 0.0000
13 5 -4 0.0000 0.0000
13 5 -1 0.0000 0.0000
13 5 2 0.0000 0.0000
13 5 5 0.0000 0.0000
13 5 8 0.0000 0.0000
13 5 11 0.0000 0.0000
13 5 14 0.0000 0.0000
13 5 17 0.0000 0.0000
13 5 20 0.0000 0.0000
13 6 -14 0.0000 0.0000
13 6 -11 0.0000 0.0000
13 6 -8 0.0000 0.0000
13 6 -5 0.0000 0.0000
13 6 -2 0.0000 0.0000
13 6 1 0.0000 0.0000
13 6 4 0.0000 0.0000
13 6 7 0.0000 0.0000
13 6 10 0.0000 0.0000
13 6 13 0.0000 0.0000
13 6 16 0.0000 0.0000
13 7 -12 0.0000 0.0000
13 7 -9 0.0000 0.0000
13 7 -6 0.0000 0.0000
13 7 -3 0.0000 0.0000
13 7 0 0.0000 0.0000
13 7 3 0.0000 0.0000
13 7 6 0.0000 0.0000
13 7 9 0.0000 0.0000
13 7 12 0.0000 0.0000
13 8 -10 0.0000 0.0000
13 8 -7 0.0000 0.0000
13 8 -4 0.0000 0.0000
13 8 -1 0.0000 0.0000
14 1 -23 0.0000 0.0000
14 1 -17 0.0000 0.0000
14 1 -14 0.0000 0.0000
14 1 -11 0.0000 0.0000
14 1 -8 0.0000 0.0000
14 1 -5 0.0000 0.0000
14 1 -2 0.0000 0.0000
14 1 1 0.0000 0.0000
14 1 4 0.0000 0.0000
14 1 7 0.0000 0.0000
14 1 10 0.0000 0.0000
14 1 13 0.0000 0.0000
14 1 16 0.0000 0.0000
14 1 19 0.0000 0.0000
14 1 22 0.0000 0.0000
14 2 -24 0.0000 0.0000
14 2 -21 0.0000 0.0000
14 2 -18 0.0000 0.0000
14 2 -15 0.0000 0.0000
14 2 -12 0.0000 0.0000
14 2 -9 0.0000 0.0000
14 2 -6 0.0000 0.0000
14 2 -3 0.0000 0.0000
14 2 0 0.0000 0.0000
14 2 3 0.0000 0.0000
14 2 6 0.0000 0.0000
14 2 9 0.0000 0.0000
14 2 12 0.0000 0.0000
14 2 15 0.0000 0.0000
14 2 18 0.0000 0.0000
14 2 21 0.0000 0.0000
14 3 -19 0.0000 0.0000
14 3 -16 0.0000 0.0000
14 3 -13 0.0000 0.0000
14 3 -10 0.0000 0.0000
14 3 -7 0.0000 0.0000
14 3 -4 0.0000 0.0000
14 3 -1 0.0000 0.0000
14 3 2 0.0000 0.0000
14 3 5 0.0000 0.0000
14 3 8 0.0000 0.0000
14 3 11 0.0000 0.0000
14 3 14 0.0000 0.0000
14 3 17 0.0000 0.0000
14 3 20 0.0000 0.0000
14 4 -17 0.0000 0.0000
14 4 -14 0.0000 0.0000
14 4 -11 0.0000 0.0000
14 4 -8 0.0000 0.0000
14 4 -5 0.0000 0.0000
14 4 -2 0.0000 0.0000
14 4 1 0.0000 0.0000
14 4 4 0.0000 0.0000
14 4 7 0.0000 0.0000
14 4 10 0.0000 0.0000
14 4 13 0.0000 0.0000
14 5 -12 0.0000 0.0000
14 5 -9 0.0000 0.0000
14 5 -6 0.0000 0.0000
14 5 -3 0.0000 0.0000
14 5 0 0.0000 0.0000
14 5 3 0.0000 0.0000
14 5 6 0.0000 0.0000
14 5 9 0.0000 0.0000
14 5 12 0.0000 0.0000
14 5 15 0.0000 0.0000
14 6 -10 0.0000 0.0000
14 6 -7 0.0000 0.0000
14 6 -4 0.0000 0.0000
14 6 -1 0.0000 0.0000
14 6 2 0.0000 0.0000
14 6 5 0.0000 0.0000
14 6 8 0.0000 0.0000
14 6 14 0.0000 0.0000
14 7 -8 0.0000 0.0000
14 7 -5 0.0000 0.0000
14 7 -2 0.0000 0.0000
15 1 -22 0.0000 0.0000
15 1 -19 0.0000 0.0000
15 1 -16 0.0000 0.0000
15 1 -13 0.0000 0.0000
15 1 -10 0.0000 0.0000
15 1 -7 0.0000 0.0000
15 1 -4 0.0000 0.0000
15 1 -1 0.0000 0.0000
15 1 2 0.0000 0.0000
15 1 5 0.0000 0.0000
15 1 8 0.0000 0.0000
15 1 11 0.0000 0.0000
15 1 14 0.0000 0.0000
15 1 17 0.0000 0.0000
15 1 20 0.0000 0.0000
15 2 -20 0.0000 0.0000
15 2 -17 0.0000 0.0000
15 2 -14 0.0000 0.0000
15 2 -11 0.0000 0.0000
15 2 -8 0.0000 0.0000
15 2 -5 0.0000 0.0000
15 2 -2 0.0000 0.0000
15 2 1 0.0000 0.0000
15 2 4 0.0000 0.0000
15 2 7 0.0000 0.0000
15 2 10 0.0000 0.0000
15 2 13 0.0000 0.0000
15 2 16 0.0000 0.0000
15 2 19 0.0000 0.0000
15 3 -15 0.0000 0.0000
15 3 -12 0.0000 0.0000
15 3 -9 0.0000 0.0000
15 3 -6 0.0000 0.0000
15 3 -3 0.0000 0.0000
15 3 0 0.0000 0.0000
15 3 3 0.0000 0.0000
15 3 6 0.0000 0.0000
15 3 9 0.0000 0.0000
15 3 12 0.0000 0.0000
15 3 18 0.0000 0.0000
15 4 -10 0.0000 0.0000
15 4 -7 0.0000 0.0000
15 4 -4 0.0000 0.0000
15 4 -1 0.0000 0.0000
15 4 2 0.0000 0.0000
15 4 5 0.0000 0.0000
15 4 8 0.0000 0.0000
15 4 11 0.0000 0.0000
15 5 -8 0.0000 0.0000
15 5 -5 0.0000 0.0000
15 5 -2 0.0000 0.0000
15 5 1 0.0000 0.0000
15 5 4 0.0000 0.0000
15 5 7 0.0000 0.0000
15 5 10 0.0000 0.0000
15 5 13 0.0000 0.0000
15 6 -9 0.0000 0.0000
15 6 -6 0.0000 0.0000
15 6 -3 0.0000 0.0000
16 1 -15 0.0000 0.0000
16 1 -12 0.0000 0.0000
16 1 -9 0.0000 0.0000
16 1 -6 0.0000 0.0000
16 1 -3 0.0000 0.0000
16 1 0 0.0000 0.0000
16 1 3 0.0000 0.0000
16 1 6 0.0000 0.0000
16 1 9 0.0000 0.0000
16 1 12 0.0000 0.0000
16 1 15 0.0000 0.0000
16 1 18 0.0000 0.0000
16 2 -10 0.0000 0.0000
16 2 -7 0.0000 0.0000
16 2 -4 0.0000 0.0000
16 2 -1 0.0000 0.0000
16 2 2 0.0000 0.0000
16 2 5 0.0000 0.0000
16 2 8 0.0000 0.0000
16 2 11 0.0000 0.0000
16 2 14 0.0000 0.0000
16 2 17 0.0000 0.0000
16 3 -11 0.0000 0.0000
16 3 -8 0.0000 0.0000
16 3 -5 0.0000 0.0000
16 3 -2 0.0000 0.0000
16 3 1 0.0000 0.0000
16 3 4 0.0000 0.0000
16 3 7 0.0000 0.0000
16 4 -9 0.0000 0.0000
16 4 -6 0.0000 0.0000
16 4 -3 0.0000 0.0000
16 4 0 0.0000 0.0000
16 4 3 0.0000 0.0000
16 5 -1 0.0000 0.0000
17 1 -11 0.0000 0.0000
17 1 -8 0.0000 0.0000
17 1 -5 0.0000 0.0000
17 1 -2 0.0000 0.0000
17 1 1 0.0000 0.0000
17 1 4 0.0000 0.0000
17 1 7 0.0000 0.0000
17 1 13 0.0000 0.0000
17 1 16 0.0000 0.0000
17 2 -9 0.0000 0.0000
17 2 -6 0.0000 0.0000
17 2 -3 0.0000 0.0000
17 2 0 0.0000 0.0000
17 2 3 0.0000 0.0000
17 3 -7 0.0000 0.0000
17 3 -1 0.0000 0.0000
17 3 2 0.0000 0.0000
17 4 1 0.0000 0.0000
18 1 -10 0.0000 0.0000
18 1 -7 0.0000 0.0000
18 1 -4 0.0000 0.0000
18 1 -1 0.0000 0.0000
18 2 4 0.0000 0.0000
0 0 0 0.0 0.0
;
_shelx_fab_checksum              85302
_olex2_submission_special_instructions 'No special instructions were received'
_oxdiff_exptl_absorpt_empirical_details
;
Empirical correction (ABSPACK) includes:
- Absorption correction using spherical harmonics
- Frame scaling
;
_oxdiff_exptl_absorpt_empirical_full_max 8.677
_oxdiff_exptl_absorpt_empirical_full_min 0.409
loop_
_space_group_symop_operation_xyz
'x, y, z'
'-y, x-y, z'
'-x+y, -x, z'
'x+2/3, y+1/3, z+1/3'
'-y+2/3, x-y+1/3, z+1/3'
'-x+y+2/3, -x+1/3, z+1/3'
'x+1/3, y+2/3, z+2/3'
'-y+1/3, x-y+2/3, z+2/3'
'-x+y+1/3, -x+2/3, z+2/3'
'-x, -y, -z'
'y, -x+y, -z'
'x-y, x, -z'
'-x+2/3, -y+1/3, -z+1/3'
'y+2/3, -x+y+1/3, -z+1/3'
'x-y+2/3, x+1/3, -z+1/3'
'-x+1/3, -y+2/3, -z+2/3'
'y+1/3, -x+y+2/3, -z+2/3'
'x-y+1/3, x+2/3, -z+2/3'
loop_
_atom_site_label
_atom_site_type_symbol
_atom_site_fract_x
_atom_site_fract_y
_atom_site_fract_z
_atom_site_U_iso_or_equiv
_atom_site_adp_type
_atom_site_occupancy
_atom_site_site_symmetry_order
_atom_site_calc_flag
_atom_site_refinement_flags_posn
_atom_site_refinement_flags_adp
_atom_site_refinement_flags_occupancy
_atom_site_disorder_assembly
_atom_site_disorder_group
Ag01 Ag 0.52170(3) 0.36500(3) 0.39713(2) 0.0752(2) Uani 1 1 d . . . . .
Ag02 Ag 0.666667 0.333333 0.43799(2) 0.0754(3) Uani 1 3 d S T P . .
Ag03 Ag 0.47425(3) 0.17370(3) 0.36931(2) 0.0787(2) Uani 1 1 d . . . . .
Cl04 Cl 0.666667 0.333333 0.333333 0.0549(6) Uani 1 6 d S T P . .
C1 C 0.5396(4) 0.4757(4) 0.35777(17) 0.0732(13) Uani 1 1 d . . . . .
C7 C 0.5012(4) 0.2560(4) 0.43882(16) 0.0739(13) Uani 1 1 d . U . . .
C9 C 0.4435(7) 0.1344(6) 0.5060(3) 0.142(3) Uani 1 1 d D U . . .
C2 C 0.5294(5) 0.5339(5) 0.3396(2) 0.0912(18) Uani 1 1 d . . . . .
C8 C 0.4756(4) 0.1991(4) 0.4680(2) 0.0909(17) Uani 1 1 d . U . . .
C10 C 0.412(3) 0.0362(14) 0.4844(9) 0.177(11) Uani 0.44(3) 1 d D U . A 1
H10A H 0.389428 -0.011497 0.507905 0.265 Uiso 0.44(3) 1 calc R . . A 1
H10B H 0.362048 0.021150 0.462675 0.265 Uiso 0.44(3) 1 calc R . . A 1
H10C H 0.465375 0.037880 0.469065 0.265 Uiso 0.44(3) 1 calc R . . A 1
C3 C 0.5159(7) 0.6076(6) 0.3197(3) 0.138(3) Uani 1 1 d D U . . .
C11 C 0.5192(17) 0.158(2) 0.5388(9) 0.169(11) Uani 0.44(3) 1 d D U . A 1
H11A H 0.495471 0.113726 0.563743 0.254 Uiso 0.44(3) 1 calc R . . A 1
H11B H 0.570849 0.155520 0.524205 0.254 Uiso 0.44(3) 1 calc R . . A 1
H11C H 0.541555 0.221507 0.550307 0.254 Uiso 0.44(3) 1 calc R . . A 1
C12 C 0.356(2) 0.134(2) 0.5254(11) 0.178(12) Uani 0.44(3) 1 d D U . A 1
H12A H 0.332021 0.091771 0.551093 0.267 Uiso 0.44(3) 1 calc R . . A 1
H12B H 0.373501 0.197659 0.535212 0.267 Uiso 0.44(3) 1 calc R . . A 1
H12C H 0.307742 0.113871 0.502281 0.267 Uiso 0.44(3) 1 calc R . . A 1
C6 C 0.5374(14) 0.6210(11) 0.2725(4) 0.161(7) Uani 0.650(15) 1 d D U . B 1
H6A H 0.603036 0.639341 0.267877 0.242 Uiso 0.650(15) 1 calc GR . . B 1
H6B H 0.526258 0.670142 0.261037 0.242 Uiso 0.650(15) 1 calc GR . . B 1
H6C H 0.497461 0.562640 0.256389 0.242 Uiso 0.650(15) 1 calc GR . . B 1
C4 C 0.4362(11) 0.6113(12) 0.3348(6) 0.148(6) Uani 0.650(15) 1 d D U . B 1
H4A H 0.403834 0.618783 0.308983 0.222 Uiso 0.650(15) 1 calc GR . . B 1
H4B H 0.455964 0.664309 0.355197 0.222 Uiso 0.650(15) 1 calc GR . . B 1
H4C H 0.393890 0.553268 0.350563 0.222 Uiso 0.650(15) 1 calc GR . . B 1
C5 C 0.6022(15) 0.7059(15) 0.3402(10) 0.307(16) Uani 0.650(15) 1 d D U . B 1
H5A H 0.662067 0.711440 0.331818 0.460 Uiso 0.650(15) 1 calc R . . B 1
H5B H 0.598513 0.758918 0.327908 0.460 Uiso 0.650(15) 1 calc R . . B 1
H5C H 0.597100 0.705527 0.372907 0.460 Uiso 0.650(15) 1 calc R . . B 1
C10A C 0.419(2) 0.1779(14) 0.5461(6) 0.173(9) Uani 0.56(3) 1 d D U . A 2
H10D H 0.363075 0.181059 0.539065 0.260 Uiso 0.56(3) 1 calc GR . . A 2
H10E H 0.471427 0.240898 0.551752 0.260 Uiso 0.56(3) 1 calc GR . . A 2
H10F H 0.408039 0.139144 0.572788 0.260 Uiso 0.56(3) 1 calc GR . . A 2
C12A C 0.5243(13) 0.116(2) 0.5208(10) 0.189(10) Uani 0.56(3) 1 d D U . A 2
H12D H 0.503405 0.073066 0.546227 0.283 Uiso 0.56(3) 1 calc R . . A 2
H12E H 0.541081 0.089321 0.495733 0.283 Uiso 0.56(3) 1 calc R . . A 2
H12F H 0.578941 0.175589 0.529700 0.283 Uiso 0.56(3) 1 calc R . . A 2
C11A C 0.3635(16) 0.0424(13) 0.4923(8) 0.170(9) Uani 0.56(3) 1 d D U . A 2
H11D H 0.342725 -0.000160 0.518020 0.255 Uiso 0.56(3) 1 calc R . . A 2
H11E H 0.311992 0.050886 0.481901 0.255 Uiso 0.56(3) 1 calc R . . A 2
H11F H 0.383086 0.016116 0.468033 0.255 Uiso 0.56(3) 1 calc R . . A 2
C6A C 0.503(3) 0.660(2) 0.3586(9) 0.168(12) Uani 0.350(15) 1 d D U . B 2
H6AA H 0.436813 0.629217 0.367055 0.252 Uiso 0.350(15) 1 calc GR . . B 2
H6AB H 0.523514 0.724615 0.349397 0.252 Uiso 0.350(15) 1 calc GR . . B 2
H6AC H 0.540026 0.660877 0.384354 0.252 Uiso 0.350(15) 1 calc GR . . B 2
C4A C 0.6081(14) 0.6815(17) 0.2989(10) 0.133(9) Uani 0.350(15) 1 d D U . B 2
H4AA H 0.659615 0.694496 0.319330 0.199 Uiso 0.350(15) 1 calc GR . . B 2
H4AB H 0.605963 0.738869 0.293720 0.199 Uiso 0.350(15) 1 calc GR . . B 2
H4AC H 0.617805 0.658354 0.270294 0.199 Uiso 0.350(15) 1 calc GR . . B 2
C5A C 0.423(2) 0.5470(17) 0.2927(11) 0.200(16) Uani 0.350(15) 1 d D U . B 2
H5AA H 0.405392 0.588133 0.277324 0.300 Uiso 0.350(15) 1 calc R . . B 2
H5AB H 0.432780 0.508810 0.270629 0.300 Uiso 0.350(15) 1 calc R . . B 2
H5AC H 0.373333 0.506245 0.313489 0.300 Uiso 0.350(15) 1 calc R . . B 2
loop_
_atom_site_aniso_label
_atom_site_aniso_U_11
_atom_site_aniso_U_22
_atom_site_aniso_U_33
_atom_site_aniso_U_23
_atom_site_aniso_U_13
_atom_site_aniso_U_12
Ag01 0.0813(3) 0.0768(3) 0.0744(3) 0.01229(18) 0.00884(19) 0.0447(2)
Ag02 0.0759(3) 0.0759(3) 0.0744(4) 0.000 0.000 0.03797(16)
Ag03 0.0793(3) 0.0820(3) 0.0792(3) -0.00113(18) -0.00163(18) 0.0436(2)
Cl04 0.0521(9) 0.0521(9) 0.0604(14) 0.000 0.000 0.0261(4)
C1 0.074(3) 0.067(3) 0.092(3) 0.002(3) 0.003(3) 0.046(3)
C7 0.068(3) 0.088(4) 0.066(3) 0.011(2) 0.014(2) 0.039(3)
C9 0.173(8) 0.130(6) 0.126(6) 0.064(5) 0.055(6) 0.078(6)
C2 0.095(4) 0.092(4) 0.111(4) 0.027(3) 0.040(3) 0.065(4)
C8 0.104(5) 0.087(4) 0.078(4) 0.013(3) 0.030(3) 0.045(4)
C10 0.20(2) 0.125(12) 0.194(18) 0.069(11) 0.005(15) 0.072(13)
C3 0.158(6) 0.133(6) 0.163(6) 0.046(5) 0.051(5) 0.104(5)
C11 0.216(18) 0.155(17) 0.128(14) 0.038(12) -0.009(12) 0.086(13)
C12 0.163(17) 0.19(2) 0.166(18) 0.058(14) 0.042(13) 0.078(14)
C6 0.220(15) 0.165(12) 0.142(10) 0.082(9) 0.044(10) 0.129(12)
C4 0.153(11) 0.151(11) 0.201(13) 0.012(10) 0.003(9) 0.122(10)
C5 0.31(2) 0.28(2) 0.37(2) 0.001(17) 0.019(17) 0.173(17)
C10A 0.198(18) 0.174(14) 0.098(10) 0.028(9) 0.042(11) 0.055(12)
C12A 0.222(16) 0.170(16) 0.166(16) 0.077(12) 0.003(12) 0.092(12)
C11A 0.164(14) 0.133(12) 0.180(14) 0.053(10) 0.049(12) 0.050(10)
C6A 0.21(2) 0.147(17) 0.22(2) 0.017(14) 0.030(15) 0.147(16)
C4A 0.152(17) 0.117(14) 0.141(15) 0.064(12) 0.010(12) 0.077(12)
C5A 0.25(2) 0.179(19) 0.24(2) 0.081(15) -0.010(16) 0.162(17)
loop_
_atom_type_symbol
_atom_type_description
_atom_type_scat_dispersion_real
_atom_type_scat_dispersion_imag
_atom_type_scat_source
C C 0.0033 0.0016 'International Tables Vol C Tables 4.2.6.8 and 6.1.1.4'
H H 0.0000 0.0000 'International Tables Vol C Tables 4.2.6.8 and 6.1.1.4'
Ag Ag -0.8971 1.1015 'International Tables Vol C Tables 4.2.6.8 and 6.1.1.4'
Cl Cl 0.1484 0.1585 'International Tables Vol C Tables 4.2.6.8 and 6.1.1.4'
B B 0.0013 0.0007 'International Tables Vol C Tables 4.2.6.8 and 6.1.1.4'
F F 0.0171 0.0103 'International Tables Vol C Tables 4.2.6.8 and 6.1.1.4'
loop_
_geom_angle_atom_site_label_1
_geom_angle_atom_site_label_2
_geom_angle_atom_site_label_3
_geom_angle
_geom_angle_site_symmetry_1
_geom_angle_site_symmetry_3
_geom_angle_publ_flag
Ag02 Ag01 Ag03 119.13(2) . 17 ?
Ag02 Ag01 Ag03 74.494(13) . . ?
Ag03 Ag01 Ag02 75.117(14) 3_665 . ?
Ag03 Ag01 Ag03 119.88(2) 3_665 . ?
Ag03 Ag01 Ag03 75.490(14) . 17 ?
Ag03 Ag01 Ag03 76.116(14) 3_665 17 ?
C1 Ag01 Ag02 128.35(14) . . ?
C1 Ag01 Ag03 128.97(14) . . ?
C1 Ag01 Ag03 53.24(14) . 3_665 ?
C1 Ag01 Ag03 53.48(14) . 17 ?
C1 Ag01 C7 177.4(2) . . ?
C7 Ag01 Ag02 52.71(14) . . ?
C7 Ag01 Ag03 127.76(14) . 3_665 ?
C7 Ag01 Ag03 53.16(15) . . ?
C7 Ag01 Ag03 128.64(15) . 17 ?
Ag01 Ag02 Ag01 104.230(17) 3_665 . ?
Ag01 Ag02 Ag01 104.231(17) 2_655 3_665 ?
Ag01 Ag02 Ag01 104.231(17) 2_655 . ?
C7 Ag02 Ag01 147.81(13) 2_655 . ?
C7 Ag02 Ag01 147.81(13) 3_665 2_655 ?
C7 Ag02 Ag01 83.40(14) 3_665 . ?
C7 Ag02 Ag01 44.07(13) . . ?
C7 Ag02 Ag01 44.07(13) 3_665 3_665 ?
C7 Ag02 Ag01 83.40(14) . 2_655 ?
C7 Ag02 Ag01 147.81(13) . 3_665 ?
C7 Ag02 Ag01 44.07(13) 2_655 2_655 ?
C7 Ag02 Ag01 83.40(14) 2_655 3_665 ?
C7 Ag02 C7 119.990(5) 2_655 . ?
C7 Ag02 C7 119.989(4) 3_665 . ?
C7 Ag02 C7 119.989(6) 2_655 3_665 ?
Ag01 Ag03 Ag01 104.71(2) 2_655 . ?
Ag01 Ag03 Ag01 103.050(17) . 18_545 ?
Ag01 Ag03 Ag01 104.074(18) 2_655 18_545 ?
C1 Ag03 Ag01 82.39(12) 2_655 18_545 ?
C1 Ag03 Ag01 44.38(13) 2_655 2_655 ?
C1 Ag03 Ag01 43.42(13) 18_545 18_545 ?
C1 Ag03 Ag01 81.91(12) 18_545 . ?
C1 Ag03 Ag01 148.17(13) 2_655 . ?
C1 Ag03 Ag01 146.80(13) 18_545 2_655 ?
C1 Ag03 C1 119.18(8) 2_655 18_545 ?
C1 Ag03 C7 121.63(18) 2_655 . ?
C7 Ag03 Ag01 83.66(12) . 2_655 ?
C7 Ag03 Ag01 43.83(13) . . ?
C7 Ag03 Ag01 146.29(13) . 18_545 ?
C7 Ag03 C1 119.17(18) . 18_545 ?
Ag01 C1 Ag03 82.38(18) . 3_665 ?
Ag01 C1 Ag03 83.10(18) . 17 ?
Ag03 C1 Ag03 99.30(18) 3_665 17 ?
C2 C1 Ag01 163.9(5) . . ?
C2 C1 Ag03 101.6(4) . 17 ?
C2 C1 Ag03 111.6(5) . 3_665 ?
Ag01 C7 Ag02 83.23(18) . . ?
Ag01 C7 Ag03 83.01(17) . . ?
Ag02 C7 Ag03 97.71(17) . . ?
C8 C7 Ag01 164.2(5) . . ?
C8 C7 Ag02 106.9(5) . . ?
C8 C7 Ag03 106.9(5) . . ?
C8 C9 C10 104.5(12) . . ?
C8 C9 C11 111.6(13) . . ?
C8 C9 C12 106.6(11) . . ?
C8 C9 C10A 109.9(9) . . ?
C8 C9 C12A 108.9(10) . . ?
C8 C9 C11A 110.4(12) . . ?
C11 C9 C10 110.2(11) . . ?
C11 C9 C12 114.5(11) . . ?
C12 C9 C10 109.0(11) . . ?
C10A C9 C12A 108.2(10) . . ?
C11A C9 C10A 112.4(10) . . ?
C11A C9 C12A 106.8(11) . . ?
C1 C2 C3 176.8(7) . . ?
C7 C8 C9 175.7(7) . . ?
C2 C3 C5 104.6(14) . . ?
C2 C3 C6A 106.7(12) . . ?
C2 C3 C4A 108.8(10) . . ?
C2 C3 C5A 100.5(10) . . ?
C6 C3 C2 113.3(8) . . ?
C6 C3 C5 100.6(10) . . ?
C4 C3 C2 115.8(8) . . ?
C4 C3 C6 117.7(10) . . ?
C4 C3 C5 101.7(10) . . ?
C6A C3 C4A 102.7(18) . . ?
C6A C3 C5A 112(2) . . ?
C4A C3 C5A 124.6(17) . . ?
loop_
_geom_bond_atom_site_label_1
_geom_bond_atom_site_label_2
_geom_bond_distance
_geom_bond_site_symmetry_2
_geom_bond_publ_flag
Ag01 Ag02 2.9606(5) . ?
Ag01 Ag03 2.9300(6) 3_665 ?
Ag01 Ag03 2.9864(6) 17 ?
Ag01 Ag03 2.9720(6) . ?
Ag01 C1 2.068(5) . ?
Ag01 C7 2.073(5) . ?
Ag02 C7 2.372(5) 3_665 ?
Ag02 C7 2.372(5) . ?
Ag02 C7 2.372(5) 2_655 ?
Ag03 C1 2.368(5) 2_655 ?
Ag03 C1 2.418(5) 18_545 ?
Ag03 C7 2.396(5) . ?
C1 C2 1.188(7) . ?
C7 C8 1.194(7) . ?
C9 C8 1.463(9) . ?
C9 C10 1.574(16) . ?
C9 C11 1.480(17) . ?
C9 C12 1.559(16) . ?
C9 C10A 1.548(14) . ?
C9 C12A 1.571(15) . ?
C9 C11A 1.489(15) . ?
C2 C3 1.470(10) . ?
C3 C6 1.442(13) . ?
C3 C4 1.424(13) . ?
C3 C5 1.653(16) . ?
C3 C6A 1.531(17) . ?
C3 C4A 1.529(16) . ?
C3 C5A 1.571(18) . ?
loop_
_smtbx_masks_void_nr
_smtbx_masks_void_average_x
_smtbx_masks_void_average_y
_smtbx_masks_void_average_z
_smtbx_masks_void_volume
_smtbx_masks_void_count_electrons
_smtbx_masks_void_content
1 0.000 0.000 0.262 7.9 0.0 ?
2 0.000 0.000 0.500 205.5 0.0 '0.166667 B1F4'
3 0.000 0.000 0.738 7.9 0.0 ?
4 0.333 0.667 0.167 205.5 0.0 '0.166667 B1F4'
5 0.333 0.667 0.404 7.9 0.0 '0.166667 B1F4'
6 0.333 0.667 0.929 7.9 0.0 ?
7 0.667 0.333 0.833 205.5 0.0 ?
8 0.667 0.333 0.071 7.9 0.0 ?
9 0.667 0.333 0.596 7.9 0.0 ?
