#------------------------------------------------------------------------------
#$Date: 2024-03-04 22:00:26 +0200 (Mon, 04 Mar 2024) $
#$Revision: 290120 $
#$URL: file:///home/coder/svn-repositories/cod/cif/1/57/06/1570619.cif $
#------------------------------------------------------------------------------
#
# This file is available in the Crystallography Open Database (COD),
# http://www.crystallography.net/
#
# All data on this site have been placed in the public domain by the
# contributors.
#
data_1570619
loop_
_publ_author_name
'Mahato, Samyadeb'
'VandeVen, Warren'
'MacNeil, Gregory A.'
'Pulfer, Jason M.'
'Storr, Tim'
_publ_section_title
;
 Untangling ancillary ligand donation <i>versus</i> locus of oxidation
 effects on metal nitride reactivity.
;
_journal_issue                   6
_journal_name_full               'Chemical science'
_journal_page_first              2211
_journal_page_last               2220
_journal_paper_doi               10.1039/d3sc05403a
_journal_volume                  15
_journal_year                    2024
_chemical_formula_moiety         '0.121(C28 H36 Mn N3 O2)'
_chemical_formula_sum            'C3.39 H4.36 Mn0.12 N0.36 O0.24'
_chemical_formula_weight         60.79
_space_group_crystal_system      monoclinic
_space_group_IT_number           14
_space_group_name_Hall           '-P 2yn'
_space_group_name_H-M_alt        'P 1 21/n 1'
_atom_sites_solution_hydrogens   geom
_audit_creation_date             2023-04-06
_audit_creation_method
;
Olex2 1.5
(compiled 2023.03.06 svn.rbb2c1857 for OlexSys, GUI svn.r6748)
;
_audit_update_record
;
2023-09-29 deposited with the CCDC.	2024-01-02 downloaded from the CCDC.
;
_cell_angle_alpha                90
_cell_angle_beta                 100.227(13)
_cell_angle_gamma                90
_cell_formula_units_Z            33
_cell_length_a                   13.155(3)
_cell_length_b                   12.7828(10)
_cell_length_c                   15.378(2)
_cell_measurement_reflns_used    9825
_cell_measurement_temperature    298.14
_cell_measurement_theta_max      63.915
_cell_measurement_theta_min      4.526
_cell_volume                     2544.8(7)
_computing_cell_refinement       'SAINT V8.40B (?, 2016)'
_computing_data_reduction        'SAINT V8.40B (?, 2016)'
_computing_molecular_graphics    'Olex2 1.5 (Dolomanov et al., 2009)'
_computing_publication_material  'Olex2 1.5 (Dolomanov et al., 2009)'
_computing_structure_refinement  'XL  (Sheldrick, 2008)'
_diffrn_ambient_temperature      298.14
_diffrn_measured_fraction_theta_full 0.981
_diffrn_measured_fraction_theta_max 0.981
_diffrn_measurement_device_type  'Bruker PHOTON II 14 CPAD'
_diffrn_radiation_type           CuK\a
_diffrn_radiation_wavelength     1.54178
_diffrn_reflns_av_R_equivalents  0.0565
_diffrn_reflns_av_unetI/netI     0.0363
_diffrn_reflns_Laue_measured_fraction_full 0.981
_diffrn_reflns_Laue_measured_fraction_max 0.981
_diffrn_reflns_limit_h_max       15
_diffrn_reflns_limit_h_min       -15
_diffrn_reflns_limit_k_max       14
_diffrn_reflns_limit_k_min       -14
_diffrn_reflns_limit_l_max       15
_diffrn_reflns_limit_l_min       -17
_diffrn_reflns_number            32249
_diffrn_reflns_point_group_measured_fraction_full 0.981
_diffrn_reflns_point_group_measured_fraction_max 0.981
_diffrn_reflns_theta_full        64.797
_diffrn_reflns_theta_max         64.797
_diffrn_reflns_theta_min         4.528
_diffrn_source_current           0.65
_diffrn_source_power             0.02925
_diffrn_source_voltage           45.0
_exptl_absorpt_coefficient_mu    4.443
_exptl_absorpt_correction_T_max  0.7525
_exptl_absorpt_correction_T_min  0.5703
_exptl_absorpt_correction_type   multi-scan
_exptl_absorpt_process_details
;
SADABS-2016/2 (Bruker,2016/2) was used for absorption correction.
wR2(int) was 0.1449 before and 0.0699 after correction.
The Ratio of minimum to maximum transmission is 0.7579.
The \l/2 correction factor is Not present.
;
_exptl_crystal_colour            'metallic dark green'
_exptl_crystal_colour_lustre     metallic
_exptl_crystal_colour_modifier   dark
_exptl_crystal_colour_primary    green
_exptl_crystal_density_diffrn    1.309
_exptl_crystal_description       'rect. Prism'
_exptl_crystal_F_000             1064
_exptl_crystal_size_max          1.146
_exptl_crystal_size_mid          0.304
_exptl_crystal_size_min          0.21
_refine_diff_density_max         0.202
_refine_diff_density_min         -0.309
_refine_diff_density_rms         0.038
_refine_ls_extinction_method     none
_refine_ls_goodness_of_fit_ref   1.081
_refine_ls_hydrogen_treatment    constr
_refine_ls_matrix_type           full
_refine_ls_number_parameters     313
_refine_ls_number_reflns         4226
_refine_ls_number_restraints     0
_refine_ls_restrained_S_all      1.081
_refine_ls_R_factor_all          0.0439
_refine_ls_R_factor_gt           0.0361
_refine_ls_shift/su_max          0.001
_refine_ls_shift/su_mean         0.000
_refine_ls_structure_factor_coef Fsqd
_refine_ls_weighting_details
'w=1/[\s^2^(Fo^2^)+(0.0465P)^2^+0.6086P] where P=(Fo^2^+2Fc^2^)/3'
_refine_ls_weighting_scheme      calc
_refine_ls_wR_factor_gt          0.0933
_refine_ls_wR_factor_ref         0.0971
_reflns_Friedel_coverage         0.000
_reflns_number_gt                3592
_reflns_number_total             4226
_reflns_threshold_expression     'I > 2\s(I)'
_cod_data_source_file            d3sc05403a2.cif
_cod_data_source_block           cu_ts_smsample1_0m_a
_cod_depositor_comments          'Adding full bibliography for 1570619.cif.'
_cod_database_code               1570619
_shelx_shelxl_version_number     2019/1
_shelx_space_group_comment
;
The symmetry employed for this shelxl refinement is uniquely defined
by the following loop, which should always be used as a source of
symmetry information in preference to the above space-group names.
They are only intended as comments.
;
_shelx_estimated_absorpt_t_max   0.456
_shelx_estimated_absorpt_t_min   0.080
_olex2_refinement_description
;
1. Fixed Uiso
 At 1.2 times of:
  All C(H) groups, All C(H,H) groups
 At 1.5 times of:
  All C(H,H,H) groups
2.a Ternary CH refined with riding coordinates:
 C00J(H00J), C00M(H00M)
2.b Secondary CH2 refined with riding coordinates:
 C00O(H00A,H00B), C00Q(H00C,H00D), C00U(H00W,H00X), C00X(H00,HD)
2.c Aromatic/amide H refined with riding coordinates:
 C009(H009), C00E(H00E), C00F(H00F), C00G(H00G), C00I(H00I), C00K(H00K),
 C00L(H00L), C00P(H00P)
2.d Idealised Me refined as rotating group:
 C00R(H00H,H00N,H00O), C00S(H00Q,H00R,H00S), C00T(H00T,H00U,H00V), C00V(H00Y,H,
 HA), C00W(H00Z,HB,HC), C00Y(H1,HE,HF)
;
_shelx_res_file
;
TITL cu_TS_SMSample1_0m_a.res in P2(1)/n
    cu_ts_smsample1_0m_a.res
    created by SHELXL-2019/1 at 11:26:09 on 06-Apr-2023
REM Old TITL cu_TS_SMSample1_0m in P2(1)/n
REM SHELXT solution in P2(1)/n: R1 0.115, Rweak 0.008, Alpha 0.048
REM <I/s> 0.552 for 219 systematic absences, Orientation as input
REM Formula found by SHELXT: C28 Mn N3 O2
CELL 1.54178 13.155 12.7828 15.3778 90 100.227 90
ZERR 33 0.0032 0.001 0.002 0 0.013 0
LATT 1
SYMM 0.5-X,0.5+Y,0.5-Z
SFAC C H Mn N O
UNIT 112 144 4 12 8

L.S. 10
PLAN  7
SIZE 0.21 0.304 1.146
TEMP 24.99
CONF
LIST 6
MORE -1
BOND $H
fmap 2
ACTA
REM <olex2.extras>
REM <HklSrc "%.\\cu_TS_SMSample1_0m_a.hkl">
REM </olex2.extras>

WGHT    0.046500    0.608600
FVAR       0.45259
MN01  3    0.463390    0.721857    0.566746    11.00000    0.04174    0.04486 =
         0.04285    0.00291    0.01322    0.00101
O002  5    0.379341    0.604777    0.587068    11.00000    0.04482    0.04803 =
         0.05657    0.01015    0.01321    0.00165
O003  5    0.343787    0.761024    0.485379    11.00000    0.04348    0.05227 =
         0.05706    0.01425    0.01122    0.00154
N004  4    0.585478    0.630772    0.575850    11.00000    0.04164    0.04932 =
         0.04440   -0.00003    0.00999   -0.00080
N005  4    0.548093    0.810587    0.504877    11.00000    0.04477    0.04894 =
         0.04858    0.00204    0.01317    0.00012
N006  4    0.474652    0.782335    0.652820    11.00000    0.06344    0.05947 =
         0.05469   -0.00646    0.02348   -0.00381
C007  1    0.410396    0.519961    0.632219    11.00000    0.05256    0.03995 =
         0.03820   -0.00202    0.00888   -0.00235
C008  1    0.510107    0.477710    0.632727    11.00000    0.04806    0.04294 =
         0.03902   -0.00298    0.00628   -0.00082
C009  1    0.588365    0.533100    0.597542    11.00000    0.04651    0.05165 =
         0.04399   -0.00367    0.00741    0.00518
AFIX  43
H009  2    0.646451    0.495333    0.589614    11.00000   -1.20000
AFIX   0
C00A  1    0.328892    0.838965    0.428509    11.00000    0.05061    0.04623 =
         0.04354    0.00197    0.01319    0.00513
C00B  1    0.411674    0.896034    0.404181    11.00000    0.05461    0.04671 =
         0.04757    0.00403    0.01434    0.00324
C00C  1    0.225246    0.864649    0.388087    11.00000    0.05304    0.04987 =
         0.04393   -0.00209    0.00876    0.00725
C00D  1    0.341675    0.467330    0.680349    11.00000    0.05784    0.04220 =
         0.04667   -0.00157    0.01488   -0.00489
C00E  1    0.517178    0.875737    0.442417    11.00000    0.05528    0.04972 =
         0.05488    0.00430    0.02127   -0.00290
AFIX  43
H00E  2    0.567544    0.912973    0.420042    11.00000   -1.20000
AFIX   0
C00F  1    0.537151    0.379149    0.671253    11.00000    0.05693    0.04493 =
         0.05629   -0.00275    0.00288    0.00494
AFIX  43
H00F  2    0.600903    0.349570    0.667805    11.00000   -1.20000
AFIX   0
C00G  1    0.212562    0.942135    0.324663    11.00000    0.06239    0.06035 =
         0.04599    0.00196    0.00323    0.01081
AFIX  43
H00G  2    0.145744    0.958962    0.297264    11.00000   -1.20000
AFIX   0
C00H  1    0.133242    0.807960    0.415304    11.00000    0.04479    0.06405 =
         0.05318    0.00054    0.00503    0.00394
C00I  1    0.294255    0.996545    0.299397    11.00000    0.07683    0.05745 =
         0.04856    0.01321    0.01116    0.00732
AFIX  43
H00I  2    0.281521    1.047671    0.255792    11.00000   -1.20000
AFIX   0
C00J  1    0.675302    0.677476    0.542279    11.00000    0.04437    0.05698 =
         0.05701    0.00065    0.01496    0.00091
AFIX  13
H00J  2    0.672253    0.654689    0.481022    11.00000   -1.20000
AFIX   0
C00K  1    0.392271    0.974581    0.338670    11.00000    0.07070    0.05283 =
         0.05262    0.00838    0.01892    0.00036
AFIX  43
H00K  2    0.447057    1.011283    0.322509    11.00000   -1.20000
AFIX   0
C00L  1    0.374707    0.372800    0.719010    11.00000    0.07361    0.04651 =
         0.05935    0.00591    0.02057   -0.00557
AFIX  43
H00L  2    0.331087    0.337529    0.750456    11.00000   -1.20000
AFIX   0
C00M  1    0.658508    0.794743    0.542303    11.00000    0.04149    0.05793 =
         0.05360    0.00010    0.01302   -0.00238
AFIX  13
H00M  2    0.667902    0.816346    0.604362    11.00000   -1.20000
AFIX   0
C00N  1    0.237848    0.515436    0.690484    11.00000    0.05908    0.05120 =
         0.06582    0.00265    0.02804   -0.00363
C00O  1    0.738435    0.853207    0.501736    11.00000    0.05353    0.06085 =
         0.06376   -0.00155    0.01916   -0.00885
AFIX  23
H00A  2    0.726013    0.927912    0.503478    11.00000   -1.20000
H00B  2    0.734339    0.832465    0.440536    11.00000   -1.20000
AFIX   0
C00P  1    0.469482    0.327426    0.713557    11.00000    0.07543    0.04347 =
         0.06545    0.00835    0.01138    0.00206
AFIX  43
H00P  2    0.486592    0.262148    0.738639    11.00000   -1.20000
AFIX   0
C00Q  1    0.781420    0.650411    0.594070    11.00000    0.04498    0.07055 =
         0.07622    0.00582    0.01503    0.00465
AFIX  23
H00C  2    0.793757    0.575986    0.589346    11.00000   -1.20000
H00D  2    0.784084    0.667005    0.655985    11.00000   -1.20000
AFIX   0
C00R  1    0.136630    0.821317    0.515226    11.00000    0.05211    0.08675 =
         0.05833    0.00229    0.01675    0.00361
AFIX 137
H00H  2    0.200739    0.794297    0.546870    11.00000   -1.50000
H00N  2    0.080179    0.783787    0.532447    11.00000   -1.50000
H00O  2    0.131087    0.894202    0.528698    11.00000   -1.50000
AFIX   0
C00S  1    0.168033    0.530141    0.600525    11.00000    0.05484    0.08395 =
         0.08851   -0.00228    0.01553   -0.00049
AFIX 137
H00Q  2    0.202587    0.573104    0.563636    11.00000   -1.50000
H00R  2    0.104882    0.563374    0.608473    11.00000   -1.50000
H00S  2    0.152828    0.463172    0.573028    11.00000   -1.50000
AFIX   0
C00T  1    0.029525    0.852088    0.367730    11.00000    0.05302    0.09503 =
         0.07489    0.00727    0.00372    0.00722
AFIX 137
H00T  2    0.024740    0.924730    0.382326    11.00000   -1.50000
H00U  2   -0.026057    0.814265    0.386105    11.00000   -1.50000
H00V  2    0.025085    0.844842    0.305032    11.00000   -1.50000
AFIX   0
C00U  1    0.845397    0.827257    0.554468    11.00000    0.04812    0.07643 =
         0.09027   -0.00792    0.02101   -0.00810
AFIX  23
H00W  2    0.897662    0.861404    0.527232    11.00000   -1.20000
H00X  2    0.850820    0.854425    0.614011    11.00000   -1.20000
AFIX   0
C00V  1    0.256947    0.621886    0.735633    11.00000    0.07761    0.06861 =
         0.09861   -0.02409    0.03628    0.00174
AFIX 137
H00Y  2    0.299248    0.613065    0.792805    11.00000   -1.50000
H     2    0.192101    0.652517    0.742173    11.00000   -1.50000
HA    2    0.291493    0.666956    0.700286    11.00000   -1.50000
AFIX   0
C00W  1    0.135470    0.691716    0.390422    11.00000    0.06803    0.06594 =
         0.07787   -0.00496    0.00734   -0.00764
AFIX 137
H00Z  2    0.128781    0.685154    0.327473    11.00000   -1.50000
HB    2    0.079292    0.655977    0.409781    11.00000   -1.50000
HC    2    0.199728    0.661363    0.418461    11.00000   -1.50000
AFIX   0
C00X  1    0.865420    0.711736    0.558655    11.00000    0.04952    0.07765 =
         0.09876   -0.00247    0.02178   -0.00217
AFIX  23
H00   2    0.931501    0.698751    0.596396    11.00000   -1.20000
HD    2    0.869738    0.686520    0.499928    11.00000   -1.20000
AFIX   0
C00Y  1    0.179031    0.447410    0.747042    11.00000    0.08671    0.08615 =
         0.12775    0.03212    0.06222    0.00544
AFIX 137
H1    2    0.167567    0.379314    0.720806    11.00000   -1.50000
HE    2    0.113802    0.479439    0.750280    11.00000   -1.50000
HF    2    0.218893    0.440878    0.805457    11.00000   -1.50000
AFIX   0
HKLF 4




REM  cu_TS_SMSample1_0m_a.res in P2(1)/n
REM wR2 = 0.0971, GooF = S = 1.081, Restrained GooF = 1.081 for all data
REM R1 = 0.0361 for 3592 Fo > 4sig(Fo) and 0.0439 for all 4226 data
REM 313 parameters refined using 0 restraints

END

WGHT      0.0465      0.6086

REM Highest difference peak  0.202,  deepest hole -0.309,  1-sigma level  0.038
Q1    1   0.6478  0.7538  0.4799  11.00000  0.05    0.20
Q2    1   0.4241  0.7340  0.4671  11.00000  0.05    0.20
Q3    1   0.4414  0.8223  0.6150  11.00000  0.05    0.18
Q4    1   0.3992  0.7404  0.6102  11.00000  0.05    0.18
Q5    1   0.6683  0.7216  0.5937  11.00000  0.05    0.18
Q6    1   0.5181  0.7339  0.6587  11.00000  0.05    0.17
Q7    1   0.8328  0.7840  0.5031  11.00000  0.05    0.15
;
_shelx_res_checksum              20807
_shelx_hkl_file
;
   1   0   0    0.60    0.50
  -1   0   0    0.40    0.40
  -2   0   0   96.19    6.00
  -2   0   0   91.09    6.00
  -3   0   0    0.40    1.50
  -3   0   0   -0.60    1.30
  -4   0   0   77.79    5.80
  -4   0   0   78.89    6.10
  -5   0   0    2.30    2.20
  -5   0   0   -0.50    1.80
  -6   0   0  623.14   35.30
   6   0   0  549.85   36.10
  -6   0   0  581.64   35.60
  -6   0   0  661.83   37.10
  -6   0   0  666.63   36.80
   7   0   0    4.00    2.80
  -7   0   0   -2.70    3.00
  -7   0   0    6.60    3.00
  -7   0   0   -0.40    1.10
  -7   0   0    1.00    1.40
   7   0   0   -0.10    1.80
  -8   0   0   75.49    5.70
  -8   0   0   74.79    5.20
  -8   0   0   86.49    7.80
  -8   0   0   83.29    8.30
   8   0   0   72.19    7.40
   8   0   0   71.09    6.20
  -9   0   0   -3.00    3.70
  -9   0   0   -0.10    2.00
  -9   0   0    0.90    1.50
  -9   0   0   -2.40    4.30
   9   0   0    1.40    2.30
   9   0   0    4.20    4.00
 -10   0   0  308.77   19.80
  10   0   0  331.67   20.10
 -10   0   0  327.67   23.40
 -10   0   0  336.37   19.60
 -10   0   0  342.87   22.40
  11   0   0   -2.70    5.20
 -11   0   0   -4.20    6.90
 -11   0   0    1.00    2.10
 -11   0   0   -0.70    2.10
 -11   0   0    1.30    5.00
  12   0   0   53.09    8.90
 -12   0   0   41.00    4.70
 -12   0   0   41.90    7.30
 -12   0   0   52.19    5.10
 -13   0   0    0.70    2.00
 -13   0   0    0.30    2.20
  13   0   0    2.70    5.30
 -14   0   0   51.59    4.70
  14   0   0   61.29    8.00
  15   0   0   -1.50    3.40
   0  -1   0    0.40    0.30
   0   1   0    0.50    0.20
  -1  -1   0 1422.96   80.09
  -1  -1   0 1401.66   79.99
  -1   1   0 1349.56   79.89
  -2  -1   0    7.80    1.50
  -2  -1   0    5.90    1.50
  -2   1   0    5.40    1.10
  -2   1   0    4.20    1.10
  -3  -1   0  443.66   25.80
  -3  -1   0  447.56   25.70
  -3   1   0  426.16   25.60
  -3   1   0  413.46   25.40
  -4  -1   0  282.67   17.80
  -4  -1   0  281.67   17.60
  -4   1   0  288.77   17.40
  -4   1   0  291.27   17.60
  -5  -1   0  282.37   17.60
  -5  -1   0  282.07   17.90
  -5   1   0  277.27   17.30
  -5   1   0  280.97   17.60
   6  -1   0  263.17   17.90
  -6  -1   0  281.67   18.50
  -6  -1   0  286.87   18.80
  -6  -1   0  315.27   17.20
  -6  -1   0  278.27   16.90
  -6   1   0  290.07   17.00
  -6   1   0  293.87   18.30
  -6   1   0  320.57   18.80
  -7  -1   0   97.69    8.30
   7  -1   0   95.19    7.70
  -7  -1   0   89.59    8.70
   7  -1   0   79.99    6.60
  -7  -1   0   93.39    5.80
  -7  -1   0   91.69    6.40
   7   1   0   85.39    7.50
  -7   1   0   82.59    7.60
  -7   1   0   97.99    8.40
  -7   1   0   96.79    5.80
  -7   1   0   92.09    6.10
   7   1   0   83.99    6.40
   8  -1   0  291.77   19.50
  -8  -1   0  329.67   19.20
   8  -1   0  331.77   20.50
  -8  -1   0  334.97   21.90
  -8  -1   0  317.07   18.80
  -8  -1   0  351.26   21.40
  -8   1   0  327.57   21.40
   8   1   0  311.67   20.40
  -8   1   0  338.67   20.80
  -8   1   0  328.87   19.00
   8   1   0  289.67   19.20
  -9  -1   0   14.60    4.90
   9  -1   0   11.00    2.80
  -9  -1   0    3.70    5.10
  -9  -1   0    8.20    1.90
   9  -1   0    8.30    4.70
  -9  -1   0    4.60    2.40
  -9   1   0    8.40    1.90
  -9   1   0    9.70    4.10
  -9   1   0    6.00    1.90
  -9   1   0    5.40    4.40
   9   1   0    5.10    4.10
 -10  -1   0   55.79    5.90
  10  -1   0   74.29    8.20
 -10  -1   0   70.79   10.80
 -10  -1   0   61.39    5.00
  10  -1   0   65.29    6.40
 -10  -1   0   65.79    8.80
 -10   1   0   72.99   10.30
  10   1   0   54.09    8.70
 -10   1   0   50.89    5.00
 -10   1   0   68.89    8.40
 -10   1   0   59.09    5.10
 -11  -1   0    0.00    6.70
 -11  -1   0    2.70    2.40
  11  -1   0    2.30    2.80
  11  -1   0    5.80    5.50
 -11  -1   0    1.30    5.00
 -11  -1   0   -2.10    2.10
 -11   1   0    5.60    7.20
 -11   1   0    4.30    4.70
 -11   1   0    3.00    2.00
  11   1   0   -0.70    5.40
 -11   1   0    5.60    2.20
 -12  -1   0   11.80    2.70
  12  -1   0   32.00    7.20
 -12  -1   0   21.10    2.90
 -12  -1   0   31.40    6.60
 -12   1   0   12.30    6.20
  12   1   0   24.00    6.20
 -12   1   0   10.80    2.40
 -12   1   0   18.30    2.70
  13  -1   0    1.30    5.30
 -13  -1   0   -0.50    2.10
 -13  -1   0   -0.90    2.00
 -13   1   0    3.80    2.20
  13   1   0    1.70    5.20
  14  -1   0    2.90    4.50
 -14   1   0   -0.60    1.80
  14   1   0    1.60    4.50
  15  -1   0    4.90    3.40
   0   2   0 1863.61  106.99
   0   2   0 1861.91  106.89
  -1  -2   0  564.74   33.50
  -1   2   0  572.34   33.20
  -1   2   0  555.84   33.20
   1   2   0  604.54   33.20
  -2  -2   0 2203.78  123.69
  -2  -2   0 2240.18  123.79
  -2   2   0 2113.99  123.39
  -2   2   0 2033.10  123.29
  -3  -2   0   38.00    4.10
  -3  -2   0   43.70    4.00
  -3   2   0   40.60    3.40
  -3   2   0   44.30    3.30
  -4  -2   0   41.80    4.50
  -4  -2   0   46.70    4.80
  -4   2   0   34.70    3.70
  -4   2   0   39.00    3.50
  -5  -2   0  397.46   24.20
  -5  -2   0  387.96   23.90
  -5   2   0  388.36   23.40
  -5   2   0  378.76   23.60
  -6  -2   0  976.00   53.59
  -6  -2   0  920.41   53.69
  -6  -2   0  898.41   53.59
  -6  -2   0  943.91   55.59
  -6  -2   0  955.70   55.29
  -6   2   0  976.10   55.09
   6   2   0  966.10   54.59
   6   2   0  816.12   54.39
  -6   2   0  948.11   54.79
  -6   2   0  927.41   53.69
  -7  -2   0   19.70    2.30
  -7  -2   0   24.70    4.90
  -7  -2   0   17.60    2.60
   7  -2   0   16.10    3.60
  -7  -2   0   21.20    4.50
  -7  -2   0   17.30    3.30
   7  -2   0   17.50    2.70
  -7   2   0   23.70    4.10
   7   2   0   18.90    3.70
  -7   2   0   17.70    2.40
   7   2   0   20.00    3.90
  -7   2   0   19.60    4.00
  -7   2   0   16.30    2.40
  -8  -2   0    3.50    1.70
  -8  -2   0    4.20    2.30
  -8  -2   0    5.60    4.40
  -8  -2   0    3.60    1.50
  -8  -2   0   -0.60    3.80
   8  -2   0    0.10    3.40
   8  -2   0    3.80    2.30
  -8   2   0    3.40    1.50
  -8   2   0    2.60    3.10
   8   2   0    0.90    3.50
  -8   2   0    3.10    3.60
   8   2   0    2.90    2.50
  -8   2   0    3.40    1.50
   9  -2   0  243.38   16.40
  -9  -2   0  219.48   14.60
  -9  -2   0  236.48   17.40
  -9  -2   0  233.88   14.10
  -9  -2   0  252.67   18.40
   9  -2   0  210.98   15.10
  -9   2   0  233.48   14.20
  -9   2   0  226.08   14.20
   9   2   0  242.58   16.40
  -9   2   0  247.68   17.30
  -9   2   0  254.87   16.40
   9   2   0  245.38   15.40
 -10  -2   0  623.84   36.60
  10  -2   0  631.44   37.40
  10  -2   0  635.94   38.80
 -10  -2   0  608.94   39.50
 -10  -2   0  638.34   40.60
 -10   2   0  665.93   38.90
  10   2   0  617.74   38.60
 -10   2   0  626.94   36.60
 -10   2   0  606.44   36.70
 -11  -2   0    0.20    2.80
  11  -2   0   -1.30    2.80
  11  -2   0    0.60    5.20
 -11  -2   0   -1.80    1.90
 -11  -2   0    0.80    7.40
 -11  -2   0   -6.80    5.10
 -11   2   0   -0.40    1.80
 -11   2   0   -1.10    2.10
 -11   2   0    3.00    4.60
  11   2   0   -3.50    5.20
 -12  -2   0  145.79   11.20
  12  -2   0  188.18   14.50
  12  -2   0  163.78   11.70
 -12  -2   0  164.28   15.10
 -12  -2   0  179.28   10.90
 -12   2   0  169.08   11.00
  12   2   0  182.48   14.30
  13  -2   0   -1.50    5.70
 -13  -2   0   -1.00    2.10
 -13   2   0    4.80    2.20
  13   2   0   -0.70    4.70
  14  -2   0   36.90    6.90
  14   2   0   30.50    6.40
 -14   2   0   24.50    3.50
   0   3   0    0.20    0.80
   0   3   0    0.30    0.70
  -1  -3   0  530.65   31.50
   1   3   0  537.25   31.10
  -1   3   0  529.25   31.00
  -1   3   0  545.25   31.10
  -2  -3   0  145.09    9.70
  -2  -3   0  145.09    9.90
  -2   3   0  152.88    9.10
  -2   3   0  157.18    9.20
  -3  -3   0   35.40    4.30
  -3  -3   0   44.20    4.10
  -3   3   0   36.00    3.10
  -3   3   0   39.60    3.10
  -4  -3   0  153.98   11.20
  -4  -3   0  158.28   11.00
  -4   3   0  155.78   10.20
  -4   3   0  167.58   10.10
  -5  -3   0    6.40    3.40
  -5  -3   0   11.60    3.30
  -5  -3   0   11.10    1.70
   5   3   0   11.00    2.70
  -5   3   0    9.40    2.30
  -5   3   0   11.60    1.60
   5   3   0    9.60    2.30
  -5   3   0   12.30    2.30
  -5   3   0    9.90    1.60
  -6  -3   0  781.12   44.30
  -6  -3   0  762.02   46.50
  -6  -3   0  802.72   46.20
  -6  -3   0  844.42   44.30
   6   3   0  691.23   45.20
   6   3   0  710.83   44.60
   6   3   0  774.42   45.00
  -6   3   0  725.43   44.40
  -6   3   0  784.82   45.70
   6   3   0  776.02   44.70
  -6   3   0  781.02   45.40
  -6   3   0  786.82   44.40
  -7  -3   0   -0.80    1.30
  -7  -3   0   -3.20    3.80
  -7  -3   0   -0.60    3.60
   7  -3   0    1.10    1.90
  -7  -3   0    0.60    1.20
  -7  -3   0    0.60    1.80
   7  -3   0    3.70    3.30
  -7   3   0    0.10    1.10
   7   3   0   -0.10    2.00
   7   3   0    1.00    3.00
  -7   3   0    1.00    1.30
   7   3   0    0.80    1.70
  -7   3   0    1.30    2.70
   7   3   0    2.20    2.50
  -7   3   0    0.80    2.40
   8  -3   0  302.27   20.20
  -8  -3   0  336.87   19.40
   8  -3   0  316.27   21.10
  -8  -3   0  312.27   22.70
  -8  -3   0  318.87   19.90
  -8  -3   0  328.17   22.30
  -8   3   0  338.17   19.60
  -8   3   0  342.97   21.70
  -8   3   0  351.96   21.20
   8   3   0  361.06   20.60
   8   3   0  310.77   20.20
  -8   3   0  346.37   19.60
   8   3   0  320.07   21.10
  -9  -3   0    9.70    5.80
  -9  -3   0    4.50    2.90
   9  -3   0    2.30    2.60
   9  -3   0    6.80    4.60
  -9  -3   0    4.00    1.80
  -9  -3   0    2.80    2.10
  -9  -3   0    4.10    5.20
  -9   3   0    3.60    1.80
  -9   3   0    2.70    1.70
  -9   3   0   -2.60    4.30
   9   3   0    9.00    4.40
   9   3   0    4.90    3.00
  -9   3   0    4.20    3.50
 -10  -3   0   68.99   10.70
 -10  -3   0   64.69    5.80
  10  -3   0   89.49   10.00
 -10  -3   0   76.29    7.50
 -10  -3   0   67.29   10.30
  10  -3   0   86.89    7.80
  10   3   0   66.69    9.20
 -10   3   0   85.99   11.60
 -10   3   0   76.09    6.00
 -10   3   0   71.49    8.70
  10   3   0   79.09    7.50
 -10   3   0   77.49    5.90
 -11  -3   0   47.70    8.20
 -11  -3   0   52.09    6.60
 -11  -3   0   48.90    5.10
  11  -3   0   53.49    6.70
  11  -3   0   68.69    9.40
 -11   3   0   58.69    5.20
 -11   3   0   49.80    4.80
  11   3   0   54.49    8.50
 -12  -3   0    1.00    5.70
  12  -3   0    2.40    3.00
  12  -3   0   -3.40    5.30
 -12  -3   0    2.80    2.70
 -12  -3   0    1.70    2.80
 -12   3   0   -0.10    2.40
  12   3   0    7.30    5.30
 -13  -3   0   70.69    6.00
  13  -3   0   79.19    9.70
  13   3   0   72.89    8.50
 -13   3   0   66.89    5.90
 -14  -3   0   13.30    2.90
  14  -3   0   12.60    5.00
 -14   3   0   12.00    2.10
  14   3   0   18.90    4.20
   0   4   0   27.50    2.40
   0   4   0   32.50    2.60
  -1  -4   0    6.00    2.10
  -1   4   0    7.20    1.20
  -1   4   0   13.20    1.60
   1   4   0    5.50    1.20
  -2  -4   0  398.16   23.70
  -2  -4   0  365.56   23.80
  -2   4   0  399.26   23.00
  -2   4   0  398.76   23.10
  -3  -4   0   79.99    7.20
  -3  -4   0   79.29    6.70
  -3   4   0   87.89    5.40
  -3   4   0   74.59    5.50
  -4  -4   0    2.30    2.80
  -4  -4   0    2.90    3.10
  -4   4   0    3.50    1.50
   4   4   0    1.40    2.10
   4   4   0    5.20    1.90
  -4   4   0    2.10    1.30
   4   4   0    4.90    1.60
   4   4   0    7.50    2.90
  -4   4   0    5.80    1.10
  -5  -4   0  272.07   14.60
  -5  -4   0  253.17   17.20
  -5  -4   0  251.77   16.70
   5   4   0  239.98   15.50
   5   4   0  279.07   15.50
   5   4   0  228.58   15.10
  -5   4   0  234.28   15.30
   5   4   0  223.18   15.40
  -5   4   0  260.87   14.70
  -5   4   0  264.87   15.60
   5   4   0  231.58   15.10
  -6  -4   0  345.87   24.00
  -6  -4   0  402.76   21.60
  -6  -4   0  383.26   23.90
  -6  -4   0  332.87   21.50
  -6   4   0  372.86   22.70
  -6   4   0  375.76   22.40
   6   4   0  382.56   22.60
  -6   4   0  349.87   21.60
   6   4   0  359.36   22.10
  -6   4   0  361.96   21.60
   6   4   0  388.76   22.40
   6   4   0  333.17   22.50
  -6   4   0  400.96   21.80
   6   4   0  370.16   22.20
   7  -4   0   86.29    6.90
  -7  -4   0   99.29   10.00
  -7  -4   0   86.59    9.20
  -7  -4   0   94.29    5.90
  -7  -4   0   84.99    6.10
  -7   4   0   95.79    6.10
   7   4   0   90.19    7.00
   7   4   0   91.79    7.40
  -7   4   0   90.99    6.10
   7   4   0   96.89    7.70
  -7   4   0   89.59    7.80
   7   4   0   85.79    7.70
  -7   4   0   73.09    7.00
  -8  -4   0   62.39    5.10
  -8  -4   0   57.39    6.00
  -8  -4   0   57.79    4.50
   8  -4   0   69.99    7.40
  -8  -4   0   62.59   10.10
   8  -4   0   60.99    6.10
  -8  -4   0   54.59    9.10
  -8   4   0   60.89    4.70
  -8   4   0   59.69    4.80
   8   4   0   41.80    5.80
   8   4   0   52.69    6.50
   8   4   0   54.09    7.10
  -8   4   0   55.49    6.00
   8   4   0   68.19    7.10
  -8   4   0   66.69    7.30
   9  -4   0    5.00    2.90
  -9  -4   0    6.30    3.10
  -9  -4   0    2.70    5.20
  -9  -4   0    8.00    6.00
  -9  -4   0    5.30    2.30
   9  -4   0    9.90    5.00
  -9  -4   0    3.60    1.80
  -9   4   0   -0.30    3.50
  -9   4   0    3.80    2.10
  -9   4   0    5.10    1.80
   9   4   0    5.90    4.10
   9   4   0    4.20    3.70
  -9   4   0   -0.40    4.90
   9   4   0    6.40    3.50
 -10  -4   0   40.10    5.70
 -10  -4   0   58.89    4.90
  10  -4   0   56.39    7.20
  10  -4   0   61.19    8.80
 -10  -4   0   44.60    9.20
 -10  -4   0   32.70    7.90
 -10  -4   0   53.29    7.40
 -10   4   0   56.09    5.10
  10   4   0   55.49    8.30
  10   4   0   71.79    7.30
 -10   4   0   54.19    4.80
 -11  -4   0   -0.10    3.30
 -11  -4   0    1.60    5.90
  11  -4   0    0.70    5.80
  11  -4   0   -0.30    3.10
 -11   4   0    1.60    2.30
  11   4   0    0.80    4.60
 -12  -4   0    0.10    2.90
  12  -4   0    3.80    5.40
  12  -4   0    8.10    3.30
 -12  -4   0   -1.00    6.00
 -12   4   0    4.50    2.40
  12   4   0    6.60    4.90
  13  -4   0    0.60    2.60
  13  -4   0    0.70    5.20
 -13  -4   0    4.30    2.50
  13   4   0    1.40    3.90
 -13   4   0    0.60    2.20
  14  -4   0    9.20    4.10
  14   4   0    6.70    3.40
 -14   4   0    9.80    1.90
   0   5   0    0.90    1.00
  -1  -5   0   47.50    5.30
   1   5   0   52.89    4.00
  -1   5   0   56.59    4.10
  -1   5   0   56.69    3.90
  -2  -5   0  568.54   33.30
  -2  -5   0  593.84   33.20
  -2   5   0  529.85   32.10
  -2   5   0  521.85   32.20
  -3  -5   0  945.41   54.99
  -3  -5   0  916.71   55.29
   3   5   0  900.51   54.19
  -3   5   0  873.51   53.89
  -3   5   0  947.51   54.09
   3   5   0  942.61   53.89
   3   5   0  958.70   53.89
  -3   5   0  939.31   53.69
   3   5   0  952.60   54.09
  -4  -5   0  611.94   38.60
  -4  -5   0  646.74   36.60
   4   5   0  670.73   37.00
   4   5   0  621.84   37.10
   4   5   0  679.43   37.00
  -4   5   0  614.94   37.00
  -4   5   0  608.34   37.20
  -4   5   0  606.14   36.60
   4   5   0  621.64   37.30
  -4   5   0  641.84   36.90
  -4   5   0  630.04   36.80
  -5  -5   0   59.69    3.90
  -5  -5   0   49.40    3.80
  -5  -5   0   57.89    6.90
  -5  -5   0   59.69    7.40
   5   5   0   48.80    5.60
  -5   5   0   57.29    3.90
   5   5   0   53.59    5.90
   5   5   0   49.30    5.20
  -5   5   0   50.89    4.70
   5   5   0   56.19    5.20
   5   5   0   52.69    5.00
  -5   5   0   53.69    4.40
  -5   5   0   51.09    4.00
  -5   5   0   48.20    4.00
  -6  -5   0  143.69   11.80
  -6  -5   0  144.19   12.50
  -6  -5   0  160.28    8.90
  -6  -5   0  144.49    8.80
  -6   5   0  150.88    9.90
   6   5   0  143.09   10.00
   6   5   0  131.99   10.10
  -6   5   0  142.59    9.60
   6   5   0  149.49   10.50
  -6   5   0  139.69    9.00
  -6   5   0  121.89    8.80
   6   5   0  148.09   10.10
  -6   5   0  148.59    9.10
   7  -5   0    1.60    2.00
  -7  -5   0   -7.30    4.30
  -7  -5   0    1.40    1.40
  -7  -5   0   -8.10    4.40
  -7  -5   0   -0.40    1.60
   7   5   0   -0.60    3.10
  -7   5   0    1.60    2.20
   7   5   0    1.70    2.70
  -7   5   0    0.30    1.40
  -7   5   0    3.00    1.60
   7   5   0   -2.20    2.70
  -7   5   0   -0.60    2.80
   7   5   0   -0.40    3.00
   8  -5   0  216.98   16.00
  -8  -5   0  220.28   17.80
   8  -5   0  209.48   14.70
  -8  -5   0  230.28   14.70
  -8  -5   0  219.88   18.70
  -8  -5   0  221.68   13.80
  -8  -5   0  241.58   14.10
  -8   5   0  224.58   14.00
  -8   5   0  231.38   15.10
  -8   5   0  239.58   14.10
   8   5   0  227.78   15.00
   8   5   0  222.98   15.30
  -8   5   0  217.38   15.90
   8   5   0  260.67   15.90
   8   5   0  237.38   15.80
  -9  -5   0   43.30    8.70
  -9  -5   0   31.00    7.70
   9  -5   0   37.20    7.70
  -9  -5   0   24.10    4.70
  -9  -5   0   43.70    6.10
   9  -5   0   32.10    6.00
  -9  -5   0   40.50    3.90
   9   5   0   25.20    4.90
  -9   5   0   34.90    4.20
  -9   5   0   30.10    4.00
   9   5   0   36.90    6.00
 -10  -5   0  102.99    9.80
 -10  -5   0  106.39   13.20
 -10  -5   0   91.09   14.80
 -10  -5   0   95.59    8.40
  10  -5   0  129.69   11.50
  10  -5   0  121.39    9.80
  10   5   0  131.99   10.40
  10   5   0  116.79   10.60
 -10   5   0  110.69    8.00
 -11  -5   0    4.60    6.30
  11  -5   0    7.80    3.50
 -11  -5   0   -0.20    3.50
  11  -5   0    8.20    5.70
  11   5   0    1.50    4.50
 -11   5   0    5.80    2.50
  11   5   0    8.10    3.90
  12  -5   0   30.00    6.40
 -12  -5   0   11.90    3.40
  12  -5   0   27.70    5.60
  12   5   0   25.10    5.30
 -12   5   0   19.60    3.10
  13  -5   0    6.20    2.80
 -13  -5   0    5.10    2.70
  13  -5   0    9.80    5.00
  13   5   0    7.50    3.70
 -13   5   0    6.70    2.20
  14  -5   0    3.60    3.40
 -14   5   0   -2.00    1.50
   0  -6   0 1329.47   73.99
   0   6   0 1288.97   73.09
   0   6   0 1275.97   72.79
   0   6   0 1264.77   72.69
   0   6   0 1165.28   72.89
  -1  -6   0   25.20    4.10
  -1   6   0   22.70    3.00
   1   6   0   23.70    3.30
  -1   6   0   23.60    2.40
   1   6   0   20.60    3.40
   1   6   0   25.00    3.50
  -1   6   0   20.00    2.50
  -1   6   0   22.50    2.90
  -2  -6   0  324.17   20.50
  -2  -6   0  329.47   20.20
   2   6   0  322.27   19.30
   2   6   0  330.87   19.00
  -2   6   0  308.47   18.70
  -2   6   0  277.67   18.50
   2   6   0  316.07   19.10
   2   6   0  346.87   18.90
  -2   6   0  317.97   18.90
  -2   6   0  307.77   19.10
  -3  -6   0  156.58   12.30
  -3  -6   0  158.58   11.60
   3   6   0  148.59   10.30
  -3   6   0  145.49    9.70
   3   6   0  164.78   10.50
  -3   6   0  152.28   10.00
  -3   6   0  151.08    9.50
   3   6   0  163.18    9.80
   3   6   0  165.78   10.20
  -3   6   0  158.88    9.60
  -3   6   0  150.68    9.40
   3   6   0  154.08   10.20
  -4   6   0    1.40    1.60
  -4   6   0    3.80    1.40
  -4   6   0    3.70    1.50
  -4   6   0    4.20    1.50
  -4   6   0    3.60    1.10
  -5  -6   0  420.86   27.10
  -5  -6   0  463.65   24.60
  -5  -6   0  410.56   24.60
  -5  -6   0  420.36   27.50
   5   6   0  444.46   25.50
  -5   6   0  412.36   25.10
  -5   6   0  422.46   24.80
   5   6   0  414.16   25.70
  -5   6   0  390.96   24.70
   5   6   0  415.66   25.40
  -5   6   0  406.66   25.30
   5   6   0  432.86   25.40
   5   6   0  421.76   25.40
  -5   6   0  421.96   24.80
  -6  -6   0    1.50    4.80
   6  -6   0    3.70    1.80
  -6  -6   0    2.50    1.50
  -6  -6   0    0.60    1.50
  -6  -6   0    2.80    4.70
  -6   6   0    2.00    1.40
   6   6   0   -0.50    3.20
   6   6   0    2.50    3.00
   6   6   0    1.80    3.60
  -6   6   0    0.10    2.30
  -6   6   0    3.90    1.70
   6   6   0    5.10    2.80
  -6   6   0    1.80    1.60
   6   6   0    1.00    2.90
  -6   6   0    2.30    1.90
  -7  -6   0  141.19   15.00
  -7  -6   0  176.88   10.10
  -7  -6   0  161.08   14.30
   7  -6   0  138.29   10.60
   7   6   0  156.78   12.30
   7   6   0  160.18   11.50
  -7   6   0  161.28   10.10
   7   6   0  149.09   11.70
   7   6   0  170.08   12.30
  -7   6   0  160.78   10.10
   7   6   0  149.99   11.80
  -8  -6   0    3.20    5.80
   8  -6   0    3.00    2.60
  -8  -6   0    6.10    2.10
   8  -6   0    1.90    4.50
  -8  -6   0    3.20    6.50
   8   6   0    1.30    3.50
   8   6   0    5.70    4.10
  -8   6   0   -1.90    2.00
   8   6   0    3.50    3.70
  -8   6   0    0.90    1.80
   8   6   0    7.00    4.00
  -9  -6   0    5.50    7.20
  -9  -6   0   12.40    7.00
  -9  -6   0    9.10    2.60
   9  -6   0    8.10    5.10
   9  -6   0    2.60    3.00
  -9  -6   0   14.80    3.80
   9   6   0    4.80    4.10
  -9   6   0    9.70    2.50
   9   6   0    9.90    4.00
   9   6   0    3.70    3.60
   9   6   0   11.20    4.50
 -10  -6   0    1.40    6.60
  10  -6   0    1.00    4.80
 -10  -6   0    2.70    2.90
  10  -6   0   -1.00    3.10
 -10  -6   0    1.90    3.70
  10   6   0   -2.90    4.20
  10   6   0    3.00    4.10
 -10   6   0   -0.40    2.60
  10   6   0    3.00    4.10
  11  -6   0    1.80    3.20
  11  -6   0    2.80    5.00
 -11  -6   0    0.00    3.70
 -11  -6   0    1.50    2.70
 -11  -6   0   -2.20    6.10
  11   6   0    2.60    3.90
  11   6   0    4.00    4.30
 -11   6   0    4.10    2.70
 -12  -6   0   17.40    3.70
  12  -6   0   23.60    5.70
  12  -6   0   25.30    5.40
  12   6   0   20.80    4.20
 -12   6   0   24.90    4.10
  13  -6   0    0.20    2.30
  13  -6   0    2.80    4.00
 -13  -6   0   -0.80    2.30
  13   6   0   -2.30    2.90
 -13   6   0    2.10    1.80
   0  -7   0    2.40    3.30
   0   7   0   -0.50    1.80
   0   7   0    0.70    1.90
   0   7   0   -0.70    1.50
   0   7   0   -0.30    1.20
   0   7   0   -0.10    1.40
   0   7   0   -1.30    1.80
  -1  -7   0   23.60    4.90
   1  -7   0   15.60    4.10
   1   7   0   26.60    4.00
   1   7   0   20.80    2.60
  -1   7   0   21.00    3.30
  -1   7   0   23.60    2.70
  -1   7   0   24.40    3.60
  -1   7   0   25.20    3.80
  -1   7   0   19.50    2.80
  -1   7   0   26.10    3.20
   1   7   0   19.90    3.80
   1   7   0   23.60    3.90
   1   7   0   22.30    4.20
  -2  -7   0  686.53   41.80
  -2  -7   0  713.13   42.40
  -2   7   0  696.73   40.20
  -2   7   0  666.33   40.40
  -2   7   0  662.03   40.30
  -2   7   0  683.63   40.10
   2   7   0  682.33   40.70
  -2   7   0  650.33   40.30
   2   7   0  716.83   40.70
  -2   7   0  704.53   40.00
  -2   7   0  636.24   40.00
   2   7   0  719.03   40.50
   2   7   0  737.03   40.30
   2   7   0  725.13   40.00
  -3  -7   0  132.99   12.40
  -3  -7   0  136.79   11.40
  -3   7   0  130.49    9.00
  -3   7   0  131.29    8.30
   3   7   0  141.59    9.80
  -3   7   0  130.19    8.70
  -3   7   0  139.69    8.70
  -3   7   0  125.09    8.70
   3   7   0  138.59    8.80
  -3   7   0  141.39    8.50
  -4  -7   0    4.60    4.50
  -4  -7   0   11.00    2.10
  -4  -7   0   11.90    5.40
  -4  -7   0    4.80    1.70
  -4   7   0    7.50    1.50
   4   7   0    8.70    2.20
  -4   7   0    7.70    1.90
  -4   7   0    7.20    1.90
   4   7   0    5.80    2.90
   4   7   0    9.30    3.40
  -4   7   0    4.00    2.10
  -4   7   0    5.20    1.70
   4   7   0    7.40    2.70
   4   7   0    5.60    3.20
  -5  -7   0  159.58   10.60
  -5  -7   0  160.08   14.70
  -5  -7   0  180.18   14.20
  -5  -7   0  185.28   10.60
   5   7   0  199.88   12.70
   5   7   0  192.08   12.40
   5   7   0  178.38   12.10
  -5   7   0  183.08   10.90
   5   7   0  166.58   11.40
  -5   7   0  148.89   10.60
  -5   7   0  155.98   11.00
  -5   7   0  164.28   11.50
  -5   7   0  176.68   10.80
   5   7   0  179.08   12.40
  -6  -7   0   14.30    6.30
  -6  -7   0   17.30    2.30
  -6  -7   0    9.20    6.20
   6   7   0   17.60    4.10
   6   7   0   20.60    4.50
  -6   7   0   19.60    2.80
  -6   7   0   19.30    2.50
  -6   7   0   22.50    2.80
   6   7   0   12.60    4.80
   6   7   0   18.90    4.60
   6   7   0   20.20    3.60
   7  -7   0   52.49    5.70
  -7  -7   0   48.20    9.40
  -7  -7   0   55.29    9.20
  -7  -7   0   64.09    5.30
   7   7   0   55.59    6.30
  -7   7   0   54.49    5.20
   7   7   0   58.59    8.50
   7   7   0   59.19    8.10
   7   7   0   46.40    6.90
   7   7   0   66.09    8.20
  -7   7   0   61.89    5.20
  -8  -7   0  129.89   15.80
  -8  -7   0  160.68    9.90
   8  -7   0  138.39   12.00
   8  -7   0  127.39   10.40
  -8  -7   0  142.09   15.10
   8   7   0  150.68   11.10
  -8   7   0  146.49    9.70
   8   7   0  140.29   12.20
   8   7   0  146.89   12.10
   8   7   0  149.88   12.20
  -9  -7   0   -7.80    6.60
   9  -7   0    1.60    4.60
   9  -7   0    0.80    3.00
  -9   7   0    2.60    2.60
   9   7   0    6.50    5.00
   9   7   0   -0.30    3.60
  10  -7   0   12.70    5.30
 -10  -7   0   12.10    3.20
 -10  -7   0   20.60    7.80
 -10  -7   0   10.60    3.90
  10  -7   0   11.40    3.60
  10   7   0   18.20    4.80
  10   7   0   15.30    4.20
  10   7   0   17.50    5.00
  10   7   0   14.80    4.80
 -10   7   0   21.70    3.20
  11  -7   0   43.70    6.30
 -11  -7   0   38.00    5.80
 -11  -7   0   39.50    5.70
 -11  -7   0   34.10    7.00
  11  -7   0   45.80    7.90
  11   7   0   45.20    6.30
 -11   7   0   45.30    4.90
  11   7   0   41.30    7.20
  12  -7   0    3.00    4.10
  12  -7   0   10.50    3.10
 -12  -7   0    3.10    3.20
  12   7   0    7.80    3.30
 -12   7   0    7.20    2.20
  12   7   0    4.80    3.50
 -13  -7   0   34.10    5.00
  13  -7   0   50.29    4.70
 -13   7   0   36.10    3.80
   0  -8   0  180.88   13.80
   0   8   0  174.88   11.20
   0   8   0  168.48   11.00
   0   8   0  170.18   10.40
   0   8   0  157.78   11.20
   0   8   0  174.28   11.50
   1  -8   0  138.49   11.80
  -1  -8   0  149.49   11.60
  -1  -8   0  146.69   12.40
   1   8   0  140.39    8.70
  -1   8   0  140.19    9.50
   1   8   0  138.69    9.80
  -1   8   0  137.09    9.20
   1   8   0  147.59   10.20
  -1   8   0  141.69    9.20
  -1   8   0  130.59    9.50
  -1   8   0  138.49    9.40
   1   8   0  139.89    9.80
   1   8   0  142.89    9.60
  -1   8   0  134.09    8.70
  -1   8   0  132.79    9.20
  -2  -8   0   15.60    5.50
  -2  -8   0   18.20    4.80
   2  -8   0   12.50    4.80
  -2   8   0   14.50    2.50
   2   8   0   20.80    3.80
   2   8   0   30.90    5.10
  -2   8   0   19.70    3.50
  -2   8   0   22.20    3.80
  -2   8   0   16.20    2.90
   2   8   0   31.30    6.10
  -2   8   0   18.20    2.20
  -2   8   0   19.80    2.40
   2   8   0   23.10    3.40
  -2   8   0   20.10    2.80
   2   8   0   18.90    3.10
  -3  -8   0  188.18   16.30
  -3  -8   0  217.28   15.70
   3   8   0  199.38   13.60
   3   8   0  197.28   13.90
   3   8   0  214.68   13.40
  -3   8   0  191.78   12.50
  -3   8   0  203.58   12.30
  -3   8   0  189.78   12.50
  -3   8   0  200.38   12.50
  -3   8   0  195.78   12.10
   3   8   0  206.88   13.40
  -4  -8   0   76.89   10.80
  -4  -8   0   79.19   11.50
  -4  -8   0   66.39    7.60
  -4  -8   0   97.09    6.00
  -4   8   0   83.79    6.00
   4   8   0   89.29    8.20
   4   8   0   89.29    6.60
  -4   8   0   88.29    6.70
   4   8   0   96.79    8.90
   4   8   0   96.79    8.40
   4   8   0   94.69    8.50
  -4   8   0   97.59    6.50
  -5  -8   0   89.09   13.00
  -5  -8   0  103.79    6.50
  -5  -8   0  101.79   12.10
  -5   8   0   96.09    6.80
   5   8   0   89.19    9.80
   5   8   0   96.29    8.70
   5   8   0   92.89    9.10
   5   8   0   88.99    9.20
  -5   8   0   83.49    6.90
  -5   8   0   93.79    6.40
   5   8   0   94.49    7.30
  -6  -8   0   96.59   12.80
  -6  -8   0  121.09    7.30
  -6  -8   0   90.29   14.00
   6   8   0  105.09   10.10
   6   8   0   82.19    9.40
   6   8   0   77.49   10.00
   6   8   0   85.39   10.00
  -6   8   0  109.49    7.10
   6   8   0  107.09    8.30
  -6   8   0   93.29    7.40
  -6   8   0  112.99    7.60
  -7  -8   0  219.38   12.30
  -7  -8   0  177.18   18.60
   7  -8   0  161.68   12.40
  -7  -8   0  202.08   17.70
   7   8   0  194.48   14.50
  -7   8   0  200.68   12.30
   7   8   0  176.58   15.10
   7   8   0  197.28   14.90
  -7   8   0  163.28   14.20
   7   8   0  205.28   14.70
   7   8   0  197.58   13.20
  -8  -8   0   10.00    7.80
   8  -8   0   19.30    3.50
  -8  -8   0   26.40    4.80
   8  -8   0   29.10    5.50
   8   8   0   29.20    5.40
   8   8   0   27.80    5.60
   8   8   0   25.30    5.50
  -8   8   0   16.00    3.00
   8   8   0   33.60    6.20
   9  -8   0   38.30    6.30
  -9  -8   0   33.00    6.90
   9  -8   0   46.60    6.40
  -9  -8   0   48.00    5.60
  -9  -8   0   62.99   10.60
   9   8   0   43.50    6.20
   9   8   0   45.30    6.50
  -9   8   0   35.80    5.00
   9   8   0   27.30    5.80
   9   8   0   47.40    8.20
  10  -8   0   10.40    3.40
 -10  -8   0    9.10    3.00
 -10  -8   0    7.30    3.90
  10  -8   0   14.30    5.00
  10   8   0   19.40    4.80
  10   8   0    7.20    4.80
  10   8   0    7.10    4.50
 -10   8   0   16.50    3.00
 -11  -8   0   27.80    4.60
  11  -8   0   22.20    4.90
 -11  -8   0   33.70    5.30
 -11  -8   0   27.20    5.10
  11  -8   0   44.80    5.80
 -11   8   0   39.20    4.50
  11   8   0   39.10    6.10
  12  -8   0    4.70    2.60
 -12  -8   0    2.00    2.80
 -12   8   0    2.50    1.90
   0  -9   0   -3.50    4.30
   0  -9   0   -2.20    5.60
   0   9   0    1.10    3.10
   0   9   0   -0.70    2.60
   0   9   0    0.60    2.70
   0   9   0    2.90    2.50
   0   9   0    1.30    1.70
   1  -9   0  132.89   12.10
  -1  -9   0  109.09   10.90
  -1   9   0  117.09    8.40
   1   9   0  118.69    8.80
   1   9   0  104.19    8.70
  -1   9   0  108.99    8.60
   1   9   0  112.09    7.40
  -1   9   0  108.69    7.50
  -1   9   0   99.99    8.20
   1   9   0  107.59    9.20
  -1   9   0  115.09    8.90
   1   9   0  119.69    9.20
  -2  -9   0    7.60    5.10
  -2  -9   0    2.90    6.10
  -2   9   0   15.70    2.40
  -2   9   0   15.80    2.90
  -2   9   0   13.00    3.00
   2   9   0   15.30    4.00
   2   9   0    8.60    3.40
  -2   9   0   15.60    3.00
  -2   9   0   13.40    2.80
   2   9   0   11.40    3.50
   2   9   0   13.40    3.90
   2   9   0   10.40    2.20
  -3  -9   0  126.69   14.60
  -3  -9   0  140.39   13.40
  -3   9   0  126.89    9.40
   3   9   0  140.69   10.90
   3   9   0  143.09   10.70
   3   9   0  147.09   11.60
  -3   9   0  134.99    9.50
  -3   9   0  140.49    9.10
   3   9   0  144.59   10.80
  -4  -9   0    2.20    1.50
  -4  -9   0    7.20    6.30
  -4  -9   0    7.00    6.80
  -4   9   0    1.80    2.40
   4   9   0   10.00    3.60
   4   9   0    2.20    3.70
  -4   9   0    2.40    2.30
   4   9   0   -2.10    4.10
   4   9   0   12.80    4.50
  -4   9   0    3.60    1.50
  -5  -9   0   -2.50    6.80
  -5  -9   0    4.50    6.30
  -5   9   0    1.50    2.40
   5   9   0    7.30    4.90
   5   9   0    2.10    3.90
  -5   9   0    3.60    1.70
   5   9   0    6.10    4.80
  -5   9   0    2.30    2.40
   5   9   0    6.60    4.70
  -6  -9   0   -3.10    6.60
  -6  -9   0    0.00    7.20
  -6  -9   0    2.30    2.00
   6   9   0    4.00    4.10
   6   9   0    0.40    4.90
  -6   9   0    2.00    2.50
   6   9   0    2.60    4.80
   6   9   0    2.20    5.10
  -6   9   0    2.20    2.40
   7  -9   0   13.90    4.70
  -7  -9   0   11.50    7.50
  -7  -9   0   10.40    2.50
   7  -9   0   12.20    2.90
   7   9   0    9.10    4.60
   7   9   0   11.90    6.00
  -7   9   0   15.70    3.10
   7   9   0   17.00    5.10
   7   9   0   17.50    4.90
   8  -9   0   25.80    3.80
  -8  -9   0   28.90    4.80
  -8  -9   0   21.30    8.30
   8  -9   0   25.80    5.40
   8   9   0   15.10    5.60
   8   9   0   13.00    4.90
  -8   9   0   25.20    3.70
  -9  -9   0   11.30    3.00
   9  -9   0   15.10    3.40
   9  -9   0   10.90    4.70
  -9  -9   0    3.90    3.70
   9   9   0   12.70    5.00
   9   9   0    8.40    5.00
   9   9   0    4.90    4.40
  -9   9   0    8.00    2.80
 -10  -9   0    1.70    2.60
 -10  -9   0    1.80    3.70
  10  -9   0    3.30    2.90
 -10   9   0   -0.60    2.50
  10   9   0   -6.90    4.20
  10   9   0   -1.10    3.90
  10   9   0    4.00    3.90
 -11  -9   0   23.00    3.40
  11  -9   0   36.90    4.90
 -11  -9   0   30.40    5.60
 -11  -9   0   26.40    4.80
 -11   9   0   27.20    3.80
  11   9   0   35.80    5.80
  12  -9   0   -0.60    2.10
 -12   9   0    0.70    1.80
   0  10   0   24.30    3.80
   0  10   0   19.80    4.50
   0  10   0   23.80    4.10
   0  10   0   17.90    2.80
   0  10   0   29.20    4.20
  -1 -10   0    4.90    5.80
   1  10   0   -4.90    4.00
  -1  10   0    7.40    3.30
  -1  10   0    6.40    2.60
   1  10   0    3.30    2.20
  -1  10   0    7.40    3.80
   1  10   0    4.50    3.70
  -1  10   0    8.60    3.20
  -1  10   0    4.00    2.30
   1  10   0   -5.10    3.40
   1  10   0    3.20    3.00
  -2 -10   0   61.49   10.70
  -2 -10   0   74.09   11.50
   2  10   0  106.69    8.70
  -2  10   0   70.49    6.50
  -2  10   0   94.19    8.00
   2  10   0   97.79    9.10
  -2  10   0   82.09    7.90
  -2  10   0   83.99    7.60
   2  10   0   85.49    6.60
   2  10   0   99.69   10.00
   2  10   0  105.59    8.90
  -3 -10   0   -2.90    7.40
  -3 -10   0    8.40    6.50
  -3  10   0    7.30    2.90
   3  10   0    6.70    3.80
  -3  10   0    6.50    2.90
   3  10   0    8.50    4.90
  -3  10   0    6.00    2.70
   3  10   0    5.00    4.40
   3  10   0    1.60    3.60
  -4 -10   0   18.10    3.30
  -4 -10   0   15.30    8.90
  -4 -10   0   15.30    7.60
  -4  10   0   21.00    3.40
   4  10   0   20.60    4.90
   4  10   0   24.80    5.70
   4  10   0   22.20    5.10
   4  10   0   15.30    5.00
  -4  10   0   24.30    3.50
  -5 -10   0  174.28   21.50
  -5 -10   0  169.08   18.30
  -5 -10   0  209.38   12.00
   5  10   0  183.98   15.10
  -5  10   0  196.18   12.50
   5  10   0  154.48   14.60
   5  10   0  176.18   14.20
   5  10   0  194.88   14.60
  -5  10   0  201.98   12.40
  -6 -10   0   -2.50    7.20
  -6 -10   0    3.80    2.10
  -6  10   0    2.50    2.80
   6  10   0    2.70    4.60
   6  10   0    1.20    4.90
   6  10   0    1.00    4.20
   6  10   0    1.70    5.40
  -7 -10   0  163.28   11.50
  -7 -10   0  171.18   18.50
   7 -10   0  160.48   11.90
  -7  10   0  198.48   11.90
   7  10   0  204.48   14.50
   7  10   0  206.38   14.60
   7  10   0  189.08   14.40
  -8 -10   0    9.30    3.80
   8 -10   0    6.20    2.90
  -8 -10   0    5.80    2.60
   8  10   0    6.80    5.10
   8  10   0    6.00    4.20
   8  10   0   11.20    5.10
  -8  10   0   11.00    2.90
   9 -10   0   68.09    6.40
  -9 -10   0   59.99    6.00
  -9 -10   0   57.79    7.20
   9  10   0   64.19    8.60
   9  10   0   60.39    8.00
   9  10   0   77.29    8.50
  -9  10   0   61.69    5.70
 -10 -10   0   -2.90    3.10
 -10 -10   0    1.40    2.40
  10 -10   0    1.60    2.50
  10  10   0   10.80    3.50
  10  10   0    2.80    3.40
 -10  10   0    2.80    2.30
  11 -10   0   30.20    4.20
 -11 -10   0   22.50    3.50
 -11  10   0   22.70    3.10
   0  11   0    1.80    4.20
   0  11   0    3.80    3.80
   0  11   0    4.10    3.60
   0  11   0    2.10    2.30
   0  11   0    0.60    3.00
  -1  11   0  103.79    7.50
   1  11   0  112.09   10.60
  -1  11   0  101.09    8.80
  -1  11   0   97.19    9.40
   1  11   0   87.49    7.40
  -1  11   0  109.19    9.30
   1  11   0  110.39    9.90
  -1  11   0   98.59    8.50
   1  11   0  110.69    9.60
   1  11   0   96.49    9.10
   2  11   0    2.00    4.60
  -3 -11   0   51.29    9.90
  -3 -11   0   86.79    5.90
   3  11   0   82.89    9.00
  -3  11   0   79.09    6.50
   3  11   0   71.69    9.30
   3  11   0   70.19    9.40
  -3  11   0   78.49    7.40
   3  11   0   99.09   10.80
  -4 -11   0  134.09    8.30
  -4 -11   0   95.29   15.10
  -4  11   0  120.59    8.90
   4  11   0  117.99   11.70
   4  11   0  122.69   12.60
  -4  11   0  123.19    9.30
   4  11   0  120.59   11.40
   4  11   0  135.89   11.20
  -5 -11   0   -0.30    1.90
  -5 -11   0    4.60    8.40
   5  11   0   -1.40    3.80
   5  11   0   -1.60    4.40
   5  11   0    3.90    5.10
  -5  11   0    2.40    2.80
   5  11   0   -1.90    5.10
  -6 -11   0   23.70    4.10
   6  11   0   16.00    5.30
   6  11   0   26.90    5.60
  -6  11   0   23.70    4.50
   6  11   0   22.30    5.40
   6  11   0   25.20    6.00
   7 -11   0   45.40    5.70
  -7 -11   0   55.79    5.30
   7  11   0   63.49    8.10
   7  11   0   52.49    9.00
   7  11   0   44.40    8.90
  -7  11   0   63.49    5.50
  -8 -11   0    6.80    3.50
   8 -11   0    1.50    2.30
  -8 -11   0    2.70    2.30
   8  11   0   -0.30    4.20
   8  11   0   -1.40    4.20
  -8  11   0    0.90    2.50
   8  11   0    0.80    3.90
  -9 -11   0    3.20    2.30
  -9 -11   0    1.30    2.90
   9  11   0    1.40    3.60
   9  11   0    5.50    3.50
   9  11   0    0.30    3.20
  10 -11   0   28.70    3.90
 -10 -11   0   16.10    3.20
 -10  11   0   24.60    3.20
  10  11   0   33.40    4.70
   0  12   0  107.89   10.30
   0  12   0  110.69    9.90
   0  12   0  131.59    9.50
   0  12   0  115.99   10.70
  -1  12   0    9.30    2.70
   1  12   0   14.80    4.60
   1  12   0   11.20    3.80
   1  12   0   10.00    4.50
  -1  12   0   13.30    4.30
   1  12   0   12.70    4.80
  -1  12   0   12.40    3.90
  -1  12   0   15.60    4.10
   2  12   0   79.19    9.60
   2  12   0   53.69    8.10
  -2  12   0   55.89    5.50
   2  12   0   59.69    7.60
  -2  12   0   63.29    7.40
   2  12   0   64.59    8.50
  -2  12   0   42.40    6.60
  -3 -12   0   20.60    3.40
  -3  12   0   17.70    3.70
   3  12   0   29.50    5.60
  -3  12   0   13.90    2.80
   3  12   0   15.50    4.50
   3  12   0   15.20    4.90
   3  12   0   10.50    5.00
  -4 -12   0    1.00    1.70
   4  12   0    2.30    4.70
   4  12   0    2.70    4.80
   4  12   0    4.40    4.60
  -4  12   0    0.60    2.70
   4  12   0   -3.30    3.70
  -5 -12   0   26.60    3.60
   5  12   0   19.20    5.20
   5  12   0   17.80    5.50
   5  12   0   20.00    5.00
   5  12   0   24.10    4.70
  -5  12   0   20.40    3.30
  -6 -12   0    5.00    2.00
   6  12   0    6.60    4.30
   6  12   0    7.80    4.70
  -6  12   0    3.80    2.70
   6  12   0    0.50    4.00
   7 -12   0   14.20    2.70
  -7 -12   0   14.40    2.30
  -7 -12   0   12.20    3.20
   7  12   0   10.30    4.10
   7  12   0    6.70    4.10
  -7  12   0   10.10    2.60
   7  12   0    7.70    4.10
  -8 -12   0    4.80    2.10
  -8 -12   0    5.10    2.90
   8 -12   0    0.60    2.00
   8  12   0    6.10    3.40
   8  12   0   -0.60    3.50
   8  12   0   10.30    3.60
  -8  12   0    2.40    2.10
   0  13   0    0.80    3.70
   0  13   0   -2.10    3.50
   0  13   0    5.40    3.80
  -1  13   0   11.70    4.00
   1  13   0    5.70    4.10
   1  13   0    9.30    4.30
  -1  13   0    5.40    3.70
   1  13   0    7.10    3.30
   1  13   0   13.50    4.40
  -2  13   0    9.70    3.70
   2  13   0   10.90    4.40
   2  13   0    8.60    4.60
   2  13   0    2.90    4.40
   2  13   0    8.20    3.30
  -3 -13   0   68.69    4.90
   3  13   0   68.19    8.40
  -3  13   0   72.89    7.10
   3  13   0   80.59    9.00
   3  13   0   69.29    8.20
   3  13   0   56.19    7.20
  -4 -13   0   11.80    1.90
   4  13   0    9.20    4.50
   4  13   0    5.00    4.40
   4  13   0    4.30    4.40
  -4  13   0   13.80    2.60
   4  13   0    7.50    3.80
  -5 -13   0    1.60    1.60
   5  13   0    1.80    3.80
   5  13   0   -1.40    3.60
   5  13   0    0.70    3.40
  -5  13   0    2.10    2.30
  -6 -13   0   36.00    3.60
   6  13   0   40.30    5.90
   6  13   0   24.20    4.40
   6  13   0   38.00    6.20
  -6  13   0   30.90    3.90
  -7 -13   0    7.50    1.80
  -7 -13   0    5.30    2.40
   7  13   0   10.50    3.20
   7  13   0    3.30    3.00
   7  13   0    7.40    3.10
   0  14   0    2.90    3.50
   0  14   0    4.40    3.30
   1  14   0    1.40    3.40
   1  14   0   -0.70    3.30
   1  14   0    3.10    3.60
   2  14   0    2.80    3.70
   2  14   0   -0.40    3.20
   2  14   0    3.80    3.20
  -3 -14   0    1.80    1.30
   3  14   0    2.90    3.10
   3  14   0   -1.90    4.10
   3  14   0   -0.70    3.40
   3  14   0    3.70    3.40
  -4 -14   0   48.90    3.70
   4  14   0   48.60    6.50
   4  14   0   44.50    6.30
   5  14   0    7.80    4.30
   5  14   0    3.00    3.30
  15   0  -1   59.49    6.90
 -14   0   1    0.40    2.00
  14   0  -1   -2.30    4.30
  13   0  -1  125.09   11.60
 -13   0   1  116.39    8.30
 -12   0   1   -1.10    1.80
 -12   0   1    1.90    2.50
 -12   0   1   -1.70    4.90
  12   0  -1    1.60    5.70
 -11   0   1   18.00    3.70
 -11   0   1   19.30    7.50
 -11   0   1   23.70    4.20
 -11   0   1   27.20    6.10
  11   0  -1   26.40    6.30
  10   0  -1    3.80    4.40
 -10   0   1   -8.00    4.30
 -10   0   1    1.00    1.90
 -10   0   1   -3.50    4.00
  10   0  -1    2.60    2.50
 -10   0   1    0.30    2.10
   9   0  -1  718.53   45.60
  -9   0   1  812.62   47.50
   9   0  -1  783.72   46.90
  -9   0   1  808.92   45.30
  -9   0   1  776.22   45.40
  -9   0   1  790.22   48.10
  -8   0   1    0.40    3.20
   8   0  -1    0.90    3.10
  -8   0   1   -0.80    3.50
   8   0  -1    0.00    2.10
  -8   0   1    2.50    1.40
  -8   0   1   -0.20    1.50
  -7   0   1  200.68   11.80
  -7   0   1  221.28   12.00
  -7   0   1  196.18   13.90
   7   0  -1  169.58   12.20
  -7   0   1  202.58   13.50
   7   0  -1  184.28   13.10
  -6   0   1   -1.40    2.40
  -6   0   1    3.10    1.00
   6   0  -1   -0.10    2.00
  -6   0   1   -0.20    2.20
   6   0  -1    0.70    1.40
  -5   0   1    5.00    2.10
  -5   0   1    6.50    2.40
  -4   0   1   -0.30    1.60
  -4   0   1    1.80    1.50
  -3   0   1 2516.95  144.19
  -3   0   1 2492.25  144.29
  -2   0   1    0.30    0.90
  -2   0   1    0.00    1.00
   0   0   1    0.20    0.20
   0   0  -1    0.20    0.20
  -2   0  -1    0.60    1.00
  -2   0  -1    2.00    1.10
  -3   0  -1 1972.50  115.99
  -3   0  -1 2048.20  115.89
  -4   0  -1    1.10    1.60
  -4   0  -1    4.30    1.90
  -5   0  -1  159.68   10.70
  -5   0  -1  161.48   10.90
  -6   0  -1   -1.20    2.20
   6   0   1    1.30    2.20
  -6   0  -1    0.40    1.20
  -6   0  -1    0.70    0.90
   6   0   1   -0.30    1.40
  -6   0  -1   -0.10    2.50
  -7   0  -1   16.80    3.20
  -7   0  -1   18.00    3.80
   7   0   1   16.80    3.70
   7   0   1   17.50    3.40
  -7   0  -1   20.80    4.50
  -7   0  -1   19.50    2.20
   8   0   1    0.20    2.00
   8   0   1   -0.10    3.20
  -8   0  -1   -2.10    3.80
  -8   0  -1    1.20    1.30
  -8   0  -1   -3.10    1.60
  -8   0  -1    1.20    3.50
  -9   0  -1    2.20    4.70
  -9   0  -1    5.10    4.40
   9   0   1    2.00    3.90
  -9   0  -1    4.00    1.70
  -9   0  -1    3.60    2.20
   9   0   1    7.80    2.40
 -10   0  -1    4.50    5.70
  10   0   1   -4.70    4.50
 -10   0  -1    0.40    1.80
 -10   0  -1   -0.10    2.10
  10   0   1   -0.80    3.60
 -10   0  -1    7.80    4.60
 -11   0  -1    4.10    7.60
  11   0   1    5.30    5.40
 -11   0  -1   11.40    2.30
 -11   0  -1    6.40    5.30
 -11   0  -1    9.60    2.50
 -12   0  -1    3.10    6.00
 -12   0  -1    1.00    2.20
  12   0   1   -1.20    5.60
 -12   0  -1    2.70    2.10
  13   0   1   17.00    6.20
 -13   0  -1    9.30    2.30
 -13   0  -1    5.80    2.30
  14   0   1    2.60    4.40
  15  -1  -1   13.10    4.20
  15   1  -1   22.50    4.20
  14  -1  -1   22.80    5.70
 -14   1   1   20.80    3.70
  14   1  -1    2.80    4.80
 -13  -1   1   14.30    2.60
  13  -1  -1   13.60    6.40
 -13   1   1   16.00    2.80
  13   1  -1   11.10    5.40
 -12  -1   1    4.20    2.50
 -12  -1   1    1.60    2.20
 -12  -1   1   -1.10    5.30
  12  -1  -1    4.40    6.00
  12   1  -1    1.50    5.30
 -12   1   1    4.00    2.40
 -12   1   1    6.90    5.40
 -11  -1   1   35.50    8.80
 -11  -1   1   57.59    9.20
  11  -1  -1   35.60    5.70
  11  -1  -1   50.79    8.20
 -11  -1   1   37.20    4.70
 -11  -1   1   38.20    5.10
 -11   1   1   42.90    4.70
  11   1  -1   44.70    8.60
 -11   1   1   46.90    8.20
 -11   1   1   41.30    4.20
 -11   1   1   46.30    8.50
 -10  -1   1    4.50    2.50
  10  -1  -1    4.40    3.00
 -10  -1   1    4.50    2.00
 -10  -1   1   12.00    6.00
  10  -1  -1    7.10    4.50
 -10  -1   1    4.80    5.10
 -10   1   1    4.50    2.10
  10   1  -1    6.30    4.50
 -10   1   1    4.20    1.80
 -10   1   1    4.40    4.70
 -10   1   1    2.90    5.60
  -9  -1   1  261.37   17.10
  -9  -1   1  288.37   16.90
  -9  -1   1  271.07   20.00
   9  -1  -1  302.87   18.90
   9  -1  -1  268.17   17.70
  -9  -1   1  301.57   19.50
  -9   1   1  283.37   16.80
   9   1  -1  283.07   18.60
  -9   1   1  285.57   19.20
  -9   1   1  275.77   16.90
  -9   1   1  282.67   19.80
  -8  -1   1    9.20    1.70
   8  -1  -1    6.50    2.30
  -8  -1   1    9.00    4.50
   8  -1  -1    8.00    3.50
  -8  -1   1    5.00    3.90
  -8  -1   1    6.70    1.90
   8   1  -1    8.50    3.40
  -8   1   1    5.00    3.80
  -8   1   1    9.80    1.70
   8   1  -1    7.60    2.60
   8   1  -1    9.70    2.20
  -8   1   1   10.50    3.60
  -8   1   1    4.70    1.50
   7  -1  -1  175.78   12.80
  -7  -1   1  212.68   14.70
  -7  -1   1  205.38   14.20
  -7  -1   1  213.38   12.30
  -7  -1   1  218.98   12.50
   7  -1  -1  196.08   13.50
  -7   1   1  202.48   14.40
  -7   1   1  213.18   14.10
  -7   1   1  216.98   12.40
  -7   1   1  205.28   12.40
   7   1  -1  199.18   13.60
   7   1  -1  213.08   13.10
  -6  -1   1  173.98   10.30
  -6  -1   1  201.78   12.50
   6  -1  -1  147.79   10.70
  -6  -1   1  184.48   11.90
   6   1  -1  155.68   11.20
  -6   1   1  181.08   10.30
  -6   1   1  200.08   12.30
  -6   1   1  166.88   11.70
  -5  -1   1  231.48   14.90
  -5  -1   1  231.68   14.70
  -5   1   1  229.98   14.50
  -5   1   1  222.18   14.70
  -4  -1   1  358.86   21.70
  -4  -1   1  364.96   21.90
  -4   1   1  358.16   21.70
  -4   1   1  352.76   21.60
  -3  -1   1 1639.04   94.19
  -3  -1   1 1691.13   94.39
  -3   1   1 1658.93   94.19
  -3   1   1 1537.25   94.09
  -2  -1   1    9.30    1.60
  -2  -1   1   10.30    1.70
  -2   1   1   10.50    1.50
  -2   1   1   10.80    1.70
  -1  -1   1  647.44   36.70
  -1  -1   1  647.74   36.60
  -1   1   1  610.94   36.60
  -1   1   1  627.84   36.60
   0  -1   1  210.88   12.00
   0   1   1  205.48   12.10
   0   1  -1  213.98   12.00
   0   1   1  197.88   12.10
   1  -1   1   67.79    3.90
  -1   1  -1   61.79    3.90
  -2  -1  -1  490.85   29.50
  -2  -1  -1  504.35   29.60
  -2   1  -1  518.35   29.30
  -2   1  -1  499.15   29.20
  -3  -1  -1  491.25   29.50
  -3  -1  -1  486.05   29.40
  -3   1  -1  534.45   29.30
  -3   1  -1  480.35   29.20
  -4  -1  -1  153.98   10.60
  -4  -1  -1  163.48   10.70
  -4   1  -1  164.38   10.30
  -4   1  -1  160.88   10.40
  -5  -1  -1   15.30    3.30
  -5  -1  -1   12.20    3.00
  -5   1  -1   14.70    2.80
  -5   1  -1   11.70    2.40
  -6  -1  -1  269.17   17.40
  -6  -1  -1  269.77   17.10
   6  -1   1  251.77   16.50
  -6  -1  -1  266.77   15.60
  -6   1  -1  276.57   17.10
   6   1   1  242.58   16.40
  -6   1  -1  260.47   15.60
  -6   1  -1  261.27   16.70
  -6   1  -1  268.07   15.40
  -7  -1  -1  316.97   18.00
  -7  -1  -1  305.97   20.10
   7  -1   1  288.77   19.00
   7  -1   1  278.57   18.20
  -7  -1  -1  289.07   17.60
  -7  -1  -1  298.17   19.60
  -7   1  -1  302.37   17.70
  -7   1  -1  298.97   17.90
  -7   1  -1  323.97   19.80
   7   1   1  302.77   19.00
  -7   1  -1  325.97   19.40
  -8  -1  -1   24.50    2.80
  -8  -1  -1   21.60    3.60
  -8  -1  -1   26.50    5.70
  -8  -1  -1   29.00    4.10
   8  -1   1   19.70    4.20
   8  -1   1   31.10    5.40
  -8  -1  -1   29.60    5.20
  -8   1  -1   24.80    4.90
  -8   1  -1   30.90    5.30
   8   1   1   27.40    5.00
  -8   1  -1   25.20    2.80
  -8   1  -1   15.30    3.30
  -9  -1  -1  314.37   21.40
  -9  -1  -1  326.77   18.60
  -9  -1  -1  301.17   19.00
   9  -1   1  327.47   20.60
   9  -1   1  302.57   19.30
  -9  -1  -1  291.07   21.90
   9   1   1  319.87   20.60
  -9   1  -1  327.67   20.90
  -9   1  -1  297.47   18.80
  -9   1  -1  318.37   21.60
  -9   1  -1  313.57   18.60
 -10  -1  -1    5.90    6.00
 -10  -1  -1   13.70    5.50
 -10  -1  -1    7.90    2.70
  10  -1   1   13.40    3.00
 -10  -1  -1   15.00    2.30
  10  -1   1   10.30    5.00
 -10   1  -1    8.60    2.30
  10   1   1   14.00    5.40
 -10   1  -1   14.20    5.30
 -10   1  -1    1.90    5.80
 -10   1  -1    6.60    2.10
 -11  -1  -1  178.58   15.60
 -11  -1  -1  175.38   12.30
 -11  -1  -1  198.38   12.00
  11  -1   1  216.78   15.60
 -11  -1  -1  199.38   18.60
 -11   1  -1  183.38   12.10
  11   1   1  204.38   15.00
 -11   1  -1  169.58   15.00
 -11   1  -1  192.78   12.10
 -12  -1  -1    3.90    2.50
 -12  -1  -1    4.90    6.00
 -12  -1  -1    1.50    2.10
  12  -1   1    1.60    5.90
 -12   1  -1    1.00    2.20
  12   1   1    3.40    5.40
 -12   1  -1    0.70    2.00
 -13  -1  -1    8.20    2.40
  13  -1   1   14.80    6.10
 -13   1  -1    9.30    2.20
  13   1   1    7.00    5.20
 -13   1  -1   11.90    2.30
  14  -1   1    9.80    5.20
  14   1   1   16.60    5.10
  15  -2  -1   99.99    8.80
  14  -2  -1   17.00    5.60
  14   2  -1   19.10    4.50
 -14   2   1   14.10    2.40
 -13  -2   1   47.40    4.80
  13  -2  -1   55.59    9.60
 -13  -2   1   43.90    4.80
  13   2  -1   67.69    8.70
 -13   2   1   47.90    5.00
 -12  -2   1    2.50    2.40
  12  -2  -1    5.50    2.90
  12  -2  -1   16.00    6.50
 -12  -2   1    4.40    5.60
 -12  -2   1    0.50    2.40
 -12   2   1    6.50    2.60
  12   2  -1    7.40    5.50
 -12   2   1    2.20    5.50
  11  -2  -1  376.86   23.40
 -11  -2   1  304.37   20.90
 -11  -2   1  350.06   24.20
 -11  -2   1  354.46   20.70
  11  -2  -1  331.57   21.50
 -11  -2   1  280.27   25.20
 -11   2   1  308.27   25.00
  11   2  -1  368.46   23.40
 -11   2   1  373.76   23.40
 -11   2   1  369.66   20.80
  10  -2  -1  711.63   42.10
 -10  -2   1  660.23   41.50
 -10  -2   1  714.43   44.20
  10  -2  -1  756.72   43.50
 -10  -2   1  736.13   41.30
 -10  -2   1  687.33   44.90
 -10   2   1  671.63   41.30
 -10   2   1  733.63   43.60
 -10   2   1  764.92   44.50
 -10   2   1  682.73   41.20
   9  -2  -1  593.14   36.20
   9  -2  -1  543.55   34.90
  -9  -2   1  552.04   34.50
  -9  -2   1  607.34   37.60
  -9  -2   1  604.54   34.30
  -9  -2   1  628.14   37.10
   9   2  -1  605.94   35.20
  -9   2   1  636.14   36.50
  -9   2   1  567.54   34.30
  -9   2   1  592.64   34.30
  -9   2   1  625.94   37.20
   9   2  -1  552.14   35.80
  -8  -2   1   52.59    4.50
   8  -2  -1   55.59    6.50
   8  -2  -1   52.99    5.70
  -8  -2   1   60.89    4.50
  -8  -2   1   62.69    8.70
  -8  -2   1   64.99    8.10
  -8  -2   1   56.39    5.20
  -8   2   1   56.69    4.30
  -8   2   1   62.79    6.40
   8   2  -1   66.89    6.60
   8   2  -1   63.29    6.20
  -8   2   1   59.79    7.20
  -8   2   1   63.89    4.50
   7  -2  -1  145.79   10.50
  -7  -2   1  171.38   10.20
  -7  -2   1  171.98    9.90
  -7  -2   1  170.28   12.60
  -7  -2   1  160.98    9.90
  -7  -2   1  169.08   12.10
  -7   2   1  179.78   11.60
  -7   2   1  168.38   10.00
  -7   2   1  145.99    9.90
  -7   2   1  177.78   12.00
   7   2  -1  177.28   11.00
   7   2  -1  147.59   11.20
  -6  -2   1    3.90    1.10
   6  -2  -1    2.90    1.60
  -6  -2   1    0.30    2.70
  -6  -2   1    2.70    3.20
  -6  -2   1    4.90    1.10
   6   2  -1    4.10    1.90
   6   2  -1    2.80    2.20
  -6   2   1    3.50    1.10
  -6   2   1    1.20    2.50
  -6   2   1    0.10    2.10
  -6   2   1    3.10    1.10
  -5  -2   1   13.30    3.00
  -5  -2   1   12.70    3.20
  -5   2   1   13.40    2.80
  -5   2   1   13.00    2.50
  -4  -2   1  604.34   35.60
  -4  -2   1  593.64   35.40
  -4   2   1  587.44   35.30
  -4   2   1  597.24   35.10
  -3  -2   1  145.39    9.30
  -3  -2   1  146.19    9.10
  -3   2   1  130.29    8.70
  -3   2   1  136.49    8.90
  -2  -2   1  169.28   10.20
  -2  -2   1  169.78   10.10
  -2   2   1  148.79    9.70
  -2   2   1  154.28    9.80
  -1  -2   1 1289.67   72.89
  -1  -2   1 1315.67   72.89
  -1   2   1 1216.48   72.69
  -1   2   1 1235.38   72.79
   0  -2   1  895.21   50.49
   0   2   1  856.01   50.59
   0   2   1  880.31   50.59
   1  -2   1   25.70    2.00
   1   2   1   28.20    2.10
  -1   2  -1   29.40    1.90
  -2  -2  -1  631.14   35.70
  -2   2  -1  623.44   35.10
  -2   2  -1  570.94   35.00
  -3  -2  -1 1211.08   68.99
  -3  -2  -1 1194.38   68.79
  -3   2  -1 1171.08   68.39
  -3   2  -1 1159.78   68.29
  -4  -2  -1    3.70    2.40
  -4  -2  -1    3.60    2.20
  -4   2  -1    6.00    1.80
  -4   2  -1    8.20    1.70
  -5  -2  -1 4282.97  247.48
  -5  -2  -1 4378.16  247.28
  -5   2  -1 4214.78  246.68
  -5   2  -1 4286.17  246.88
  -6  -2  -1 1188.48   68.79
  -6  -2  -1 1288.07   68.99
  -6  -2  -1 1236.18   70.89
   6  -2   1 1062.69   69.19
   6  -2   1 1074.99   69.69
  -6  -2  -1 1201.38   70.49
  -6   2  -1 1320.07   69.99
  -6   2  -1 1199.08   68.99
  -6   2  -1 1199.78   68.89
   6   2   1 1133.89   69.69
   6   2   1 1190.88   69.29
  -6   2  -1 1296.77   70.29
  -7  -2  -1   70.29    8.50
  -7  -2  -1   86.69    8.20
  -7  -2  -1   74.89    5.80
  -7  -2  -1   69.89    5.20
   7  -2   1   66.39    6.00
   7  -2   1   84.29    7.00
  -7  -2  -1   70.09    4.90
  -7   2  -1   78.09    5.10
  -7   2  -1   79.29    5.30
  -7   2  -1   83.99    7.40
  -7   2  -1   83.59    6.80
   7   2   1   72.89    6.00
   7   2   1   71.69    6.70
   7   2   1   73.99    6.20
  -8  -2  -1   21.70    3.80
  -8  -2  -1   34.30    6.30
  -8  -2  -1   30.50    3.00
   8  -2   1   30.10    5.20
   8  -2   1   28.70    4.80
  -8  -2  -1   27.00    5.80
  -8   2  -1   27.30    3.00
   8   2   1   32.30    5.80
   8   2   1   26.50    4.40
  -8   2  -1   30.60    5.30
  -8   2  -1   28.40    3.40
  -8   2  -1   30.20    5.10
   9  -2   1  311.77   20.40
  -9  -2  -1  290.27   18.80
   9  -2   1  308.87   19.00
  -9  -2  -1  265.37   21.80
  -9  -2  -1  326.17   18.20
  -9  -2  -1  318.57   21.50
   9   2   1  306.17   20.30
  -9   2  -1  303.57   18.20
  -9   2  -1  333.17   21.30
  -9   2  -1  315.67   20.20
  -9   2  -1  284.07   18.30
 -10  -2  -1  315.97   18.40
  10  -2   1  319.17   19.30
 -10  -2  -1  301.57   22.90
 -10  -2  -1  310.57   21.90
  10  -2   1  327.47   21.20
 -10  -2  -1  296.37   18.90
 -10   2  -1  281.87   18.50
 -10   2  -1  308.07   18.50
 -10   2  -1  329.57   20.90
  10   2   1  294.47   20.80
  11  -2   1    9.80    5.90
 -11  -2  -1   10.70    6.30
 -11  -2  -1   15.10    3.40
 -11  -2  -1   12.00    2.40
  11  -2   1   16.30    3.40
 -11   2  -1    7.40    2.30
  11   2   1   18.00    6.10
 -11   2  -1   11.50    2.50
  12  -2   1    0.20    5.50
 -12  -2  -1    3.70    5.60
 -12  -2  -1    5.60    2.90
 -12   2  -1    4.10    2.20
 -12   2  -1   11.80    2.60
  12   2   1   10.70    5.90
 -13  -2  -1   32.60    4.50
  13  -2   1   44.10    8.60
  13   2   1   24.80    5.80
 -13   2  -1   36.00    4.30
  14  -2   1   13.70    5.00
 -14  -2  -1    5.60    1.90
 -14   2  -1    7.30    1.70
  14   2   1    9.00    4.40
  14  -3  -1    4.30    4.70
 -14   3   1    4.60    2.00
  14   3  -1    4.30    4.00
  13  -3  -1    0.10    6.10
  13  -3  -1    4.40    3.10
 -13  -3   1   -2.20    2.20
 -13  -3   1   -0.40    2.30
  13   3  -1   -1.80    4.00
 -13   3   1    0.50    2.20
 -12  -3   1   59.29    6.60
 -12  -3   1   69.29    5.90
  12  -3  -1   62.59    7.20
  12  -3  -1   88.59   10.70
 -12  -3   1   77.39   11.10
 -12   3   1   71.89    5.90
  12   3  -1   78.79    9.40
  11  -3  -1    2.60    5.70
 -11  -3   1   -9.30   11.70
 -11  -3   1   -0.60    2.90
 -11  -3   1    1.10    2.20
 -11  -3   1    3.30    5.60
  11  -3  -1    2.50    3.20
 -11   3   1   -3.30    4.50
 -11   3   1   -1.20    2.20
  11   3  -1    3.80    5.00
 -10  -3   1    8.90    3.10
  10  -3  -1    5.10    3.20
  10  -3  -1    1.70    4.90
 -10  -3   1   -0.50    5.30
 -10  -3   1   -1.60    2.10
 -10  -3   1   -0.30    5.70
 -10   3   1    5.20    2.10
 -10   3   1    4.80    4.60
  10   3  -1   -2.40    4.30
 -10   3   1    1.20    5.70
  10   3  -1   -0.20    3.30
  -9  -3   1   34.60    5.50
  -9  -3   1   46.20    4.10
   9  -3  -1   45.20    7.60
  -9  -3   1   51.29    8.00
   9  -3  -1   38.40    5.80
  -9  -3   1   42.80    7.20
  -9  -3   1   31.20    4.30
  -9   3   1   41.50    4.00
  -9   3   1   42.70    6.30
  -9   3   1   35.40    3.70
  -9   3   1   40.00    6.60
   9   3  -1   39.80    6.50
   9   3  -1   51.99    6.90
  -8  -3   1   69.19    5.10
  -8  -3   1   69.89    5.00
  -8  -3   1   76.99    9.50
   8  -3  -1   70.29    7.20
   8  -3  -1   66.29    6.30
  -8  -3   1   80.29    9.10
  -8  -3   1   67.99    5.80
   8   3  -1   60.79    7.20
  -8   3   1   70.99    4.90
  -8   3   1   74.29    7.00
  -8   3   1   84.09    8.00
  -8   3   1   66.39    5.00
   8   3  -1   57.19    6.10
   8   3  -1   50.99    6.90
  -7  -3   1  771.62   42.50
  -7  -3   1  775.32   44.90
  -7  -3   1  775.92   42.60
   7  -3  -1  668.53   43.00
  -7  -3   1  773.92   45.40
  -7   3   1  774.42   44.00
  -7   3   1  706.33   42.60
   7   3  -1  796.92   43.50
  -7   3   1  766.72   44.40
   7   3  -1  690.83   42.90
  -7   3   1  750.72   42.60
   7   3  -1  701.53   43.60
   7   3  -1  653.73   42.80
  -6  -3   1  133.69   10.80
  -6  -3   1  139.49    8.60
  -6  -3   1  157.78   11.50
  -6  -3   1  144.99    8.50
   6   3  -1  124.59    8.90
  -6   3   1  142.99    9.80
  -6   3   1  149.19    8.80
   6   3  -1  139.99    9.10
  -6   3   1  137.99    8.60
   6   3  -1  136.49    9.60
   6   3  -1  138.89    9.60
  -6   3   1  142.99   10.10
  -5  -3   1  499.25   28.30
  -5  -3   1  498.55   29.90
  -5  -3   1  495.55   30.20
  -5   3   1  494.85   29.30
   5   3  -1  510.75   28.80
  -5   3   1  478.45   28.60
  -5   3   1  471.35   28.40
  -5   3   1  515.85   29.60
   5   3  -1  455.15   29.00
  -4  -3   1   83.49    6.80
  -4  -3   1   92.59    7.30
  -4   3   1   85.99    6.10
  -4   3   1   81.89    6.00
  -3  -3   1  941.21   53.19
  -3  -3   1  916.41   52.99
  -3   3   1  887.51   52.59
  -3   3   1  882.81   52.69
  -2  -3   1    3.20    1.70
  -2  -3   1    4.90    1.90
  -2   3   1    4.90    1.20
  -2   3   1    4.20    1.10
  -1  -3   1  551.44   32.10
  -1  -3   1  537.65   31.90
  -1   3   1  565.04   31.90
  -1   3   1  531.85   31.70
   0  -3   1 1267.47   71.39
   0   3   1 1234.28   71.29
   0   3  -1 1204.58   71.09
   0   3   1 1242.78   71.39
  -1   3  -1  471.75   28.40
   1   3   1  516.95   28.70
  -1   3  -1  489.65   28.50
  -2  -3  -1  236.58   14.30
  -2   3  -1  229.78   13.30
  -2   3  -1  196.78   13.30
   2   3   1  248.38   13.60
  -3  -3  -1   59.99    5.50
  -3  -3  -1   60.29    5.20
  -3   3  -1   58.09    4.10
  -3   3  -1   58.79    4.00
  -4  -3  -1   30.90    4.20
  -4  -3  -1   21.20    3.90
  -4   3  -1   20.50    2.40
  -4   3  -1   21.80    2.70
  -5  -3  -1  216.58   14.00
  -5  -3  -1  227.68   12.10
  -5  -3  -1  206.48   14.30
   5   3   1  205.38   12.70
  -5   3  -1  191.78   12.80
  -5   3  -1  216.18   13.10
   5   3   1  202.58   12.90
   5   3   1  183.78   12.90
  -5   3  -1  209.68   12.20
   5   3   1  185.58   13.00
  -5   3  -1  210.98   12.50
  -6  -3  -1   67.39    7.40
  -6  -3  -1   65.69    4.30
   6  -3   1   51.19    4.90
  -6  -3  -1   59.69    6.80
   6  -3   1   47.70    5.60
  -6   3  -1   59.79    4.20
  -6   3  -1   66.29    5.30
  -6   3  -1   82.39    5.80
   6   3   1   59.19    5.50
   6   3   1   53.99    5.50
   6   3   1   69.49    5.50
   6   3   1   53.99    4.90
  -6   3  -1   59.69    4.30
   7  -3   1   79.89    6.80
  -7  -3  -1   93.99    5.90
   7  -3   1   76.69    7.60
  -7  -3  -1   76.79    8.40
  -7  -3  -1   80.29    5.50
  -7  -3  -1   92.29    9.30
  -7  -3  -1   86.79    6.40
   7   3   1   81.19    7.40
   7   3   1   82.59    7.00
  -7   3  -1   88.69    5.90
  -7   3  -1   88.19    5.70
  -7   3  -1   84.79    7.00
  -7   3  -1   82.49    7.50
   7   3   1   79.29    6.40
   7   3   1   96.49    7.10
   8  -3   1    5.10    2.50
  -8  -3  -1    1.60    4.80
  -8  -3  -1    4.80    1.90
  -8  -3  -1    6.80    4.80
  -8  -3  -1    4.50    1.40
   8  -3   1    5.80    4.20
  -8  -3  -1    5.90    2.60
   8   3   1    0.50    2.60
   8   3   1    3.90    3.80
  -8   3  -1    8.50    3.80
  -8   3  -1    5.80    1.70
  -8   3  -1    4.10    1.60
  -8   3  -1    5.20    3.00
   8   3   1   -1.70    2.70
   9  -3   1  221.28   14.90
  -9  -3  -1  233.18   13.80
  -9  -3  -1  195.88   14.10
  -9  -3  -1  219.48   14.70
   9  -3   1  239.98   16.50
  -9  -3  -1  237.48   17.70
  -9  -3  -1  242.38   18.70
  -9   3  -1  238.48   14.00
   9   3   1  235.68   16.20
  -9   3  -1  240.88   16.90
  -9   3  -1  233.48   14.10
   9   3   1  231.98   15.00
  -9   3  -1  228.98   15.60
  10  -3   1   58.79    8.60
  10  -3   1   60.89    6.60
 -10  -3  -1   59.19   10.30
 -10  -3  -1   38.30    6.70
 -10  -3  -1   59.19    9.70
 -10  -3  -1   68.99    8.20
 -10  -3  -1   40.80    4.70
  10   3   1   44.10    8.40
 -10   3  -1   56.09    5.00
 -10   3  -1   57.79    5.00
 -11  -3  -1   41.20    7.90
  11  -3   1   44.40    6.10
  11  -3   1   47.80    8.60
 -11  -3  -1   32.40    6.30
 -11   3  -1   37.20    4.60
  11   3   1   41.60    7.00
 -11   3  -1   41.10    4.60
 -12  -3  -1   91.99    8.00
  12  -3   1  104.69    8.10
 -12  -3  -1   94.99   12.50
  12  -3   1  105.89   11.40
 -12   3  -1   93.09    7.20
 -12   3  -1   87.89    6.90
  12   3   1  108.49   10.60
 -13  -3  -1   12.60    2.80
  13  -3   1   13.10    5.20
 -13   3  -1   22.00    2.70
  13   3   1   13.90    4.60
  14  -3   1   17.40    4.90
 -14  -3  -1    9.80    2.20
  14   3   1   11.70    4.00
 -14   3  -1    7.10    1.70
  14  -4  -1    8.10    4.50
  14   4  -1    5.70    3.20
 -14   4   1    5.70    2.00
  13  -4  -1   51.59    9.00
 -13  -4   1   26.60    4.70
  13  -4  -1   30.10    5.10
 -13   4   1   27.40    4.40
  13   4  -1   41.60    6.80
  12  -4  -1   12.70    6.00
 -12  -4   1   21.60    7.30
 -12  -4   1   13.80    3.40
 -12  -4   1   13.80    2.70
  12  -4  -1   16.40    3.70
  12   4  -1   20.20    5.50
 -12   4   1   17.80    3.10
  11  -4  -1   48.80    7.20
 -11  -4   1   40.20    4.90
 -11  -4   1   37.40    8.20
 -11  -4   1   32.80    4.50
  11  -4  -1   27.20    6.70
  11   4  -1   32.30    6.10
  11   4  -1   40.10    6.90
 -11   4   1   40.90    4.80
 -10  -4   1   28.80    4.00
 -10  -4   1   15.10    7.00
  10  -4  -1   31.10    4.50
 -10  -4   1   22.30    6.90
 -10  -4   1   25.30    5.00
  10  -4  -1   37.30    7.00
 -10  -4   1   38.10    4.60
 -10   4   1   28.90    4.30
 -10   4   1   29.60    5.50
  10   4  -1   20.20    4.70
  10   4  -1   28.60    5.70
 -10   4   1   20.30    8.60
  -9  -4   1  101.39   11.50
  -9  -4   1   95.39   10.70
  -9  -4   1   79.39    6.50
   9  -4  -1   94.29    9.60
   9  -4  -1   76.89    7.80
  -9  -4   1   77.99    7.60
  -9  -4   1   83.59    6.30
  -9   4   1   94.59    9.70
  -9   4   1  106.19    8.50
   9   4  -1   78.49    7.80
  -9   4   1   97.09    6.40
   9   4  -1   82.49    8.80
   9   4  -1  101.89    9.00
   8  -4  -1   11.60    2.90
  -8  -4   1    2.60    4.80
  -8  -4   1    9.70    2.50
  -8  -4   1    4.40    1.80
  -8  -4   1   10.90    2.00
  -8  -4   1    3.60    4.80
  -8   4   1    5.70    4.00
   8   4  -1    6.50    2.80
  -8   4   1    8.60    3.30
   8   4  -1   14.80    3.90
   8   4  -1    5.80    3.60
  -8   4   1    8.10    1.70
  -8   4   1    5.30    1.80
   8   4  -1    6.90    2.50
  -7  -4   1  147.09   13.10
  -7  -4   1  162.68    9.40
  -7  -4   1  151.78   12.50
   7  -4  -1  133.59   10.00
  -7  -4   1  160.58    9.40
  -7   4   1  166.98   11.30
  -7   4   1  159.18    9.60
   7   4  -1  161.28   11.00
  -7   4   1  147.69    9.30
  -7   4   1  169.48   10.80
   7   4  -1  135.69   10.70
   7   4  -1  148.49   10.20
   7   4  -1  146.69   10.10
  -7   4   1  150.28    9.40
   7   4  -1  127.09   10.80
  -6  -4   1  488.55   30.40
  -6  -4   1  502.75   28.20
  -6  -4   1  487.75   30.90
  -6  -4   1  503.35   28.30
  -6   4   1  462.85   28.30
   6   4  -1  523.55   29.00
   6   4  -1  461.85   28.70
  -6   4   1  493.25   29.60
  -6   4   1  503.55   29.30
   6   4  -1  507.75   29.30
  -6   4   1  497.25   28.50
   6   4  -1  421.26   29.10
   6   4  -1  472.85   28.70
  -5  -4   1    1.70    3.30
  -5  -4   1    1.20    1.00
  -5  -4   1    0.60    1.20
  -5  -4   1   -2.00    2.80
  -5   4   1    1.20    1.10
   5   4  -1   -0.30    2.30
  -5   4   1    0.90    1.60
  -5   4   1   -0.20    1.90
   5   4  -1    0.20    1.60
   5   4  -1    1.40    1.50
   5   4  -1   -0.80    2.20
  -5   4   1    2.40    1.00
  -4  -4   1  887.41   51.29
  -4  -4   1  894.51   51.59
  -4   4   1  853.31   50.69
  -4   4   1  854.51   50.49
  -4   4   1  861.21   49.99
   4   4  -1  915.01   50.19
   4   4  -1  808.82   50.49
  -3  -4   1   29.40    4.30
  -3  -4   1   27.40    3.90
  -3   4   1   28.60    2.90
  -3   4   1   27.50    2.70
  -2  -4   1  221.28   14.00
  -2  -4   1  235.78   14.30
  -2   4   1  215.38   13.40
  -2   4   1  222.98   13.60
  -1  -4   1  348.57   21.10
  -1   4   1  355.46   20.80
  -1   4   1  345.07   20.60
   0  -4   1   74.19    5.20
   0   4  -1   70.99    4.50
   0   4   1   72.49    4.90
   0   4   1   64.59    4.70
  -1   4  -1  545.35   31.10
  -1   4  -1  512.45   31.00
   1   4   1  550.44   31.30
  -2  -4  -1  355.86   20.20
   2   4   1  328.87   19.20
  -2   4  -1  310.67   19.00
  -2   4  -1  312.07   18.90
  -3  -4  -1  355.46   21.20
  -3  -4  -1  338.27   20.90
  -3   4  -1  322.87   19.70
  -3   4  -1  331.87   19.60
  -4  -4  -1  178.98   12.20
  -4  -4  -1  170.18   12.60
  -4   4  -1  173.98   10.50
   4   4   1  186.48   11.10
  -4   4  -1  166.08   10.70
   4   4   1  181.48   11.00
   4   4   1  161.28   10.90
  -4   4  -1  170.18   10.80
   4   4   1  188.28   11.20
  -5  -4  -1 1218.08   71.19
  -5  -4  -1 1287.47   69.39
  -5  -4  -1 1196.98   71.49
  -5   4  -1 1258.37   69.49
  -5   4  -1 1176.28   69.59
   5   4   1 1212.98   70.09
   5   4   1 1156.38   69.79
   5   4   1 1178.48   69.79
   5   4   1 1105.79   70.09
  -5   4  -1 1198.68   69.89
   5   4   1 1329.77   69.89
  -5   4  -1 1216.08   69.99
  -5   4  -1 1143.79   69.49
  -6  -4  -1    8.20    4.00
  -6  -4  -1    9.60    1.60
  -6  -4  -1    9.10    4.40
   6  -4   1    9.40    2.10
   6   4   1   11.00    3.00
  -6   4  -1    7.00    1.50
   6   4   1    6.20    2.20
   6   4   1   12.40    3.10
  -6   4  -1    5.90    2.30
  -6   4  -1    6.60    2.10
  -6   4  -1    9.40    1.60
   6   4   1    8.10    2.50
  -7  -4  -1  185.18   11.80
  -7  -4  -1  196.68   14.80
   7  -4   1  169.78   12.10
  -7  -4  -1  193.08   11.40
  -7  -4  -1  191.28   15.60
   7  -4   1  176.38   13.10
   7   4   1  186.48   12.50
  -7   4  -1  184.38   11.50
   7   4   1  184.38   12.90
   7   4   1  199.38   12.70
   7   4   1  182.68   12.10
  -7   4  -1  197.78   12.70
  -7   4  -1  185.68   11.40
  -7   4  -1  195.88   12.20
  -8  -4  -1   99.99    8.00
  -8  -4  -1   99.69   12.00
  -8  -4  -1  112.39   11.40
  -8  -4  -1  105.39    7.30
   8   4   1  101.99    9.30
  -8   4  -1  105.69    7.20
  -8   4  -1  102.99    7.00
   8   4   1  114.89    8.80
  -8   4  -1   96.09    9.20
   8   4   1   97.79    8.10
  -8   4  -1  106.59    8.20
   8   4   1   94.29    8.60
  -9  -4  -1   23.00    4.70
  -9  -4  -1   23.10    6.90
  -9  -4  -1   25.90    7.30
   9  -4   1   33.90    5.90
   9  -4   1   33.40    6.10
  -9  -4  -1   13.30    3.90
  -9   4  -1   24.20    3.70
   9   4   1   30.90    5.90
  -9   4  -1   20.70    2.90
  10  -4   1  152.18   12.80
 -10  -4  -1  120.69    9.90
  10  -4   1  148.09   10.80
 -10  -4  -1  121.59   13.80
 -10  -4  -1  147.89   15.90
 -10  -4  -1  132.99   10.60
 -10  -4  -1  133.39   10.10
  10   4   1  156.98   11.00
  10   4   1  155.98   12.30
 -10   4  -1  151.88    9.50
 -10   4  -1  145.89    9.40
 -11  -4  -1   69.39   11.00
  11  -4   1   64.59    7.30
 -11  -4  -1   59.39    7.50
  11  -4   1   73.69    9.50
 -11   4  -1   69.69    5.80
 -11   4  -1   58.99    5.40
  11   4   1   83.89    9.30
  12  -4   1    3.80    5.90
  12  -4   1    3.80    3.00
 -12  -4  -1    2.10    3.10
 -12   4  -1    4.60    2.40
  12   4   1    0.20    4.50
 -13  -4  -1    0.40    2.30
  13  -4   1    2.80    4.90
  13  -4   1    8.70    3.90
  13   4   1    7.10    4.30
 -13   4  -1    2.30    2.00
  14  -4   1    3.60    3.90
 -14   4  -1    0.20    1.80
  14   4   1    2.20    3.10
  14  -5  -1   16.00    4.40
 -14   5   1   14.20    2.20
  13  -5  -1    1.30    2.60
  13  -5  -1   -2.70    4.80
 -13  -5   1    1.00    2.50
 -13   5   1    0.50    2.20
  13   5  -1   -1.80    3.30
  12  -5  -1   12.00    3.60
 -12  -5   1    3.30    3.20
  12  -5  -1    5.40    6.10
 -12   5   1   11.70    2.90
  12   5  -1   12.90    4.50
  11  -5  -1    2.10    5.70
  11  -5  -1   -0.50    3.40
 -11  -5   1    3.50    3.50
 -11  -5   1   -0.90    2.10
 -11  -5   1    0.10    5.90
  11   5  -1   -2.20    3.90
  11   5  -1   -0.10    4.50
 -11   5   1    2.10    2.30
 -10  -5   1    2.50    7.10
  10  -5  -1    3.80    5.60
 -10  -5   1    8.10    6.60
 -10  -5   1    4.00    3.60
 -10  -5   1    3.20    2.70
 -10  -5   1    4.70    2.20
  10  -5  -1    5.40    3.30
 -10   5   1    4.00    2.30
  10   5  -1    2.30    4.10
  10   5  -1   13.90    4.90
  -9  -5   1   29.30    3.90
  -9  -5   1   21.10    7.30
  -9  -5   1   31.60    4.50
  -9  -5   1   21.80    6.80
   9  -5  -1   41.00    7.80
  -9  -5   1   32.50    5.80
   9  -5  -1   21.60    3.70
   9   5  -1   21.00    4.90
  -9   5   1   29.60    4.00
  -9   5   1   38.10    6.20
  -9   5   1   22.20    6.90
   9   5  -1   21.80    3.80
   9   5  -1   31.30    6.50
   9   5  -1   15.30    4.00
  -8  -5   1   93.79    6.30
  -8  -5   1   82.79    6.00
  -8  -5   1   76.09   10.20
  -8  -5   1   90.49   10.90
   8  -5  -1   72.09    7.00
   8   5  -1   83.49    8.50
   8   5  -1   74.49    7.90
   8   5  -1   68.49    7.90
   8   5  -1   88.19    7.70
  -8   5   1   84.09    6.10
  -8   5   1   91.99    8.80
  -8   5   1   87.39    7.60
  -7  -5   1   84.99   10.00
  -7  -5   1   90.99    6.00
  -7  -5   1   89.99    6.00
  -7  -5   1   94.09    9.70
  -7   5   1   76.69    7.60
  -7   5   1   80.29    5.90
   7   5  -1   79.49    8.30
   7   5  -1   93.19    8.30
  -7   5   1   81.29    6.00
   7   5  -1   85.49    7.20
   7   5  -1   72.49    7.30
  -7   5   1   92.59    6.00
  -7   5   1   87.29    7.00
   7   5  -1   79.79    7.50
   6  -5  -1  190.08   13.10
  -6  -5   1  209.18   15.60
  -6  -5   1  224.48   12.80
  -6  -5   1  219.38   12.80
  -6  -5   1  213.78   16.30
   6   5  -1  230.88   14.10
  -6   5   1  188.28   12.70
   6   5  -1  189.18   13.70
  -6   5   1  223.28   13.80
  -6   5   1  222.68   13.00
  -6   5   1  216.68   12.90
   6   5  -1  221.98   13.80
  -6   5   1  222.48   14.20
   6   5  -1  207.78   13.50
   6   5  -1  230.08   14.20
  -5  -5   1  409.76   29.80
  -5  -5   1  488.15   27.80
  -5  -5   1  490.25   27.70
  -5  -5   1  463.55   29.60
  -5   5   1  488.25   28.70
  -5   5   1  496.65   28.50
   5   5  -1  424.66   28.30
  -5   5   1  484.65   27.80
   5   5  -1  530.25   28.30
   5   5  -1  485.65   28.70
   5   5  -1  478.35   28.20
   5   5  -1  459.25   28.30
  -5   5   1  467.95   27.90
  -4  -5   1  262.57   16.80
  -4  -5   1  249.48   14.80
  -4  -5   1  255.67   17.20
  -4  -5   1  263.07   14.90
   4   5  -1  238.58   15.40
   4   5  -1  271.37   15.50
   4   5  -1  237.98   15.70
  -4   5   1  252.37   15.70
   4   5  -1  241.38   15.30
  -4   5   1  255.47   14.90
  -4   5   1  248.98   15.00
  -4   5   1  251.67   15.40
  -3  -5   1  154.18   10.70
  -3  -5   1  144.49   11.00
  -3   5   1  144.39    8.80
   3   5  -1  140.99    9.70
  -3   5   1  148.69    9.40
   3   5  -1  145.39    9.40
   3   5  -1  150.58    9.30
  -3   5   1  146.19    9.60
   3   5  -1  149.49    9.40
  -2  -5   1   34.50    4.10
  -2  -5   1   36.80    4.70
   2   5  -1   30.10    3.70
  -2   5   1   35.60    3.10
  -2   5   1   40.00    3.40
   2   5  -1   33.20    3.20
   2   5  -1   34.50    3.70
  -1  -5   1 1187.68   68.29
  -1  -5   1 1187.98   68.39
  -1   5   1 1175.88   67.99
  -1   5   1 1139.29   67.79
   0  -5   1  142.99    9.20
   0   5  -1  134.79    8.40
   0   5   1  133.69    8.60
   0   5   1  137.59    8.90
  -1  -5  -1   43.10    5.50
   1   5   1   46.60    3.80
  -1   5  -1   49.60    3.40
  -2  -5  -1  610.54   35.20
   2   5   1  567.54   33.90
  -2   5  -1  562.84   33.70
   2   5   1  592.04   33.80
   2   5   1  541.55   34.00
  -2   5  -1  621.44   33.60
  -2   5  -1  568.94   33.70
  -3  -5  -1    3.50    3.10
  -3  -5  -1    4.50    3.50
  -3   5  -1    8.20    1.30
  -3   5  -1   11.00    1.50
   3   5   1    2.70    1.80
   3   5   1    9.10    2.40
   3   5   1    6.00    2.10
  -3   5  -1    9.30    1.50
   3   5   1    7.60    2.20
  -3   5  -1    6.50    1.30
  -4  -5  -1  671.63   39.90
  -4  -5  -1  689.93   37.50
  -4  -5  -1  646.74   39.40
  -4   5  -1  664.53   37.70
   4   5   1  629.84   38.30
   4   5   1  657.83   38.10
   4   5   1  603.64   38.20
  -4   5  -1  614.04   37.80
  -4   5  -1  599.84   37.90
   4   5   1  706.73   38.10
  -4   5  -1  659.13   37.60
  -4   5  -1  618.74   37.70
   4   5   1  687.03   38.10
  -5  -5  -1   91.69    9.80
  -5  -5  -1  107.29    6.30
  -5  -5  -1   98.69    9.20
  -5   5  -1   95.19    6.40
  -5   5  -1  100.09    6.40
  -5   5  -1   96.99    6.50
   5   5   1  105.09    8.00
  -5   5  -1   94.69    6.50
   5   5   1   93.89    7.50
  -5   5  -1  100.69    6.80
   5   5   1  101.29    7.40
   5   5   1   92.19    7.40
   5   5   1   98.19    7.70
  -6  -5  -1  139.39   11.40
   6  -5   1  107.69    8.60
  -6  -5  -1  117.89    8.00
  -6  -5  -1  127.79   12.30
   6   5   1  118.29    9.50
  -6   5  -1  125.29    8.80
  -6   5  -1  135.49    8.30
  -6   5  -1  136.89    8.20
   6   5   1  136.29    9.30
   6   5   1  128.49    9.40
  -6   5  -1  131.39    8.50
   6   5   1  144.19    9.60
   6   5   1  147.69   10.20
   7  -5   1  221.18   15.70
  -7  -5  -1  259.27   14.10
  -7  -5  -1  237.38   17.40
   7  -5   1  197.78   14.60
  -7  -5  -1  241.48   18.20
  -7   5  -1  228.68   14.20
  -7   5  -1  228.28   14.00
   7   5   1  228.18   14.90
   7   5   1  253.97   15.50
   7   5   1  231.98   15.50
   7   5   1  234.78   15.30
  -8  -5  -1    4.40    5.90
  -8  -5  -1    2.90    2.90
   8  -5   1    2.40    2.60
   8  -5   1    3.80    4.40
  -8  -5  -1    8.60    5.80
  -8  -5  -1    4.50    2.20
  -8   5  -1    1.70    1.80
   8   5   1    1.10    3.70
  -8   5  -1    3.70    2.00
   8   5   1    1.00    2.90
   8   5   1   -1.70    3.50
   8   5   1    2.60    3.40
  -9  -5  -1   40.60    9.00
  -9  -5  -1   64.59    6.10
   9  -5   1   64.39    8.50
  -9  -5  -1   61.19   10.80
   9  -5   1   58.39    7.20
  -9  -5  -1   62.79    7.40
   9   5   1   58.19    8.20
  -9   5  -1   68.09    5.30
  -9   5  -1   46.00    5.20
   9   5   1   69.49    7.90
   9   5   1   71.69    7.60
   9   5   1   61.69    8.20
 -10  -5  -1    3.40    3.80
 -10  -5  -1    2.00    6.30
 -10  -5  -1    7.30    3.10
  10  -5   1   -0.20    4.90
  10  -5   1    2.30    3.10
 -10   5  -1    5.40    2.30
 -10   5  -1    1.20    2.00
  10   5   1    2.20    3.80
  10   5   1    8.10    5.00
 -11  -5  -1   13.60    7.40
  11  -5   1    7.20    3.40
  11  -5   1   17.10    6.10
 -11  -5  -1   15.90    3.90
 -11  -5  -1   11.60    4.30
  11   5   1   12.60    4.80
 -11   5  -1    9.70    2.70
  11   5   1   12.40    4.80
  12  -5   1    2.70    5.30
  12  -5   1    2.60    3.00
 -12  -5  -1    2.80    2.90
  12   5   1    2.90    4.40
 -12   5  -1    0.50    2.40
  13  -5   1   49.99    5.20
 -13  -5  -1   28.90    5.00
  13  -5   1   53.79    7.10
 -13   5  -1   37.60    4.20
  13   5   1   49.30    6.50
  13  -6  -1    2.60    2.60
 -13  -6   1   -0.10    2.50
  13  -6  -1    2.80    4.20
  13   6  -1   -0.50    4.20
 -13   6   1    2.10    1.80
 -12  -6   1   15.70    3.60
  12  -6  -1   15.40    3.70
  12  -6  -1   13.80    5.40
 -12   6   1   16.60    3.00
  12   6  -1   24.50    4.30
  12   6  -1    9.80    4.00
 -11  -6   1  127.49   15.10
 -11  -6   1  122.79   11.40
  11  -6  -1  159.78   13.40
  11  -6  -1  175.28   11.80
 -11   6   1  152.88   10.40
  11   6  -1  167.38   12.00
  11   6  -1  150.78   12.20
  10  -6  -1    2.90    3.30
 -10  -6   1   -1.20    6.50
 -10  -6   1    1.20    2.70
 -10  -6   1    4.30    3.80
  10  -6  -1    5.10    5.50
  10   6  -1   -0.20    3.70
  10   6  -1    8.80    4.60
 -10   6   1    0.80    2.60
  10   6  -1   -0.90    3.70
  -9  -6   1    9.80    3.50
  -9  -6   1   13.90    7.20
   9  -6  -1    7.40    3.20
  -9  -6   1   12.00    2.40
  -9  -6   1    9.40    2.60
   9  -6  -1    8.50    5.50
  -9  -6   1    8.30    7.00
   9   6  -1    9.40    4.00
   9   6  -1   17.10    4.70
   9   6  -1   10.60    3.80
  -9   6   1    8.00    2.40
   9   6  -1   13.70    4.80
  -8  -6   1   39.00    4.40
  -8  -6   1   42.30    8.00
   8  -6  -1   43.20    5.60
  -8  -6   1   46.40    4.90
  -8  -6   1   44.20    8.50
   8   6  -1   49.90    7.10
  -8   6   1   47.10    4.60
   8   6  -1   34.00    5.10
   8   6  -1   48.50    6.50
  -8   6   1   49.10    6.10
   8   6  -1   49.30    7.70
  -7  -6   1   10.60    2.10
   7  -6  -1   10.50    2.50
  -7  -6   1   -2.30    5.30
  -7  -6   1   10.60    2.00
  -7  -6   1   17.10    5.80
   7   6  -1    7.30    3.20
  -7   6   1   16.10    2.80
   7   6  -1    9.00    4.40
  -7   6   1   20.70    4.00
   7   6  -1   11.60    4.30
   7   6  -1   13.50    3.40
  -7   6   1   13.20    2.30
  -7   6   1   22.70    3.50
   7   6  -1   11.00    3.60
  -6  -6   1   22.00    3.20
  -6  -6   1   23.30    3.10
  -6  -6   1   18.90    5.50
  -6  -6   1   15.70    6.00
   6   6  -1   21.20    4.30
   6   6  -1   17.60    4.00
   6   6  -1   18.70    3.60
   6   6  -1   14.20    3.10
   6   6  -1   17.70    3.20
  -6   6   1   23.10    3.10
  -6   6   1   23.20    3.00
  -6   6   1   23.40    3.40
  -6   6   1   20.70    2.60
  -6   6   1   21.20    3.70
  -5  -6   1    0.70    1.20
  -5  -6   1   -1.10    3.70
  -5  -6   1   -1.30    1.40
  -5  -6   1   -1.70    3.90
  -5   6   1   -3.00    1.90
  -5   6   1   -0.50    1.20
   5   6  -1    0.50    2.40
  -5   6   1    0.60    1.40
   5   6  -1   -5.30    2.70
  -5   6   1    0.90    1.70
   5   6  -1    4.80    2.50
   5   6  -1   -9.60    2.90
   5   6  -1   -0.90    1.70
  -4  -6   1  211.08   12.60
  -4  -6   1  224.98   15.70
  -4  -6   1  224.78   15.20
  -4  -6   1  210.38   12.80
  -4   6   1  201.08   12.80
  -4   6   1  217.18   12.80
  -4   6   1  196.48   13.50
   4   6  -1  228.38   13.50
  -4   6   1  202.28   13.30
   4   6  -1  229.18   13.60
  -4   6   1  207.58   12.80
   4   6  -1  219.38   13.60
   4   6  -1  210.28   13.90
  -3  -6   1   51.29    6.20
  -3  -6   1   45.90    6.60
  -3   6   1   57.19    4.90
   3   6  -1   69.49    4.40
  -3   6   1   50.79    4.30
  -3   6   1   56.19    4.00
   3   6  -1   59.09    5.30
   3   6  -1   61.79    5.20
  -3   6   1   55.19    4.10
   3   6  -1   56.39    5.20
  -3   6   1   55.89    4.50
   3   6  -1   52.69    5.50
  -2  -6   1  333.17   20.10
  -2  -6   1  301.47   19.60
  -2   6   1  294.67   18.30
  -2   6   1  305.37   19.00
   2   6  -1  317.67   18.70
   2   6  -1  339.77   18.70
   2   6  -1  322.17   18.90
   2   6  -1  322.47   18.30
   2   6  -1  308.77   19.00
  -2   6   1  300.27   18.40
  -2   6   1  293.77   18.70
  -1  -6   1   38.40    5.10
  -1  -6   1   38.40    4.70
   1   6  -1   37.50    2.90
   1   6  -1   35.40    3.70
   1   6  -1   33.70    3.60
   1   6  -1   31.60    3.70
  -1   6   1   32.60    3.20
  -1   6   1   34.50    3.60
   1   6  -1   32.50    4.00
   0  -6   1    4.70    2.50
   0   6   1    8.60    1.90
   0   6   1    8.50    1.70
   0   6   1    6.60    1.80
   0   6  -1    7.80    1.40
   0   6  -1    6.30    1.80
   0   6   1    4.50    1.50
   0   6  -1    9.00    1.80
   0   6  -1    8.20    1.70
   0   6   1    7.00    1.70
   1  -6   1  594.44   33.40
  -1  -6  -1  589.94   34.20
   1   6   1  504.55   32.90
  -1   6  -1  553.24   32.60
   1   6   1  557.44   33.00
   1   6   1  586.84   32.60
   1   6   1  546.15   32.80
  -2  -6  -1    8.80    4.00
   2   6   1   10.30    2.40
   2   6   1    9.00    2.20
   2   6   1    6.20    2.20
  -2   6  -1    9.50    1.70
   2   6   1    6.10    1.90
  -2   6  -1   10.40    1.50
   2   6   1    5.00    2.10
  -2   6  -1   10.00    1.70
  -2   6  -1    7.60    1.50
  -3  -6  -1    3.00    3.60
  -3  -6  -1   10.20    4.40
   3   6   1    5.10    2.40
  -3   6  -1   13.40    1.80
  -3   6  -1    9.80    1.70
  -3   6  -1    8.20    1.40
   3   6   1   11.90    2.90
  -3   6  -1    5.20    1.50
   3   6   1    9.40    2.00
  -3   6  -1    8.90    1.60
   3   6   1    8.30    2.70
   3   6   1   10.30    2.40
  -4  -6  -1  626.04   35.80
  -4  -6  -1  623.14   38.70
  -4  -6  -1  648.34   38.30
   4   6   1  673.73   36.50
  -4   6  -1  608.54   36.10
   4   6   1  647.74   36.70
   4   6   1  594.44   36.60
   4   6   1  655.13   36.60
  -4   6  -1  578.84   36.10
  -4   6  -1  601.14   36.00
  -4   6  -1  644.74   36.10
   4   6   1  613.04   36.80
  -4   6  -1  571.54   36.20
  -4   6  -1  616.24   36.10
  -5  -6  -1    4.00    4.60
  -5  -6  -1    6.30    5.20
  -5  -6  -1   16.50    2.50
   5   6   1    8.40    3.50
  -5   6  -1   13.70    2.00
  -5   6  -1   16.40    2.60
   5   6   1   13.40    2.90
   5   6   1   11.60    3.10
   5   6   1   14.50    3.30
  -5   6  -1   14.00    2.30
   5   6   1    7.30    3.30
  -5   6  -1   14.90    2.10
  -6  -6  -1  142.49   15.30
   6  -6   1  151.98   11.30
  -6  -6  -1  178.08   15.00
  -6  -6  -1  198.88   11.00
  -6   6  -1  183.08   11.10
   6   6   1  180.28   13.00
  -6   6  -1  194.48   11.30
   6   6   1  181.68   12.60
   6   6   1  166.58   12.20
   6   6   1  180.98   12.60
   6   6   1  177.18   12.60
  -7  -6  -1  173.38   10.00
  -7  -6  -1  161.68   15.70
  -7  -6  -1  136.39   14.30
   7  -6   1  143.59   11.60
   7   6   1  152.88   11.90
   7   6   1  160.78   11.60
   7   6   1  162.08   11.90
  -7   6  -1  150.28   10.10
   7   6   1  147.09   11.40
  -7   6  -1  147.99    9.90
  -8  -6  -1  131.69   13.90
  -8  -6  -1  100.49    8.40
   8  -6   1  108.39    9.10
  -8  -6  -1  115.69   14.80
  -8  -6  -1  130.89    9.50
   8  -6   1  130.59   10.70
   8   6   1  113.99   10.40
  -8   6  -1  122.89    8.20
  -8   6  -1  130.89    8.30
   8   6   1   94.69   10.50
   8   6   1  128.69   10.20
   8   6   1  137.59   10.40
   9  -6   1    7.50    3.40
  -9  -6  -1    3.00    6.70
  -9  -6  -1    6.00    7.80
   9  -6   1    6.90    4.80
  -9  -6  -1    7.60    3.70
  -9  -6  -1    2.80    2.60
   9   6   1    5.20    4.50
  -9   6  -1    6.20    2.30
  -9   6  -1    4.90    2.40
   9   6   1    5.50    4.10
   9   6   1    6.00    4.10
   9   6   1    2.70    4.30
 -10  -6  -1   12.60    3.20
 -10  -6  -1    6.50    4.00
  10  -6   1   17.50    3.70
 -10  -6  -1   11.10    7.60
  10  -6   1   16.60    5.70
  10   6   1   11.10    4.30
 -10   6  -1    8.40    2.40
  10   6   1   10.50    4.60
 -10   6  -1   11.70    2.70
  11  -6   1   29.60    4.30
 -11  -6  -1   26.80    3.90
 -11  -6  -1   26.60    8.20
 -11  -6  -1   24.50    4.70
  11  -6   1   17.30    5.40
 -11   6  -1   24.80    4.30
  11   6   1   27.10    4.60
  11   6   1   26.50    5.30
 -12  -6  -1   23.30    4.10
  12  -6   1   37.70    5.40
  12  -6   1   33.40    7.00
 -12   6  -1   30.20    4.00
  12   6   1   42.00    6.40
 -13  -6  -1    3.80    2.40
  13  -6   1   -0.90    3.40
  13  -6   1    3.00    2.30
 -13   6  -1    2.70    1.70
  13   6   1    3.70    3.00
 -13  -7   1   -0.50    2.20
  13  -7  -1    1.10    2.40
  13  -7  -1    0.00    3.50
 -13   7   1    2.70    1.90
 -12  -7   1   41.30    6.20
  12  -7  -1   50.59    6.30
  12  -7  -1   74.79    8.00
 -12   7   1   51.39    5.10
  12   7  -1   64.19    6.80
 -11  -7   1   10.70    3.20
 -11  -7   1   10.80    4.10
  11  -7  -1   15.20    3.80
  11  -7  -1   20.90    5.80
  11   7  -1   26.10    6.60
 -11   7   1   12.00    2.70
  11   7  -1   11.30    4.40
  10  -7  -1   85.69    8.00
 -10  -7   1   62.19   10.30
 -10  -7   1   70.49    6.80
 -10  -7   1   64.29    7.90
  10  -7  -1   70.59    9.40
  10   7  -1   75.29    8.60
 -10   7   1   64.49    6.40
  10   7  -1   80.69    9.30
  10   7  -1   87.39    8.00
  10   7  -1   66.59    8.70
   9  -7  -1   13.20    3.50
  -9  -7   1   18.80    3.90
   9  -7  -1    7.60    5.10
  -9  -7   1   16.70    3.00
  -9  -7   1   15.90    7.60
  -9   7   1   12.90    2.90
   9   7  -1   19.30    5.20
   9   7  -1   13.30    4.60
   9   7  -1    9.10    4.80
   9   7  -1   15.70    4.30
   8  -7  -1   30.70    5.60
  -8  -7   1   25.30    8.70
  -8  -7   1   38.10    4.50
  -8  -7   1   81.89   11.70
  -8  -7   1   55.19    5.10
   8   7  -1   36.90    6.00
   8   7  -1   50.29    7.80
   8   7  -1   60.29    8.60
  -8   7   1   46.50    5.00
  -7  -7   1  116.59   13.70
   7  -7  -1  100.09    8.30
  -7  -7   1  130.29    8.00
  -7  -7   1  108.09    7.80
  -7  -7   1  106.29   12.90
   7   7  -1  130.29   10.50
   7   7  -1  100.39    9.90
  -7   7   1  118.69    8.00
   7   7  -1  120.09   11.20
  -7   7   1  117.89    7.90
   7   7  -1  121.29   10.70
   7   7  -1  116.29    8.90
  -6  -7   1    5.00    5.60
  -6  -7   1    1.60    1.70
  -6  -7   1    5.40    5.20
  -6  -7   1    1.30    1.90
   6   7  -1    2.50    3.30
  -6   7   1    0.00    2.30
  -6   7   1    0.90    1.50
   6   7  -1    2.90    4.20
   6   7  -1    3.50    2.50
   6   7  -1   -2.80    3.70
  -6   7   1    2.80    2.60
   6   7  -1    2.10    3.70
  -6   7   1    2.70    2.00
  -6   7   1    4.10    3.40
  -5  -7   1  105.59   11.70
  -5  -7   1  104.99    7.30
  -5  -7   1  113.19    7.10
  -5  -7   1   99.49   10.90
   5   7  -1  118.69    9.00
   5   7  -1  106.69    8.70
  -5   7   1  103.69    7.30
  -5   7   1  105.79    7.20
   5   7  -1  129.99    9.40
  -5   7   1  106.39    7.80
  -5   7   1  108.09    8.40
   5   7  -1  111.29    9.30
  -5   7   1  109.19    7.30
  -4  -7   1    5.50    4.50
  -4  -7   1    4.80    4.40
  -4  -7   1    3.90    1.30
  -4   7   1    1.30    1.70
   4   7  -1   -0.60    2.70
  -4   7   1    6.40    1.70
  -4   7   1    4.50    1.40
  -4   7   1    3.80    2.40
  -4   7   1    0.10    1.60
   4   7  -1    4.90    2.60
   4   7  -1    1.20    2.90
   4   7  -1    4.20    3.30
  -3  -7   1   85.89    9.50
  -3  -7   1  108.99    9.10
  -3   7   1   80.49    6.30
  -3   7   1   87.19    6.40
   3   7  -1   89.09    6.20
  -3   7   1   86.29    6.30
  -3   7   1   90.99    6.00
   3   7  -1   96.29    7.50
   3   7  -1   97.49    7.30
  -3   7   1   87.09    6.90
  -3   7   1   94.39    6.00
  -3   7   1   86.49    6.20
   3   7  -1   93.69    7.50
   3   7  -1   93.69    7.10
  -2  -7   1  123.39   10.70
  -2  -7   1  118.69    9.80
  -2   7   1  120.89    8.30
   2   7  -1  133.49    8.90
   2   7  -1  129.09    8.00
  -2   7   1  121.69    8.40
  -2   7   1  122.49    8.80
  -2   7   1  120.39    7.90
   2   7  -1  129.79    9.00
  -2   7   1  132.59    8.30
   2   7  -1  126.69    9.10
  -2   7   1  128.09    8.40
  -2   7   1  131.29    7.90
  -2   7   1  125.39    8.10
   2   7  -1  126.99    8.60
  -1  -7   1  147.99   10.80
  -1  -7   1  153.68   11.50
   1   7  -1  151.48    9.80
  -1   7   1  153.38    9.70
   1   7  -1  137.89   10.00
  -1   7   1  156.38    9.60
  -1   7   1  153.28    9.50
   1   7  -1  146.39    9.70
  -1   7   1  147.59    9.70
  -1   7   1  142.89    9.20
  -1   7   1  147.39    9.10
   1   7  -1  155.48   10.10
   1   7  -1  149.29    9.20
  -1   7   1  150.78    9.80
   0  -7   1  105.19    8.80
   0  -7  -1  110.09    9.80
   0   7  -1   95.89    7.40
   0   7   1  107.49    7.50
   0   7  -1   98.89    6.70
   0   7   1  100.39    7.40
   0   7   1  104.89    6.70
   0   7   1  103.79    7.40
   0   7   1  101.59    7.20
   0   7  -1   94.69    7.30
   0   7  -1  105.49    7.10
   0   7   1  106.79    7.20
   0   7  -1  112.99    7.40
   0   7   1  106.69    6.50
   1  -7   1   72.69    6.50
  -1  -7  -1   53.29    7.20
   1   7   1   59.49    4.80
  -1   7  -1   61.49    5.10
   1   7   1   56.99    4.30
   1   7   1   55.99    5.30
   1   7   1   60.69    5.80
  -1   7  -1   50.99    4.70
   1   7   1   54.49    5.30
  -1   7  -1   61.89    4.40
   1   7   1   60.59    5.50
  -2  -7  -1   81.99    9.70
   2  -7   1   91.79    7.80
   2   7   1   82.99    6.20
   2   7   1  102.19    7.60
  -2   7  -1   79.29    6.00
   2   7   1   98.19    7.20
  -2   7  -1   87.59    6.50
  -2   7  -1   94.69    6.40
   2   7   1   95.09    7.30
   2   7   1   92.09    7.00
  -2   7  -1   82.99    6.40
  -2   7  -1   98.99    6.10
  -3  -7  -1   41.10    6.80
  -3  -7  -1   47.20    7.20
   3   7   1   57.49    6.10
   3   7   1   45.10    5.50
   3   7   1   33.10    5.30
  -3   7  -1   46.00    3.40
  -3   7  -1   44.80    4.40
   3   7   1   37.90    6.10
   3   7   1   44.70    4.20
  -3   7  -1   45.40    3.80
  -3   7  -1   44.40    4.40
  -3   7  -1   53.09    3.90
  -4  -7  -1  556.04   31.30
  -4  -7  -1  515.25   34.00
  -4  -7  -1  509.75   34.60
   4   7   1  586.04   32.20
  -4   7  -1  522.15   31.50
   4   7   1  558.24   32.40
  -4   7  -1  528.45   31.60
  -4   7  -1  515.75   31.60
   4   7   1  570.64   32.30
   4   7   1  538.65   32.50
   4   7   1  517.05   32.00
  -4   7  -1  543.05   31.50
  -5  -7  -1   -0.10    4.80
  -5  -7  -1    0.00    5.20
  -5  -7  -1    2.90    1.40
   5   7   1    2.70    3.60
   5   7   1    1.30    3.20
  -5   7  -1    1.10    1.30
   5   7   1   -1.10    4.00
   5   7   1    4.80    3.20
   5   7   1    2.00    2.30
  -5   7  -1    1.80    1.90
  -5   7  -1    3.20    1.80
   6  -7   1   48.40    5.10
  -6  -7  -1   60.59    4.70
  -6  -7  -1   47.90    8.40
  -6  -7  -1   52.29    9.30
  -6   7  -1   55.69    5.20
   6   7   1   60.39    7.60
  -6   7  -1   56.99    5.00
   6   7   1   46.30    8.20
   6   7   1   51.99    7.80
   6   7   1   56.09    7.30
   6   7   1   59.79    6.10
   7  -7   1   22.20    4.70
  -7  -7  -1   16.90    7.90
   7  -7   1   16.40    3.10
  -7  -7  -1   18.80    2.60
  -7  -7  -1   15.60    7.10
  -7   7  -1   24.10    3.80
   7   7   1   16.70    3.90
   7   7   1   26.00    5.20
  -7   7  -1   19.10    2.80
   7   7   1   21.30    4.60
   7   7   1    8.10    4.60
  -8  -7  -1   79.59   12.00
  -8  -7  -1   72.19    7.60
   8  -7   1   59.59    8.00
   8  -7   1   51.99    6.70
  -8  -7  -1   71.59   10.70
  -8  -7  -1   64.39    6.10
   8   7   1   77.09    8.70
  -8   7  -1   64.79    5.70
  -8   7  -1   62.59    5.60
   8   7   1   67.79    8.50
   8   7   1   62.69    7.60
   8   7   1   50.69    8.90
   9  -7   1   10.40    3.40
   9  -7   1    8.20    4.50
  -9  -7  -1    6.90    3.80
  -9  -7  -1   13.60    8.20
  -9  -7  -1    7.10    2.80
   9   7   1    6.00    4.40
   9   7   1    3.60    4.60
   9   7   1   12.10    4.50
   9   7   1    8.80    4.80
  -9   7  -1    7.50    2.60
  -9   7  -1    9.20    2.40
 -10  -7  -1    8.40    7.80
 -10  -7  -1   12.90    4.10
  10  -7   1    9.10    3.30
  10  -7   1   18.60    5.30
 -10  -7  -1    9.40    3.20
  10   7   1   10.90    4.40
  10   7   1    8.40    4.00
 -10   7  -1   12.30    3.00
  10   7   1    7.30    4.10
  11  -7   1    0.20    2.90
 -11  -7  -1    0.00    2.70
 -11  -7  -1   -0.10    3.30
 -11  -7  -1    2.40    3.80
  11  -7   1   -1.50    4.30
  11   7   1    2.40    3.40
 -11   7  -1    2.20    2.30
  11   7   1    3.30    3.70
  12  -7   1   55.29    5.70
  12  -7   1   55.19    6.70
 -12  -7  -1   42.10    5.80
  12   7   1   46.40    6.10
 -12   7  -1   43.90    4.50
 -13   7  -1    1.40    1.70
  12  -8  -1   -0.80    3.40
 -12  -8   1   -2.70    2.70
  12  -8  -1   -2.60    2.50
 -12   8   1    3.30    2.20
  12   8  -1   -0.90    2.80
  11  -8  -1   -0.30    3.90
 -11  -8   1    2.40    2.70
 -11  -8   1    1.70    3.60
  11  -8  -1   -1.00    2.90
  11   8  -1    2.80    3.90
 -11   8   1    0.30    2.30
  10  -8  -1    7.00    4.90
 -10  -8   1    3.80    2.90
 -10  -8   1   -0.60    3.70
  10  -8  -1   -0.20    3.10
 -10  -8   1    9.70   12.50
  10   8  -1    1.60    4.30
  10   8  -1    0.40    4.40
 -10   8   1    1.70    2.50
  10   8  -1    1.30    4.30
   9  -8  -1    9.60    3.20
  -9  -8   1    2.10    2.60
   9  -8  -1    0.40    4.30
  -9  -8   1    3.70    6.90
  -9  -8   1    4.50    3.60
  -9   8   1    6.70    2.90
   9   8  -1    1.30    4.40
   9   8  -1    6.60    4.80
   9   8  -1    3.20    4.70
  -8  -8   1  180.38   18.00
  -8  -8   1  220.98   12.50
   8  -8  -1  165.98   12.90
   8   8  -1  193.68   15.00
  -8   8   1  193.68   12.40
   8   8  -1  174.58   14.40
   8   8  -1  211.28   15.30
   7  -8  -1  136.69   10.90
  -7  -8   1  153.88   16.90
  -7  -8   1  177.98   10.70
  -7  -8   1  182.98   16.20
   7   8  -1  172.58   13.70
   7   8  -1  174.18   13.50
  -7   8   1  172.88   10.60
   7   8  -1  141.59   13.30
   7   8  -1  160.48   12.90
  -7   8   1  170.88   10.80
  -6  -8   1  144.29    8.80
  -6  -8   1  133.79   15.10
  -6  -8   1  130.89   13.90
  -6  -8   1  127.89    8.90
   6   8  -1  110.19   11.80
   6   8  -1  109.89   10.80
  -6   8   1  137.79    8.80
  -6   8   1  148.89    9.00
   6   8  -1  123.09   11.40
  -5  -8   1    0.10    2.00
  -5  -8   1   -5.20    4.60
  -5  -8   1   -4.40    5.20
  -5  -8   1    0.00    1.50
  -5   8   1    2.10    1.90
   5   8  -1   -0.80    3.60
   5   8  -1    3.00    4.20
  -5   8   1   -0.20    2.00
  -5   8   1   -0.60    3.50
   5   8  -1    2.10    4.20
  -5   8   1   -1.90    2.30
   5   8  -1    1.10    3.40
  -5   8   1    0.90    1.40
  -4  -8   1   53.39    4.90
  -4  -8   1   55.69    4.20
  -4  -8   1   45.10    7.80
  -4  -8   1   57.99    8.80
   4   8  -1   48.60    6.60
  -4   8   1   55.89    4.70
   4   8  -1   51.39    7.00
  -4   8   1   50.89    4.20
  -4   8   1   57.29    5.90
   4   8  -1   58.29    7.80
  -4   8   1   55.09    5.00
   4   8  -1   65.39    7.40
  -3  -8   1   15.80    5.00
  -3  -8   1   22.40    6.00
  -3   8   1   16.40    2.30
   3   8  -1   22.70    4.00
   3   8  -1   17.80    3.70
  -3   8   1   16.50    2.50
   3   8  -1   12.20    3.20
  -3   8   1   17.60    3.40
  -3   8   1   17.80    2.70
   3   8  -1   17.70    2.50
  -3   8   1   12.60    2.30
   3   8  -1   18.50    3.70
  -3   8   1   17.00    2.80
  -2  -8   1  740.33   45.20
  -2  -8   1  764.02   44.70
  -2   8   1  732.23   42.60
  -2   8   1  703.53   43.00
  -2   8   1  682.73   43.00
   2   8  -1  753.42   43.50
  -2   8   1  751.72   42.90
  -2   8   1  742.53   42.80
   2   8  -1  761.72   42.70
  -2   8   1  692.93   42.80
   2   8  -1  792.62   43.30
   2   8  -1  729.43   43.50
  -2   8   1  712.53   43.20
   2   8  -1  751.52   43.00
   1  -8  -1  123.49   11.40
  -1  -8   1  112.99   10.60
  -1  -8   1  116.59    9.60
   1   8  -1  107.29    8.50
  -1   8   1  110.99    8.00
   1   8  -1  104.69    7.30
   1   8  -1  128.69    8.60
  -1   8   1  107.29    7.80
   1   8  -1  118.69    8.60
  -1   8   1  108.49    7.90
  -1   8   1  103.89    7.20
  -1   8   1  100.39    8.00
  -1   8   1  111.29    7.20
   1   8  -1  123.79    8.20
  -1   8   1  120.79    8.40
   0  -8   1    7.10    4.50
   0  -8   1   21.10    4.10
   0  -8  -1    3.40    4.70
   0   8  -1    5.10    1.80
   0   8   1    8.60    2.60
   0   8   1    5.70    2.10
   0   8   1    5.60    2.30
   0   8  -1    9.50    2.50
   0   8   1    7.00    1.60
   0   8   1    6.80    1.60
   0   8   1    4.00    2.20
   0   8  -1    6.10    2.30
   0   8  -1    6.60    2.60
   0   8   1    7.20    2.80
   0   8  -1    6.80    2.50
  -1  -8  -1  489.15   31.10
   1  -8   1  489.45   29.80
   1   8   1  476.35   27.80
   1   8   1  457.75   28.30
  -1   8  -1  485.75   28.30
  -1   8  -1  500.25   28.50
   1   8   1  467.55   28.70
   1   8   1  483.45   28.60
  -1   8  -1  466.35   28.40
  -1   8  -1  438.36   27.90
  -1   8  -1  485.65   28.20
   1   8   1  506.85   28.50
   1   8   1  476.25   28.10
  -2  -8  -1   90.69   11.20
  -2  -8  -1   91.59   10.40
  -2   8  -1   79.59    7.00
   2   8   1   97.49    8.40
  -2   8  -1   99.09    7.00
  -2   8  -1   96.29    6.40
   2   8   1   94.19    7.80
   2   8   1   86.99    7.30
   2   8   1   85.39    7.70
   2   8   1   92.69    7.60
   2   8   1   90.19    6.40
  -2   8  -1   95.09    6.90
  -3  -8  -1   33.50    7.80
  -3  -8  -1   39.90    7.10
  -3   8  -1   45.20    4.90
   3   8   1   46.30    4.40
   3   8   1   49.60    7.00
   3   8   1   47.90    6.50
   3   8   1   47.80    6.60
  -3   8  -1   50.99    4.40
  -3   8  -1   51.69    5.00
   3   8   1   41.70    6.30
  -4  -8  -1   60.29    8.80
  -4  -8  -1   46.70    8.60
  -4  -8  -1   53.59    3.90
  -4   8  -1   44.40    3.80
  -4   8  -1   47.90    5.10
   4   8   1   47.50    6.90
  -4   8  -1   51.59    4.60
   4   8   1   54.49    5.00
   4   8   1   47.40    6.70
  -4   8  -1   41.10    4.90
   4   8   1   49.40    7.60
   4   8   1   38.20    7.30
  -5  -8  -1  110.69   12.40
  -5  -8  -1  116.29    7.30
  -5  -8  -1   88.29   12.90
   5   8   1  104.49   10.20
  -5   8  -1  111.99    7.70
   5   8   1  105.79   10.40
   5   8   1  116.29    9.70
   5   8   1  107.19    9.60
   5   8   1  103.19    8.20
  -5   8  -1  103.89    7.90
  -6  -8  -1   10.20    7.30
   6  -8   1    8.80    2.40
   6  -8   1    7.90    3.80
  -6  -8  -1    5.10    2.00
  -6  -8  -1    1.60    7.30
  -6   8  -1    6.30    2.50
   6   8   1    7.60    3.20
   6   8   1    4.70    3.90
   6   8   1    4.50    5.00
   6   8   1   16.20    4.80
  -6   8  -1    6.20    2.50
   6   8   1    9.50    4.50
  -7  -8  -1    4.10    7.40
   7  -8   1    1.20    3.80
   7  -8   1    1.60    2.40
  -7  -8  -1    2.10    2.10
  -7  -8  -1    1.00    6.50
  -7   8  -1    2.00    2.40
   7   8   1   -1.90    4.30
   7   8   1   -1.80    4.30
   7   8   1   -0.90    3.10
  -7   8  -1    2.70    2.40
   7   8   1    7.90    4.70
   8  -8   1  144.19   11.10
  -8  -8  -1  148.29   11.60
  -8  -8  -1  169.78   17.00
  -8  -8  -1  171.68   10.70
   8  -8   1  140.49   12.00
   8   8   1  160.68   11.70
   8   8   1  141.49   12.90
  -8   8  -1  162.98   10.40
   8   8   1  146.69   13.40
  -8   8  -1  159.48   10.40
   8   8   1  162.78   12.90
  -9  -8  -1   44.40    9.70
   9  -8   1   28.60    6.10
  -9  -8  -1   45.10    7.10
   9  -8   1   39.20    7.10
  -9  -8  -1   28.80    3.90
   9   8   1   35.40    5.90
   9   8   1   45.50    8.30
  -9   8  -1   42.60    5.00
   9   8   1   48.30    7.80
   9   8   1   42.30    6.30
  10  -8   1   29.60    5.60
 -10  -8  -1   23.70    3.70
 -10  -8  -1   16.10    4.40
  10  -8   1   31.70    6.50
  10   8   1   26.40    4.80
  10   8   1   40.90    6.20
 -10   8  -1   31.30    4.40
  10   8   1   31.10    5.10
  11  -8   1    3.00    6.00
 -11  -8  -1    2.70    2.90
 -11  -8  -1    1.30    3.60
  11  -8   1    5.40    2.90
 -11  -8  -1    1.40    2.60
  11   8   1    4.20    3.40
 -11   8  -1    2.90    2.30
  11   8   1   -0.30    3.20
 -12  -8  -1   15.70    3.10
 -12   8  -1   22.90    3.20
 -12   9   1   48.10    4.10
 -11  -9   1   -1.10    2.40
 -11  -9   1    3.20    3.30
  11  -9  -1    0.10    4.00
  11  -9  -1    0.50    2.60
 -11   9   1    0.40    2.10
  11   9  -1   -1.60    3.10
 -10  -9   1   59.19    5.80
 -10  -9   1   41.40    7.00
  10  -9  -1   54.09    6.60
  10  -9  -1   51.99    7.20
 -10   9   1   53.99    5.40
  10   9  -1   49.20    7.80
  10   9  -1   46.80    7.70
  10   9  -1   61.29    7.90
   9  -9  -1   -2.00    3.80
  -9  -9   1    1.80    3.60
   9  -9  -1   -0.20    2.80
  -9  -9   1   -2.60    7.80
  -9  -9   1    0.00    2.60
   9   9  -1    3.50    4.50
   9   9  -1    4.40    4.60
   9   9  -1   -2.20    4.50
  -9   9   1   -2.10    2.50
  -7  -9   1    0.70    7.30
   7  -9  -1   -0.90    2.20
  -7  -9   1   -1.60    2.20
   7   9  -1    0.20    4.50
   7   9  -1    2.00    4.60
  -7   9   1   -1.90    2.50
   7   9  -1    6.30    5.30
   7   9  -1    0.20    5.60
  -6  -9   1   22.90    8.80
  -6  -9   1   -3.20    6.50
  -6  -9   1    0.20    2.00
   6   9  -1   -0.40    4.40
   6   9  -1   -3.50    4.80
  -6   9   1    0.50    2.40
  -6   9   1    2.60    1.80
   6   9  -1    0.80    5.10
   6   9  -1    2.10    4.10
  -5  -9   1   16.60    7.70
  -5  -9   1   14.00    7.00
  -5  -9   1   14.00    2.30
  -5  -9   1   18.40    2.80
   5   9  -1   14.80    5.10
   5   9  -1   30.00    5.60
   5   9  -1   18.60    4.40
  -5   9   1   20.50    2.90
  -5   9   1   26.20    4.20
   5   9  -1   23.80    5.40
  -4  -9   1   28.30    7.30
  -4  -9   1   25.50    6.70
  -4  -9   1   23.90    3.90
  -4  -9   1   22.30    3.20
   4   9  -1   20.10    4.30
  -4   9   1   23.20    3.00
   4   9  -1   24.30    4.90
   4   9  -1   27.10    5.30
  -4   9   1   24.10    4.20
  -4   9   1   25.10    4.00
   4   9  -1   25.80    4.60
  -3  -9   1   15.00    6.70
  -3  -9   1    9.20    5.40
  -3   9   1   16.90    2.60
   3   9  -1   19.60    4.20
  -3   9   1   16.60    2.80
  -3   9   1   12.60    2.90
  -3   9   1   15.80    2.50
   3   9  -1   18.60    4.50
   3   9  -1   15.30    4.70
   3   9  -1   15.00    4.20
  -3   9   1   27.20    4.70
  -2  -9   1   10.50    5.80
  -2  -9   1   10.60    5.00
   2  -9  -1    3.60    6.30
   2   9  -1    8.20    2.20
   2   9  -1   12.40    4.00
  -2   9   1   10.50    2.80
   2   9  -1    7.80    3.10
  -2   9   1   11.00    2.70
  -2   9   1    9.50    2.10
  -2   9   1   11.00    2.80
  -2   9   1   11.30    2.20
  -2   9   1   11.30    2.80
  -2   9   1    9.90    3.10
   2   9  -1    9.50    3.40
   2   9  -1   12.20    3.50
  -1  -9   1   -4.00    4.20
  -1  -9   1    4.40    5.60
   1   9  -1    9.80    2.30
   1   9  -1    9.90    2.90
   1   9  -1    9.50    3.10
   1   9  -1    5.90    3.60
   1   9  -1   11.30    3.30
   0  -9   1  298.97   21.40
   0   9  -1  325.17   19.20
   0   9   1  286.17   17.80
   0   9   1  313.67   18.80
   0   9   1  293.27   18.90
   0   9   1  314.77   18.60
   0   9   1  291.07   18.90
   0   9  -1  284.67   18.70
   0   9  -1  314.37   18.60
   0   9  -1  317.87   18.90
   0   9   1  281.07   18.00
   0   9  -1  303.37   18.00
  -1  -9  -1   77.39   11.30
  -1  -9  -1   56.59    9.40
   1   9   1   67.39    7.90
   1   9   1   58.29    4.80
   1   9   1   57.79    4.70
   1   9   1   58.19    6.50
  -1   9  -1   57.39    6.40
   1   9   1   67.19    7.00
  -1   9  -1   62.29    5.10
  -1   9  -1   57.19    6.10
  -1   9  -1   53.09    5.70
  -1   9  -1   62.79    6.50
   1   9   1   72.29    7.10
  -2  -9  -1  414.66   26.90
  -2  -9  -1  377.76   27.90
   2   9   1  413.36   24.20
   2   9   1  398.16   24.50
   2   9   1  383.76   23.50
   2   9   1  386.46   24.50
  -2   9  -1  399.46   23.80
  -2   9  -1  363.46   23.80
  -2   9  -1  399.16   23.70
  -2   9  -1  401.46   23.30
   2   9   1  398.46   24.20
  -3  -9  -1   42.20    9.50
  -3  -9  -1   49.50    8.60
  -3   9  -1   49.20    5.00
   3   9   1   44.60    7.90
   3   9   1   54.29    7.60
   3   9   1   56.19    4.80
  -3   9  -1   50.09    5.70
   3   9   1   55.89    7.60
   3   9   1   54.89    7.10
  -4  -9  -1   11.30    7.10
  -4  -9  -1   19.50    3.00
  -4  -9  -1    8.30    7.90
   4   9   1   12.80    4.50
  -4   9  -1   17.70    3.00
   4   9   1    8.00    4.70
   4   9   1   17.40    5.20
   4   9   1   18.00    4.50
  -4   9  -1   21.80    3.10
  -4   9  -1   24.50    3.30
   4   9   1   17.90    3.70
  -5  -9  -1    7.50    1.90
  -5  -9  -1    6.80    8.20
  -5  -9  -1   -3.10    6.90
   5   9   1   12.50    5.00
   5   9   1   10.50    5.00
   5   9   1    5.80    4.10
  -5   9  -1    9.70    2.70
  -5   9  -1   11.00    2.90
   5   9   1    9.70    5.20
   5   9   1    5.30    2.60
  -6  -9  -1    1.30    2.00
  -6  -9  -1    1.20    6.80
  -6  -9  -1   17.30    8.90
   6  -9   1    3.90    2.30
  -6   9  -1    0.70    2.50
   6   9   1    3.90    5.30
   6   9   1    4.10    4.40
   6   9   1    2.10    4.50
   6   9   1    3.90    5.10
   6   9   1   -0.90    2.60
  -6   9  -1   -0.20    2.60
  -7  -9  -1  204.68   18.70
  -7  -9  -1  214.78   13.20
   7   9   1  198.78   15.90
  -7   9  -1  206.78   13.20
   7   9   1  217.78   15.60
  -7   9  -1  202.58   13.40
   7   9   1  211.08   14.00
   7   9   1  197.88   15.70
  -8  -9  -1    1.90    3.70
   8  -9   1   -6.40    2.60
  -8  -9  -1   -6.10    7.80
  -8  -9  -1   -1.50    2.50
  -8   9  -1    3.10    2.60
   8   9   1   -1.10    4.90
   8   9   1    0.80    4.90
   8   9   1    1.00    4.50
  -9  -9  -1   -0.10    2.70
  -9  -9  -1    1.50    3.80
   9  -9   1    0.30    2.80
   9   9   1    2.10    4.00
  -9   9  -1    2.40    2.80
   9   9   1   -0.20    4.20
   9   9   1    0.10    4.40
 -10  -9  -1   22.60    4.90
 -10  -9  -1   17.40    4.40
  10  -9   1   26.10    5.00
  10   9   1   20.10    4.20
  10   9   1   22.30    4.60
 -10   9  -1   21.80    3.00
 -11  -9  -1   14.20    3.60
 -11  -9  -1    9.70    2.90
  11  -9   1   17.90    3.10
 -11  -9  -1   10.30    4.60
  11   9   1   14.50    3.50
 -11   9  -1   11.90    2.40
 -11 -10   1    5.70    2.80
  11 -10  -1    2.00    2.30
  11  10  -1    5.90    2.90
 -11  10   1    5.30    1.80
 -10 -10   1   20.20    3.90
  10 -10  -1   24.70    4.60
 -10 -10   1   19.60    4.20
  10  10  -1   17.80    4.20
  10  10  -1   19.90    4.30
 -10  10   1   20.20    3.70
  10  10  -1   20.10    4.30
  -9 -10   1    2.30    3.30
  -9 -10   1   -3.50    2.20
   9 -10  -1    1.30    2.70
   9  10  -1   -0.60    4.40
   9  10  -1   -3.60    4.00
   9  10  -1    0.40    4.00
  -9  10   1   -0.20    2.40
   8 -10  -1   94.29    7.90
  -8 -10   1   98.29    7.40
   8  10  -1   93.29   10.30
   8  10  -1  104.89   10.10
  -8  10   1   91.89    7.40
   8  10  -1  101.89   10.40
   7 -10  -1    5.40    2.80
  -7 -10   1    4.10    2.40
  -7 -10   1   -3.60    6.80
   7  10  -1   10.80    5.10
   7  10  -1    2.80    4.90
  -7  10   1    3.40    2.60
   7  10  -1    9.60    5.80
   7  10  -1    9.00    4.90
  -6 -10   1   22.10    4.20
  -6 -10   1   38.50    9.10
   6  10  -1   18.60    4.60
   6  10  -1   27.50    6.20
   6  10  -1   24.50    5.70
  -6  10   1   23.30    3.50
   6  10  -1   22.50    6.20
  -5 -10   1    0.80    6.90
  -5 -10   1   -0.90    9.00
  -5 -10   1    6.30    2.10
   5  10  -1    7.70    5.20
   5  10  -1    7.00    5.10
  -5  10   1    6.80    1.90
  -5  10   1    8.60    2.80
   5  10  -1    8.90    4.30
   5  10  -1   13.90    4.50
  -4 -10   1   53.09    5.80
  -4 -10   1   73.49    5.20
  -4 -10   1   71.89   12.30
  -4 -10   1   33.50   10.10
  -4  10   1   56.89    6.60
  -4  10   1   67.09    5.00
  -4  10   1   71.09    6.00
   4  10  -1   80.39   10.10
   4  10  -1   61.49    8.50
   4  10  -1   76.19    8.80
   4  10  -1   69.29    9.00
  -3 -10   1   44.10    8.10
  -3 -10   1   47.00    4.20
   3  10  -1   55.79    7.90
   3  10  -1   45.50    8.40
  -3  10   1   36.70    4.50
  -3  10   1   43.50    4.10
   3  10  -1   46.10    7.70
  -3  10   1   44.00    4.80
   3  10  -1   46.30    7.10
  -3  10   1   49.20    7.80
  -2 -10   1   21.20    6.60
  -2  10   1   19.70    3.40
   2  10  -1   21.70    4.30
   2  10  -1   33.20    4.90
  -2  10   1   26.00    3.90
  -2  10   1   32.40    5.80
   2  10  -1   18.80    4.70
  -2  10   1   27.00    5.30
  -2  10   1   22.90    3.40
   2  10  -1   17.40    3.90
   2  10  -1   15.40    2.80
  -2  10   1   26.20    4.20
   1 -10  -1   15.80    6.10
   1  10  -1   15.10    3.60
   1  10  -1   19.90    3.90
  -1  10   1   22.50    4.40
  -1  10   1   22.10    4.20
  -1  10   1   18.90    3.40
   1  10  -1   14.70    4.60
   1  10  -1   27.90    4.50
  -1  10   1   21.00    3.50
  -1  10   1   22.00    3.70
  -1  10   1   20.60    3.80
   1  10  -1   14.40    2.70
   0 -10  -1   72.59   11.50
   0 -10  -1   66.29   10.90
   0  10   1   80.89    7.80
   0  10   1   70.19    6.00
   0  10   1   87.29    8.80
   0  10   1   97.59    8.30
   0  10  -1   85.19    8.70
   0  10  -1   87.49    6.50
   0  10   1   87.29    8.00
   0  10  -1   87.19    8.20
   0  10  -1   78.79    7.50
  -1 -10  -1   46.20    7.80
  -1 -10  -1   39.50    9.40
   1  10   1   49.99    5.70
   1  10   1   24.70    4.80
  -1  10  -1   41.10    6.50
  -1  10  -1   41.80    4.60
   1  10   1   38.00    6.30
  -1  10  -1   42.30    7.00
  -1  10  -1   26.80    4.30
  -1  10  -1   43.40    5.50
   1  10   1   39.60    7.10
  -2 -10  -1    3.20    6.20
  -2 -10  -1   -4.00    7.40
   2  10   1    1.50    4.20
  -2  10  -1    2.50    2.90
   2  10   1    1.10    4.20
  -2  10  -1    1.80    3.20
   2  10   1    0.00    3.60
   2  10   1    2.00    3.30
  -2  10  -1    3.90    2.40
  -2  10  -1   -2.00    2.90
  -3 -10  -1   17.30    8.70
  -3 -10  -1    7.50    7.50
   3  10   1   15.60    4.70
   3  10   1   10.80    4.00
  -3  10  -1   21.70    3.60
   3  10   1   18.20    4.60
   3  10   1   16.60    4.90
  -3  10  -1   11.70    3.20
  -3  10  -1   19.80    3.20
  -4 -10  -1   13.30    7.80
  -4 -10  -1    8.40    8.50
  -4 -10  -1   12.40    2.00
   4  10   1    7.50    3.90
   4  10   1   10.10    4.90
  -4  10  -1    9.90    2.80
   4  10   1   11.10    5.10
   4  10   1    4.50    4.20
  -4  10  -1   10.70    3.10
  -5 -10  -1   62.09    5.00
  -5 -10  -1   38.50    9.80
   5  10   1   48.10    9.80
  -5  10  -1   57.09    6.50
   5  10   1   72.69    8.40
  -5  10  -1   52.79    5.70
   5  10   1   59.39    9.60
   5  10   1   44.90    9.50
  -6 -10  -1  281.57   24.80
   6 -10   1  284.97   19.80
  -6 -10  -1  336.67   19.10
   6  10   1  353.76   21.40
  -6  10  -1  347.97   19.40
   6  10   1  324.67   21.50
   6  10   1  306.97   21.20
  -6  10  -1  320.97   19.50
   6  10   1  266.37   21.10
   7 -10   1   26.40    5.00
  -7 -10  -1   31.40    4.70
  -7 -10  -1   33.00    9.60
   7  10   1   23.70    5.70
   7  10   1   18.20    4.60
   7  10   1   26.10    5.80
  -7  10  -1   31.20    4.80
   8 -10   1   73.79    6.90
  -8 -10  -1   84.19    6.80
  -8 -10  -1   67.69    8.00
  -8  10  -1   80.59    6.60
   8  10   1   69.79    9.60
   8  10   1   79.29   10.00
   8  10   1   83.79    9.10
  -9 -10  -1    1.60    3.40
   9 -10   1    0.40    2.50
  -9 -10  -1   -1.00    2.40
   9  10   1   -0.20    4.00
  -9  10  -1   -0.30    2.20
   9  10   1    2.60    3.80
   9  10   1    3.40    4.00
 -10 -10  -1   39.70    5.00
 -10 -10  -1   33.90    5.70
  10 -10   1   47.70    5.10
 -10  10  -1   39.60    4.20
  10  10   1   39.90    5.90
  10  10   1   46.60    6.50
  11 -10   1    0.20    2.00
 -11 -10  -1    1.70    3.10
 -11  10  -1    0.60    2.10
 -10 -11   1   18.90    3.20
 -10 -11   1   15.00    2.80
  10 -11  -1   15.80    2.70
  10  11  -1   12.70    3.30
 -10  11   1   17.10    3.10
  -9 -11   1    0.80    3.00
   9 -11  -1    0.60    2.20
  -9 -11   1    2.20    2.20
   9  11  -1    0.60    3.60
  -9  11   1    0.40    2.00
   9  11  -1   -0.30    3.40
   9  11  -1    5.30    3.80
   8 -11  -1   43.10    5.50
  -8 -11   1   43.50    4.90
   8  11  -1   48.10    7.90
   8  11  -1   54.99    6.40
   8  11  -1   44.50    7.80
  -8  11   1   44.00    4.80
  -7 -11   1    9.60    2.30
   7  11  -1    4.10    4.00
   7  11  -1   13.10    5.10
   7  11  -1   17.30    5.10
  -7  11   1   11.60    2.90
  -6 -11   1    2.00    2.10
   6  11  -1    0.90    4.80
  -6  11   1    0.60    2.50
   6  11  -1    1.70    5.10
   6  11  -1    2.10    5.10
   6  11  -1   -3.10    3.90
  -5 -11   1   20.00    3.60
   5  11  -1    7.30    5.70
   5  11  -1    1.40    4.00
  -5  11   1   10.10    2.80
   5  11  -1    7.60    4.10
   5  11  -1    1.80    5.10
  -4 -11   1    0.20    1.80
  -4  11   1    0.60    2.60
   4  11  -1    2.70    5.30
   4  11  -1   -3.70    4.00
   4  11  -1   -7.10    3.60
   4  11  -1    3.00    5.00
  -3 -11   1   17.40    3.30
  -3  11   1    7.30    2.70
   3  11  -1   10.50    4.60
   3  11  -1    8.40    5.40
   3  11  -1    9.10    4.80
   3  11  -1    4.60    4.40
  -3  11   1    7.70    3.20
   2  11  -1  161.88   12.30
  -2  11   1  151.88   10.40
   2  11  -1  185.68   12.80
   2  11  -1  164.68   13.30
  -2  11   1  155.58   11.80
  -2  11   1  160.08   11.40
   1  11  -1    6.30    3.70
  -1  11   1    6.90    2.30
   1  11  -1    7.60    4.30
   1  11  -1    6.70    2.70
  -1  11   1    5.40    4.00
   1  11  -1   10.10    4.70
   1  11  -1    8.50    4.20
  -1  11   1    4.80    3.50
  -1  11   1   11.10    3.30
  -1  11   1    8.40    3.60
   0  11  -1  101.39    8.60
   0  11   1   96.29    8.90
   0  11   1   99.39    9.30
   0  11  -1   88.69    8.30
   0  11   1   82.69    8.30
   0  11  -1   97.79    9.80
   0  11   1   83.79    9.80
   0  11  -1   89.89    7.10
   0  11  -1   94.69    9.30
  -1 -11  -1    8.60    7.20
   1  11   1    4.20    3.50
   1  11   1   -3.90    4.20
  -1  11  -1    1.70    3.40
  -1  11  -1    2.00    3.80
   1  11   1    3.00    3.80
   1  11   1    2.80    4.10
  -1  11  -1    1.00    2.60
  -1  11  -1    2.90    3.70
  -2 -11  -1   76.39   13.60
  -2  11  -1   94.49    8.40
   2  11   1   78.59   10.30
   2  11   1   85.99    9.50
  -2  11  -1   89.59    8.20
  -2  11  -1   94.69    7.20
   2  11   1   89.39    9.70
   2  11   1   94.29    9.00
  -3 -11  -1    0.60    2.10
  -3 -11  -1    0.30    7.60
   3  11   1    0.20    4.90
  -3  11  -1    0.70    3.20
   3  11   1    1.70    3.80
  -3  11  -1   -1.70    3.00
  -3  11  -1    2.60    2.80
   3  11   1    2.60    4.70
   3  11   1    4.80    4.50
  -4 -11  -1   -8.50    7.60
  -4 -11  -1    5.00    1.90
   4  11   1    8.10    4.70
   4  11   1    5.00    5.00
   4  11   1    8.80    5.00
  -4  11  -1    9.10    3.20
   4  11   1   11.20    5.30
  -4  11  -1    6.10    3.30
  -5 -11  -1   62.79    5.40
  -5 -11  -1   52.29   10.60
   5  11   1   70.49    9.70
   5  11   1   61.49   10.40
   5  11   1   64.39    9.80
   5  11   1   78.49    9.10
  -5  11  -1   66.39    6.10
  -5  11  -1   60.89    6.60
  -6 -11  -1   10.30    2.20
  -6  11  -1    9.40    2.80
   6  11   1    4.90    4.20
   6  11   1    8.80    5.40
   6  11   1    8.50    4.90
  -7 -11  -1    3.10    2.20
   7 -11   1    1.30    2.40
  -7 -11  -1    3.30    3.40
   7  11   1   -0.10    4.70
   7  11   1   -1.80    4.30
  -7  11  -1    5.50    2.80
   7  11   1    0.80    3.90
   8 -11   1   -0.60    2.20
  -8 -11  -1   -0.10    2.30
  -8 -11  -1   -2.10    3.10
  -8  11  -1   -1.00    2.50
   8  11   1    4.70    4.20
   8  11   1    3.70    4.10
   8  11   1   -5.10    3.30
  -9 -11  -1    8.60    3.20
   9 -11   1   11.10    2.50
  -9 -11  -1    6.70    2.40
   9  11   1   12.80    4.10
   9  11   1    4.10    3.20
  -9  11  -1   12.10    2.40
   9  11   1    9.40    3.60
 -10 -11  -1    4.00    3.70
  10 -11   1    5.90    2.20
  -9 -12   1    0.50    2.30
  -9 -12   1    1.50    1.80
   9  12  -1    3.50    2.90
  -8 -12   1    1.70    2.80
  -8 -12   1    2.40    1.90
   8 -12  -1    5.40    2.10
   8  12  -1   -0.50    3.40
   8  12  -1    5.20    3.70
   8  12  -1    1.90    3.30
  -8  12   1    0.20    2.00
  -7 -12   1    9.70    2.10
   7  12  -1   14.30    4.60
   7  12  -1    7.60    4.50
   7  12  -1   19.40    4.40
  -7  12   1    6.40    2.40
  -6 -12   1  158.48    9.50
   6  12  -1  136.89   11.90
   6  12  -1  161.28   12.80
   6  12  -1  126.99   11.80
   6  12  -1  142.69   11.70
  -6  12   1  141.39    9.60
  -5 -12   1    4.10    1.90
   5  12  -1    4.70    4.50
   5  12  -1    8.20    5.00
   5  12  -1    7.00    5.00
  -5  12   1    6.00    2.60
   5  12  -1   10.20    4.60
  -4 -12   1   58.49    4.80
   4  12  -1   54.59    8.60
   4  12  -1   56.09    7.80
   4  12  -1   44.90    6.60
   4  12  -1   48.70    8.20
  -4  12   1   53.09    5.30
  -3 -12   1   60.29    4.90
   3  12  -1   56.19    8.50
   3  12  -1   70.99    8.10
   3  12  -1   51.19    8.60
   3  12  -1   72.29    9.90
  -3  12   1   54.49    5.40
   2  12  -1   19.40    4.60
   2  12  -1   18.80    4.20
   2  12  -1   16.40    5.10
  -2  12   1   21.70    4.10
  -2  12   1    9.10    4.60
   2  12  -1   17.30    4.80
   1  12  -1   19.10    4.00
  -1  12   1   24.90    4.50
  -1  12   1   17.40    4.20
   1  12  -1   18.10    3.20
   1  12  -1   15.20    4.40
   1  12  -1   14.60    4.90
  -1  12   1   27.50    4.60
   1  12  -1   22.30    4.60
   0  12   1    7.40    4.30
   0  12  -1    1.90    3.70
   0  12  -1    2.80    2.50
   0  12   1    7.70    4.20
   0  12  -1   -3.40    3.70
   0  12   1    3.60    3.10
   0  12  -1    7.60    4.30
   0  12   1    8.20    4.00
   1  12   1  123.69   10.40
   1  12   1   92.09    9.40
  -1  12  -1   99.89    9.10
   1  12   1   81.69    9.80
  -1  12  -1   94.29    9.50
  -1  12  -1  105.69    8.80
  -1  12  -1   98.49    7.50
   1  12   1   82.69    8.60
   2  12   1    4.30    4.50
   2  12   1    4.50    4.60
  -2  12  -1    8.70    3.50
  -2  12  -1    6.00    3.60
   2  12   1   -2.30    4.60
  -2  12  -1    6.20    2.70
   2  12   1    4.60    3.90
  -3 -12  -1   35.80    3.70
   3  12   1   31.40    5.10
  -3  12  -1   26.70    4.80
  -3  12  -1   24.20    4.00
   3  12   1   27.10    5.20
   3  12   1   26.60    5.40
   3  12   1   35.60    5.90
  -4 -12  -1    9.50    2.00
  -4  12  -1   10.30    3.20
  -4  12  -1    7.80    3.20
   4  12   1   16.00    5.00
   4  12   1    3.40    5.00
   4  12   1    5.50    4.20
   4  12   1   10.90    4.80
  -5 -12  -1    3.30    1.80
   5  12   1    4.80    4.90
   5  12   1    6.00    4.80
   5  12   1    7.70    4.40
  -5  12  -1    3.60    2.70
   5  12   1    6.00    4.30
  -6 -12  -1   13.40    2.30
   6  12   1    7.70    4.30
   6  12   1   10.70    4.50
   6  12   1   12.60    4.50
  -6  12  -1   12.00    3.00
  -7 -12  -1    3.50    2.10
   7 -12   1    5.00    2.20
  -7 -12  -1    2.10    2.90
   7  12   1    1.50    4.00
   7  12   1    6.50    3.80
  -7  12  -1    4.70    2.40
   7  12   1   10.20    3.60
   8 -12   1    9.10    2.20
   8  12   1    6.00    3.20
   8  12   1    8.90    3.50
  -8  12  -1    3.40    2.10
   8  12   1    6.80    3.60
  -7 -13   1   21.90    3.20
  -7 -13   1   21.10    4.20
   7  13  -1   33.20    5.50
   7  13  -1   17.90    3.70
   7  13  -1   28.20    4.20
  -6 -13   1   20.70    3.10
   6  13  -1   22.30    4.40
   6  13  -1   29.00    4.80
   6  13  -1   24.00    4.40
  -5 -13   1  107.29    7.00
   5  13  -1  102.99    9.60
   5  13  -1  115.49    9.30
   5  13  -1   83.39    9.30
   5  13  -1  111.29    9.80
  -4 -13   1    6.80    1.70
   4  13  -1    8.10    4.60
   4  13  -1   11.10    3.80
   4  13  -1    7.40    4.10
   4  13  -1    4.00    4.40
  -3 -13   1    0.30    1.60
   3  13  -1   -2.50    3.30
   3  13  -1    3.30    4.20
   3  13  -1    8.10    3.90
   3  13  -1   -1.50    4.30
   2  13  -1   32.60    5.70
   2  13  -1   29.50    5.20
   2  13  -1   45.60    5.90
   2  13  -1   36.20    7.20
   1  13  -1    7.10    4.10
   1  13  -1    4.80    3.90
   1  13  -1    3.50    4.20
  -1  13   1    2.40    4.20
  -1  13   1    6.50    3.70
   0  13   1    2.20    3.80
   0  13  -1    3.50    3.90
   0  13   1    4.20    3.70
   0  13   1    6.10    3.80
   0  13  -1    4.40    3.90
   0  13  -1    3.90    3.90
   1  13   1   49.20    5.90
  -1  13  -1   35.70    5.00
  -1  13  -1   33.90    6.70
   1  13   1   46.20    7.50
   1  13   1   43.90    7.10
   1  13   1   37.20    7.10
  -1  13  -1   39.90    6.60
   2  13   1   38.70    7.30
  -2  13  -1   31.60    5.90
  -2  13  -1   37.90    4.80
   2  13   1   33.70    4.70
  -2  13  -1   35.10    4.90
   2  13   1   38.60    7.00
   2  13   1   45.70    7.80
  -3 -13  -1    4.20    1.50
   3  13   1    9.50    4.20
   3  13   1   -1.30    4.20
  -3  13  -1    3.30    2.40
   3  13   1    6.90    3.40
  -3  13  -1   -0.10    3.10
   3  13   1    8.60    4.40
  -4 -13  -1   35.40    3.30
   4  13   1   33.50    6.30
   4  13   1   38.40    7.20
   4  13   1   35.20    5.40
  -4  13  -1   27.20    4.50
  -5 -13  -1    1.50    1.60
   5  13   1    1.20    3.70
   5  13   1    1.20    3.20
   5  13   1    4.90    3.80
  -5  13  -1    2.90    2.30
  -6 -13  -1   17.80    3.10
  -6 -13  -1   17.60    3.00
   6  13   1   18.80    3.90
   6  13   1   10.50    3.80
   6  13   1   10.40    3.80
  -7 -13  -1   44.90    4.00
  -7 -13  -1   31.30    5.30
   7  13   1   44.50    5.70
   7  13   1   36.10    5.80
   7  13   1   42.40    5.60
  -5 -14   1   -1.00    1.20
   5  14  -1   -3.20    3.00
   5  14  -1    1.50    3.10
  -4 -14   1    5.30    1.40
   4  14  -1    1.90    3.50
   4  14  -1    5.40    3.40
   4  14  -1   -0.80    3.00
  -3 -14   1   -0.20    1.20
   3  14  -1   -2.10    3.40
   3  14  -1    2.00    3.60
   3  14  -1    2.10    3.50
   2  14  -1   -0.30    3.30
   2  14  -1    6.20    3.30
   2  14  -1    3.30    3.70
   1  14  -1    6.00    3.50
   1  14  -1    4.90    3.40
   1  14  -1    6.90    3.70
   0  14  -1    6.70    3.60
   0  14  -1    9.80    3.50
   0  14   1    5.90    3.50
  -1  14  -1    4.20    3.40
   1  14   1    3.80    5.10
   1  14   1    3.30    3.20
   1  14   1   -1.00    3.20
   2  14   1    5.10    3.40
   2  14   1    4.40    3.40
   2  14   1    5.10    3.50
   3  14   1   40.50    5.40
   3  14   1   33.30    6.10
   3  14   1   31.10    5.70
  -4 -14  -1   33.60    3.20
   4  14   1   43.50    5.80
   4  14   1   40.50    6.30
  15   0  -2    3.10    3.80
 -14   0   2    5.20    2.20
  14   0  -2   10.40    5.00
  13   0  -2    2.80    5.60
 -13   0   2   -0.10    2.40
 -12   0   2    7.70    5.60
 -12   0   2    5.20    2.70
  12   0  -2    2.60    5.70
 -11   0   2    1.10    2.00
  11   0  -2   -0.60    5.00
 -11   0   2   -7.20    6.10
 -11   0   2   -4.60    4.90
 -11   0   2   -1.10    2.10
  10   0  -2 2046.50  121.79
 -10   0   2 2135.89  124.49
 -10   0   2 1910.21  121.29
 -10   0   2 2160.68  121.39
  10   0  -2 2234.88  123.19
 -10   0   2 2192.18  123.89
   9   0  -2    0.20    3.80
  -9   0   2   -1.50    1.70
  -9   0   2   -2.60    4.20
   9   0  -2    0.40    2.30
  -9   0   2    2.00    1.70
  -9   0   2   -0.30    3.80
  -8   0   2  525.95   28.70
   8   0  -2  439.96   29.80
  -8   0   2  483.05   28.70
  -8   0   2  498.35   30.60
   8   0  -2  459.85   29.10
   8   0  -2  523.05   29.30
  -8   0   2  515.05   31.20
   7   0  -2    0.90    1.70
  -7   0   2   -0.60    1.10
  -7   0   2    0.90    1.20
   7   0  -2    1.20    2.60
  -7   0   2    2.70    2.80
  -7   0   2    2.50    2.90
  -6   0   2   16.50    1.90
   6   0  -2   17.50    3.00
  -6   0   2   13.60    3.10
  -6   0   2   15.70    3.60
  -5   0   2   -0.90    2.00
  -5   0   2   -0.60    1.80
  -4   0   2 2027.10  116.89
  -4   0   2 2018.10  116.99
  -3   0   2    0.70    1.30
  -3   0   2   -2.50    1.30
  -2   0   2    4.00    1.40
  -2   0   2    3.80    1.20
  -1   0   2   -0.30    0.70
  -1   0   2    0.10    0.60
   1   0   2    0.40    0.40
   1   0   2    0.00    0.50
  -2   0  -2 1948.11  120.59
  -2   0  -2 2248.48  120.69
  -3   0  -2    1.60    1.60
  -3   0  -2    0.20    1.40
  -4   0  -2  300.87   18.30
  -4   0  -2  291.67   18.10
  -5   0  -2    0.80    2.10
  -5   0  -2   -1.60    1.00
  -5   0  -2    2.30    2.40
   5   0   2    2.30    2.00
  -6   0  -2  921.71   53.09
  -6   0  -2  926.51   53.39
  -6   0  -2  907.71   51.69
   6   0   2  842.72   52.59
  -7   0  -2    1.70    3.40
   7   0   2   -0.30    2.60
   7   0   2    2.50    1.80
  -7   0  -2    0.10    2.80
  -7   0  -2    0.90    1.10
  -7   0  -2   -1.30    1.30
  -7   0  -2    0.50    1.60
   8   0   2  155.98   10.80
  -8   0  -2  175.88   10.20
  -8   0  -2  170.28   12.60
  -8   0  -2  166.38   10.60
   8   0   2  181.48   12.20
  -8   0  -2  153.68   10.30
  -8   0  -2  163.08   13.20
   9   0   2   -0.40    2.20
  -9   0  -2   -0.70    2.20
  -9   0  -2   -0.30    1.50
   9   0   2   -0.40    4.20
  -9   0  -2   -0.30    5.00
  -9   0  -2   -1.70    3.90
 -10   0  -2  107.39    8.40
 -10   0  -2  138.49    9.20
 -10   0  -2  133.29   14.00
 -10   0  -2  150.28   12.10
  10   0   2  149.19   12.20
 -11   0  -2    1.20    2.50
 -11   0  -2    4.50    5.40
 -11   0  -2    0.80    2.10
  11   0   2    4.30    5.60
 -12   0  -2    6.40    2.40
 -12   0  -2    9.50    2.30
  12   0   2   14.00    6.40
  13   0   2    8.80    5.60
  14   0   2   37.40    6.90
  15  -1  -2    3.10    4.00
  15   1  -2    8.10    3.80
 -14  -1   2   29.30    4.10
  14  -1  -2   22.60    5.40
 -14   1   2   25.80    4.10
  14   1  -2   24.50    5.70
  13  -1  -2    8.90    5.80
 -13   1   2    8.40    2.60
  13   1  -2   13.00    5.80
 -12  -1   2    6.30    2.70
 -12  -1   2   13.50    6.20
  12  -1  -2    4.00    5.40
 -12   1   2    5.70    5.10
  12   1  -2   14.50    5.80
 -12   1   2    8.20    2.50
 -11  -1   2    3.90    6.50
  11  -1  -2   15.80    3.40
 -11  -1   2   10.70    2.70
 -11  -1   2   10.20    2.60
  11  -1  -2   11.30    5.80
 -11  -1   2    6.40    5.60
 -11   1   2    2.30    6.30
 -11   1   2    3.10    5.00
  11   1  -2   14.00    6.00
 -11   1   2    9.00    2.40
 -10  -1   2    4.60    2.20
 -10  -1   2   -6.90    4.10
  10  -1  -2    4.70    4.90
  10  -1  -2    2.30    2.90
 -10  -1   2    2.80    2.20
 -10  -1   2    5.10    5.10
 -10   1   2   -2.20    4.30
 -10   1   2    1.80    2.10
  10   1  -2    2.60    4.40
 -10   1   2    1.60    1.70
 -10   1   2   -1.40    5.00
   9  -1  -2    5.40    2.60
  -9  -1   2    5.60    4.70
  -9  -1   2    6.30    2.10
  -9  -1   2   -0.80    3.70
  -9  -1   2    5.20    2.00
   9  -1  -2    4.00    4.00
  -9   1   2    2.40    3.70
   9   1  -2    9.00    3.10
  -9   1   2    5.50    4.40
   9   1  -2    3.30    2.40
  -9   1   2    5.00    1.60
  -9   1   2    2.40    1.70
   9   1  -2    5.20    4.10
  -8  -1   2   71.99    5.20
  -8  -1   2   66.89    5.30
   8  -1  -2   75.59    7.30
  -8  -1   2   79.39    7.70
   8  -1  -2   65.29    6.10
  -8  -1   2   66.79    8.10
  -8   1   2   76.99    8.10
  -8   1   2   71.89    5.00
   8   1  -2   74.29    6.40
  -8   1   2   80.19    7.50
   8   1  -2   72.09    7.00
   8   1  -2   70.99    6.00
  -8   1   2   73.09    5.10
   7  -1  -2    1.20    1.70
  -7  -1   2    0.70    2.90
  -7  -1   2    0.40    1.30
  -7  -1   2    0.20    1.30
  -7  -1   2   -0.20    3.10
   7   1  -2   -0.80    2.50
   7   1  -2   -0.60    1.90
   7   1  -2    1.60    1.80
  -7   1   2    1.00    1.20
  -7   1   2    1.10    2.80
  -7   1   2    0.60    2.50
  -6  -1   2   12.30    2.00
  -6  -1   2   14.10    3.30
   6  -1  -2   11.10    2.00
  -6  -1   2    9.60    3.40
   6   1  -2   18.60    3.50
  -6   1   2    9.00    1.40
  -6   1   2   13.90    3.00
  -6   1   2   13.40    3.30
  -6   1   2   12.30    1.70
  -5  -1   2   14.00    2.90
  -5  -1   2    8.80    2.50
  -5   1   2   14.90    2.70
  -5   1   2   17.40    3.00
  -4  -1   2  199.08   12.90
  -4  -1   2  202.98   12.80
  -4   1   2  199.68   12.60
  -4   1   2  201.58   12.80
  -3  -1   2  251.67   15.60
  -3  -1   2  266.27   15.50
  -3   1   2  249.08   15.50
  -3   1   2  244.48   15.30
  -2  -1   2  530.35   30.30
  -2  -1   2  542.35   30.20
  -2   1   2  488.75   30.10
  -2   1   2  502.95   30.20
  -1  -1   2 2906.11  166.28
  -1  -1   2 2997.40  166.38
  -1   1   2 2789.22  166.38
   0  -1   2  440.96   25.20
   0   1   2  434.06   25.40
   0   1  -2  446.66   25.30
   0   1   2  425.86   25.30
   1   1   2 1881.81  109.49
   1   1   2 1943.41  109.49
  -1   1  -2 1893.01  109.19
  -2  -1  -2   19.00    2.80
  -2   1  -2   17.90    1.90
   2   1   2   16.60    1.60
  -2   1  -2   18.40    2.00
  -3  -1  -2   98.49    6.70
  -3  -1  -2   85.59    6.40
  -3   1  -2   93.19    6.10
  -3   1  -2   90.79    6.20
  -4  -1  -2    0.30    2.10
  -4  -1  -2   -0.10    2.00
  -4   1  -2   -0.50    1.40
  -4   1  -2    0.50    1.60
  -5  -1  -2  328.67   20.80
  -5  -1  -2  328.57   20.60
   5  -1   2  293.67   20.00
  -5  -1  -2  347.87   19.50
  -5   1  -2  348.67   20.30
   5   1   2  305.97   20.10
  -5   1  -2  343.87   19.50
  -5   1  -2  361.06   20.60
   6  -1   2   14.40    3.10
  -6  -1  -2   10.90    1.80
   6  -1   2   14.10    3.20
  -6  -1  -2   17.20    3.00
  -6  -1  -2   15.10    4.00
  -6  -1  -2   12.70    3.50
   6   1   2    9.50    2.80
  -6   1  -2   14.50    1.90
  -6   1  -2   12.60    2.50
  -6   1  -2    9.00    2.80
  -6   1  -2   14.10    3.30
   7  -1   2   26.20    3.90
   7  -1   2   27.30    5.20
  -7  -1  -2   27.20    2.60
  -7  -1  -2   21.60    5.00
  -7  -1  -2   34.70    3.60
  -7  -1  -2   32.50    3.80
  -7  -1  -2   23.50    3.30
  -7  -1  -2   28.20    4.90
  -7   1  -2   29.20    2.80
  -7   1  -2   27.40    2.90
  -7   1  -2   29.60    4.60
  -7   1  -2   20.80    4.40
  -7   1  -2   31.20    3.60
   7   1   2   29.30    5.00
   8  -1   2  374.56   23.00
  -8  -1  -2  351.46   23.60
  -8  -1  -2  334.37   21.50
  -8  -1  -2  360.16   21.70
  -8  -1  -2  364.16   21.30
   8  -1   2  346.17   21.90
  -8  -1  -2  374.76   24.40
   8   1   2  373.66   23.00
  -8   1  -2  359.36   23.70
  -8   1  -2  381.86   21.30
  -8   1  -2  359.46   21.60
  -8   1  -2  374.66   23.20
  -9  -1  -2   16.60    2.90
   9  -1   2   18.20    3.10
  -9  -1  -2   14.20    2.50
  -9  -1  -2   15.60    5.80
   9  -1   2    9.70    4.50
  -9  -1  -2   18.20    2.20
  -9  -1  -2   14.10    4.80
  -9   1  -2   14.10    2.60
  -9   1  -2   13.40    5.40
  -9   1  -2   14.10    2.10
  -9   1  -2   16.60    4.50
   9   1   2   13.00    4.80
  10  -1   2  130.49    9.20
 -10  -1  -2  112.19   13.70
 -10  -1  -2  126.59   12.10
 -10  -1  -2  119.79    9.30
 -10  -1  -2  121.89    8.30
  10  -1   2  149.09   11.80
 -10   1  -2  117.49   14.10
 -10   1  -2  126.59    8.40
  10   1   2  136.79   11.90
 -10   1  -2  116.49   11.20
 -10   1  -2  123.19    8.80
  11  -1   2    0.30    5.50
 -11  -1  -2    3.00    2.20
 -11  -1  -2    2.50    5.50
 -11  -1  -2    6.10    2.70
 -11   1  -2    4.20    2.10
 -11   1  -2    3.20    2.40
  11   1   2    8.90    5.60
  12  -1   2   47.80    9.20
 -12  -1  -2   31.50    5.10
 -12  -1  -2   33.80    8.30
 -12   1  -2   40.90    4.40
  12   1   2   44.70    8.30
 -12   1  -2   33.80    4.60
 -13  -1  -2   -0.20    2.10
  13  -1   2    1.20    5.30
 -13   1  -2    1.30    2.10
  13   1   2    2.00    5.10
 -13   1  -2    1.00    2.10
  14  -1   2   22.00    5.10
 -14  -1  -2    9.60    2.10
  14   1   2   12.40    4.10
  15  -2  -2    7.50    3.90
 -14  -2   2    8.80    2.20
  14  -2  -2   17.40    5.90
  14   2  -2    9.70    4.20
 -14   2   2    9.70    2.40
 -13  -2   2    1.20    2.30
  13  -2  -2    2.90    5.90
 -13   2   2    1.50    2.50
  13   2  -2    0.30    5.00
  12  -2  -2   79.39    7.20
 -12  -2   2   89.09   10.90
  12  -2  -2   88.89   10.60
 -12  -2   2   69.89    6.20
 -12  -2   2   56.09    6.20
 -12   2   2   73.99    6.20
  12   2  -2   73.49    9.50
 -12   2   2   70.29    9.50
 -11  -2   2  134.39   15.80
  11  -2  -2  175.38   14.00
 -11  -2   2  137.79   10.60
  11  -2  -2  181.38   11.90
 -11  -2   2  133.69   14.10
 -11  -2   2  154.58   10.40
  11   2  -2  163.48   13.30
 -11   2   2  154.38   15.30
 -11   2   2  162.58   13.10
 -11   2   2  160.58   10.50
  10  -2  -2 1003.30   61.29
 -10  -2   2 1050.49   60.59
 -10  -2   2 1050.19   63.39
  10  -2  -2 1137.69   62.69
 -10  -2   2 1083.19   64.29
 -10  -2   2  971.10   60.69
  10   2  -2 1059.49   62.29
  10   2  -2 1119.69   61.59
 -10   2   2  989.10   60.59
 -10   2   2 1041.20   62.69
 -10   2   2 1028.90   63.49
  -9  -2   2   40.20    7.40
  -9  -2   2   43.70    4.30
   9  -2  -2   35.50    5.60
   9  -2  -2   52.09    7.30
  -9  -2   2   34.90    4.90
  -9  -2   2   53.29    8.20
   9   2  -2   48.90    6.40
  -9   2   2   37.70    4.00
   9   2  -2   33.10    6.50
  -9   2   2   57.09    8.00
  -9   2   2   48.80    6.90
  -8  -2   2  331.07   19.50
   8  -2  -2  293.27   20.00
  -8  -2   2  345.17   21.90
  -8  -2   2  329.77   19.60
  -8  -2   2  350.46   22.50
  -8  -2   2  307.27   19.30
  -8   2   2  370.86   22.20
   8   2  -2  296.77   20.80
   8   2  -2  378.06   20.60
  -8   2   2  352.06   21.40
  -8   2   2  308.47   19.40
  -8   2   2  347.67   19.50
   7  -2  -2  163.38   12.00
  -7  -2   2  182.08   11.30
  -7  -2   2  184.98   14.00
  -7  -2   2  193.68   11.60
  -7  -2   2  197.28   11.50
  -7  -2   2  201.38   13.60
  -7   2   2  188.18   11.60
   7   2  -2  201.78   12.50
  -7   2   2  201.08   11.50
   7   2  -2  168.88   12.60
  -7   2   2  206.18   13.10
  -7   2   2  206.88   13.60
  -6  -2   2    7.90    3.20
   6  -2  -2    8.30    1.80
  -6  -2   2    9.30    1.80
  -6  -2   2   11.40    3.50
   6   2  -2    6.90    2.40
   6   2  -2    9.70    2.20
   6   2  -2   11.50    2.80
  -6   2   2   11.20    1.70
  -6   2   2   10.40    2.80
  -6   2   2   10.00    1.50
  -6   2   2    8.10    2.90
  -5  -2   2  548.55   33.10
  -5  -2   2  558.64   33.40
  -5   2   2  554.84   32.90
  -5   2   2  542.25   33.10
  -4  -2   2 1237.08   69.89
  -4  -2   2 1218.08   69.69
  -4   2   2 1177.08   69.69
  -4   2   2 1152.08   69.39
  -3  -2   2    4.60    1.70
  -3  -2   2    6.30    2.00
  -3   2   2    4.50    1.60
  -3   2   2    4.60    1.40
  -2  -2   2 2887.91  156.88
  -2  -2   2 2861.61  156.98
  -2   2   2 2482.15  156.68
  -2   2   2 2680.53  156.78
  -1  -2   2  298.17   17.70
  -1  -2   2  311.67   17.70
  -1   2   2  290.47   17.70
  -1   2   2  298.17   17.70
   0   2  -2 9999.00  574.34
   1   2   2   81.59    5.20
   1   2   2   79.89    5.30
  -2  -2  -2  333.57   19.40
   2   2   2  305.67   18.80
  -2   2  -2  322.17   18.50
  -3  -2  -2  434.76   25.40
  -3  -2  -2  431.66   25.60
  -3   2  -2  403.76   24.80
  -3   2  -2  426.36   24.70
  -4  -2  -2  319.47   20.70
  -4  -2  -2  331.27   20.40
  -4   2  -2  333.67   19.80
  -4   2  -2  334.87   19.90
  -5  -2  -2 1447.96   82.19
  -5  -2  -2 1450.65   82.49
  -5  -2  -2 1433.76   80.89
  -5  -2  -2 1441.66   80.79
   5   2   2 1299.77   81.49
  -5   2  -2 1335.47   80.89
  -5   2  -2 1426.06   81.79
   5   2   2 1483.45   81.89
  -5   2  -2 1346.67   80.79
  -5   2  -2 1415.06   81.59
   6  -2   2  964.50   59.69
  -6  -2  -2 1058.89   60.49
  -6  -2  -2 1058.79   58.89
  -6  -2  -2 1044.30   58.79
  -6  -2  -2 1082.09   60.99
   6  -2   2  919.91   59.09
  -6   2  -2 1021.20   58.79
  -6   2  -2 1046.00   59.79
   6   2   2 1010.50   59.29
   6   2   2  937.71   59.59
  -6   2  -2 1100.89   60.09
  -6   2  -2 1031.30   58.89
  -7  -2  -2   82.59    5.80
  -7  -2  -2   65.89    4.50
  -7  -2  -2   67.09    8.50
   7  -2   2   59.29    5.80
  -7  -2  -2   74.09    8.00
   7  -2   2   68.59    6.90
  -7  -2  -2   64.39    5.10
   7   2   2   67.19    6.80
  -7   2  -2   68.59    7.00
   7   2   2   70.99    5.60
  -7   2  -2   51.79    6.00
  -7   2  -2   66.49    5.10
  -7   2  -2   70.09    4.70
  -8  -2  -2   81.59    7.20
  -8  -2  -2  101.29    7.80
  -8  -2  -2   90.79   10.80
  -8  -2  -2  103.39    6.60
   8  -2   2  103.29    7.70
   8  -2   2  114.79    9.10
  -8  -2  -2   91.69    7.10
  -8  -2  -2   99.19   10.00
  -8   2  -2  105.29    7.10
  -8   2  -2  104.69    9.30
  -8   2  -2  110.59    6.80
  -8   2  -2  114.79    8.60
   8   2   2   94.19    8.90
  -9  -2  -2  156.78    9.80
  -9  -2  -2  174.78   13.80
   9  -2   2  175.48   12.40
  -9  -2  -2  144.89   10.80
  -9  -2  -2  136.09   10.30
  -9  -2  -2  153.48   14.60
   9  -2   2  148.39   10.90
  -9   2  -2  156.88   12.10
  -9   2  -2  161.58   10.30
  -9   2  -2  171.08   10.00
   9   2   2  160.18   12.60
  -9   2  -2  169.08   13.80
  10  -2   2    3.40    2.80
  10  -2   2    0.90    5.10
 -10  -2  -2    4.20    5.20
 -10  -2  -2   -5.40    6.00
 -10  -2  -2    0.60    2.70
 -10   2  -2   -0.50    2.00
  10   2   2    4.70    4.90
 -10   2  -2    0.40    2.10
 -11  -2  -2    5.50    3.20
  11  -2   2   13.20    3.20
  11  -2   2    4.50    6.00
 -11  -2  -2   -0.40    5.70
  11   2   2    5.30    5.30
 -11   2  -2    6.10    2.30
 -11   2  -2   12.40    2.70
 -12  -2  -2    3.50    2.70
  12  -2   2    6.40    6.10
 -12  -2  -2    0.50    6.90
 -12   2  -2    1.10    2.20
  12   2   2   -2.00    4.90
 -12   2  -2   -0.80    2.10
  13  -2   2    5.50    5.20
 -13  -2  -2   -0.30    2.20
 -13   2  -2    2.10    1.90
  13   2   2    2.00    4.80
 -13   2  -2   -0.10    2.00
 -14  -2  -2    3.70    1.90
  14  -2   2    1.10    3.90
  14   2   2    3.20    3.70
  14  -3  -2    4.80    4.90
 -14   3   2    7.10    2.20
  14   3  -2   12.30    3.80
  13  -3  -2    6.70    5.70
 -13  -3   2    9.80    2.50
  13  -3  -2    6.20    3.00
 -13  -3   2    7.40    3.10
 -13   3   2   11.10    2.70
  13   3  -2    8.10    4.30
  12  -3  -2   17.90    3.80
  12  -3  -2   15.70    6.10
 -12  -3   2   15.50    2.90
 -12  -3   2   17.80    6.60
 -12  -3   2   21.70    3.30
 -12   3   2   21.30    3.30
 -12   3   2   12.90    5.90
  12   3  -2   21.10    5.60
 -11  -3   2    3.60    2.40
 -11  -3   2   -0.40    5.30
  11  -3  -2    6.20    3.50
  11  -3  -2   -0.50    5.20
 -11  -3   2    1.50    2.80
 -11  -3   2   18.40    8.60
  11   3  -2   -0.20    4.50
 -11   3   2   -3.40    4.30
 -11   3   2    0.80    2.40
 -11   3   2   -6.60    7.10
 -10  -3   2   16.40    6.40
 -10  -3   2    9.90    3.20
 -10  -3   2   12.20    2.60
  10  -3  -2   18.90    3.60
 -10  -3   2   22.50    7.10
  10  -3  -2   15.60    5.70
 -10   3   2   11.30    5.70
  10   3  -2   22.60    5.60
  10   3  -2   24.10    4.50
 -10   3   2   15.20    2.60
 -10   3   2   26.10    5.40
  -9  -3   2  227.18   14.80
  -9  -3   2  215.08   14.20
  -9  -3   2  261.57   18.50
  -9  -3   2  237.88   17.50
  -9  -3   2  240.88   14.40
   9  -3  -2  260.37   16.90
   9  -3  -2  217.58   15.30
  -9   3   2  238.78   14.40
   9   3  -2  263.17   16.00
  -9   3   2  239.88   17.40
  -9   3   2  249.48   16.60
   9   3  -2  220.08   16.20
  -8  -3   2   60.99    8.70
   8  -3  -2   56.09    6.10
  -8  -3   2   60.49    5.00
  -8  -3   2   69.59    9.30
  -8  -3   2   66.29    5.50
  -8  -3   2   66.69    4.90
  -8   3   2   64.99    7.70
  -8   3   2   75.29    7.00
   8   3  -2   61.09    6.90
  -8   3   2   66.29    4.90
   8   3  -2   78.59    7.00
  -7  -3   2    5.90    4.10
  -7  -3   2    9.70    1.70
  -7  -3   2    9.00    1.50
   7  -3  -2   13.40    2.40
  -7  -3   2    5.50    3.90
   7   3  -2   12.30    3.00
  -7   3   2   10.30    1.70
   7   3  -2    5.70    2.10
  -7   3   2   10.60    3.80
  -7   3   2   10.10    2.20
   7   3  -2   12.40    3.50
   7   3  -2   16.50    3.00
  -7   3   2   14.60    3.40
   6  -3  -2  855.21   54.59
  -6  -3   2  976.90   56.39
  -6  -3   2  969.80   54.29
  -6  -3   2  990.70   56.09
  -6  -3   2  950.50   54.19
   6   3  -2  904.21   54.59
   6   3  -2  981.00   54.69
  -6   3   2  986.60   55.89
  -6   3   2  947.91   54.29
   6   3  -2  850.01   54.99
  -6   3   2  959.10   54.59
   6   3  -2  930.71   54.99
  -6   3   2  968.30   55.49
  -5  -3   2  130.09    9.50
  -5  -3   2  125.39    7.70
  -5  -3   2  112.79    9.70
  -5  -3   2  131.19    7.60
  -5   3   2  119.39    7.70
  -5   3   2  122.89    7.90
   5   3  -2  124.29    8.60
  -5   3   2  134.39    8.80
  -5   3   2  134.69    9.20
   5   3  -2  129.89    9.10
  -4  -3   2 1820.22  103.99
  -4  -3   2 1810.42  104.29
  -4   3   2 1755.82  103.59
  -4   3   2 1783.32  103.79
  -3  -3   2   91.89    6.60
  -3  -3   2  100.79    6.90
  -3   3   2   83.69    6.30
  -3   3   2   89.89    6.20
  -2  -3   2 2166.78  119.19
  -2  -3   2 2119.39  118.99
  -2   3   2 1971.50  118.79
  -2   3   2 2001.00  118.89
  -1  -3   2   52.29    3.90
  -1  -3   2   55.99    4.00
  -1   3   2   54.69    4.00
  -1   3   2   48.80    3.80
   0  -3   2 1774.12  100.99
   0  -3   2 1796.92  101.09
   0   3   2 1699.33  101.19
   1  -3   2  741.83   42.50
   1   3   2  740.13   42.90
   1   3   2  730.93   42.80
  -2  -3  -2  433.56   26.20
   2   3   2  445.96   25.60
  -2   3  -2  426.86   25.10
  -3  -3  -2   25.30    3.90
  -3   3  -2   28.50    2.20
  -4  -3  -2  462.25   26.80
  -4  -3  -2  457.65   27.20
  -4   3  -2  436.06   25.60
   4   3   2  442.86   25.80
  -4   3  -2  422.76   25.50
   4   3   2  405.16   27.00
   5  -3   2   21.20    3.50
  -5  -3  -2   20.10    4.20
  -5  -3  -2   17.50    4.40
  -5  -3  -2   21.00    2.20
   5  -3   2   16.10    3.00
   5   3   2   18.90    2.70
   5   3   2   24.00    3.70
   5   3   2   16.50    3.10
  -5   3  -2   17.50    2.20
  -5   3  -2   14.80    2.30
  -5   3  -2   23.40    2.70
  -5   3  -2   17.10    2.50
  -6  -3  -2   16.60    2.70
  -6  -3  -2   17.30    2.40
  -6  -3  -2   10.20    4.30
   6  -3   2   17.90    3.50
   6  -3   2   12.70    2.30
  -6  -3  -2   12.00    4.60
  -6   3  -2   15.80    2.70
  -6   3  -2   15.90    2.60
   6   3   2   17.00    3.30
   6   3   2   15.80    2.50
   6   3   2   13.90    2.90
  -6   3  -2   20.20    2.60
  -6   3  -2   15.40    2.10
   6   3   2   11.20    2.40
   7  -3   2  245.58   16.70
  -7  -3  -2  250.87   18.00
  -7  -3  -2  278.57   18.70
   7  -3   2  240.68   15.90
  -7  -3  -2  249.08   15.60
  -7  -3  -2  272.47   15.30
  -7   3  -2  262.17   16.50
  -7   3  -2  249.48   15.20
  -7   3  -2  256.17   15.40
   7   3   2  258.37   16.70
   7   3   2  269.77   16.00
  -7   3  -2  242.88   16.10
   7   3   2  234.38   15.60
   7   3   2  266.17   16.20
  -8  -3  -2  233.58   15.30
  -8  -3  -2  224.88   18.70
  -8  -3  -2  233.58   14.80
   8  -3   2  235.88   15.40
  -8  -3  -2  247.38   17.90
   8  -3   2  252.97   16.70
   8   3   2  245.28   16.50
  -8   3  -2  258.37   16.00
   8   3   2  254.57   15.60
  -8   3  -2  243.48   14.60
  -8   3  -2  242.48   14.80
  -8   3  -2  243.18   16.60
  -9  -3  -2   23.20    6.40
  -9  -3  -2   30.20    7.30
  -9  -3  -2   16.70    3.10
  -9  -3  -2   24.40    3.90
   9  -3   2   23.20    5.50
   9  -3   2   27.50    5.20
  -9  -3  -2   24.70    4.70
  -9   3  -2   24.60    3.60
  -9   3  -2   25.30    4.00
   9   3   2   26.40    5.40
 -10  -3  -2   87.69    8.20
 -10  -3  -2   84.79   11.40
  10  -3   2   95.69    7.80
  10  -3   2  102.79   10.20
 -10  -3  -2   84.09   13.40
 -10  -3  -2   72.09    7.10
 -10   3  -2   91.39    6.60
  10   3   2   93.39   10.00
 -10   3  -2   87.19    6.80
  11  -3   2   12.40    3.40
 -11  -3  -2    6.00    3.30
 -11  -3  -2   -1.00    5.60
  11  -3   2    9.10    5.70
 -11   3  -2    5.60    2.30
  11   3   2   13.70    5.50
 -11   3  -2    8.80    2.60
 -12  -3  -2   44.90    6.10
  12  -3   2   70.99    9.00
  12  -3   2   65.59    6.10
 -12   3  -2   50.69    5.20
  12   3   2   68.19    8.70
 -12   3  -2   58.99    5.30
  13  -3   2   -2.30    4.70
 -13  -3  -2   -0.50    2.20
 -13   3  -2   -0.90    1.90
  13   3   2   -0.30    4.00
 -13   3  -2   -0.20    1.80
  14  -3   2   48.50    6.30
  14   3   2   35.70    6.00
  14  -4  -2    7.20    4.60
  14   4  -2   11.30    3.50
 -14   4   2    5.30    2.20
 -13  -4   2    1.20    2.10
 -13  -4   2    3.70    2.50
  13  -4  -2    2.90    5.30
  13  -4  -2   -1.90    2.70
  13   4  -2    0.70    3.80
 -13   4   2   -0.80    2.10
 -12  -4   2   63.79    5.80
 -12  -4   2   77.79   11.50
  12  -4  -2   80.39   10.60
 -12  -4   2   63.79    6.70
  12  -4  -2   79.89    7.80
  12   4  -2   65.19    8.70
 -12   4   2   70.09    6.20
  11  -4  -2    2.20    6.00
 -11  -4   2    5.70    6.00
 -11  -4   2    2.70    2.30
 -11  -4   2    3.20    3.20
  11  -4  -2    1.20    3.40
  11   4  -2    2.50    4.10
 -11   4   2    1.70    4.90
 -11   4   2    1.10    2.50
  11   4  -2   -0.40    4.40
  10  -4  -2   52.59    7.00
  10  -4  -2   51.99    9.10
 -10  -4   2   42.50    5.50
 -10  -4   2   41.80    8.70
 -10  -4   2   59.49    9.40
 -10  -4   2   44.90    6.60
 -10  -4   2   46.00    5.00
 -10   4   2   43.20    7.70
 -10   4   2   42.60    7.60
  10   4  -2   50.49    8.10
 -10   4   2   53.69    5.10
  10   4  -2   44.10    7.60
  -9  -4   2    6.30    5.30
  -9  -4   2   -1.60    5.10
  -9  -4   2    0.20    1.90
   9  -4  -2    1.10    2.70
  -9  -4   2    3.60    2.20
  -9  -4   2    2.60    2.60
   9  -4  -2   -2.50    4.60
  -9   4   2   -0.60    1.90
  -9   4   2    9.60    4.80
   9   4  -2    4.00    3.90
   9   4  -2   -0.30    3.80
  -9   4   2    2.80    3.50
  -8  -4   2  185.98   11.90
  -8  -4   2  183.28   15.10
  -8  -4   2  199.28   11.80
   8  -4  -2  188.98   12.60
  -8  -4   2  195.28   15.90
  -8   4   2  197.68   14.30
   8   4  -2  180.18   12.50
   8   4  -2  199.98   13.60
  -8   4   2  204.98   13.60
  -8   4   2  213.48   12.10
   8   4  -2  172.18   13.30
   8   4  -2  171.48   12.50
  -8   4   2  197.28   11.90
   7  -4  -2  175.68   11.70
  -7  -4   2  187.08   11.00
  -7  -4   2  194.48   11.20
  -7  -4   2  182.98   13.80
  -7  -4   2  178.68   14.30
  -7   4   2  180.08   11.10
  -7   4   2  194.28   11.30
   7   4  -2  169.78   11.70
   7   4  -2  156.28   12.20
   7   4  -2  166.98   11.70
  -7   4   2  201.48   13.20
   7   4  -2  188.28   12.50
   7   4  -2  170.58   12.50
  -7   4   2  190.28   12.60
  -6  -4   2   19.20    2.70
  -6  -4   2   15.60    4.60
  -6  -4   2   11.40    4.10
  -6  -4   2   11.80    2.30
  -6   4   2    5.50    2.50
  -6   4   2   16.60    2.40
   6   4  -2    9.80    2.70
  -6   4   2   12.30    2.00
   6   4  -2   11.50    2.40
   6   4  -2   15.60    3.40
   6   4  -2   15.10    2.40
  -6   4   2   17.30    3.40
   6   4  -2   11.60    3.10
  -5  -4   2 3356.26  193.38
  -5  -4   2 3379.76  194.78
  -5  -4   2 3395.76  195.18
  -5  -4   2 3328.77  193.28
  -5   4   2 3494.05  194.18
  -5   4   2 3374.06  194.48
  -5   4   2 3354.16  193.38
   5   4  -2 3282.17  193.98
   5   4  -2 3187.48  193.48
   5   4  -2 3553.84  193.58
  -4  -4   2  938.11   51.99
  -4  -4   2  875.11   51.59
   4   4  -2  902.61   50.49
  -4   4   2  899.41   51.29
   4   4  -2  836.82   50.89
  -4   4   2  874.21   50.39
   4   4  -2  833.42   50.69
  -4   4   2  885.71   51.09
  -4   4   2  833.92   50.49
  -3  -4   2   51.99    5.30
  -3  -4   2   47.30    4.90
  -3   4   2   49.50    4.30
  -3   4   2   49.70    4.10
  -2  -4   2  347.57   20.10
  -2  -4   2  348.77   20.30
  -2   4   2  313.27   19.70
  -2   4   2  319.67   19.90
  -1  -4   2  273.87   16.80
  -1  -4   2  292.87   17.00
  -1   4   2  275.07   16.80
  -1   4   2  271.07   16.60
   0  -4   2    5.60    1.30
   0  -4   2    5.40    1.40
   0   4   2    5.20    1.30
   0   4   2    8.90    1.70
   1  -4   2  276.47   16.00
   1   4   2  273.07   16.40
   1   4   2  262.47   16.20
  -2  -4  -2  301.97   19.00
   2   4   2  298.67   18.00
  -3  -4  -2  252.87   15.90
  -3   4  -2  240.68   14.00
  -3   4  -2  231.08   13.90
   3   4   2  252.27   14.40
  -3   4  -2  219.78   14.00
  -4  -4  -2  567.64   33.30
  -4  -4  -2  563.94   31.10
  -4  -4  -2  598.34   33.00
   4   4   2  483.25   31.70
   4   4   2  580.34   31.70
  -4   4  -2  524.55   31.20
  -4   4  -2  507.35   31.30
   4   4   2  527.85   31.60
   4   4   2  528.55   31.70
   4   4   2  536.75   31.60
  -4   4  -2  562.74   31.20
  -4   4  -2  501.25   31.20
  -5  -4  -2  185.98   10.50
  -5  -4  -2  191.68   13.60
  -5  -4  -2  188.68   13.00
  -5   4  -2  165.28   10.70
  -5   4  -2  164.08   10.80
   5   4   2  168.18   11.30
   5   4   2  168.68   11.60
   5   4   2  177.58   11.40
  -5   4  -2  171.18   10.70
  -5   4  -2  180.18   10.60
   5   4   2  184.88   11.50
  -6  -4  -2  324.27   17.10
   6  -4   2  261.67   18.20
  -6  -4  -2  305.37   20.30
   6  -4   2  265.07   17.60
  -6  -4  -2  307.77   19.70
   6   4   2  282.07   18.30
  -6   4  -2  285.17   17.30
   6   4   2  293.17   18.00
  -6   4  -2  284.27   17.60
  -6   4  -2  284.87   17.40
   6   4   2  282.67   17.70
  -6   4  -2  290.27   17.10
   6   4   2  302.57   18.00
  -7  -4  -2   49.10    7.70
  -7  -4  -2   51.89    7.80
  -7  -4  -2   46.50    5.30
   7  -4   2   40.90    6.30
  -7  -4  -2   49.00    4.30
   7  -4   2   41.90    5.00
   7   4   2   46.70    6.10
   7   4   2   50.39    5.70
  -7   4  -2   43.40    4.30
   7   4   2   37.70    6.20
   7   4   2   44.20    5.50
  -7   4  -2   42.70    3.90
  -8  -4  -2   55.99    9.00
   8  -4   2   48.10    7.20
  -8  -4  -2   57.69    8.50
  -8  -4  -2   50.09    6.10
  -8  -4  -2   44.00    5.10
   8  -4   2   49.99    5.90
   8   4   2   49.50    7.30
   8   4   2   62.09    6.50
   8   4   2   47.60    6.10
  -8   4  -2   46.60    4.70
   8   4   2   54.89    7.10
  -8   4  -2   48.50    4.40
   9  -4   2  317.87   20.20
  -9  -4  -2  261.07   22.50
   9  -4   2  306.27   18.80
  -9  -4  -2  279.17   18.20
  -9  -4  -2  281.67   21.60
  -9  -4  -2  295.37   18.80
   9   4   2  323.37   19.10
   9   4   2  320.77   20.10
  -9   4  -2  274.67   18.10
  -9   4  -2  299.97   17.90
  10  -4   2  176.68   12.10
 -10  -4  -2  165.08   16.00
  10  -4   2  181.68   13.70
 -10  -4  -2  148.19   12.00
 -10  -4  -2  146.49   17.60
 -10   4  -2  170.18   10.90
  10   4   2  180.68   13.70
 -10   4  -2  172.28   11.10
  11  -4   2   11.40    5.70
 -11  -4  -2    6.10    3.50
 -11  -4  -2   12.20    6.70
  11   4   2    9.10    5.50
 -11   4  -2    9.30    2.60
  12  -4   2    6.20    5.20
  12  -4   2    4.50    2.80
 -12  -4  -2    4.10    2.90
  12   4   2    5.20    4.60
 -12   4  -2    6.50    2.20
 -12   4  -2    5.10    2.30
  13  -4   2   20.20    4.80
 -13  -4  -2    4.90    2.50
  13   4   2    8.60    4.20
 -13   4  -2   10.70    2.00
  14   4   2   21.20    5.70
  14  -5  -2   18.00    4.60
 -14   5   2   18.00    3.00
  13  -5  -2   41.90    7.20
 -13  -5   2   32.40    4.90
  13  -5  -2   48.40    5.60
 -13   5   2   30.90    4.40
  13   5  -2   42.70    6.30
 -12  -5   2   40.40    4.90
 -12  -5   2   33.30    6.00
  12  -5  -2   50.19    7.00
  12  -5  -2   48.50    9.30
  12   5  -2   55.39    7.50
  12   5  -2   60.49    7.40
 -12   5   2   50.19    5.40
 -11  -5   2   13.10    3.90
 -11  -5   2   21.60    7.40
  11  -5  -2   12.50    6.40
  11  -5  -2   12.40    3.90
 -11  -5   2    8.50    2.50
  11   5  -2   13.00    4.60
 -11   5   2   13.60    2.70
  11   5  -2   12.80    4.60
 -10  -5   2    5.80    3.30
 -10  -5   2    0.30    2.50
 -10  -5   2    0.90    5.90
 -10  -5   2    4.40    6.80
  10  -5  -2    1.10    3.20
  10  -5  -2   -0.40    5.50
 -10  -5   2   -0.50    2.30
  10   5  -2    0.50    4.10
 -10   5   2   -1.20    2.30
 -10   5   2    3.00    4.50
  10   5  -2   -1.80    4.40
  -9  -5   2    7.60    2.40
  -9  -5   2    1.40    2.80
  -9  -5   2   17.30    7.00
   9  -5  -2    1.50    2.80
  -9  -5   2    4.80    6.00
  -9  -5   2   10.10    2.30
   9   5  -2    4.90    3.90
  -9   5   2    8.40    4.10
   9   5  -2    5.90    3.20
  -9   5   2   14.90    5.60
   9   5  -2   -3.50    3.90
  -9   5   2    5.20    2.10
   9   5  -2    6.50    3.30
  -8  -5   2   33.20    6.80
  -8  -5   2   29.00    4.10
  -8  -5   2   33.50    4.00
  -8  -5   2   30.10    7.00
   8  -5  -2   27.70    5.10
  -8   5   2   32.10    3.70
   8   5  -2   33.80    5.70
   8   5  -2   25.40    4.80
  -8   5   2   31.80    5.50
  -8   5   2   30.40    3.90
  -8   5   2   53.79    5.70
   8   5  -2   31.40    5.70
   8   5  -2   32.40    5.80
   7  -5  -2  381.66   24.90
  -7  -5   2  443.76   24.40
  -7  -5   2  383.66   27.50
  -7  -5   2  448.06   24.50
  -7  -5   2  426.56   27.20
   7   5  -2  375.66   25.40
  -7   5   2  420.16   24.50
  -7   5   2  407.16   24.70
  -7   5   2  428.66   26.30
  -7   5   2  426.26   25.70
   7   5  -2  410.46   25.50
   7   5  -2  419.76   25.20
   7   5  -2  431.36   25.90
   7   5  -2  412.96   25.00
  -6  -5   2  166.88    9.80
  -6  -5   2  162.38    9.60
  -6  -5   2  165.98   13.10
  -6  -5   2  153.08   12.60
   6   5  -2  152.98   10.60
  -6   5   2  161.78   11.30
  -6   5   2  153.68    9.80
  -6   5   2  159.38    9.70
   6   5  -2  162.78   10.90
   6   5  -2  152.58   11.30
   6   5  -2  156.08   10.40
  -6   5   2  147.89   10.70
   6   5  -2  138.59   10.50
  -5  -5   2    9.40    3.70
  -5  -5   2   12.50    4.00
  -5  -5   2    9.90    2.20
  -5  -5   2    6.10    1.60
  -5   5   2    9.70    1.60
  -5   5   2   11.50    2.70
   5   5  -2   10.50    2.90
   5   5  -2   12.50    3.10
   5   5  -2    6.70    2.10
  -5   5   2   10.20    2.40
   5   5  -2   10.60    2.40
  -5   5   2   10.50    1.70
  -4  -5   2  279.87   16.80
  -4  -5   2  296.57   18.70
  -4  -5   2  300.77   19.10
   4   5  -2  276.47   17.20
  -4   5   2  290.97   17.60
   4   5  -2  275.77   17.40
   4   5  -2  276.37   17.80
  -4   5   2  289.37   17.90
   4   5  -2  301.27   17.30
  -4   5   2  291.67   16.90
  -4   5   2  289.87   17.10
  -3  -5   2   21.10    3.80
  -3  -5   2   22.60    3.70
  -3   5   2   20.10    2.80
   3   5  -2   21.40    3.70
   3   5  -2   24.60    3.40
  -3   5   2   22.60    2.10
  -3   5   2   21.40    3.20
   3   5  -2   18.50    3.10
   3   5  -2   21.20    2.70
   3   5  -2   20.70    3.20
  -2  -5   2 1155.18   64.49
  -2  -5   2 1157.68   64.69
   2   5  -2 1091.89   63.89
   2   5  -2 1086.29   63.59
  -2   5   2 1122.79   64.29
  -2   5   2 1066.59   63.99
   2   5  -2 1059.19   63.69
  -1  -5   2   51.59    4.60
  -1  -5   2   46.40    4.20
  -1   5   2   48.50    4.10
  -1   5   2   45.70    3.80
   0  -5   2  652.03   37.90
   0  -5   2  640.94   37.80
   0   5   2  652.83   38.00
   0   5   2  636.84   37.80
   1  -5   2  333.77   18.70
   1   5   2  313.47   18.80
   1   5   2  310.87   19.90
  -1   5  -2  293.77   18.60
   2  -5   2  179.08   10.30
  -2  -5  -2  172.68   12.10
  -2   5  -2  161.58    9.90
   2   5   2  175.28   10.60
  -2   5  -2  163.08   10.00
   2   5   2  156.78   10.60
   2   5   2  159.38   10.60
   2   5   2  174.08   10.50
  -2   5  -2  158.78   10.10
   2   5   2  176.58   10.50
  -3  -5  -2  169.78   12.10
   3   5   2  156.28    9.80
  -3   5  -2  146.29    9.30
   3   5   2  138.39    9.70
  -3   5  -2  136.19    9.00
   3   5   2  160.08   10.00
  -3   5  -2  153.58    9.20
   3   5   2  150.68   10.00
   3   5   2  174.08   10.00
  -4  -5  -2   75.49    8.50
  -4  -5  -2   61.29    4.00
  -4  -5  -2   63.09    7.60
   4   5   2   63.39    5.60
  -4   5  -2   61.59    4.80
   4   5   2   58.29    5.40
   4   5   2   62.39    6.30
  -4   5  -2   59.79    4.60
   4   5   2   56.79    5.40
  -4   5  -2   62.39    4.30
   4   5   2   54.99    5.20
  -4   5  -2   54.49    4.00
  -5  -5  -2  433.66   27.40
  -5  -5  -2  457.85   28.10
   5  -5   2  373.76   25.80
   5   5   2  417.76   25.90
  -5   5  -2  439.26   25.00
  -5   5  -2  376.26   25.20
  -5   5  -2  428.96   25.10
   5   5   2  446.96   25.70
   5   5   2  452.15   25.90
   5   5   2  464.75   25.90
   5   5   2  447.46   25.80
  -5   5  -2  421.06   25.20
  -6  -5  -2   59.39    4.40
  -6  -5  -2   54.89    8.30
   6  -5   2   55.69    6.10
  -6  -5  -2   53.99    8.60
   6  -5   2   51.69    5.10
  -6   5  -2   56.89    4.40
   6   5   2   55.29    6.10
  -6   5  -2   48.50    4.50
   6   5   2   54.39    6.00
   6   5   2   49.60    6.60
   7  -5   2  107.29    9.60
  -7  -5  -2  125.69    7.90
  -7  -5  -2  103.99   13.00
   7  -5   2  103.19    8.50
  -7  -5  -2  109.09   12.00
  -7  -5  -2  124.99    8.60
   7   5   2  141.39    9.30
   7   5   2  101.79    9.60
   7   5   2  127.49    9.70
  -7   5  -2  109.69    7.90
  -7   5  -2  109.69    7.60
  -8  -5  -2   78.09    7.50
   8  -5   2   79.79    7.50
  -8  -5  -2   81.59   11.80
  -8  -5  -2   68.89   10.50
   8  -5   2   81.39    8.50
  -8  -5  -2   84.59    6.60
   8   5   2   78.69    8.60
   8   5   2   85.69    8.80
  -8   5  -2   78.79    6.10
  -8   5  -2   89.29    6.40
   8   5   2   83.19    8.20
   8   5   2   79.69    8.10
  -9  -5  -2   42.60    5.80
  -9  -5  -2   46.00   10.00
  -9  -5  -2   49.30    7.20
   9  -5   2   52.29    8.10
   9  -5   2   47.80    6.30
  -9  -5  -2   52.99    9.20
   9   5   2   57.19    8.20
   9   5   2   49.70    7.20
  -9   5  -2   48.20    5.00
  -9   5  -2   44.30    4.70
   9   5   2   46.80    6.70
  10  -5   2   93.49    8.30
  10  -5   2   93.99   10.10
 -10  -5  -2   88.09   12.40
 -10  -5  -2   76.79    8.80
 -10  -5  -2   75.39    7.60
 -10   5  -2   93.79    6.90
  10   5   2  104.39    8.70
 -10   5  -2   95.19    6.90
  10   5   2   92.29    9.80
 -11  -5  -2   14.40    3.70
  11  -5   2   13.60    5.70
 -11  -5  -2   30.10    8.10
  11  -5   2   17.30    3.70
 -11  -5  -2   14.00    3.20
 -11   5  -2   16.90    2.80
 -11   5  -2   20.30    2.90
  11   5   2   29.10    6.00
  12  -5   2   -0.20    2.70
  12  -5   2   -1.20    4.50
 -12  -5  -2    2.50    3.10
 -12   5  -2    3.00    2.00
  12   5   2    2.40    4.00
  13  -5   2   -1.90    3.50
 -13  -5  -2   -1.10    2.20
  13   5   2    3.80    3.70
 -13   5  -2    3.50    1.70
 -14   6   2    4.30    2.40
  13  -6  -2   19.20    3.30
  13  -6  -2   22.70    5.20
 -13  -6   2   16.10    2.80
 -13   6   2   20.30    2.80
  12  -6  -2   53.59    6.90
 -12  -6   2   37.30    6.30
  12  -6  -2   51.79    8.90
  12   6  -2   57.59    7.10
 -12   6   2   49.20    5.30
  12   6  -2   46.10    7.40
 -11  -6   2   41.60    8.20
  11  -6  -2   48.10    7.90
 -11  -6   2   28.00    4.70
 -11  -6   2   32.30    4.60
  11  -6  -2   37.40    6.90
 -11   6   2   34.50    4.90
  11   6  -2   40.60    6.70
  11   6  -2   38.80    7.70
 -10  -6   2    4.30    2.50
 -10  -6   2    2.50    6.40
  10  -6  -2   11.00    6.00
  10  -6  -2    8.20    3.50
 -10  -6   2    4.20    2.50
 -10  -6   2    7.60    3.60
  10   6  -2   -1.00    4.60
  10   6  -2    5.00    3.80
  10   6  -2    1.90    4.20
  10   6  -2    6.60    4.00
 -10   6   2    3.30    2.50
  -9  -6   2    1.60    2.20
   9  -6  -2    2.70    2.90
  -9  -6   2   -2.20    5.80
  -9  -6   2   -0.10    2.30
  -9  -6   2    5.00    6.60
  -9   6   2    2.30    3.90
   9   6  -2   -0.30    3.60
   9   6  -2   -2.00    4.30
  -9   6   2   -1.40    2.40
   9   6  -2    0.70    3.80
   9   6  -2   -2.30    3.30
  -8  -6   2   15.60    6.50
  -8  -6   2   18.50    3.90
   8  -6  -2   12.60    3.10
  -8  -6   2    3.70    5.60
  -8  -6   2    9.80    2.40
  -8   6   2   13.80    2.50
   8   6  -2   11.60    3.70
   8   6  -2   14.70    4.00
  -8   6   2   10.20    4.60
   8   6  -2   12.50    3.80
   8   6  -2   11.00    5.10
   8   6  -2   17.60    5.20
  -8   6   2    9.40    3.60
  -8   6   2   17.40    3.30
  -7  -6   2   62.89    9.50
  -7  -6   2   50.89    8.60
   7  -6  -2   62.59    6.00
  -7  -6   2   70.39    5.20
  -7  -6   2   62.79    5.40
   7   6  -2   63.39    7.00
   7   6  -2   58.89    8.00
  -7   6   2   75.59    7.60
  -7   6   2   67.09    5.10
   7   6  -2   67.69    7.60
  -7   6   2   74.09    6.50
   7   6  -2   66.49    8.00
  -7   6   2   66.89    5.30
   7   6  -2   51.79    6.30
  -6  -6   2   55.59    8.80
  -6  -6   2   58.49    7.90
  -6  -6   2   58.39    4.40
  -6  -6   2   46.60    4.60
   6   6  -2   50.59    6.50
  -6   6   2   59.99    4.60
  -6   6   2   55.39    5.40
   6   6  -2   53.09    6.90
   6   6  -2   47.00    6.00
   6   6  -2   54.39    7.10
  -6   6   2   55.09    4.30
  -6   6   2   59.39    6.20
  -5  -6   2  354.26   24.00
  -5  -6   2  396.36   22.00
  -5  -6   2  384.96   21.80
  -5  -6   2  370.96   24.70
  -5   6   2  357.56   22.00
  -5   6   2  390.06   22.80
   5   6  -2  352.66   23.00
   5   6  -2  386.76   22.50
  -5   6   2  360.16   21.80
   5   6  -2  345.27   22.40
   5   6  -2  380.26   22.60
  -5   6   2  370.16   23.00
  -4  -6   2    7.60    1.30
  -4  -6   2    7.00    3.50
  -4  -6   2    4.90    3.90
   4   6  -2    6.80    2.50
   4   6  -2    9.90    2.90
   4   6  -2    6.70    2.20
  -4   6   2    9.20    1.90
  -4   6   2    7.60    2.10
   4   6  -2    3.80    2.90
  -4   6   2    4.60    1.40
  -4   6   2    8.80    2.50
  -3  -6   2  443.26   27.20
  -3  -6   2  435.76   27.50
   3   6  -2  441.26   26.30
  -3   6   2  435.36   26.30
   3   6  -2  413.46   26.40
  -3   6   2  430.06   25.60
  -3   6   2  440.16   26.60
   3   6  -2  487.75   25.70
   3   6  -2  444.66   25.90
   3   6  -2  447.56   26.00
  -3   6   2  416.56   25.80
  -2  -6   2   53.49    5.80
  -2  -6   2   50.69    6.10
  -2   6   2   51.49    3.80
   2   6  -2   54.09    4.90
   2   6  -2   59.09    4.90
   2   6  -2   56.19    5.10
  -2   6   2   47.20    4.20
   2   6  -2   58.09    4.80
  -2   6   2   56.69    5.00
  -2   6   2   55.99    4.00
   2   6  -2   60.69    4.10
  -2   6   2   52.59    4.60
  -1  -6   2  128.89    8.90
  -1  -6   2  127.19    9.30
   1   6  -2  120.59    8.50
  -1   6   2  137.79    8.80
  -1   6   2  124.49    8.40
  -1   6   2  128.99    8.30
   1   6  -2  114.69    7.80
   1   6  -2  133.89    8.20
   1   6  -2  133.69    8.20
  -1   6   2  124.09    8.00
   1   6  -2  119.89    8.40
  -1   6   2  132.39    8.40
   0  -6   2   18.10    2.90
   0  -6   2   25.90    4.00
   0   6  -2   22.00    3.30
   0   6   2   24.00    3.20
   0   6  -2   20.80    2.30
   0   6   2   26.00    3.40
   0   6  -2   25.80    3.10
   0   6   2   25.40    2.90
   0   6   2   21.50    3.40
   0   6   2   18.50    3.40
   0   6   2   26.20    3.30
   0   6  -2   24.30    3.20
   0   6   2   22.30    2.40
  -1  -6  -2   44.30    6.30
   1  -6   2   33.90    4.20
   1  -6   2   36.00    4.10
  -1   6  -2   36.50    3.80
   1   6   2   45.70    4.20
   1   6   2   39.70    3.40
   1   6   2   38.20    4.30
  -1   6  -2   40.70    3.30
   1   6   2   44.70    4.40
   1   6   2   41.70    3.80
   1   6   2   40.10    4.20
  -1   6  -2   38.20    3.60
  -2  -6  -2  236.98   16.20
   2  -6   2  241.88   14.30
  -2   6  -2  217.48   13.80
   2   6   2  221.48   14.40
   2   6   2  251.77   14.30
   2   6   2  243.58   14.20
   2   6   2  220.48   14.40
  -2   6  -2  238.38   13.70
   2   6   2  238.98   14.40
  -2   6  -2  201.28   13.80
  -3  -6  -2   45.80    7.40
  -3  -6  -2   46.00    6.80
   3   6   2   39.60    5.50
   3   6   2   44.20    4.30
   3   6   2   54.79    5.60
  -3   6  -2   49.60    4.10
  -3   6  -2   46.80    3.90
  -3   6  -2   46.30    3.80
   3   6   2   36.40    5.00
   3   6   2   47.20    5.20
  -4  -6  -2   35.80    6.30
  -4  -6  -2   34.40    6.70
  -4  -6  -2   39.00    2.90
   4   6   2   28.20    5.00
   4   6   2   44.60    5.60
  -4   6  -2   31.80    3.80
   4   6   2   33.80    5.20
   4   6   2   30.50    4.10
   4   6   2   33.00    4.50
  -4   6  -2   32.60    3.50
  -4   6  -2   36.40    3.40
  -5  -6  -2  287.17   20.40
  -5  -6  -2  296.17   17.20
  -5  -6  -2  280.17   20.90
   5   6   2  308.97   18.50
   5   6   2  273.07   18.20
   5   6   2  297.67   18.40
  -5   6  -2  282.17   17.40
  -5   6  -2  298.37   17.40
   5   6   2  309.77   18.40
  -5   6  -2  277.27   17.60
   5   6   2  296.87   18.60
  -6  -6  -2   33.60    3.60
   6  -6   2   22.70    4.20
  -6  -6  -2   28.10    7.30
  -6  -6  -2   19.20    6.50
   6  -6   2   32.50    5.50
   6   6   2   30.20    5.90
   6   6   2   23.50    4.00
  -6   6  -2   28.20    4.00
   6   6   2   28.00    5.30
   6   6   2   34.70    4.90
  -6   6  -2   31.20    3.60
  -7  -6  -2  540.95   38.60
  -7  -6  -2  653.93   34.60
  -7  -6  -2  551.74   37.90
  -7  -6  -2  617.24   35.00
   7  -6   2  541.65   35.10
   7  -6   2  549.65   35.90
  -7   6  -2  575.94   34.60
   7   6   2  574.74   35.70
   7   6   2  571.94   35.70
   7   6   2  636.04   35.90
  -7   6  -2  615.44   34.80
   7   6   2  625.64   36.00
  -8  -6  -2   30.40    4.40
  -8  -6  -2   34.60    8.40
  -8  -6  -2   46.00    9.40
  -8  -6  -2   36.00    4.70
   8  -6   2   18.30    4.90
   8   6   2   33.20    6.70
  -8   6  -2   26.90    3.90
   8   6   2   20.60    4.60
  -8   6  -2   30.10    4.50
   8   6   2   38.20    6.70
   8   6   2   30.80    5.00
  -9  -6  -2    6.10    9.50
  -9  -6  -2   42.10    9.20
  -9  -6  -2   28.40    5.50
   9  -6   2   31.00    5.80
  -9  -6  -2   28.60    4.80
   9   6   2   41.70    6.00
  -9   6  -2   29.00    4.30
   9   6   2   19.80    4.80
  -9   6  -2   22.90    4.50
   9   6   2   42.40    6.40
   9   6   2   37.50    5.30
  10  -6   2   -1.10    4.50
 -10  -6  -2    3.40    3.90
 -10  -6  -2    8.00    3.30
 -10  -6  -2    7.80    7.00
 -10  -6  -2    1.20    3.10
  10  -6   2    4.50    3.20
 -10   6  -2    2.70    2.30
  10   6   2    2.50    3.80
  10   6   2    2.60    4.30
 -10   6  -2    1.50    2.20
  11  -6   2   51.79    6.10
  11  -6   2   43.10    7.70
 -11  -6  -2   41.60    5.50
 -11  -6  -2   35.80    6.80
 -11   6  -2   39.50    4.80
  11   6   2   57.99    7.60
  12  -6   2   -0.80    3.70
 -12  -6  -2    3.20    2.80
  12  -6   2   -0.60    2.60
  12   6   2   -0.50    3.40
 -12   6  -2    2.20    2.10
 -13  -6  -2   30.90    4.40
 -13   6  -2   36.20    3.40
  13   6   2   52.49    7.20
  13  -7  -2   28.10    6.00
  13  -7  -2   36.70    4.80
 -13   7   2   25.60    3.50
  12  -7  -2   29.30    5.60
  12  -7  -2   36.50    6.40
 -12  -7   2   20.80    3.90
  12   7  -2   25.40    4.50
 -12   7   2   20.20    2.80
 -11  -7   2   49.40    7.30
  11  -7  -2   68.19    9.30
 -11  -7   2   53.09    6.10
  11  -7  -2   68.09    7.50
 -11   7   2   58.79    5.70
  11   7  -2   64.39    8.40
  10  -7  -2    0.00    5.00
 -10  -7   2    1.40    2.50
 -10  -7   2   -5.90    6.20
 -10  -7   2   -3.70    3.40
 -10  -7   2    3.90    2.50
  10  -7  -2    1.40    3.20
  10   7  -2   -2.40    3.90
 -10   7   2   -2.40    2.80
  10   7  -2    3.10    4.60
  10   7  -2   -0.60    3.70
  -9  -7   2   15.60    7.30
   9  -7  -2   26.70    4.10
  -9  -7   2   23.60    4.60
  -9  -7   2   21.00    3.20
   9   7  -2   34.70    5.40
   9   7  -2   24.90    5.10
  -9   7   2   24.40    4.60
   9   7  -2   25.60    6.10
  -8  -7   2   80.29   12.70
  -8  -7   2  107.89    7.50
  -8  -7   2   91.89    7.40
  -8  -7   2   93.29   11.90
   8  -7  -2   92.99    8.20
  -8   7   2  106.59    7.30
   8   7  -2   93.59   11.10
   8   7  -2   96.59    9.70
   8   7  -2  113.39   10.60
  -8   7   2  101.89    7.50
   8   7  -2   98.29   10.10
  -7  -7   2   63.79    6.10
  -7  -7   2   71.89   10.30
  -7  -7   2   75.49    5.90
  -7  -7   2   84.39   11.10
   7  -7  -2   71.99    6.40
  -7   7   2   78.79    5.80
  -7   7   2   78.69    8.80
   7   7  -2   88.89    9.10
  -7   7   2   73.39    6.00
  -7   7   2   87.29    7.30
   7   7  -2   62.59    7.70
   7   7  -2   67.89    8.90
   7   7  -2   53.99    9.20
  -6  -7   2    5.00    5.10
  -6  -7   2    3.80    2.20
  -6  -7   2    2.30    4.80
  -6  -7   2    1.00    1.70
  -6   7   2    0.60    1.60
   6   7  -2    3.70    3.00
  -6   7   2    6.90    3.70
   6   7  -2    0.50    3.80
  -6   7   2    1.30    2.00
   6   7  -2    3.60    3.80
  -6   7   2    6.80    2.90
   6   7  -2    4.30    4.00
  -5  -7   2   13.30    5.10
  -5  -7   2   14.40    2.00
  -5  -7   2   12.20    2.30
  -5  -7   2   19.20    5.70
  -5   7   2   13.70    2.80
   5   7  -2    8.30    3.70
   5   7  -2   10.40    3.30
   5   7  -2   14.30    3.80
   5   7  -2   16.90    3.90
  -5   7   2   15.30    2.60
  -5   7   2    9.70    3.20
  -5   7   2   12.90    2.10
  -4  -7   2    1.70    3.90
  -4  -7   2    7.20    4.50
  -4   7   2    2.60    2.00
  -4   7   2    2.10    1.90
  -4   7   2    3.20    2.10
  -4   7   2    3.50    1.70
  -4   7   2    1.40    1.30
   4   7  -2    0.70    2.90
   4   7  -2   -0.10    2.80
   4   7  -2    2.00    2.50
   4   7  -2    5.50    3.20
  -4   7   2   -2.30    2.20
  -3  -7   2   55.39    7.70
  -3  -7   2   54.49    6.90
  -3  -7   2   46.70    4.70
   3   7  -2   60.59    4.80
   3   7  -2   57.59    5.80
  -3   7   2   58.49    4.80
  -3   7   2   69.29    4.60
   3   7  -2   59.29    6.20
  -3   7   2   56.89    5.00
  -3   7   2   61.89    4.40
   3   7  -2   52.39    5.70
   3   7  -2   62.99    6.40
  -3   7   2   60.29    5.60
  -3   7   2   55.69    4.30
  -2  -7   2  479.45   29.90
  -2  -7   2  488.15   29.60
  -2   7   2  495.05   28.70
  -2   7   2  455.75   28.00
   2   7  -2  499.65   28.10
  -2   7   2  482.95   29.00
   2   7  -2  489.65   28.50
  -2   7   2  474.85   28.20
  -2   7   2  475.95   27.90
  -2   7   2  471.65   28.20
   2   7  -2  518.75   28.40
   2   7  -2  481.65   28.80
   2   7  -2  457.15   28.60
  -2   7   2  474.45   28.40
  -2   7   2  465.75   28.40
  -1  -7   2  236.18   16.30
  -1  -7   2  254.77   16.10
  -1   7   2  233.48   15.10
  -1   7   2  255.47   14.90
   1   7  -2  232.98   15.40
  -1   7   2  246.58   14.90
  -1   7   2  235.48   14.50
  -1   7   2  244.68   15.30
   1   7  -2  250.67   15.20
  -1   7   2  247.88   15.00
  -1   7   2  256.67   15.50
   1   7  -2  244.28   15.10
   1   7  -2  250.57   15.40
   1   7  -2  259.37   14.70
  -1   7   2  252.07   15.80
   0  -7   2   32.70    5.30
   0  -7   2   33.90    4.50
   0   7   2   34.30    4.50
   0   7  -2   26.10    4.00
   0   7  -2   36.30    3.50
   0   7   2   36.90    4.10
   0   7   2   36.90    3.30
   0   7   2   38.30    4.30
   0   7  -2   38.80    4.60
   0   7  -2   38.60    4.20
   0   7   2   44.10    4.60
   0   7   2   40.70    4.10
   0   7  -2   45.70    4.40
  -1  -7  -2  103.09    9.40
   1  -7   2   78.59    6.90
  -1   7  -2   93.29    6.00
   1   7   2   85.49    6.90
   1   7   2   88.99    6.90
  -1   7  -2   84.79    6.50
   1   7   2   90.39    7.30
  -1   7  -2   85.29    6.40
   1   7   2   97.19    6.90
   1   7   2   94.99    6.80
   1   7   2   86.59    6.10
  -1   7  -2   88.99    6.70
  -2  -7  -2   67.19    9.20
   2   7   2   79.79    6.00
  -2   7  -2   89.29    6.10
  -2   7  -2   80.09    6.10
   2   7   2   80.49    7.10
  -2   7  -2   82.59    5.60
  -2   7  -2   85.49    6.20
   2   7   2   80.59    6.90
   2   7   2   83.19    6.90
   2   7   2   82.99    7.40
  -3  -7  -2  687.63   42.10
  -3  -7  -2  678.23   42.70
   3   7   2  714.93   40.00
   3   7   2  679.33   40.20
  -3   7  -2  664.13   39.60
   3   7   2  643.54   40.20
   3   7   2  715.03   40.10
  -3   7  -2  679.13   39.40
   3   7   2  668.13   40.00
  -3   7  -2  669.63   39.60
  -4  -7  -2    7.60    6.00
  -4  -7  -2    7.80    5.40
  -4  -7  -2    2.00    1.20
  -4   7  -2    1.80    1.70
   4   7   2    3.00    2.80
  -4   7  -2    4.50    1.80
   4   7   2    0.30    2.30
   4   7   2    5.70    3.60
  -4   7  -2    3.10    1.80
   4   7   2    3.30    3.20
   4   7   2    2.10    2.70
  -5  -7  -2  260.27   20.40
  -5  -7  -2  306.27   16.40
  -5  -7  -2  252.47   20.70
   5   7   2  277.77   17.90
   5   7   2  275.97   17.90
  -5   7  -2  266.07   16.80
   5   7   2  248.58   17.40
   5   7   2  294.17   18.00
   5   7   2  279.27   17.90
  -5   7  -2  271.87   16.60
  -5   7  -2  271.77   16.60
  -6  -7  -2   89.49   13.70
  -6  -7  -2  108.19   13.10
   6  -7   2   95.79    8.90
   6  -7   2   97.39    7.80
  -6   7  -2  113.99    8.00
   6   7   2  123.79    9.70
   6   7   2  117.89   10.10
   6   7   2  113.39    9.00
   6   7   2  117.29    9.90
  -6   7  -2  106.39    7.40
   7  -7   2   95.09    9.00
   7  -7   2   89.19    7.80
  -7  -7  -2   96.69   13.30
  -7  -7  -2   94.69   14.70
   7   7   2  103.39    8.90
  -7   7  -2  104.99    7.10
  -7   7  -2   90.79    7.40
   7   7   2   91.29   10.10
  -8  -7  -2   12.10    4.00
  -8  -7  -2    6.80    2.80
   8  -7   2    6.00    3.10
  -8  -7  -2    7.90    8.50
  -8  -7  -2   12.20    7.40
   8  -7   2    1.10    4.20
   8   7   2   18.70    5.10
   8   7   2    4.60    4.50
   8   7   2   13.00    4.50
  -8   7  -2    6.70    2.60
  -8   7  -2   10.40    2.70
   8   7   2    7.30    4.40
  -9  -7  -2   10.20    7.90
   9  -7   2    8.30    3.30
  -9  -7  -2    6.30    3.10
  -9  -7  -2    8.40    4.10
   9  -7   2   10.20    4.90
  -9   7  -2    6.90    2.50
  -9   7  -2    5.10    2.70
   9   7   2    9.10    5.10
   9   7   2    2.80    4.40
   9   7   2    4.90    4.20
   9   7   2   11.30    4.80
 -10  -7  -2   -0.80    3.00
  10  -7   2    1.60    4.20
 -10  -7  -2    8.20    7.10
  10  -7   2    8.90    3.20
 -10  -7  -2    0.50    4.00
  10   7   2    2.40    4.10
  10   7   2    2.20    3.40
 -10   7  -2    2.50    2.30
 -10   7  -2   -0.10    2.20
 -11  -7  -2   -0.40    2.50
 -11  -7  -2   -0.90    3.50
  11  -7   2   -2.60    3.70
  11  -7   2    0.90    2.80
  11   7   2    3.10    3.20
 -11   7  -2    0.00    2.30
  11   7   2   -0.30    3.40
 -12  -7  -2   16.30    3.30
  12  -7   2   25.80    4.50
 -12   7  -2   18.40    3.20
  12   7   2   21.70    4.70
  12  -8  -2    2.90    2.70
  12  -8  -2   -1.10    3.70
 -12  -8   2    0.70    3.00
  12   8  -2    1.10    3.00
 -12   8   2   -1.50    2.00
 -11  -8   2   13.90    3.90
  11  -8  -2   16.20    5.30
  11  -8  -2   16.90    3.60
 -11  -8   2   10.40    3.00
 -11   8   2   13.10    2.80
  11   8  -2   16.50    4.70
 -10  -8   2    7.60   11.90
  10  -8  -2    9.50    4.90
 -10  -8   2    8.40    3.60
  10  -8  -2   11.50    3.60
 -10  -8   2   14.20    3.00
  10   8  -2   12.60    4.70
 -10   8   2   11.40    2.80
  10   8  -2   15.30    4.40
  10   8  -2   13.00    5.20
  -9  -8   2    8.00    7.20
   9  -8  -2   11.60    3.40
  -9  -8   2   11.00    2.70
   9  -8  -2    9.80    5.50
   9   8  -2    9.30    4.50
   9   8  -2    9.90    4.90
   9   8  -2   15.20    4.90
  -9   8   2   12.90    3.10
  -8  -8   2    1.20    2.40
  -8  -8   2    2.30    2.40
   8  -8  -2    6.30    2.80
  -8  -8   2   -1.00    6.00
  -8   8   2    3.70    2.60
   8   8  -2    6.50    4.60
   8   8  -2    0.80    5.80
   8   8  -2    4.90    4.40
   8   8  -2    1.50    4.70
   7  -8  -2   66.79    6.50
  -7  -8   2   69.99   11.20
  -7  -8   2   71.29    6.20
  -7  -8   2   75.29   10.60
  -7  -8   2   76.69    6.00
   7   8  -2   72.89    8.70
   7   8  -2   97.49   10.10
   7   8  -2   61.29    9.50
   7   8  -2   83.49   10.10
  -7   8   2   76.69    6.40
  -7   8   2   81.29    6.00
  -6  -8   2   -0.80    5.40
  -6  -8   2    0.90    1.90
  -6  -8   2   -0.10    2.30
  -6  -8   2    2.30    6.10
   6   8  -2   -3.90    4.20
  -6   8   2    3.20    4.60
  -6   8   2    0.40    2.20
  -6   8   2    3.00    3.00
   6   8  -2   -2.60    3.30
   6   8  -2   -4.90    4.00
   6   8  -2   -0.30    4.40
  -6   8   2   -1.20    1.60
  -5  -8   2  453.45   27.30
  -5  -8   2  431.06   30.10
  -5  -8   2  486.85   27.10
  -5  -8   2  449.16   30.90
  -5   8   2  440.66   28.60
   5   8  -2  466.15   28.50
  -5   8   2  471.25   27.20
   5   8  -2  474.85   28.20
  -5   8   2  460.45   27.40
   5   8  -2  465.95   28.20
   5   8  -2  475.65   28.90
  -5   8   2  443.96   28.00
  -4  -8   2   13.60    2.80
  -4  -8   2    8.60    4.90
  -4  -8   2   11.30    5.50
  -4   8   2   14.70    2.30
   4   8  -2   11.20    3.70
   4   8  -2   14.20    4.00
  -4   8   2   16.00    3.70
  -4   8   2   12.70    2.80
   4   8  -2   12.10    3.60
  -4   8   2   13.30    2.50
   4   8  -2   10.40    3.40
  -3  -8   2  278.87   17.50
  -3  -8   2  303.17   20.10
  -3  -8   2  305.87   20.90
  -3   8   2  259.57   18.80
  -3   8   2  297.27   17.80
  -3   8   2  293.27   17.60
   3   8  -2  291.27   18.90
  -3   8   2  281.57   18.80
  -3   8   2  308.87   18.20
   3   8  -2  313.67   18.40
   3   8  -2  304.47   19.00
   3   8  -2  304.17   17.90
   3   8  -2  319.97   18.60
  -3   8   2  286.27   17.70
  -3   8   2  304.87   18.50
  -2  -8   2   86.59    9.80
  -2  -8   2   90.39    9.10
  -2   8   2   97.29    6.40
   2   8  -2   95.89    8.10
  -2   8   2   92.99    7.10
  -2   8   2   95.49    6.40
   2   8  -2   95.89    6.80
  -2   8   2   93.09    7.30
   2   8  -2   99.69    7.40
   2   8  -2   89.19    7.70
   2   8  -2  101.49    8.10
  -2   8   2   97.79    7.30
  -2   8   2   91.69    7.30
  -2   8   2   98.69    6.90
  -2   8   2   97.89    7.90
  -1  -8   2  149.69   12.30
   1   8  -2  154.98    9.50
   1   8  -2  160.48   10.70
  -1   8   2  151.18   10.20
  -1   8   2  155.18   10.30
  -1   8   2  147.99   10.20
  -1   8   2  152.48    9.80
   1   8  -2  158.68   10.30
  -1   8   2  145.49    9.50
  -1   8   2  146.59    9.20
  -1   8   2  153.88   10.40
   1   8  -2  130.09   10.30
   1   8  -2  150.48   10.20
   0  -8  -2   38.80    7.00
   0   8  -2   45.30    5.00
   0   8   2   38.40    4.90
   0   8  -2   31.90    4.50
   0   8   2   47.70    4.50
   0   8   2   25.70    5.10
   0   8  -2   35.20    5.40
   0   8  -2   40.00    5.20
   0   8   2   41.40    5.10
   0   8   2   31.80    5.60
   0   8  -2   49.70    4.10
   0   8   2   37.40    4.20
   0   8   2   49.50    3.80
  -1  -8  -2  179.08   15.00
  -1   8  -2  178.68   11.20
   1   8   2  167.08   10.80
   1   8   2  169.88   11.80
   1   8   2  155.18   11.40
   1   8   2  173.88   11.50
  -1   8  -2  172.58   11.40
   1   8   2  184.18   11.50
  -1   8  -2  172.28   10.60
  -1   8  -2  155.58   11.00
   1   8   2  174.28   11.60
  -1   8  -2  170.28   11.00
  -2  -8  -2    0.40    5.90
   2   8   2    0.60    2.80
   2   8   2   -0.30    2.50
   2   8   2    1.90    3.30
  -2   8  -2    1.60    2.20
  -2   8  -2    2.00    2.20
  -2   8  -2    2.70    1.90
   2   8   2   -3.20    3.20
   2   8   2    1.20    1.70
  -2   8  -2    0.60    2.00
  -3  -8  -2   10.80    6.40
  -3  -8  -2    9.70    6.60
   3   8   2    6.30    3.40
  -3   8  -2    7.60    2.40
  -3   8  -2   10.70    2.40
   3   8   2    5.60    3.50
   3   8   2    7.10    3.00
   3   8   2   10.40    2.40
   3   8   2    1.90    3.70
  -3   8  -2   11.30    2.50
  -4  -8  -2    4.10    6.90
  -4  -8  -2    8.50    6.50
  -4  -8  -2    7.30    1.60
   4   8   2   13.30    4.20
   4   8   2   10.70    4.50
  -4   8  -2    9.30    2.50
   4   8   2   11.00    2.80
  -4   8  -2    8.10    2.40
   4   8   2    3.80    3.10
  -4   8  -2    8.10    2.30
   4   8   2    8.20    3.70
  -5  -8  -2    4.70    6.70
  -5  -8  -2    1.40    6.10
  -5  -8  -2    2.50    1.70
   5   8   2    2.90    4.00
  -5   8  -2    0.40    2.40
   5   8   2    3.20    4.50
   5   8   2    1.90    4.30
   5   8   2    1.70    2.70
  -5   8  -2    1.90    2.30
   5   8   2    6.30    4.10
  -6  -8  -2    4.80    2.00
  -6  -8  -2   14.90    8.10
   6  -8   2    1.80    2.30
  -6  -8  -2   11.00    7.40
   6   8   2    3.20    4.40
  -6   8  -2    2.10    2.50
   6   8   2    0.80    3.80
   6   8   2    0.90    3.10
   6   8   2   -0.70    4.40
  -6   8  -2    3.70    2.60
  -7  -8  -2   57.99   10.20
  -7  -8  -2   55.49    5.50
  -7  -8  -2   56.59   11.00
   7  -8   2   51.09    6.20
  -7   8  -2   46.20    5.20
   7   8   2   55.89    9.70
  -7   8  -2   51.79    5.80
   7   8   2   44.50    8.00
   7   8   2   54.59    7.20
   7   8   2   48.80    6.80
  -8  -8  -2    6.00    8.00
   8  -8   2    2.20    2.80
  -8  -8  -2    0.10    2.60
  -8  -8  -2   -0.10    3.80
   8   8   2    1.30    3.60
   8   8   2    6.60    5.00
  -8   8  -2    1.30    2.50
  -8   8  -2    2.20    2.40
   8   8   2   -0.80    4.40
   8   8   2    1.60    4.70
  -9  -8  -2   13.80    3.20
   9  -8   2   16.90    3.50
  -9  -8  -2    6.40    8.10
  -9  -8  -2   14.50    4.20
   9   8   2   19.50    4.60
   9   8   2   17.90    4.80
   9   8   2    5.60    5.20
  -9   8  -2   11.40    2.90
   9   8   2   12.00    4.60
  -9   8  -2   14.90    2.80
 -10  -8  -2   16.50    4.30
  10  -8   2   11.30    3.30
 -10  -8  -2   11.10    3.20
  10   8   2   11.80    3.90
 -10   8  -2   12.90    2.80
  10   8   2   14.60    3.90
  10   8   2    4.60    4.00
  11  -8   2  117.99    8.50
 -11  -8  -2   88.69    8.70
  11   8   2  122.49    8.90
  11   8   2  104.59    8.60
 -11   8  -2  114.09    7.50
  12  -8   2    7.80    2.40
 -12  -8  -2    3.90    2.30
 -12   8  -2    6.90    1.80
  12  -9  -2    0.50    2.20
 -12   9   2    1.10    1.80
 -11  -9   2   35.10    4.90
  11  -9  -2   37.00    6.60
  11  -9  -2   42.30    5.60
 -11  -9   2   36.00    5.80
 -11   9   2   37.80    4.30
  11   9  -2   48.20    6.40
  10  -9  -2   -0.70    4.00
  10  -9  -2    1.30    2.80
 -10  -9   2   -1.50    2.40
 -10  -9   2    1.30    3.30
 -10   9   2   -1.00    2.30
  10   9  -2   -0.10    4.10
  10   9  -2    1.50    4.60
  10   9  -2    2.00    4.00
   9  -9  -2   10.00    3.30
  -9  -9   2   12.90    8.60
   9  -9  -2    5.40    4.60
  -9  -9   2   10.50    2.70
  -9   9   2   14.90    3.10
   9   9  -2    3.40    4.70
   9   9  -2    9.80    4.90
   9   9  -2    7.80    4.80
   8  -9  -2   11.40    3.10
  -8  -9   2   10.00    2.70
  -8  -9   2    3.40    6.60
  -8   9   2   11.10    2.80
   8   9  -2    8.90    6.10
   8   9  -2   10.80    5.40
   8   9  -2    6.90    4.80
   8   9  -2   15.40    5.60
  -7  -9   2   31.70    9.10
  -7  -9   2   27.70    4.60
   7  -9  -2   32.40    4.90
  -7  -9   2   25.30    4.70
  -7   9   2   36.00    4.80
   7   9  -2   31.80    6.50
   7   9  -2   21.70    4.70
   7   9  -2   24.20    6.30
   7   9  -2   47.80    9.40
  -7   9   2   28.60    3.90
  -6  -9   2  137.29    8.60
  -6  -9   2  110.79    8.80
  -6  -9   2  105.69   13.80
  -6  -9   2  105.19   15.40
   6   9  -2  123.29   11.60
   6   9  -2  124.79   11.60
  -6   9   2  126.59    8.50
   6   9  -2  129.99   12.30
   6   9  -2  118.79   10.90
  -6   9   2  128.49    8.80
  -5  -9   2    5.90    2.60
  -5  -9   2    2.00    1.90
  -5  -9   2    1.20    6.10
  -5  -9   2   14.30    7.70
  -5   9   2    3.50    1.80
   5   9  -2    5.00    4.70
  -5   9   2    8.10    2.50
   5   9  -2    3.10    3.60
  -5   9   2   10.60    3.70
   5   9  -2    3.60    4.30
   5   9  -2    5.00    4.30
  -4  -9   2  102.29    6.70
  -4  -9   2   96.09    7.30
  -4  -9   2   86.09   12.70
  -4  -9   2  113.09   11.70
  -4   9   2   98.69    6.80
   4   9  -2   85.29    9.10
   4   9  -2   69.79    9.20
   4   9  -2  112.59    9.50
   4   9  -2   84.09    9.80
  -4   9   2   92.79    9.40
  -4   9   2  105.09    7.10
  -3  -9   2   39.70    3.80
  -3  -9   2   34.80    7.60
  -3  -9   2   39.30    6.70
   3   9  -2   42.60    5.00
  -3   9   2   40.90    3.80
   3   9  -2   40.20    6.70
   3   9  -2   39.70    6.80
  -3   9   2   35.00    4.80
  -3   9   2   37.50    5.00
   3   9  -2   43.50    8.20
   3   9  -2   44.50    6.80
  -3   9   2   36.60    4.20
  -3   9   2   38.20    5.00
  -2  -9   2   12.30    4.90
  -2  -9   2    9.10    6.90
  -2   9   2    9.00    2.80
  -2   9   2    8.40    3.10
  -2   9   2   14.70    3.00
  -2   9   2    7.10    2.40
   2   9  -2    8.80    3.10
   2   9  -2    6.00    3.60
  -2   9   2    5.80    2.70
   2   9  -2    8.70    3.30
  -2   9   2    6.40    1.70
   2   9  -2   11.30    3.50
   2   9  -2    5.40    2.40
  -2   9   2    9.40    2.10
   1  -9  -2   11.40    6.60
  -1   9   2   16.10    3.10
   1   9  -2   14.50    3.40
  -1   9   2   12.90    2.10
  -1   9   2    8.70    2.70
  -1   9   2   11.00    2.10
   1   9  -2    8.30    2.30
   1   9  -2   10.70    3.30
  -1   9   2   13.90    3.10
   1   9  -2   10.90    3.60
   1   9  -2   15.60    3.30
  -1   9   2   12.20    2.90
  -1   9   2   15.60    3.60
   0  -9  -2   14.30    6.80
   0   9  -2   10.60    3.10
   0   9   2    8.90    3.00
   0   9  -2   12.60    3.30
   0   9  -2   14.80    3.20
   0   9   2   12.20    3.50
   0   9   2    8.60    3.10
   0   9   2    8.70    2.90
   0   9   2    4.50    3.50
   0   9   2   13.20    2.70
   0   9  -2   12.90    2.90
   0   9  -2    9.80    2.40
  -1  -9  -2  189.78   17.90
   1   9   2  202.28   14.20
  -1   9  -2  209.28   13.10
   1   9   2  196.38   13.80
   1   9   2  195.88   12.70
   1   9   2  201.48   13.70
  -1   9  -2  210.68   13.50
  -1   9  -2  204.58   13.40
   1   9   2  207.18   13.70
  -1   9  -2  195.68   12.60
  -2  -9  -2   26.50    7.90
  -2  -9  -2   53.89    9.50
   2   9   2   49.00    6.90
   2   9   2   41.40    6.60
  -2   9  -2   46.80    6.00
  -2   9  -2   53.89    5.70
   2   9   2   53.69    4.70
  -2   9  -2   49.60    5.00
   2   9   2   51.39    7.40
  -2   9  -2   46.90    6.00
   2   9   2   57.79    7.20
  -3  -9  -2  340.17   24.60
  -3  -9  -2  305.67   25.10
  -3   9  -2  338.57   20.20
   3   9   2  342.27   21.70
  -3   9  -2  336.07   20.60
   3   9   2  341.17   20.60
   3   9   2  357.66   21.60
  -3   9  -2  337.17   20.70
   3   9   2  343.07   21.50
   3   9   2  315.17   21.30
  -4  -9  -2    5.90    7.40
  -4  -9  -2   -0.80    7.40
  -4  -9  -2    0.70    1.50
  -4   9  -2    1.60    2.50
   4   9   2   -2.10    3.20
   4   9   2    0.90    4.10
   4   9   2    1.40    2.40
  -4   9  -2    4.30    2.50
   4   9   2    0.30    3.90
   4   9   2    6.00    4.50
  -4   9  -2    1.00    2.60
  -5  -9  -2  123.49   17.10
  -5  -9  -2  164.48    9.50
  -5  -9  -2  119.29   16.00
  -5   9  -2  153.08    9.90
   5   9   2  154.28   10.60
   5   9   2  149.39   12.80
   5   9   2  133.09   11.70
   5   9   2  135.59   12.40
  -5   9  -2  149.19   10.40
   5   9   2  121.39   12.60
  -6  -9  -2   28.60   10.30
  -6  -9  -2   48.40    9.90
  -6  -9  -2   43.60    4.70
   6  -9   2   30.60    5.30
   6   9   2   42.70    5.90
  -6   9  -2   51.69    5.80
   6   9   2   48.00    6.70
   6   9   2   32.50    5.90
  -6   9  -2   44.00    5.20
   6   9   2   51.79    7.80
  -7  -9  -2   52.29    5.50
  -7  -9  -2   44.10   10.10
  -7  -9  -2   55.49    7.30
   7  -9   2   40.60    5.80
   7   9   2   58.69    6.50
   7   9   2   52.39    8.40
   7   9   2   45.50    6.80
  -7   9  -2   48.40    5.50
  -7   9  -2   46.10    5.80
   7   9   2   34.50    6.40
   8  -9   2   66.59    6.50
  -8  -9  -2   71.29    6.50
  -8  -9  -2   58.09    7.90
  -8  -9  -2   91.99   13.20
   8   9   2   63.39    8.60
  -8   9  -2   52.99    5.90
  -8   9  -2   61.39    6.20
   8   9   2   58.59    9.60
   8   9   2   47.70    8.90
   8   9   2   69.29    7.10
   9  -9   2    3.60    2.80
  -9  -9  -2    3.40    2.80
  -9  -9  -2    1.60    3.70
  -9   9  -2    5.80    2.80
   9   9   2    3.10    3.20
   9   9   2    3.00    3.90
   9   9   2    4.60    4.70
   9   9   2    1.70    4.00
 -10  -9  -2    8.40    2.90
 -10  -9  -2    6.40    3.50
  10  -9   2    5.40    2.80
  10   9   2    3.40    3.30
  10   9   2    6.80    3.50
 -10   9  -2    5.00    2.30
 -11  -9  -2    6.30    2.90
  11  -9   2    2.00    2.40
 -11   9  -2    1.70    1.70
  11   9   2    1.10    2.90
 -11 -10   2    9.20    3.00
  11 -10  -2   11.10    2.60
 -11  10   2    7.70    1.90
  11  10  -2   12.40    3.30
  10 -10  -2    0.20    2.50
 -10 -10   2    2.00    3.20
 -10 -10   2    2.60    2.40
  10  10  -2    3.70    3.50
  10  10  -2   -1.60    3.60
 -10  10   2    0.70    2.20
  10  10  -2   -1.90    3.70
  -9 -10   2   20.50    3.90
   9 -10  -2   20.60    3.50
   9 -10  -2   15.90    4.40
  -9 -10   2   20.40    4.30
  -9  10   2   12.70    2.70
   9  10  -2   22.00    5.20
   9  10  -2   25.20    5.20
   9  10  -2   20.60    4.90
   8 -10  -2   13.90    3.10
  -8 -10   2   15.60    2.80
   8 -10  -2   17.00    4.90
   8  10  -2   15.20    5.20
   8  10  -2   19.60    5.40
   8  10  -2   14.50    5.00
  -8  10   2   19.60    3.10
  -7 -10   2   -1.40    2.10
  -7 -10   2    2.90    6.70
   7  10  -2    7.40    5.30
   7  10  -2    6.70    5.50
   7  10  -2    4.00    4.60
   7  10  -2    5.20    4.70
  -7  10   2    3.50    2.60
  -6 -10   2   82.69    6.30
  -6 -10   2   81.49   13.00
  -6 -10   2   63.39    6.60
  -6  10   2   80.49    6.50
   6  10  -2   75.99   10.10
   6  10  -2   69.19    9.30
   6  10  -2   54.39    9.50
  -6  10   2   80.79    5.90
   6  10  -2   84.79   10.40
  -5 -10   2   54.49    9.40
  -5 -10   2   59.89    5.90
  -5 -10   2   77.59    5.70
  -5 -10   2   44.40   10.70
   5  10  -2   57.89    8.90
   5  10  -2   55.79    8.30
   5  10  -2   62.89    9.30
   5  10  -2   74.69   10.10
  -5  10   2   63.99    5.20
  -5  10   2   65.99    5.80
  -4 -10   2   52.39    5.90
  -4 -10   2   60.39    9.00
  -4 -10   2   69.09    5.20
  -4  10   2   58.19    5.50
   4  10  -2   62.99    9.70
   4  10  -2   57.59    8.50
   4  10  -2   56.29    8.70
   4  10  -2   60.99    8.40
  -4  10   2   63.09    5.10
  -3 -10   2  220.68   13.70
   3  10  -2  220.08   15.80
  -3  10   2  226.48   15.10
  -3  10   2  210.48   13.90
   3  10  -2  248.18   15.80
  -3  10   2  221.68   13.90
   3  10  -2  257.77   16.70
   2  10  -2    7.10    3.90
   2  10  -2    4.30    2.80
  -2  10   2    8.10    3.50
   2  10  -2    2.10    3.10
  -2  10   2   10.20    3.40
   2  10  -2   13.40    4.80
  -2  10   2    0.90    3.10
  -2  10   2   15.90    3.40
  -2  10   2    5.80    2.70
  -2  10   2    8.40    2.10
  -2  10   2    3.30    2.00
   2  10  -2    2.30    3.70
   1 -10  -2   94.09   15.40
  -1  10   2  118.39    9.50
  -1  10   2  111.19    7.60
  -1  10   2  106.59    9.00
  -1  10   2  117.99    9.00
   1  10  -2  120.99    9.90
  -1  10   2  116.49    9.90
   1  10  -2  113.09    9.30
   1  10  -2  112.29    9.20
   1  10  -2  115.19   10.60
   0 -10  -2   -8.90    7.40
   0  10   2   16.30    2.80
   0  10   2   14.20    3.90
   0  10  -2   16.40    3.70
   0  10  -2   16.90    3.30
   0  10   2    5.90    3.80
   0  10   2    6.70    4.10
   0  10  -2   16.00    3.80
   0  10  -2   13.40    4.20
   0  10   2   11.20    4.00
  -1 -10  -2   93.19   14.30
  -1 -10  -2   72.09   11.70
   1  10   2   69.49    8.40
   1  10   2   82.09    8.40
   1  10   2   67.99    5.70
  -1  10  -2   65.59    6.20
   1  10   2   76.89    7.90
  -1  10  -2   69.69    7.10
  -1  10  -2   74.79    7.90
  -1  10  -2   74.59    7.80
  -2 -10  -2  110.79   13.90
  -2 -10  -2   73.09   12.80
   2  10   2  106.59    9.60
   2  10   2  107.79    9.80
   2  10   2   96.29    9.80
  -2  10  -2  111.39    8.80
   2  10   2  105.39    7.60
   2  10   2  113.89   10.60
  -2  10  -2  109.99    7.80
  -2  10  -2   99.79    8.80
  -3 -10  -2    5.40    8.60
  -3 -10  -2   17.70    8.50
  -3  10  -2   15.60    3.40
   3  10   2    9.20    4.70
   3  10   2   16.50    4.70
   3  10   2   15.60    5.00
  -3  10  -2   11.40    3.50
   3  10   2   13.90    2.90
   3  10   2   13.60    4.80
  -3  10  -2   10.70    2.90
  -4 -10  -2    4.70    7.40
  -4 -10  -2   -0.70    1.70
  -4 -10  -2  -12.30    8.10
  -4  10  -2    2.90    3.00
   4  10   2   -2.10    4.60
   4  10   2    0.20    4.80
   4  10   2   -2.00    3.90
  -4  10  -2    2.40    2.80
   4  10   2   -0.60    4.60
  -4  10  -2    1.20    3.00
   4  10   2   -1.00    2.20
  -5 -10  -2   26.80    9.30
  -5 -10  -2   36.80    4.20
   5  10   2   41.40    7.70
   5  10   2   27.00    6.10
  -5  10  -2   26.30    4.80
   5  10   2   22.90    5.70
  -5  10  -2   35.80    5.90
   5  10   2   27.00    5.70
   5  10   2   33.00    4.90
   6 -10   2   16.30    3.10
  -6 -10  -2   18.80    4.10
  -6 -10  -2   16.90    9.40
   6  10   2   27.90    6.10
   6  10   2   17.90    4.80
  -6  10  -2   25.00    3.60
   6  10   2   16.10    4.70
  -6  10  -2   20.80    3.60
   6  10   2   12.70    5.00
  -7 -10  -2  113.09   16.70
  -7 -10  -2  124.19   10.50
  -7 -10  -2  151.18    9.40
   7 -10   2  114.59    9.40
   7  10   2  124.59   11.90
   7  10   2  137.99   11.50
   7  10   2  129.59   12.50
  -7  10  -2  129.59    9.40
  -7  10  -2  140.59    9.20
  -8 -10  -2    7.90    2.80
   8 -10   2   11.00    2.90
  -8 -10  -2   15.30    4.00
   8  10   2   12.90    4.60
   8  10   2    6.30    4.70
   8  10   2    8.70    4.50
  -8  10  -2   16.00    2.90
  -9 -10  -2    6.50    3.70
  -9 -10  -2    3.10    2.70
   9 -10   2    7.60    2.80
   9  10   2   11.70    3.90
  -9  10  -2    8.80    2.50
   9  10   2   14.50    4.30
  10 -10   2    0.60    2.30
 -10 -10  -2    1.30    3.00
 -10 -10  -2   -0.60    2.40
 -10 -10  -2    1.70    2.40
  10  10   2    1.40    2.80
 -10  10  -2    1.40    2.00
 -10 -11   2    0.30    2.80
  10 -11  -2    0.40    2.10
 -10 -11   2   -2.10    2.30
  10  11  -2    2.00    2.70
 -10  11   2   -0.30    2.40
   9 -11  -2   60.89    5.70
  -9 -11   2   54.49    5.20
  -9 -11   2   45.80    6.10
  -9  11   2   56.89    4.90
   9  11  -2   73.09    7.70
   9  11  -2   64.59    7.30
   9  11  -2   53.29    7.40
  -8 -11   2   11.20    2.50
   8 -11  -2   13.00    2.80
  -8  11   2   12.10    2.60
   8  11  -2    7.30    4.30
   8  11  -2   14.40    4.50
   8  11  -2   12.60    4.70
  -7 -11   2  114.49    7.90
   7  11  -2  102.19   10.40
   7  11  -2  131.19   11.50
   7  11  -2   91.19   10.90
  -7  11   2  110.09    7.90
   7  11  -2  126.29   11.10
  -6 -11   2    4.50    2.20
  -6  11   2    9.70    2.50
   6  11  -2    7.60    5.40
   6  11  -2    3.80    4.50
   6  11  -2    5.50    5.40
   6  11  -2    2.50    4.20
  -5 -11   2    2.90    2.10
   5  11  -2    8.50    5.10
  -5  11   2    6.40    2.60
   5  11  -2    5.60    4.30
   5  11  -2   -3.60    5.20
   5  11  -2   14.20    4.60
  -4 -11   2    0.80    1.90
  -4 -11   2    0.30    2.60
   4  11  -2    0.90    4.10
   4  11  -2   -2.40    4.90
   4  11  -2    0.10    4.20
   4  11  -2    0.00    5.20
  -4  11   2   -1.80    2.30
  -3 -11   2  186.28   11.30
   3  11  -2  176.98   13.50
  -3  11   2  172.48   11.50
   3  11  -2  185.08   13.70
   3  11  -2  200.58   14.60
   3  11  -2  176.68   13.70
  -2  11   2    7.10    3.10
   2  11  -2    5.30    2.90
  -2  11   2    0.80    4.20
   2  11  -2    1.90    3.50
   2  11  -2   -0.50    4.30
   2  11  -2    4.90    4.10
  -2  11   2   -0.20    3.40
  -2  11   2    2.00    3.50
   2  11  -2    3.10    4.80
  -1  11   2   24.60    4.50
  -1  11   2   30.00    4.50
   1  11  -2   16.20    4.30
  -1  11   2   15.30    4.20
   1  11  -2   16.00    3.30
  -1  11   2   20.20    3.70
   1  11  -2   14.50    5.00
   1  11  -2   26.00    4.30
   1  11  -2   21.00    4.80
   0 -11  -2   19.80    8.20
   0  11  -2   33.40    6.70
   0  11   2   25.70    5.30
   0  11   2   33.50    4.80
   0  11  -2   29.00    5.00
   0  11  -2   52.29    7.00
   0  11   2   21.60    4.60
   0  11   2   27.70    4.80
  -1 -11  -2   32.30    8.90
   1  11   2   37.80    7.40
   1  11   2   43.00    6.00
  -1  11  -2   46.40    7.90
   1  11   2   45.10    5.90
  -1  11  -2   39.50    7.00
  -1  11  -2   32.40    6.50
   1  11   2   55.99    7.20
  -1  11  -2   38.10    5.30
  -2 -11  -2    2.10    7.70
  -2  11  -2    0.90    2.80
   2  11   2    4.60    4.70
   2  11   2   10.30    4.50
   2  11   2    6.70    4.70
   2  11   2    5.20    4.00
  -2  11  -2    4.90    3.60
  -3 -11  -2  109.19   15.80
  -3 -11  -2  148.49    8.80
   3  11   2  133.59   11.40
   3  11   2  130.79   11.60
   3  11   2  132.89   11.70
  -3  11  -2  126.79    9.50
   3  11   2  153.38   12.80
  -3  11  -2  144.79   10.40
  -3  11  -2  125.39   10.20
  -4 -11  -2    5.30    1.90
  -4 -11  -2   11.90    8.80
  -4  11  -2    2.00    3.20
   4  11   2   10.90    4.90
  -4  11  -2    7.00    3.00
   4  11   2    8.70    5.00
   4  11   2    4.20    5.10
   4  11   2   -2.10    3.90
  -5 -11  -2    3.10    8.90
  -5 -11  -2   13.90    2.30
   5  11   2    6.80    5.00
   5  11   2    7.10    4.50
   5  11   2   11.70    5.40
  -5  11  -2   12.00    3.30
  -5  11  -2   11.80    3.30
  -6 -11  -2    0.70    2.10
   6 -11   2   -2.10    2.30
   6  11   2    3.30    4.10
   6  11   2    4.00    4.70
  -6  11  -2   -0.30    2.90
   6  11   2   -3.50    4.60
  -6  11  -2    1.80    2.60
  -7 -11  -2    3.60    3.50
  -7 -11  -2    4.90    2.50
   7 -11   2    6.40    2.50
   7  11   2    4.40    3.90
   7  11   2   -0.20    4.50
  -7  11  -2    7.40    2.80
   7  11   2    4.50    4.40
  -8 -11  -2    2.00    2.30
   8 -11   2    1.50    2.30
  -8 -11  -2    4.30    3.20
   8  11   2   -1.60    3.40
   8  11   2    0.80    3.50
  -8  11  -2    3.10    2.50
   8  11   2   18.20    4.70
  -9 -11  -2    2.70    3.00
   9 -11   2    4.70    2.30
  -9 -11  -2    3.10    2.30
   9  11   2    3.40    2.90
  -9  11  -2    1.30    2.00
   9  11   2    3.00    3.00
  -9 -12   2    6.70    2.60
  -9 -12   2    8.70    2.10
   9  12  -2    7.50    3.00
  -8 -12   2   17.90    2.40
  -8 -12   2   12.70    3.00
   8  12  -2   15.30    4.00
  -8  12   2   20.90    3.30
   8  12  -2   15.30    4.00
   8  12  -2   20.20    4.20
  -7 -12   2   24.40    3.70
   7  12  -2   19.10    4.60
  -7  12   2   24.70    3.60
   7  12  -2   22.60    4.90
   7  12  -2   22.60    4.60
  -6 -12   2   16.40    3.50
   6  12  -2   14.30    5.10
   6  12  -2   12.80    4.50
   6  12  -2   16.40    5.30
   6  12  -2   11.80    4.00
  -6  12   2   14.10    2.70
  -5 -12   2  146.99    9.40
  -5  12   2  144.49    9.60
   5  12  -2  146.59   11.90
   5  12  -2  137.79   11.90
   5  12  -2  154.68   13.30
  -4 -12   2   30.50    3.90
   4  12  -2   34.90    6.20
   4  12  -2   36.10    5.90
   4  12  -2   40.60    7.30
   4  12  -2   19.10    4.60
  -3 -12   2   44.60    4.40
   3  12  -2   60.79    8.00
   3  12  -2   42.10    8.00
   3  12  -2   36.00    7.20
   3  12  -2   50.09    7.20
  -2 -12   2   18.70    3.50
   2  12  -2   19.30    5.70
   2  12  -2   22.00    4.40
   2  12  -2   19.70    5.00
   2  12  -2   13.50    4.40
  -1  12   2   13.20    5.00
  -1  12   2   15.20    4.20
   1  12  -2   16.90    5.00
   1  12  -2   19.00    4.70
   1  12  -2   10.10    4.40
  -1  12   2   10.80    3.40
   1  12  -2   18.20    4.00
  -1  12   2   14.00    4.10
   1  12  -2    8.90    3.20
   0  12  -2    9.10    4.00
   0  12  -2    2.80    2.70
   0  12  -2    6.20    3.80
   0  12   2    0.00    3.80
   0  12   2    2.10    3.10
   0  12   2   -0.90    4.00
   0  12   2   -2.10    3.90
   0  12  -2    5.30    4.40
  -1  12  -2    5.70    3.90
  -1  12  -2    1.10    3.50
   1  12   2   -1.10    4.20
   1  12   2   -5.40    3.90
   1  12   2    2.30    3.40
   1  12   2   -0.50    4.20
  -1  12  -2   -1.80    3.70
  -1  12  -2    1.00    2.90
   2  12   2   68.49    9.00
  -2  12  -2   68.79    6.40
  -2  12  -2   75.79    7.50
   2  12   2   59.29    8.70
   2  12   2   58.99    8.70
  -2  12  -2   61.59    7.90
   2  12   2   81.59    7.80
  -3 -12  -2   49.60    4.20
  -3  12  -2   43.40    5.40
  -3  12  -2   46.40    6.40
   3  12   2   46.90    8.10
   3  12   2   43.40    7.40
   3  12   2   39.00    6.10
   3  12   2   51.59    8.60
  -3  12  -2   37.70    6.70
  -4 -12  -2    7.50    1.80
   4  12   2    4.50    4.60
   4  12   2    7.80    4.30
   4  12   2    8.60    4.40
  -4  12  -2    0.90    2.90
  -4  12  -2    2.20    3.30
  -5 -12  -2   -1.70    1.70
   5  12   2    5.20    4.60
  -5  12  -2   -1.10    2.80
   5  12   2   -2.10    3.60
   5  12   2    2.20    4.30
  -5  12  -2    0.40    2.80
  -6 -12  -2    0.80    2.00
   6 -12   2    3.00    2.20
  -6 -12  -2    2.80    3.00
   6  12   2   -3.50    4.20
   6  12   2    0.70    4.00
   6  12   2    0.50    3.60
  -6  12  -2    4.80    2.60
  -7 -12  -2    3.30    2.90
   7 -12   2    1.30    2.10
  -7 -12  -2    3.30    2.20
  -7  12  -2    4.30    2.40
   7  12   2    1.90    3.50
   7  12   2   -0.10    3.70
   7  12   2    5.30    3.60
  -8 -12  -2    6.60    2.20
   8 -12   2    3.90    2.10
  -8 -12  -2    4.20    2.70
   8  12   2    2.30    2.70
  -8  12  -2    2.20    1.90
   8  12   2    9.80    3.10
  -7 -13   2   27.40    3.40
   7  13  -2   29.80    5.80
   7  13  -2   34.30    5.30
   7  13  -2   33.80    5.40
  -6 -13   2   13.40    2.90
   6  13  -2   14.20    3.90
   6  13  -2   10.00    4.20
   6  13  -2   15.90    4.30
   6  13  -2   15.90    4.10
  -5 -13   2    7.80    1.80
   5  13  -2    6.80    3.50
   5  13  -2    6.90    4.30
   5  13  -2   10.60    4.00
   5  13  -2    6.00    4.30
  -4 -13   2   22.60    3.20
   4  13  -2   12.30    4.40
   4  13  -2   16.70    4.10
   4  13  -2   24.70    4.90
   4  13  -2   14.30    4.70
   3  13  -2    9.10    4.40
   3  13  -2    9.20    4.30
   3  13  -2   11.90    3.90
   3  13  -2   10.50    4.60
  -2 -13   2   34.90    3.70
   2  13  -2   42.40    5.70
   2  13  -2   30.00    5.80
   2  13  -2   40.70    7.10
   2  13  -2   41.50    7.40
   1  13  -2   21.20    4.70
   1  13  -2   25.80    4.70
  -1  13   2   25.40    5.00
   1  13  -2   19.30    4.70
   0  13  -2   13.80    4.10
   0  13  -2   13.80    4.00
   0  13  -2    8.10    2.90
   0  13   2    7.80    4.10
   0  13   2    6.70    3.50
   0  13  -2   12.40    4.10
   0  13   2   13.80    3.50
   1  13   2   32.60    4.30
   1  13   2   24.60    4.80
  -1  13  -2   25.00    4.30
   1  13   2   14.50    4.40
  -1  13  -2   18.80    4.00
  -1  13  -2   17.40    3.10
   1  13   2   24.40    4.30
   2  13   2   35.80    5.70
   2  13   2   24.30    4.40
   2  13   2   28.40    4.90
   2  13   2   39.80    7.40
  -2  13  -2   23.50    3.50
  -2  13  -2   28.40    5.60
  -2  13  -2   39.40    6.10
  -3 -13  -2   50.89    3.90
  -3  13  -2   50.69    5.80
  -3  13  -2   42.50    5.10
   3  13   2   47.70    6.50
   3  13   2   37.10    7.60
   3  13   2   43.80    7.10
  -4 -13  -2    0.70    1.50
   4  13   2    3.80    3.70
  -4  13  -2    2.10    2.80
   4  13   2    3.30    3.90
   4  13   2   -0.80    3.10
  -4  13  -2    1.30    2.40
  -5 -13  -2   39.80    5.20
  -5 -13  -2   52.79    4.40
   5  13   2   56.99    6.60
   5  13   2   49.10    7.10
   5  13   2   61.89    7.20
  -5  13  -2   48.80    5.00
  -6 -13  -2    1.80    1.80
  -6 -13  -2    4.10    2.50
   6  13   2   -2.30    2.80
   6  13   2    2.90    3.30
   6  13   2    0.80    3.00
  -6  13  -2    2.90    2.00
  -7 -13  -2   14.00    2.20
  -5 -14   2    4.40    1.40
   5  14  -2    4.90    3.20
   5  14  -2    9.20    3.70
  -4 -14   2    0.70    1.30
   4  14  -2   -2.70    2.90
   4  14  -2   -0.40    3.30
   4  14  -2   -0.10    3.30
  -3 -14   2   -1.20    1.20
   3  14  -2    3.20    3.60
   3  14  -2    2.10    3.00
   3  14  -2    0.80    3.40
  -2 -14   2    0.30    1.30
   2  14  -2    2.00    3.60
   2  14  -2    2.50    3.30
   2  14  -2   -1.00    3.50
   1  14  -2    5.30    3.40
   1  14  -2    3.10    3.60
   1  14  -2    7.20    3.50
   0  14  -2    5.80    3.50
   0  14  -2    2.80    3.20
   1  14   2   18.10    4.00
  -1  14  -2   15.90    6.00
  -1  14  -2   15.30    3.60
   1  14   2   23.40    4.00
   2  14   2   24.70    4.40
   2  14   2   22.20    3.90
   2  14   2   17.80    3.60
  -2  14  -2   21.70    6.50
   3  14   2    3.30    3.30
   3  14   2    3.30    2.90
   3  14   2    4.60    3.40
   4  14   2   46.90    6.60
   4  14   2   41.50    5.80
 -15   0   3    2.50    1.90
  15   0  -3    3.40    3.80
 -14   0   3   -0.80    2.00
  14   0  -3    4.20    4.60
  13   0  -3    0.20    5.10
 -13   0   3    4.40    2.40
 -12   0   3    2.90    4.90
 -12   0   3   -2.00    2.50
  12   0  -3   -2.00    5.40
 -11   0   3  525.75   31.50
 -11   0   3  487.15   35.30
  11   0  -3  570.44   33.70
 -11   0   3  532.05   34.30
 -10   0   3    3.80    4.90
  10   0  -3   -0.30    2.60
 -10   0   3    5.10    2.40
 -10   0   3    2.00    4.50
  10   0  -3   -3.00    4.70
   9   0  -3  453.35   29.70
  -9   0   3  509.55   31.50
  -9   0   3  517.15   32.20
  -9   0   3  522.25   29.30
   9   0  -3  499.65   30.90
   9   0  -3  496.35   29.90
  -8   0   3    0.90    1.30
   8   0  -3    2.10    2.00
  -8   0   3   -0.80    3.10
   8   0  -3   -2.70    3.00
  -8   0   3   -0.10    3.40
   8   0  -3    3.20    2.50
  -8   0   3    0.80    1.60
  -7   0   3 1016.50   54.89
   7   0  -3  931.61   53.59
  -7   0   3  808.32   54.79
  -7   0   3 1019.50   53.19
   7   0  -3  815.42   53.49
  -6   0   3   -0.10    2.20
   6   0  -3    0.90    1.50
  -6   0   3    0.60    2.40
  -6   0   3    0.70    1.00
  -6   0   3   -0.30    0.80
  -5   0   3   48.00    4.70
  -5   0   3   41.30    4.40
  -4   0   3    0.00    1.50
  -4   0   3   -1.00    1.60
  -3   0   3  329.57   19.70
  -3   0   3  326.17   19.90
  -2   0   3    1.40    1.20
  -2   0   3    1.50    1.10
  -1   0   3 3406.46  192.08
  -1   0   3 3284.77  191.98
   0   0   3    2.20    0.80
   0   0   3    0.40    0.60
  -1   0  -3 6260.17  361.06
  -2   0  -3    1.20    1.30
  -3   0  -3   15.50    2.40
  -3   0  -3   17.50    2.70
  -4   0  -3    2.10    2.00
  -4   0  -3    1.50    1.80
  -5   0  -3 2699.43  150.88
   5   0   3 2461.25  150.28
  -5   0  -3 2671.03  150.68
  -6   0  -3    0.20    2.50
  -6   0  -3    0.00    1.40
  -6   0  -3   -1.70    1.30
   6   0   3    1.20    1.50
  -6   0  -3    3.90    3.10
  -6   0  -3    1.10    0.90
   6   0   3    0.60    2.60
  -7   0  -3   99.19    6.30
  -7   0  -3   93.89    6.90
  -7   0  -3   98.59    9.20
  -7   0  -3  107.59    8.60
  -7   0  -3  110.69    6.70
   7   0   3   76.79    7.80
   7   0   3   96.59    6.90
  -8   0  -3   -4.50    4.20
  -8   0  -3    0.60    1.50
  -8   0  -3   -1.80    1.40
   8   0   3    1.90    2.00
  -8   0  -3    3.40    3.70
  -8   0  -3    0.50    2.00
  -9   0  -3    5.80    1.90
   9   0   3    2.30    4.40
  -9   0  -3    4.70    1.90
  -9   0  -3    2.20    4.10
  -9   0  -3   13.00    5.70
  -9   0  -3    4.70    2.30
 -10   0  -3    2.50    2.40
 -10   0  -3   17.20    8.60
 -10   0  -3   -0.50    4.80
 -10   0  -3    0.30    1.80
  10   0   3   -0.50    4.70
 -11   0  -3   26.40    4.40
 -11   0  -3   26.30    5.00
  11   0   3   42.60    8.80
  12   0   3   -3.20    5.40
 -12   0  -3    1.70    2.30
  13   0   3   -6.20    4.70
 -13   0  -3    1.20    2.10
  14   0   3   -2.40    3.40
  15  -1  -3   29.70    6.10
  15   1  -3   35.10    6.90
 -15   1   3   31.10    3.50
  14  -1  -3   18.50    5.50
 -14  -1   3   13.60    2.60
  14   1  -3   17.90    5.30
 -14   1   3   12.30    2.60
  13  -1  -3  214.28   16.10
 -13  -1   3  192.78   12.80
 -13   1   3  193.88   12.80
  13   1  -3  212.18   15.50
 -12  -1   3   43.30    7.60
  12  -1  -3   38.30    7.20
 -12  -1   3   35.80    4.90
  12   1  -3   20.50    6.30
 -12   1   3   34.90    6.50
 -12   1   3   24.50    4.60
  11  -1  -3  137.09   10.60
 -11  -1   3  152.78    9.80
  11  -1  -3  148.69   12.80
 -11  -1   3  119.89   14.00
 -11  -1   3  142.69   13.00
 -11   1   3  124.29   14.00
 -11   1   3  137.49    9.60
  11   1  -3  141.79   12.30
 -11   1   3  145.29   12.50
  10  -1  -3   31.80    5.90
 -10  -1   3   29.30    6.80
  10  -1  -3   39.90    7.70
 -10  -1   3   24.20    4.00
 -10  -1   3   26.90    4.40
 -10  -1   3   30.40    6.30
 -10   1   3   24.10    6.60
 -10   1   3   33.70    6.10
  10   1  -3   24.10    5.30
 -10   1   3   32.90    4.20
  10   1  -3   34.60    6.20
  -9  -1   3   36.80    6.50
  -9  -1   3   47.00    7.00
  -9  -1   3   46.90    4.60
  -9  -1   3   38.70    4.30
   9  -1  -3   42.30    7.20
   9  -1  -3   42.80    5.60
  -9   1   3   53.09    7.50
   9   1  -3   37.70    6.60
   9   1  -3   35.00    5.00
  -9   1   3   52.79    6.70
   9   1  -3   51.49    6.00
  -9   1   3   46.00    4.40
  -8  -1   3   57.39    6.30
   8  -1  -3   22.70    4.50
   8  -1  -3   34.30    4.40
   8   1  -3   43.20    5.80
  -8   1   3   29.40    3.70
   8   1  -3   45.20    4.70
  -8   1   3   33.40    5.30
  -8   1   3   33.90    5.70
  -7  -1   3   10.50    1.70
  -7  -1   3   14.50    4.10
  -7  -1   3    8.90    1.60
  -7  -1   3    9.10    3.50
   7   1  -3   11.60    3.10
   7   1  -3    7.20    2.10
   7   1  -3   10.90    2.60
  -6  -1   3    6.70    2.80
   6  -1  -3    7.60    1.90
  -6  -1   3    4.80    3.10
  -6  -1   3   10.40    1.50
   6   1  -3    8.80    2.20
  -6   1   3    5.20    2.90
   6   1  -3    4.70    2.30
  -6   1   3    4.80    1.20
  -6   1   3   10.50    2.90
  -6   1   3    7.30    1.30
  -5  -1   3  394.86   24.00
  -5  -1   3  402.16   24.20
  -5   1   3  361.86   23.70
  -5   1   3  413.36   24.20
  -4  -1   3    4.90    1.90
  -4  -1   3    1.10    1.90
  -4   1   3    6.50    2.10
  -4   1   3    7.10    2.00
  -3  -1   3 1097.69   61.49
  -3  -1   3 1046.40   61.29
  -3   1   3 1019.10   61.19
  -3   1   3 1055.09   61.39
  -2  -1   3   29.20    2.80
  -2  -1   3   28.30    2.60
  -2   1   3   27.80    2.70
  -2   1   3   27.80    2.60
  -1  -1   3 1050.09   60.89
  -1  -1   3 1073.39   60.99
  -1   1   3 1047.20   60.99
  -1   1   3 1053.99   61.09
   0  -1   3  948.41   52.99
   0   1   3  895.31   53.19
   0   1   3  918.81   53.29
  -1   1  -3 4767.02  275.57
  -2  -1  -3   56.49    4.50
  -2   1  -3   49.00    3.60
   2   1   3   45.70    3.40
  -2   1  -3   55.39    3.70
  -3  -1  -3  785.82   46.40
  -3  -1  -3  800.32   46.60
  -3   1  -3  782.82   46.00
  -3   1  -3  800.92   46.10
  -4  -1  -3    4.00    2.40
  -4  -1  -3    0.50    2.10
  -4   1  -3    3.20    1.80
  -4   1  -3   -0.60    1.60
  -5  -1  -3  219.28   13.70
   5  -1   3  183.38   12.90
  -5  -1  -3  229.48   14.10
  -5  -1  -3  224.88   12.40
  -5   1  -3  187.88   12.30
   5   1   3  186.48   12.90
  -5   1  -3  219.08   13.40
  -5   1  -3  211.98   13.20
  -6  -1  -3   44.50    6.50
  -6  -1  -3   55.09    4.40
  -6  -1  -3   50.69    6.20
   6  -1   3   45.80    4.40
  -6  -1  -3   45.80    4.50
   6  -1   3   49.90    5.40
  -6  -1  -3   50.99    4.10
  -6   1  -3   52.99    4.00
  -6   1  -3   46.90    5.70
  -6   1  -3   52.69    3.70
  -6   1  -3   50.59    5.30
   6   1   3   52.59    5.20
  -6   1  -3   58.99    4.20
  -7  -1  -3    5.10    2.00
  -7  -1  -3    4.30    1.90
  -7  -1  -3    4.90    4.10
  -7  -1  -3    2.60    1.80
  -7  -1  -3    2.20    3.50
   7  -1   3    5.30    2.00
  -7  -1  -3    3.30    1.20
  -7   1  -3    5.60    1.60
  -7   1  -3    4.00    2.90
   7   1   3    4.50    3.10
  -7   1  -3    6.50    1.40
  -7   1  -3    1.60    1.90
  -7   1  -3    9.30    3.80
  -8  -1  -3   47.40    7.30
  -8  -1  -3   51.79    4.10
   8  -1   3   61.09    7.20
   8  -1   3   59.09    5.30
  -8  -1  -3   63.49    8.90
  -8  -1  -3   49.50    5.00
  -8  -1  -3   56.79    5.50
  -8   1  -3   46.10    4.40
  -8   1  -3   49.70    4.30
  -8   1  -3   51.79    5.00
   8   1   3   69.49    7.30
  -8   1  -3   38.50    6.30
  -8   1  -3   58.29    6.80
   9  -1   3   15.90    2.90
  -9  -1  -3    5.40    2.60
  -9  -1  -3   13.40    5.00
  -9  -1  -3    4.50    5.50
   9  -1   3   13.60    5.30
  -9  -1  -3   12.30    2.50
  -9   1  -3    8.80    5.70
  -9   1  -3   14.10    4.60
  -9   1  -3   14.20    2.10
   9   1   3    9.00    4.60
  -9   1  -3   10.70    2.50
 -10  -1  -3   36.80    8.70
  10  -1   3   54.69    5.80
  10  -1   3   75.29    9.00
 -10  -1  -3   46.50    6.00
 -10  -1  -3   39.30    7.10
 -10   1  -3   55.99    4.90
 -10   1  -3   55.19    5.70
  10   1   3   60.29    9.00
  11  -1   3   74.89   10.10
 -11  -1  -3   71.09    6.90
 -11  -1  -3   98.19   11.80
 -11   1  -3   76.59    6.50
  11   1   3   80.19    9.90
 -11   1  -3   76.19    5.90
 -12  -1  -3   22.40    4.60
  12  -1   3   18.30    5.90
  12   1   3   21.30    6.00
 -12   1  -3   25.30    4.20
 -13  -1  -3   43.80    5.10
  13  -1   3   48.50    8.10
 -13   1  -3   51.19    4.80
  13   1   3   62.09    8.20
  14  -1   3    3.20    3.50
  14   1   3    2.00    3.50
  15  -2  -3    6.20    4.00
 -15   2   3    3.20    1.80
  14  -2  -3   26.90    5.60
 -14  -2   3   22.80    3.70
  14   2  -3   23.80    5.10
 -14   2   3   18.10    2.80
  13  -2  -3   28.60    7.00
 -13   2   3   22.10    3.30
  13   2  -3   28.20    6.10
  12  -2  -3   49.00    9.60
  12  -2  -3   50.39    6.30
 -12  -2   3   36.90    7.60
 -12  -2   3   41.00    5.20
 -12   2   3   42.60    6.90
 -12   2   3   42.10    5.20
  12   2  -3   42.70    7.10
 -11  -2   3   51.39    5.60
  11  -2  -3   57.29    7.30
 -11  -2   3   35.60    8.00
 -11  -2   3   51.89    8.20
 -11  -2   3   45.40    5.30
  11  -2  -3   59.79    9.50
  11   2  -3   60.89    7.60
 -11   2   3   63.09    9.30
 -11   2   3   55.19    5.40
  11   2  -3   48.30    8.70
 -11   2   3   52.09    7.50
  10  -2  -3   88.39    8.30
 -10  -2   3   93.49    7.20
  10  -2  -3   89.29   10.20
 -10  -2   3   96.19   10.20
 -10  -2   3   89.49    7.10
 -10  -2   3   87.09   11.10
 -10   2   3   94.09   11.00
 -10   2   3   89.39    6.90
 -10   2   3  103.59    9.60
  10   2  -3   89.39    9.40
  10   2  -3   99.29    9.00
   9  -2  -3  278.57   18.40
  -9  -2   3  290.77   19.10
   9  -2  -3  243.08   17.10
  -9  -2   3  274.27   19.60
  -9  -2   3  272.67   16.20
  -9  -2   3  249.58   16.30
  -9   2   3  271.67   16.20
  -9   2   3  270.17   18.30
   9   2  -3  253.27   17.90
   9   2  -3  295.57   17.70
  -9   2   3  276.87   19.20
  -8  -2   3    8.10    4.60
  -8  -2   3   11.10    4.60
  -8  -2   3   11.20    2.00
  -8  -2   3   10.00    2.00
  -8  -2   3    9.40    1.60
   8  -2  -3    5.90    2.40
  -8   2   3    9.20    4.10
  -8   2   3    9.80    1.80
  -8   2   3    9.20    3.50
   8   2  -3    7.60    3.50
   8   2  -3    6.90    3.10
   7  -2  -3  114.09    8.60
  -7  -2   3  131.89    7.90
  -7  -2   3  117.09    7.70
  -7  -2   3  116.89   10.40
  -7  -2   3  124.89    9.90
  -7   2   3  114.09    9.80
  -7   2   3  138.19    9.70
   7   2  -3  134.49    9.10
  -7   2   3  126.59    8.00
  -7   2   3  136.69    7.90
   7   2  -3  109.39    9.10
  -6  -2   3  110.39    9.00
  -6  -2   3  112.19    6.70
   6  -2  -3  101.39    7.40
  -6  -2   3  106.39    8.50
  -6  -2   3  113.59    6.80
  -6   2   3  128.09    9.00
   6   2  -3   92.49    7.80
   6   2  -3  102.09    7.80
  -6   2   3  105.69    6.70
  -6   2   3  111.19    6.90
  -6   2   3  113.09    8.40
  -5  -2   3 2050.09  121.19
  -5  -2   3 2148.19  121.49
  -5  -2   3 2049.70  120.09
  -5   2   3 2112.09  121.09
  -5   2   3 2164.48  121.39
   5   2  -3 2258.67  121.69
  -5   2   3 1911.21  120.19
  -5   2   3 2061.29  120.09
  -4  -2   3    7.30    2.20
  -4  -2   3    4.50    2.20
  -4   2   3    5.10    1.90
  -4   2   3    4.90    1.70
  -3  -2   3  454.55   26.10
  -3  -2   3  431.86   25.90
  -3   2   3  440.76   25.80
  -3   2   3  411.46   25.90
  -2  -2   3 1122.19   64.09
  -2  -2   3 1112.69   64.19
  -2   2   3 1104.99   64.19
  -2   2   3 1085.09   63.99
  -1  -2   3 3825.72  215.68
  -1  -2   3 3693.63  215.58
  -1   2   3 3750.22  215.78
   0  -2   3 6652.23  391.16
   0   2  -3 7004.00  391.26
   1   2   3   88.99    5.60
   1   2   3   85.69    5.80
   2   2   3  123.29    7.70
  -3  -2  -3   24.30    3.60
  -3   2  -3   20.60    2.10
  -4  -2  -3  222.28   15.20
  -4  -2  -3  231.98   13.50
  -4  -2  -3  237.68   14.90
  -4   2  -3  214.38   13.80
  -4   2  -3  223.88   13.90
  -4   2  -3  231.68   13.60
  -5  -2  -3 1669.93   90.69
   5  -2   3 1410.86   89.79
  -5  -2  -3 1671.93   90.99
  -5  -2  -3 1585.84   89.19
  -5   2  -3 1629.34   89.99
  -5   2  -3 1591.04   89.29
   5   2   3 1412.26   89.49
  -5   2  -3 1598.44   89.79
   5   2   3 1493.25   89.89
  -5   2  -3 1485.85   89.09
   6  -2   3   20.50    3.70
  -6  -2  -3    9.00    3.80
  -6  -2  -3   15.40    4.50
  -6  -2  -3   19.00    2.90
  -6  -2  -3   21.40    3.70
   6  -2   3   16.50    3.30
  -6   2  -3   22.30    3.50
  -6   2  -3   20.60    2.30
  -6   2  -3   18.20    2.90
   6   2   3   18.90    4.00
  -6   2  -3   17.20    2.40
  -6   2  -3   18.30    3.20
   6   2   3   12.50    2.50
   7  -2   3  193.38   13.10
   7  -2   3  168.78   12.10
  -7  -2  -3  189.18   15.00
  -7  -2  -3  206.78   14.40
   7   2   3  193.88   13.20
  -7   2  -3  193.18   11.80
  -7   2  -3  197.48   13.30
  -7   2  -3  193.98   11.50
  -7   2  -3  187.38   12.70
  -7   2  -3  189.48   11.60
  -8  -2  -3   15.90    5.20
   8  -2   3   18.70    4.50
   8  -2   3   20.00    3.20
  -8  -2  -3   19.40    4.00
  -8  -2  -3   22.10    3.40
  -8  -2  -3   25.00    6.20
  -8  -2  -3   18.20    2.90
  -8   2  -3   23.90    5.00
   8   2   3   17.20    4.70
  -8   2  -3   24.90    4.30
  -8   2  -3   18.40    3.00
  -8   2  -3   17.80    3.60
   9  -2   3    4.10    2.60
  -9  -2  -3   -4.20    2.50
  -9  -2  -3    3.10    2.30
  -9  -2  -3    2.40    4.90
  -9  -2  -3    2.70    6.20
   9  -2   3    7.70    4.80
   9   2   3   -4.30    4.30
  -9   2  -3    5.30    2.10
  -9   2  -3    6.80    2.00
  10  -2   3   -1.20    2.70
 -10  -2  -3   -0.20    2.20
  10  -2   3    9.90    5.70
 -10  -2  -3    1.00    2.70
 -10  -2  -3    5.40    7.50
 -10  -2  -3   -2.80    5.30
 -10   2  -3    2.50    2.40
  10   2   3   -0.30    4.90
 -10   2  -3    1.70    2.00
 -11  -2  -3   66.79   10.20
 -11  -2  -3   47.30    6.20
  11  -2   3   51.19    6.00
  11  -2   3   49.60    9.40
  11   2   3   61.49    9.00
 -11   2  -3   50.29    5.00
 -11   2  -3   53.69    5.40
  12  -2   3    2.60    5.30
 -12   2  -3    4.60    2.50
 -12   2  -3    2.50    2.10
 -13  -2  -3    7.90    2.60
  13  -2   3   13.60    5.40
 -13   2  -3   11.10    2.30
  13   2   3    8.50    4.50
  14  -2   3    3.20    3.20
  14   2   3    6.00    3.40
  15  -3  -3   20.10    5.90
  14  -3  -3   -0.40    5.00
 -14  -3   3    1.90    1.90
  14   3  -3   -0.50    3.20
 -14   3   3    0.60    2.10
  13  -3  -3   26.70    7.00
 -13  -3   3   22.70    4.20
  13  -3  -3   22.70    3.70
 -13   3   3   16.10    3.00
  13   3  -3   32.20    6.90
  12  -3  -3   12.00    3.70
  12  -3  -3   17.00    6.10
 -12  -3   3   13.40    6.40
 -12  -3   3   12.50    2.70
 -12  -3   3   13.10    3.20
 -12   3   3   15.10    2.70
  12   3  -3   26.80    5.90
 -12   3   3   27.70    5.90
  11  -3  -3   10.50    3.60
  11  -3  -3   -0.40    5.50
 -11  -3   3    6.00    2.60
 -11  -3   3    9.30    2.90
 -11  -3   3    9.90    5.90
  11   3  -3    7.20    4.10
 -11   3   3    8.10    4.90
  11   3  -3    5.10    4.70
 -11   3   3    5.80    6.90
 -11   3   3    7.60    2.60
 -10  -3   3    6.40    5.60
  10  -3  -3    4.40    4.90
  10  -3  -3    4.90    3.10
 -10  -3   3    4.60    2.70
 -10  -3   3    6.00    2.60
 -10  -3   3    7.10    5.90
 -10   3   3   12.20    6.00
 -10   3   3    3.30    2.20
  10   3  -3    2.60    4.50
  10   3  -3    5.70    4.40
 -10   3   3    8.30    4.60
  -9  -3   3   79.19    9.50
  -9  -3   3   65.29    9.10
  -9  -3   3   57.29    5.40
  -9  -3   3   62.39    5.60
   9  -3  -3   56.89    6.70
  -9  -3   3   60.59    4.90
  -9   3   3   72.89    8.80
   9   3  -3   53.49    7.30
  -9   3   3   49.70    7.40
  -9   3   3   56.59    5.00
   9   3  -3   66.69    7.80
  -8  -3   3  122.69    7.70
  -8  -3   3  134.29   11.90
  -8  -3   3  121.49    8.00
  -8  -3   3  126.49   11.10
   8  -3  -3  109.69    8.80
  -8   3   3  117.79    7.80
   8   3  -3   96.09    9.40
  -8   3   3  145.79   10.20
  -8   3   3  120.59    8.00
  -8   3   3  130.39   10.60
   8   3  -3  128.39    9.60
  -7  -3   3    1.40    1.20
  -7  -3   3    2.70    1.70
  -7  -3   3    2.70    3.60
   7  -3  -3    1.40    1.90
  -7  -3   3    6.50    4.00
  -7   3   3    1.90    1.40
  -7   3   3   -3.00    2.80
   7   3  -3    1.40    2.90
   7   3  -3    0.60    2.80
   7   3  -3    3.00    1.80
  -7   3   3    4.50    2.70
  -7   3   3    3.00    1.50
   7   3  -3    3.20    2.80
  -6  -3   3   13.30    1.80
  -6  -3   3    8.30    3.50
  -6  -3   3    6.50    3.50
   6  -3  -3    8.70    1.70
  -6  -3   3   12.40    2.10
  -6   3   3   13.90    2.10
   6   3  -3   11.90    2.90
   6   3  -3   11.20    2.70
  -6   3   3   10.00    3.20
  -6   3   3    8.50    1.80
  -6   3   3   14.80    2.90
   6   3  -3    9.50    2.70
   6   3  -3   13.30    2.10
  -5  -3   3 1979.00  117.09
  -5  -3   3 2043.50  115.49
  -5  -3   3 2035.00  116.89
  -5  -3   3 2032.10  115.59
   5   3  -3 1857.11  116.09
  -5   3   3 2064.79  116.59
  -5   3   3 2104.29  116.89
  -5   3   3 1984.70  115.49
  -4  -3   3  136.29   10.30
  -4  -3   3  156.18   10.20
  -4   3   3  148.59    9.80
  -4   3   3  151.88   10.10
  -3  -3   3  448.76   27.10
  -3  -3   3  467.65   27.30
  -3   3   3  465.35   27.10
  -3   3   3  435.16   26.90
  -2  -3   3    1.60    1.50
  -2  -3   3   -0.10    1.40
  -2   3   3    1.10    1.20
  -2   3   3    1.00    1.30
  -1  -3   3 2280.87  126.49
  -1  -3   3 2193.78  126.39
  -1   3   3 2164.18  126.69
  -1   3   3 2151.38  126.49
   0  -3   3  373.26   21.70
   0   3   3  378.96   22.20
   0   3   3  366.66   22.00
   1   3   3   95.29    6.30
   1   3   3   88.89    6.00
   2   3   3  596.94   34.90
  -3  -3  -3  453.65   27.80
  -4  -3  -3   48.60    5.60
  -4  -3  -3   47.60    6.30
  -4  -3  -3   54.19    3.40
   4   3   3   53.29    4.90
   4   3   3   50.29    4.30
  -4   3  -3   47.20    3.30
  -4   3  -3   46.10    3.30
  -4   3  -3   49.10    3.60
   4   3   3   41.00    4.20
  -4   3  -3   41.40    3.20
  -5  -3  -3  144.99    8.80
   5  -3   3  129.29    9.40
  -5  -3  -3  146.69   11.30
  -5  -3  -3  147.99   10.70
  -5  -3  -3  141.59    8.40
   5  -3   3  134.59    8.90
   5   3   3  127.09    9.10
   5   3   3  126.39    9.40
  -5   3  -3  136.49    8.70
   5   3   3  131.69    9.40
  -5   3  -3  149.19    8.60
  -5   3  -3  135.79    8.80
   5   3   3  142.29    9.10
  -6  -3  -3   74.09    8.90
   6  -3   3   78.19    6.50
   6  -3   3   86.79    7.30
  -6  -3  -3   90.29    8.60
  -6  -3  -3   90.29    6.40
  -6  -3  -3   93.39    6.00
   6   3   3   92.49    7.50
   6   3   3   83.09    7.30
  -6   3  -3   87.39    6.50
  -6   3  -3   94.19    6.10
  -6   3  -3   90.19    5.80
   6   3   3   92.19    6.70
   6   3   3   94.29    6.70
  -6   3  -3   72.49    5.70
  -6   3  -3   84.39    6.20
  -7  -3  -3    8.70    4.80
  -7  -3  -3    7.30    5.20
   7  -3   3    8.10    2.30
   7  -3   3    8.00    3.60
  -7  -3  -3    5.30    1.90
  -7  -3  -3    4.00    2.50
   7   3   3    3.80    2.40
   7   3   3    8.70    3.80
   7   3   3    3.60    2.30
  -7   3  -3    5.40    1.90
  -7   3  -3    6.00    4.20
  -7   3  -3    5.60    1.50
  -7   3  -3    6.20    1.70
   8  -3   3   28.60    5.30
   8  -3   3   32.60    5.00
  -8  -3  -3   31.50    5.60
  -8  -3  -3   34.10    4.40
  -8  -3  -3   31.30    7.10
  -8  -3  -3   27.50    3.60
  -8  -3  -3   34.40    6.80
   8   3   3   23.10    4.80
   8   3   3   33.60    6.40
  -8   3  -3   32.50    4.00
  -8   3  -3   27.20    3.50
  -9  -3  -3  146.09   12.70
   9  -3   3   97.49    8.60
  -9  -3  -3  104.79    8.60
  -9  -3  -3  111.29    8.40
  -9  -3  -3  135.59   14.20
  -9  -3  -3  124.99    9.10
  -9   3  -3  123.09    8.10
   9   3   3  139.39   11.00
  -9   3  -3   97.99    7.60
  10  -3   3   33.80    6.80
 -10  -3  -3   13.10    3.50
 -10  -3  -3   29.30    7.60
 -10  -3  -3   16.50    3.00
 -10  -3  -3   37.10    9.50
  10  -3   3   26.80    5.50
 -10   3  -3   24.30    3.90
  10   3   3   21.00    5.70
 -10   3  -3   22.90    4.30
 -11  -3  -3   45.60    5.10
  11  -3   3   43.90    8.60
 -11  -3  -3   46.40    8.10
  11  -3   3   53.69    5.80
 -11   3  -3   38.20    4.60
 -11   3  -3   38.70    4.90
  11   3   3   47.20    8.40
  12  -3   3    9.00    5.10
 -12  -3  -3   20.90    3.50
 -12   3  -3   12.60    2.60
 -12   3  -3   19.30    3.50
  12   3   3   22.50    5.40
 -13  -3  -3   32.60    4.30
  13  -3   3   46.50    6.90
 -13   3  -3   26.50    3.70
  13   3   3   45.00    7.00
 -13   3  -3   37.10    3.60
  14   3   3    1.80    2.90
 -14   4   3   50.39    4.60
 -13  -4   3   13.40    2.80
  13  -4  -3   17.90    3.50
  13  -4  -3   19.80    6.10
 -13   4   3   24.60    3.20
  13   4  -3   15.30    4.40
  12  -4  -3   96.99   11.30
 -12  -4   3   78.49   11.20
 -12  -4   3   76.49    6.70
  12  -4  -3   96.49    8.70
 -12  -4   3   66.99    6.90
 -12   4   3   84.09    6.80
  12   4  -3  104.69    9.00
  12   4  -3   84.09    9.20
  11  -4  -3   72.39   10.20
 -11  -4   3   53.49    6.50
 -11  -4   3   53.99    6.00
 -11  -4   3   65.59   10.10
  11  -4  -3   69.19    8.10
  11   4  -3   61.59    8.30
 -11   4   3   61.39    8.50
 -11   4   3   62.39    5.70
  11   4  -3   58.79    8.70
 -10  -4   3    7.40    3.00
  10  -4  -3    7.50    5.20
 -10  -4   3    5.70    5.60
  10  -4  -3   11.50    3.40
 -10  -4   3   14.20    7.00
 -10  -4   3    8.80    2.60
 -10   4   3    8.10    2.40
 -10   4   3   15.50    5.20
  10   4  -3    6.20    4.40
  10   4  -3    7.10    4.50
 -10   4   3    7.40    6.10
  -9  -4   3  125.39    8.20
   9  -4  -3  108.49    9.50
  -9  -4   3  122.29    8.50
  -9  -4   3  115.59   12.60
  -9  -4   3  126.19   12.10
  -9  -4   3  146.59    8.80
  -9   4   3  124.89   10.50
  -9   4   3  115.19    8.30
   9   4  -3  114.39   10.00
  -9   4   3  115.59   11.60
   8  -4  -3   48.40    5.70
  -8   4   3   42.70    7.00
  -8   4   3   48.30    4.30
   8   4  -3   47.60    5.40
  -8   4   3   49.60    4.30
  -8   4   3   47.90    6.20
  -7  -4   3   49.30    4.60
  -7  -4   3   58.39    8.00
  -7  -4   3   64.49    7.70
   7  -4  -3   62.59    5.80
  -7   4   3   68.39    4.70
   7   4  -3   60.49    5.50
   7   4  -3   61.19    6.80
   7   4  -3   49.70    6.00
   7   4  -3   63.59    6.90
  -7   4   3   64.39    4.70
  -7   4   3   72.99    7.20
   7   4  -3   66.29    5.80
  -7   4   3   77.99    6.60
  -6  -4   3  233.88   16.60
  -6  -4   3  255.57   17.20
  -6  -4   3  249.08   14.40
  -6  -4   3  253.77   14.60
   6   4  -3  236.48   15.70
   6   4  -3  238.28   15.10
   6   4  -3  229.88   14.80
   6   4  -3  212.48   15.20
  -6   4   3  244.78   16.20
  -6   4   3  241.78   14.70
  -6   4   3  246.58   14.50
   6   4  -3  256.37   15.20
  -6   4   3  261.97   15.90
  -5  -4   3 1243.18   69.49
  -5  -4   3 1211.18   71.29
  -5  -4   3 1142.59   70.79
  -5  -4   3 1255.67   69.39
   5   4  -3 1205.18   70.19
  -5   4   3 1218.18   70.79
   5   4  -3 1202.58   69.59
   5   4  -3 1239.28   69.69
  -5   4   3 1204.98   69.49
   5   4  -3 1108.99   69.79
  -5   4   3 1269.37   70.49
  -5   4   3 1169.28   69.69
  -4  -4   3 2003.20  117.09
  -4  -4   3 2036.20  115.89
  -4  -4   3 2142.99  117.49
  -4   4   3 1894.01  116.19
   4   4  -3 1897.71  116.29
   4   4  -3 2175.08  116.09
  -4   4   3 2075.99  116.79
  -4   4   3 1950.30  116.09
   4   4  -3 1936.11  116.09
  -4   4   3 2086.89  116.99
   4   4  -3 2036.00  116.59
  -3  -4   3   89.79    6.70
  -3  -4   3   94.19    7.00
  -3   4   3   86.49    6.60
  -3   4   3   87.19    6.30
  -2  -4   3  665.03   38.30
  -2  -4   3  652.23   38.40
  -2   4   3  641.74   38.30
  -2   4   3  639.64   38.10
  -1  -4   3 1181.08   66.69
  -1  -4   3 1169.98   66.79
  -1   4   3 1119.49   66.79
  -1   4   3 1137.49   66.99
   0  -4   3   77.49    5.30
   0   4   3   89.19    5.90
   0   4   3   81.39    5.60
   1   4   3  462.55   27.60
   1   4   3  463.55   27.40
  -2  -4  -3   57.59    6.20
   2   4   3   55.99    4.30
  -3  -4  -3    5.50    3.60
   3   4   3    7.00    2.10
  -3   4  -3    9.30    1.60
   3   4   3    9.80    2.10
  -3   4  -3    9.80    1.40
   3   4   3    8.30    2.50
   3   4   3    8.00    1.90
   3   4   3    4.50    1.70
   4  -4   3   63.39    5.30
  -4  -4  -3   85.09    8.40
  -4  -4  -3   76.79    4.80
  -4  -4  -3   69.29    7.30
   4   4   3   75.99    6.00
  -4   4  -3   73.59    5.00
   4   4   3   86.79    6.30
   4   4   3   68.69    5.70
   4   4   3   74.59    5.80
  -4   4  -3   73.39    5.20
  -4   4  -3   78.69    5.10
   5  -4   3  355.76   24.00
  -5  -4  -3  440.96   23.30
  -5  -4  -3  389.86   26.00
  -5  -4  -3  400.56   25.50
   5  -4   3  372.06   23.60
  -5   4  -3  400.16   23.50
   5   4   3  415.16   24.10
   5   4   3  412.86   24.00
  -5   4  -3  401.76   23.40
  -5   4  -3  417.96   23.30
   5   4   3  389.26   23.90
   5   4   3  379.06   24.20
  -6  -4  -3   24.80    6.10
  -6  -4  -3   16.80    5.40
   6  -4   3   24.90    4.10
   6  -4   3   23.60    4.70
  -6  -4  -3   27.90    4.20
  -6   4  -3   19.20    3.00
   6   4   3   29.70    5.10
   6   4   3   36.50    5.10
  -6   4  -3   25.10    3.40
   6   4   3   27.80    4.40
  -6   4  -3   29.90    3.10
  -7  -4  -3  276.67   17.40
  -7  -4  -3  282.57   17.00
   7  -4   3  271.47   17.50
  -7  -4  -3  281.07   20.10
  -7  -4  -3  291.47   20.80
   7  -4   3  304.47   18.60
   7   4   3  269.47   18.40
   7   4   3  260.27   18.10
  -7   4  -3  295.97   16.90
  -7   4  -3  290.37   17.20
   7   4   3  279.87   17.70
   7   4   3  295.37   17.90
   8  -4   3   37.50    5.40
  -8  -4  -3   36.60    8.00
  -8  -4  -3   37.40    5.10
   8  -4   3   39.40    6.80
  -8  -4  -3   33.90    5.90
  -8  -4  -3   42.20    7.50
   8   4   3   38.40    5.70
   8   4   3   47.40    7.00
  -8   4  -3   43.00    4.10
  -8   4  -3   35.10    4.70
   8   4   3   45.90    5.90
  -9  -4  -3   28.90    9.10
  -9  -4  -3   34.50    7.90
   9  -4   3   51.99    6.10
   9  -4   3   60.89    8.10
  -9  -4  -3   36.90    6.20
  -9  -4  -3   41.90    6.70
  -9   4  -3   50.99    5.30
  -9   4  -3   52.89    4.80
   9   4   3   55.49    6.30
   9   4   3   48.40    8.10
 -10  -4  -3  120.79   14.30
 -10  -4  -3  131.69   10.90
 -10  -4  -3  118.09   10.10
  10  -4   3  173.98   12.70
  10  -4   3  148.89   10.60
 -10   4  -3  152.68    9.90
 -10   4  -3  143.69    9.50
  10   4   3  157.48   12.70
 -11  -4  -3   12.10    6.50
  11  -4   3    6.40    3.20
 -11  -4  -3    9.80    3.50
  11  -4   3   10.70    5.50
 -11  -4  -3    7.60    2.70
 -11   4  -3   11.40    2.70
  11   4   3   12.20    5.40
 -11   4  -3    8.40    2.40
 -12  -4  -3   37.10    5.60
  12  -4   3   56.59    8.00
  12  -4   3   53.89    5.40
 -12   4  -3   40.10    4.30
 -12   4  -3   34.80    4.40
  12   4   3   50.19    7.70
 -13  -4  -3   -3.00    2.20
  13  -4   3    4.00    3.70
  13   4   3    4.50    3.90
 -13   4  -3   -0.90    1.60
  14  -5  -3   17.90    4.60
 -14   5   3   15.90    2.30
 -13  -5   3    0.70    2.30
  13  -5  -3    3.40    2.90
 -13  -5   3    0.70    2.10
  13  -5  -3    1.50    5.40
 -13   5   3    2.00    2.40
  12  -5  -3   29.50    4.60
  12  -5  -3   28.20    6.60
  12   5  -3   29.40    5.20
 -12   5   3   26.40    4.70
  12   5  -3   23.80    5.10
 -11  -5   3  105.79    7.70
 -11  -5   3   94.89   12.70
 -11  -5   3  104.69    8.60
  11  -5  -3  105.39   11.80
  11  -5  -3   99.49    9.50
  11   5  -3   99.59   10.20
 -11   5   3   91.59    7.50
  11   5  -3  105.99    9.60
 -11   5   3   86.79   10.80
  10  -5  -3   16.50    5.90
 -10  -5   3   17.90    6.80
 -10  -5   3   16.00    3.40
  10  -5  -3   18.50    4.00
 -10  -5   3    8.40    7.70
 -10  -5   3   18.00    2.80
 -10  -5   3   17.30    3.10
  10   5  -3   17.00    5.00
  10   5  -3   23.40    4.90
 -10   5   3   12.60    2.70
 -10   5   3   25.90    5.20
 -10   5   3   20.00    7.00
  -9  -5   3    9.40    2.30
  -9  -5   3   13.40    6.10
   9  -5  -3    4.90    3.10
  -9  -5   3   12.00    6.20
   9   5  -3   14.90    4.80
  -9   5   3   15.40    4.60
   9   5  -3   10.20    4.10
  -9   5   3   21.00    6.10
   9   5  -3   10.40    3.50
   9   5  -3   14.10    3.50
  -9   5   3   12.00    2.60
  -8  -5   3  120.79    8.20
  -8  -5   3  119.89   11.50
  -8  -5   3  122.69    7.90
  -8  -5   3  103.79   12.00
   8  -5  -3  109.89    8.90
  -8   5   3  125.29    9.80
  -8   5   3  112.79    7.90
   8   5  -3  115.89    9.10
  -8   5   3  143.89   11.10
   8   5  -3  112.09    9.30
   8   5  -3  124.59   10.60
  -8   5   3  120.49    8.10
   8   5  -3  109.69    9.20
   8   5  -3   98.69   10.30
  -7  -5   3   61.59    4.50
  -7  -5   3   50.69    8.10
  -7  -5   3   51.29    7.60
  -7  -5   3   55.69    5.00
   7   5  -3   50.39    5.90
  -7   5   3   63.19    6.30
   7   5  -3   58.29    7.00
  -7   5   3   57.09    4.50
   7   5  -3   45.90    5.80
  -7   5   3   52.79    4.50
  -7   5   3   67.49    7.30
   7   5  -3   64.69    7.40
   7   5  -3   51.59    5.80
  -6  -5   3  211.88   11.90
  -6  -5   3  200.48   12.10
  -6  -5   3  180.78   15.00
  -6  -5   3  190.18   14.40
   6   5  -3  208.48   13.00
  -6   5   3  197.88   13.30
   6   5  -3  204.88   13.60
  -6   5   3  179.28   12.10
   6   5  -3  191.38   12.90
  -6   5   3  190.08   11.90
   6   5  -3  200.18   12.60
  -6   5   3  198.38   13.70
  -5  -5   3   72.79    5.00
  -5  -5   3   75.49    5.40
  -5  -5   3   77.19    8.20
  -5  -5   3   76.09    7.60
  -5   5   3   77.59    6.20
   5   5  -3   77.59    6.50
   5   5  -3   72.39    5.90
   5   5  -3   70.29    6.20
  -5   5   3   74.79    6.60
  -5   5   3   68.79    5.20
  -5   5   3   69.79    5.00
   5   5  -3   85.39    6.90
  -4  -5   3   52.49    6.20
  -4  -5   3   48.90    5.80
  -4  -5   3   51.69    3.60
  -4   5   3   48.60    4.60
  -4   5   3   53.59    3.80
   4   5  -3   46.10    4.50
   4   5  -3   60.19    4.90
   4   5  -3   57.09    4.90
   4   5  -3   50.59    5.40
  -4   5   3   41.10    3.60
  -4   5   3   48.20    4.90
  -3  -5   3  379.46   23.70
  -3  -5   3  382.16   24.00
   3   5  -3  386.36   22.60
  -3   5   3  395.56   23.60
   3   5  -3  369.46   22.80
  -3   5   3  391.66   23.30
   3   5  -3  393.66   23.00
   3   5  -3  392.06   22.70
  -2  -5   3   31.80    3.90
  -2  -5   3   25.50    3.80
   2   5  -3   30.70    3.20
  -2   5   3   36.70    3.30
   2   5  -3   31.60    3.30
   2   5  -3   29.00    3.50
   2   5  -3   33.20    2.90
  -2   5   3   28.60    2.60
   2   5  -3   30.10    3.80
  -2   5   3   32.10    3.70
  -1  -5   3  193.58   12.20
  -1  -5   3  202.68   12.40
   1   5  -3  190.08   11.70
   1   5  -3  194.98   11.80
  -1   5   3  196.68   12.40
  -1   5   3  181.98   11.90
   1   5  -3  185.38   11.90
  -1   5   3  205.58   12.20
   1   5  -3  202.08   11.60
   0  -5   3   57.19    4.30
   0  -5   3   52.39    4.40
   0   5   3   53.79    4.50
   0   5   3   60.49    4.80
   0   5  -3   57.19    3.90
   0   5  -3   52.59    4.10
   0   5  -3   57.79    4.20
   0   5   3   63.89    5.40
   0   5   3   57.59    4.50
   1  -5   3    9.70    1.50
   1   5   3    7.20    1.80
  -1   5  -3   10.90    1.70
   1   5   3    8.70    1.90
   1   5   3    6.30    1.70
   1   5   3    9.90    2.30
   1   5   3    7.80    1.60
  -1   5  -3   10.60    1.70
  -1   5  -3   12.70    1.70
   1   5   3    7.30    2.00
  -2  -5  -3  173.88   12.60
   2   5   3  180.98   10.80
  -2   5  -3  170.78   10.10
   2   5   3  182.08   10.90
  -2   5  -3  157.48   10.30
   2   5   3  162.68   10.70
   2   5   3  154.58   10.60
  -2   5  -3  161.68   10.30
   2   5   3  185.18   10.70
   2   5   3  162.18   10.70
  -3  -5  -3  158.18   12.50
   3   5   3  178.28   10.80
   3   5   3  151.08   10.40
   3   5   3  152.98   10.60
   3   5   3  177.48   10.70
  -3   5  -3  159.68    9.80
  -3   5  -3  159.28   10.00
   3   5   3  172.28   10.80
  -3   5  -3  155.98   10.00
  -4  -5  -3  447.06   28.30
  -4  -5  -3  454.95   25.30
  -4  -5  -3  474.25   27.90
   4   5   3  425.26   26.20
   4   5   3  396.96   26.10
  -4   5  -3  427.06   25.60
   4   5   3  430.96   26.10
   4   5   3  452.35   26.20
  -4   5  -3  433.06   25.60
   4   5   3  441.06   26.10
  -4   5  -3  432.06   25.40
  -5  -5  -3    1.00    5.20
   5  -5   3    3.10    1.80
   5  -5   3    4.80    2.70
  -5  -5  -3    4.10    1.40
  -5  -5  -3    3.40    4.80
   5   5   3    4.90    2.70
  -5   5  -3    6.10    1.80
   5   5   3   -0.70    2.70
   5   5   3    3.20    2.40
  -5   5  -3    5.30    1.50
   5   5   3   10.30    2.90
  -5   5  -3    4.50    1.60
  -6  -5  -3  214.68   18.10
   6  -5   3  209.98   14.50
  -6  -5  -3  240.48   14.40
  -6  -5  -3  252.97   14.00
   6  -5   3  217.08   15.20
  -6  -5  -3  235.78   17.60
  -6   5  -3  229.78   14.00
   6   5   3  214.68   15.30
   6   5   3  228.68   15.20
   6   5   3  254.27   15.20
  -6   5  -3  230.48   14.10
  -6   5  -3  228.18   14.20
   6   5   3  236.28   15.40
   7  -5   3  107.49    8.60
  -7  -5  -3   99.99   12.30
  -7  -5  -3  109.49    8.60
  -7  -5  -3  106.99   13.20
  -7  -5  -3  125.39    8.00
   7  -5   3  107.79    9.40
   7   5   3  115.39    9.80
  -7   5  -3  111.49    7.90
   7   5   3  109.59    9.30
   7   5   3  123.99    9.20
   7   5   3  109.99    9.80
  -7   5  -3  114.29    7.60
  -8  -5  -3   75.99   11.40
  -8  -5  -3   91.79    6.80
  -8  -5  -3   75.89    7.80
  -8  -5  -3   88.19   11.80
   8  -5   3   83.49    8.40
   8   5   3   68.19    8.10
  -8   5  -3   70.19    6.40
   8   5   3   78.89    8.80
  -8   5  -3   75.59    6.00
   8   5   3   79.29    7.70
   9  -5   3   62.39    8.30
  -9  -5  -3   58.09    7.80
  -9  -5  -3   46.40   10.20
  -9  -5  -3   56.89    6.60
   9  -5   3   75.19    7.00
  -9  -5  -3   50.09    9.30
   9   5   3   56.09    7.70
  -9   5  -3   63.99    5.50
   9   5   3   66.29    7.30
  -9   5  -3   69.29    6.00
 -10  -5  -3   58.29    6.70
  10  -5   3   63.59    6.80
  10  -5   3   68.39    8.70
 -10  -5  -3   58.59    6.60
 -10  -5  -3   56.29    7.40
 -10  -5  -3   54.69    9.40
 -10   5  -3   58.79    5.70
 -10   5  -3   55.19    5.40
  10   5   3   81.29    9.00
 -11  -5  -3    0.70    2.60
 -11  -5  -3    4.40    3.40
  11  -5   3    2.70    4.60
  11  -5   3    3.50    3.10
  11   5   3    4.00    4.90
 -11   5  -3    2.30    2.20
 -11   5  -3   -0.40    2.10
  12  -5   3   21.20    4.80
 -12  -5  -3   19.50    3.50
  12  -5   3   26.00    4.60
  12   5   3   12.10    4.50
 -12   5  -3   22.60    3.50
 -12   5  -3   19.50    3.50
 -13  -5  -3    9.20    2.40
  13  -5   3    7.70    3.70
 -13   5  -3   13.80    2.50
  13   5   3   18.60    3.90
  14  -6  -3   56.09    9.20
 -14   6   3   51.29    4.50
 -13  -6   3   -1.20    2.40
  13  -6  -3    2.50    4.60
  13  -6  -3    5.00    2.90
 -13   6   3    2.20    2.20
  12  -6  -3   17.60    5.60
  12  -6  -3   31.90    6.40
 -12  -6   3   16.10    2.80
 -12  -6   3   18.80    3.70
 -12   6   3   25.00    4.50
  12   6  -3   24.30    4.80
  11  -6  -3   11.50    3.80
 -11  -6   3   10.80    6.80
  11  -6  -3   13.30    6.20
 -11  -6   3    7.20    2.80
 -11  -6   3   11.10    3.80
 -11   6   3    8.40    2.70
  11   6  -3    7.70    4.80
 -10  -6   3   11.60    2.70
  10  -6  -3    9.90    3.60
 -10  -6   3   13.90    3.10
 -10  -6   3   11.20    3.50
 -10  -6   3    4.30    6.00
  10  -6  -3    5.00    5.50
  10   6  -3    8.90    4.90
 -10   6   3   11.00    5.50
 -10   6   3   11.30    2.90
  10   6  -3    9.70    4.20
  -9  -6   3  119.99   12.80
  -9  -6   3   95.39    7.60
  -9  -6   3  104.39    7.60
  -9  -6   3   87.49   13.00
   9  -6  -3  103.69    8.90
  -9   6   3   96.99    7.60
  -9   6   3  105.69   12.00
  -9   6   3  115.19    9.70
   9   6  -3  103.59    9.40
   9   6  -3  114.29   10.80
   9   6  -3   84.39    9.30
   8  -6  -3    7.00    2.90
  -8  -6   3    3.70    5.50
  -8  -6   3    2.50    2.60
  -8  -6   3    9.30    5.40
  -8  -6   3    6.10    2.10
  -8   6   3    7.80    3.70
  -8   6   3   12.10    5.00
   8   6  -3    6.20    3.80
   8   6  -3    8.00    5.00
   8   6  -3    2.30    3.30
  -8   6   3    6.20    2.30
   8   6  -3    2.10    4.30
  -8   6   3    2.90    2.20
  -7  -6   3   28.10    3.70
  -7  -6   3   33.70    6.40
  -7  -6   3   29.10    4.40
  -7  -6   3   19.10    6.10
   7   6  -3   24.10    4.80
  -7   6   3   32.90    3.80
  -7   6   3   24.80    4.80
  -7   6   3   24.60    4.30
  -7   6   3   31.80    3.50
   7   6  -3   28.80    4.30
   7   6  -3   28.60    4.50
   7   6  -3   34.40    5.50
  -6  -6   3  163.88    9.80
  -6  -6   3  160.48   10.10
  -6  -6   3  150.08   12.80
  -6  -6   3  148.19   13.30
   6   6  -3  162.48   12.00
  -6   6   3  166.18   11.20
  -6   6   3  158.38    9.90
  -6   6   3  143.89   10.00
   6   6  -3  158.68   10.90
   6   6  -3  149.49   11.00
   6   6  -3  150.48   11.30
  -6   6   3  157.18   11.70
  -5  -6   3   32.90    5.60
  -5  -6   3   40.60    3.50
  -5  -6   3   28.10    5.60
  -5  -6   3   34.00    4.00
  -5   6   3   37.70    5.10
   5   6  -3   34.00    4.20
   5   6  -3   45.10    6.20
   5   6  -3   40.10    5.50
  -5   6   3   28.40    3.20
  -5   6   3   37.50    3.80
  -5   6   3   46.30    4.60
  -5   6   3   41.30    3.50
   5   6  -3   32.10    4.80
  -4  -6   3  389.56   24.60
  -4  -6   3  385.06   22.30
  -4  -6   3  368.76   24.10
   4   6  -3  404.16   22.90
   4   6  -3  388.66   23.20
  -4   6   3  376.36   22.40
  -4   6   3  393.76   23.30
  -4   6   3  372.66   22.70
  -4   6   3  368.46   22.60
   4   6  -3  386.46   22.90
  -4   6   3  376.86   23.60
   4   6  -3  374.06   23.60
  -3  -6   3  319.57   19.50
  -3  -6   3  328.77   21.00
  -3  -6   3  317.47   21.30
  -3   6   3  318.47   19.80
  -3   6   3  354.66   20.50
  -3   6   3  322.77   20.80
   3   6  -3  347.07   20.10
   3   6  -3  358.06   20.40
   3   6  -3  344.17   20.00
   3   6  -3  358.36   19.80
   3   6  -3  325.87   20.60
  -3   6   3  333.87   20.00
  -3   6   3  311.57   19.50
  -2  -6   3  644.84   38.50
  -2  -6   3  661.53   38.30
   2   6  -3  606.64   37.90
  -2   6   3  647.34   38.20
   2   6  -3  647.54   37.50
   2   6  -3  686.63   37.40
   2   6  -3  699.03   37.20
  -2   6   3  599.44   37.60
  -2   6   3  647.44   38.00
  -2   6   3  596.64   37.50
   2   6  -3  643.34   37.70
  -2   6   3  628.94   37.50
  -1  -6   3  101.29    7.30
  -1  -6   3   85.79    6.90
  -1   6   3   86.19    6.10
  -1   6   3   89.49    6.50
   1   6  -3   97.79    6.50
   1   6  -3   91.59    6.30
  -1   6   3   93.09    7.00
  -1   6   3   88.49    6.50
   1   6  -3   83.89    6.70
   1   6  -3   93.19    6.70
   1   6  -3   97.89    6.00
  -1   6   3   96.59    6.60
  -1   6   3   88.39    6.60
   0  -6   3   49.10    4.40
   0  -6   3   47.70    4.50
   0   6   3   49.99    3.80
   0   6  -3   43.00    4.30
   0   6  -3   49.99    3.70
   0   6   3   49.50    4.50
   0   6   3   38.40    4.30
   0   6   3   45.20    4.70
   0   6  -3   50.79    4.40
   0   6   3   46.00    4.60
   0   6   3   54.29    5.10
   0   6  -3   42.30    4.10
  -1   6  -3  891.71   49.20
   1   6   3  902.81   49.40
   1   6   3  806.72   49.60
   1   6   3  814.22   49.60
  -1   6  -3  861.81   49.40
   1   6   3  832.82   49.70
  -1   6  -3  833.52   49.50
   1   6   3  831.92   49.90
  -1   6  -3  832.82   49.30
   1   6   3  906.11   49.60
  -2  -6  -3   35.00    6.70
   2   6   3   58.89    5.30
   2   6   3   64.39    5.70
  -2   6  -3   52.39    4.80
  -2   6  -3   57.89    4.40
  -2   6  -3   60.09    4.80
   2   6   3   61.79    4.90
  -2   6  -3   61.89    4.70
   2   6   3   63.79    5.80
   2   6   3   64.89    5.20
   2   6   3   72.89    5.70
  -3  -6  -3    8.30    5.30
   3   6   3    7.40    3.00
  -3   6  -3   11.50    2.00
  -3   6  -3   13.60    2.10
   3   6   3    8.50    2.40
   3   6   3   11.60    2.90
   3   6   3   14.30    3.00
  -3   6  -3   13.60    1.90
   3   6   3    7.50    3.20
  -4  -6  -3    8.20    5.20
  -4  -6  -3    9.00    5.50
  -4  -6  -3    8.00    1.40
   4  -6   3    6.80    1.80
   4   6   3    9.90    3.30
   4   6   3    9.00    3.70
   4   6   3    7.60    2.80
   4   6   3   14.90    3.00
  -4   6  -3   11.00    1.90
   4   6   3    8.10    2.80
  -5  -6  -3    7.60    5.60
   5  -6   3   10.60    2.30
  -5  -6  -3    5.50    6.00
  -5  -6  -3   15.80    2.80
   5   6   3    9.50    3.00
   5   6   3   14.60    3.90
  -5   6  -3   10.40    2.00
   5   6   3    8.10    3.50
  -5   6  -3   20.60    3.20
   5   6   3   10.80    3.10
  -5   6  -3   14.40    2.50
   6  -6   3   11.60    2.80
  -6  -6  -3    1.60    6.30
   6  -6   3   10.30    3.50
  -6  -6  -3   10.50    6.30
  -6  -6  -3   18.50    3.40
   6   6   3    7.50    3.80
  -6   6  -3   16.30    2.60
  -6   6  -3   12.90    2.40
   6   6   3   14.00    3.80
   6   6   3   20.80    4.40
   6   6   3   12.90    3.80
   7  -6   3  157.08   12.30
  -7  -6  -3  164.68   15.90
   7  -6   3  151.98   11.50
  -7  -6  -3  161.88   17.00
  -7  -6  -3  156.68   11.60
  -7  -6  -3  179.78   10.90
  -7   6  -3  169.98   11.10
   7   6   3  180.88   12.40
  -7   6  -3  170.28   10.60
   7   6   3  164.58   12.90
   7   6   3  183.38   12.80
   7   6   3  168.68   12.60
  -8  -6  -3  235.68   16.80
  -8  -6  -3  272.17   16.20
  -8  -6  -3  241.58   21.60
  -8  -6  -3  252.77   20.80
   8  -6   3  257.87   17.60
   8  -6   3  242.68   16.60
   8   6   3  291.17   18.00
  -8   6  -3  253.17   15.80
   8   6   3  290.07   17.60
   8   6   3  261.17   17.50
  -8   6  -3  267.67   16.20
   8   6   3  232.88   17.80
  -9  -6  -3   79.89    7.40
  -9  -6  -3   94.59   13.70
   9  -6   3   95.69    9.00
  -9  -6  -3   65.89    8.70
   9  -6   3   77.09    7.60
   9   6   3   91.09    9.20
   9   6   3   81.99    8.30
  -9   6  -3   84.79    6.80
  -9   6  -3   81.79    6.50
   9   6   3   72.99    8.70
  10  -6   3  116.99   10.50
 -10  -6  -3  112.69   10.10
 -10  -6  -3  101.19    8.90
 -10  -6  -3   98.29    9.10
  10  -6   3  127.89    9.30
 -10  -6  -3  106.59   14.10
  10   6   3  128.79    9.80
  10   6   3  134.49   10.90
 -10   6  -3  115.29    8.10
 -10   6  -3  115.49    8.30
  11  -6   3   18.30    3.50
 -11  -6  -3   11.50    3.50
 -11  -6  -3   14.20    2.90
  11  -6   3    6.40    4.20
 -11   6  -3   12.90    2.50
 -11   6  -3   11.60    2.50
  11   6   3   20.40    4.70
  12  -6   3   16.50    3.00
  12  -6   3   12.40    4.10
 -12  -6  -3   15.90    3.20
 -12   6  -3   12.20    2.20
  12   6   3   18.10    4.20
 -13  -6  -3    0.70    2.00
  13  -7  -3    7.50    4.60
  13  -7  -3    7.00    2.70
 -13   7   3    9.20    2.10
  12  -7  -3    5.00    4.70
 -12  -7   3   15.80    3.40
  12  -7  -3   19.70    3.70
  12   7  -3   19.50    4.30
 -12   7   3   17.80    2.80
 -11  -7   3   19.10    4.10
  11  -7  -3   27.20    4.30
 -11  -7   3   24.80    4.20
  11  -7  -3   18.00    5.70
 -11   7   3   17.40    3.10
  11   7  -3   16.50    5.10
 -10  -7   3   68.79    7.50
 -10  -7   3   71.89   11.20
  10  -7  -3   94.09    8.10
 -10  -7   3   69.99    6.40
  10  -7  -3   80.49   10.20
 -10  -7   3   77.79    6.40
  10   7  -3   59.29    8.60
  10   7  -3   81.09    8.80
  10   7  -3   63.59    9.60
 -10   7   3   59.09    6.50
  -9  -7   3   -1.80    2.60
  -9  -7   3    3.00    2.30
   9  -7  -3   -0.80    3.00
  -9  -7   3    3.20    6.50
   9   7  -3   -2.30    5.10
   9   7  -3    1.90    4.10
  -9   7   3    0.90    2.60
   9   7  -3    1.90    3.80
  -8  -7   3   92.69   11.60
  -8  -7   3   80.79    6.90
  -8  -7   3   79.59    6.50
   8  -7  -3   79.59    7.40
  -8  -7   3   59.59   10.10
  -8   7   3  101.99   11.00
  -8   7   3   80.09    6.40
  -8   7   3   88.29    6.70
  -8   7   3   97.49    8.30
   8   7  -3   79.89   10.10
   8   7  -3   77.19    8.60
   8   7  -3   86.29    9.30
   8   7  -3   59.69    9.90
  -7  -7   3    9.00    2.80
  -7  -7   3    9.20    5.80
  -7  -7   3   11.40    5.60
  -7  -7   3    9.90    2.20
   7   7  -3   13.40    4.80
  -7   7   3   11.60    2.70
   7   7  -3    8.80    4.10
  -7   7   3   14.20    3.80
   7   7  -3   11.10    3.80
  -7   7   3   10.20    4.50
  -7   7   3   13.00    2.50
   7   7  -3    4.20    4.40
  -6  -7   3  227.68   19.60
  -6  -7   3  260.37   15.90
  -6  -7   3  260.47   16.20
  -6  -7   3  275.97   19.30
   6   7  -3  276.97   18.10
  -6   7   3  281.07   17.30
  -6   7   3  263.27   16.20
  -6   7   3  272.27   18.00
   6   7  -3  258.97   16.90
   6   7  -3  263.07   17.30
   6   7  -3  262.37   17.30
  -6   7   3  262.77   16.00
  -5  -7   3    3.70    4.70
  -5  -7   3    3.00    4.20
  -5  -7   3    4.50    2.20
  -5  -7   3    5.60    1.70
   5   7  -3    5.00    2.90
   5   7  -3    6.20    3.80
   5   7  -3    5.60    3.50
   5   7  -3    2.40    3.60
  -5   7   3    5.30    3.40
  -5   7   3    5.60    1.70
  -5   7   3    7.00    2.80
  -5   7   3    7.90    2.00
  -4  -7   3    4.70    4.30
  -4  -7   3    2.60    1.40
  -4  -7   3    3.80    3.80
  -4   7   3    6.00    1.70
  -4   7   3   -1.80    2.50
   4   7  -3    4.00    3.40
   4   7  -3    3.30    2.80
  -4   7   3    5.30    1.70
  -4   7   3    0.30    2.20
   4   7  -3    4.10    2.70
  -4   7   3    5.80    1.90
   4   7  -3    0.60    2.90
  -3  -7   3    0.70    3.70
  -3  -7   3    1.10    1.20
  -3  -7   3    2.30    3.20
  -3   7   3    3.30    1.50
   3   7  -3    1.60    2.00
   3   7  -3    4.70    2.30
   3   7  -3   -0.80    2.90
  -3   7   3    0.50    2.40
  -3   7   3    2.50    2.10
   3   7  -3    5.30    2.40
  -3   7   3    3.50    1.40
  -3   7   3    4.20    1.80
   3   7  -3    4.50    2.90
  -2  -7   3  179.18   12.50
  -2  -7   3  167.18   12.80
  -2   7   3  177.08   11.10
  -2   7   3  169.58   11.50
  -2   7   3  172.38   10.70
  -2   7   3  180.08   12.20
   2   7  -3  181.78   11.10
   2   7  -3  183.88   11.90
  -2   7   3  179.38   11.50
  -2   7   3  185.78   11.80
   2   7  -3  177.38   11.90
   2   7  -3  178.78   11.60
  -2   7   3  171.88   11.10
   2   7  -3  188.38   11.40
  -2   7   3  187.18   11.40
  -1  -7   3  220.88   14.30
  -1  -7   3  213.58   14.50
  -1   7   3  226.98   13.50
   1   7  -3  222.98   13.50
  -1   7   3  205.98   13.60
   1   7  -3  229.28   13.80
  -1   7   3  204.08   13.20
   1   7  -3  215.68   13.30
  -1   7   3  209.08   13.70
  -1   7   3  214.18   13.90
  -1   7   3  219.88   13.30
   1   7  -3  213.38   13.00
  -1   7   3  227.08   14.30
   1   7  -3  211.78   13.80
   0   7   3  224.98   14.20
   0   7  -3  225.08   13.50
   0   7  -3  214.58   13.70
   0   7   3  227.58   13.70
   0   7  -3  229.78   13.90
   0   7   3  223.48   14.20
   0   7   3  207.88   13.70
   0   7  -3  228.28   14.10
   0   7   3  229.38   14.30
   0   7   3  230.18   14.00
  -1  -7  -3   98.89   11.00
  -1   7  -3   97.99    6.40
   1   7   3   93.79    7.20
   1   7   3   89.99    7.30
   1   7   3   92.49    6.60
  -1   7  -3   91.89    6.70
   1   7   3   97.19    7.50
   1   7   3   88.89    7.40
  -1   7  -3   88.79    7.00
   1   7   3   92.19    7.20
  -1   7  -3   96.89    7.00
  -2  -7  -3  657.73   42.00
   2   7   3  670.03   39.70
  -2   7  -3  637.24   39.30
   2   7   3  686.63   39.60
  -2   7  -3  674.83   39.00
   2   7   3  676.83   39.50
  -2   7  -3  696.93   39.20
   2   7   3  729.83   39.40
  -2   7  -3  637.54   39.10
   2   7   3  647.14   39.70
   2   7   3  663.23   39.90
  -3  -7  -3    5.40    5.50
  -3  -7  -3    6.80    5.70
  -3  -7  -3    5.90    1.40
   3   7   3   10.90    3.60
  -3   7  -3    8.40    2.00
  -3   7  -3    8.10    2.10
  -3   7  -3    8.90    2.10
   3   7   3    9.90    3.30
   3   7   3    6.80    2.50
   3   7   3    5.10    2.40
   3   7   3    9.20    3.30
  -4  -7  -3  598.84   32.60
  -4  -7  -3  572.44   37.10
  -4  -7  -3  601.94   36.40
   4   7   3  529.75   33.60
   4   7   3  550.94   33.80
  -4   7  -3  488.25   33.00
   4   7   3  575.04   33.90
   4   7   3  568.34   33.70
   4   7   3  592.84   33.80
  -4   7  -3  562.14   33.10
  -4   7  -3  574.34   32.90
  -5  -7  -3   31.90    8.10
  -5  -7  -3   38.90    3.70
   5  -7   3   32.30    4.40
  -5  -7  -3   26.80    7.60
   5   7   3   26.80    4.80
  -5   7  -3   27.90    3.90
   5   7   3   37.90    5.20
  -5   7  -3   32.60    4.20
   5   7   3   27.20    4.50
   5   7   3   32.60    6.10
  -5   7  -3   30.70    4.60
   6  -7   3   93.59    8.40
  -6  -7  -3  101.49   14.00
  -6  -7  -3   90.29   13.20
  -6  -7  -3  126.49    7.90
   6   7   3  116.79   10.30
   6   7   3  118.49    9.40
   6   7   3  122.99    9.80
   6   7   3  120.69   10.90
  -6   7  -3  113.59    8.30
  -6   7  -3  111.89    7.90
  -7  -7  -3   -3.60    7.30
  -7  -7  -3    6.00    3.50
  -7  -7  -3    6.30    6.90
  -7  -7  -3    8.40    2.50
   7  -7   3    2.80    2.60
   7   7   3    7.10    3.80
   7   7   3    5.10    4.60
  -7   7  -3    3.20    2.30
   7   7   3   10.00    4.00
  -7   7  -3    5.40    2.40
   7   7   3    6.70    4.50
  -8  -7  -3  207.98   18.40
  -8  -7  -3  187.48   13.70
   8  -7   3  191.68   13.20
  -8  -7  -3  204.68   12.90
   8   7   3  191.58   14.70
   8   7   3  180.98   14.90
  -8   7  -3  190.38   12.70
  -8   7  -3  197.38   12.40
   8   7   3  203.48   14.40
   8   7   3  203.78   14.40
  -9  -7  -3    0.60    3.00
  -9  -7  -3    5.00    4.00
  -9  -7  -3    2.30    7.70
   9  -7   3    5.70    3.10
  -9   7  -3   -0.60    2.50
  -9   7  -3    3.90    2.50
   9   7   3    2.20    4.10
   9   7   3   -4.40    3.80
   9   7   3   -3.40    3.70
 -10  -7  -3   33.20    5.80
 -10  -7  -3   26.40    4.70
  10  -7   3   39.50    5.70
 -10  -7  -3   38.30    4.70
 -10   7  -3   40.40    4.70
  10   7   3   36.20    6.90
 -10   7  -3   28.30    4.40
  10   7   3   37.20    6.50
  11  -7   3    2.10    2.80
 -11  -7  -3    1.10    3.10
 -11  -7  -3    3.70    2.70
 -11   7  -3   -1.30    2.00
  11   7   3   -0.10    3.30
 -11   7  -3    2.30    2.30
 -12  -7  -3   -0.80    2.40
  12  -7   3    1.50    2.30
  12   7   3    2.50    2.80
 -12   7  -3    1.40    1.70
  12  -8  -3   35.80    5.30
  12  -8  -3   32.00    6.60
 -12  -8   3   26.50    5.00
 -12   8   3   30.80    3.90
  12   8  -3   31.70    5.40
 -11  -8   3    9.60    2.80
 -11  -8   3    4.20    3.30
  11  -8  -3   11.00    4.80
  11  -8  -3   18.10    3.70
  11   8  -3   20.10    4.80
 -11   8   3   14.40    2.70
  10  -8  -3   15.30    5.30
 -10  -8   3    7.20    3.00
 -10  -8   3   16.30    3.80
  10  -8  -3   13.20    3.60
 -10  -8   3    9.20    2.70
 -10   8   3   15.50    3.10
  10   8  -3   13.00    4.70
  10   8  -3    7.90    5.00
  10   8  -3    6.50    4.30
   9  -8  -3   10.20    3.40
  -9  -8   3    9.60    2.60
  -9  -8   3    6.60    2.80
  -9  -8   3    9.30    6.80
   9   8  -3   10.90    4.50
  -9   8   3   12.50    3.00
   9   8  -3   12.60    5.70
   9   8  -3   10.60    4.70
   8  -8  -3   64.89    6.70
  -8  -8   3   51.99    6.30
  -8  -8   3   65.99    5.90
  -8  -8   3   58.29    9.30
   8   8  -3   59.19    9.00
   8   8  -3   61.19   10.20
   8   8  -3   70.29    8.80
  -8   8   3   69.59    5.70
  -8   8   3   72.89    6.20
  -7  -8   3   15.70    7.00
  -7  -8   3   23.20    3.70
  -7  -8   3   30.70    4.30
  -7  -8   3   23.50    6.90
   7   8  -3   33.20    5.70
  -7   8   3   33.90    3.90
  -7   8   3   23.70    4.70
   7   8  -3   21.50    5.50
   7   8  -3   37.10    6.50
  -7   8   3   29.90    4.60
   7   8  -3   21.40    4.40
  -6  -8   3   82.99    6.30
  -6  -8   3   78.99   12.40
  -6  -8   3   79.79    6.90
  -6  -8   3  101.29   11.40
  -6   8   3   87.29    6.40
   6   8  -3   80.79    9.20
  -6   8   3   89.59    7.80
  -6   8   3   77.39    9.30
  -6   8   3   87.39    6.50
   6   8  -3   58.99    8.20
   6   8  -3   89.99    9.30
   6   8  -3  105.39   10.20
  -5  -8   3   37.50    7.80
  -5  -8   3   69.19    5.20
  -5  -8   3   61.39    5.80
  -5  -8   3   62.39    9.00
  -5   8   3   70.89    8.00
   5   8  -3   64.39    8.40
   5   8  -3   56.49    7.40
  -5   8   3   63.59    5.30
  -5   8   3   60.99    5.10
   5   8  -3   58.89    8.00
  -5   8   3   66.09    6.50
   5   8  -3   59.19    8.00
  -4  -8   3  171.48   14.90
  -4  -8   3  189.18   12.10
  -4  -8   3  177.58   15.70
   4   8  -3  175.88   13.20
  -4   8   3  220.88   14.20
   4   8  -3  191.08   14.10
  -4   8   3  226.58   13.50
  -4   8   3  226.98   12.50
   4   8  -3  198.38   13.50
   4   8  -3  189.78   13.70
  -3  -8   3   54.19    8.40
  -3  -8   3   39.80    6.10
  -3  -8   3   47.00    3.80
  -3   8   3   45.40    5.10
  -3   8   3   38.70    5.10
  -3   8   3   59.09    6.20
   3   8  -3   42.90    4.90
  -3   8   3   35.30    4.70
   3   8  -3   48.70    6.70
   3   8  -3   50.49    5.70
  -3   8   3   43.90    3.90
   3   8  -3   39.00    5.80
   3   8  -3   36.90    6.40
  -3   8   3   34.00    3.70
  -2  -8   3  414.16   26.70
  -2  -8   3  468.65   27.90
   2   8  -3  437.26   25.30
  -2   8   3  410.76   24.70
  -2   8   3  394.46   25.10
  -2   8   3  389.26   24.40
   2   8  -3  394.56   25.60
  -2   8   3  394.16   25.10
  -2   8   3  440.96   25.70
   2   8  -3  435.06   25.10
  -2   8   3  408.96   24.80
  -2   8   3  451.55   26.20
  -2   8   3  408.06   25.00
   2   8  -3  455.25   25.60
   2   8  -3  417.26   24.70
  -1   8   3   66.59    6.00
  -1   8   3   72.19    6.10
  -1   8   3   56.59    6.50
  -1   8   3   70.09    6.30
   1   8  -3   70.19    7.00
   1   8  -3   68.19    6.30
   1   8  -3   69.89    6.20
  -1   8   3   67.89    6.10
  -1   8   3   67.49    5.20
   1   8  -3   63.19    5.30
   1   8  -3   70.09    6.50
   0  -8  -3  108.79   12.00
   0   8  -3  107.99    8.10
   0   8   3  100.89    7.00
   0   8  -3   95.19    6.90
   0   8  -3   89.89    7.50
   0   8   3  103.79    8.10
   0   8   3  102.79    8.00
   0   8  -3  100.69    7.50
   0   8   3  105.59    7.70
   0   8   3   97.59    7.80
   0   8  -3  105.79    7.70
   0   8   3   93.69    8.40
  -1  -8  -3   11.20    6.30
   1   8   3   13.00    3.40
  -1   8  -3   10.70    2.50
   1   8   3   15.20    3.40
  -1   8  -3   11.40    2.90
   1   8   3   24.50    3.70
   1   8   3   15.90    3.20
   1   8   3   18.40    3.50
   1   8   3   13.70    2.40
  -1   8  -3   16.00    2.50
  -1   8  -3   10.80    2.50
  -2  -8  -3  275.77   20.10
   2   8   3  267.57   16.50
  -2   8  -3  279.77   16.00
  -2   8  -3  260.37   15.50
   2   8   3  251.57   16.60
   2   8   3  241.18   16.60
   2   8   3  242.98   16.50
  -2   8  -3  254.27   16.00
  -2   8  -3  247.08   15.80
   2   8   3  250.17   15.90
  -3  -8  -3   15.80    7.00
  -3  -8  -3   18.60    7.00
  -3   8  -3   20.40    3.80
   3   8   3   17.00    4.00
   3   8   3   18.20    3.80
   3   8   3   23.50    4.50
   3   8   3   21.60    3.90
  -3   8  -3   30.10    4.50
  -3   8  -3   23.00    4.50
   3   8   3   24.20    4.50
  -4  -8  -3   15.50    7.60
  -4  -8  -3    6.70    6.60
  -4  -8  -3    4.30    1.50
   4   8   3    3.80    4.00
  -4   8  -3    2.60    2.20
   4   8   3   -1.70    4.40
  -4   8  -3    4.40    2.50
   4   8   3    3.80    2.90
   4   8   3    1.80    2.60
   4   8   3    2.80    3.80
  -4   8  -3    2.80    2.20
  -5  -8  -3   44.30    9.00
   5  -8   3   34.70    4.90
  -5  -8  -3   41.20    9.50
  -5  -8  -3   50.89    4.40
   5   8   3   41.40    6.00
   5   8   3   40.10    6.00
   5   8   3   41.50    6.80
  -5   8  -3   49.40    5.30
  -5   8  -3   44.10    5.00
   5   8   3   45.00    5.90
  -5   8  -3   46.50    4.80
  -6  -8  -3   33.90    4.50
  -6  -8  -3   35.60    9.10
   6  -8   3   31.80    5.10
  -6  -8  -3   38.00    9.50
  -6   8  -3   44.10    4.60
   6   8   3   50.59    6.40
   6   8   3   37.40    5.80
  -6   8  -3   39.10    5.30
   6   8   3   29.00    5.10
   6   8   3   26.90    5.50
  -7  -8  -3  134.69   11.10
  -7  -8  -3  146.69   10.00
   7  -8   3  132.59   10.30
  -7  -8  -3  170.18   16.70
   7   8   3  152.28   12.00
   7   8   3  148.39   12.60
  -7   8  -3  139.29    9.80
   7   8   3  173.38   11.70
   7   8   3  145.29   12.40
  -7   8  -3  140.39   10.20
  -8  -8  -3    3.80    3.90
  -8  -8  -3    0.30    7.80
   8  -8   3    2.40    2.90
  -8  -8  -3    1.40    2.80
   8   8   3    6.40    4.90
   8   8   3    5.10    3.90
  -8   8  -3   -1.50    2.70
   8   8   3    3.70    4.30
  -8   8  -3    2.60    2.50
   8   8   3    2.40    3.90
  -9  -8  -3   10.30    4.20
   9  -8   3   17.10    3.50
  -9  -8  -3   16.60    8.70
  -9  -8  -3   10.30    3.30
   9   8   3    7.80    4.10
  -9   8  -3   21.90    3.20
  -9   8  -3   21.40    3.20
   9   8   3   14.00    4.50
   9   8   3   20.20    4.80
  10  -8   3   56.59    6.10
 -10  -8  -3   48.90    7.00
 -10  -8  -3   38.90    6.00
 -10  -8  -3   44.50    6.10
 -10   8  -3   50.79    4.90
  10   8   3   59.69    7.40
 -10   8  -3   50.69    5.10
  10   8   3   47.20    6.50
  10   8   3   54.29    6.50
 -11  -8  -3    1.70    2.90
  11  -8   3    0.80    2.50
 -11  -8  -3   -1.10    2.50
  11   8   3    0.70    2.70
 -11   8  -3    0.20    1.80
 -12  -8  -3   79.09    6.70
  12  -9  -3   21.20    4.10
 -12   9   3   15.40    2.90
  11  -9  -3    6.10    2.90
 -11  -9   3    3.00    3.10
  11  -9  -3    7.60    4.00
 -11  -9   3    2.30    2.50
 -11   9   3    2.50    2.10
  11   9  -3    2.80    3.80
  10  -9  -3   44.90    8.10
  10  -9  -3   55.39    6.40
 -10  -9   3   55.39    5.50
 -10  -9   3   47.50    6.50
  10   9  -3   65.99    8.40
 -10   9   3   58.99    5.30
  10   9  -3   35.40    7.10
  10   9  -3   41.80    7.50
  -9  -9   3    8.90    2.60
   9  -9  -3    1.70    2.80
   9   9  -3    8.10    5.30
  -9   9   3    5.20    2.80
   9   9  -3   12.00    5.00
   9   9  -3    9.70    4.80
  -8  -9   3  105.69   12.60
   8  -9  -3  102.69    8.20
   8   9  -3  112.89   10.50
   8   9  -3  107.29   11.20
  -8   9   3   96.39    7.20
  -8   9   3   91.99    7.50
   8   9  -3   73.09   10.90
   8   9  -3   92.19   10.20
  -7  -9   3    2.70    6.20
  -7  -9   3    5.10    2.90
  -7  -9   3    5.50    2.30
   7   9  -3    6.40    5.10
  -7   9   3    3.70    2.50
  -7   9   3    6.20    2.20
   7   9  -3    4.00    4.40
   7   9  -3    2.20    5.00
   7   9  -3    5.60    4.80
  -6  -9   3   31.40    4.30
  -6  -9   3   17.20    8.20
  -6  -9   3   29.60    3.90
  -6  -9   3   18.10    6.90
  -6   9   3   31.70    4.00
  -6   9   3   40.70    6.50
   6   9  -3   29.40    5.70
   6   9  -3   32.70    5.40
   6   9  -3   42.20    6.10
  -6   9   3   32.50    4.50
   6   9  -3   26.80    5.70
  -5  -9   3  298.97   18.80
  -5  -9   3  299.17   22.00
  -5  -9   3  316.67   18.50
  -5  -9   3  255.87   23.20
  -5   9   3  298.87   18.50
   5   9  -3  313.27   20.00
   5   9  -3  316.77   20.80
   5   9  -3  302.97   20.00
  -5   9   3  311.47   18.80
  -5   9   3  320.27   19.80
   5   9  -3  315.37   20.80
  -4  -9   3  142.39   13.50
  -4  -9   3  159.88    9.70
  -4  -9   3  139.99   15.20
  -4   9   3  143.69   12.10
   4   9  -3  116.39   12.00
  -4   9   3  149.88    9.80
   4   9  -3  157.48   12.20
  -4   9   3  150.58   10.90
  -4   9   3  155.08    9.70
   4   9  -3  148.39   11.70
  -4   9   3  152.68   10.60
   4   9  -3  150.48   11.60
  -3  -9   3   24.90    3.60
  -3  -9   3   19.90    6.50
   3   9  -3   27.50    4.40
  -3   9   3   34.70    5.10
  -3   9   3   24.80    4.70
  -3   9   3   33.20    5.20
   3   9  -3   35.40    5.30
   3   9  -3   26.70    5.10
  -3   9   3   37.00    3.80
   3   9  -3   31.10    5.10
  -3   9   3   34.90    3.70
   3   9  -3   35.70    6.40
  -2   9   3   30.20    3.60
  -2   9   3   30.40    4.90
  -2   9   3   35.40    4.70
   2   9  -3   33.30    5.00
  -2   9   3   51.39    5.90
   2   9  -3   22.60    4.20
  -2   9   3   37.10    5.80
   2   9  -3   27.60    4.70
   2   9  -3   26.70    4.20
   1  -9  -3    2.20    6.60
   1   9  -3    0.30    3.00
  -1   9   3    3.00    3.10
   1   9  -3    0.50    2.40
  -1   9   3    2.20    2.90
   1   9  -3    0.80    3.50
   1   9  -3    2.70    3.00
  -1   9   3    0.30    3.20
   1   9  -3    0.10    2.60
  -1   9   3    2.30    2.50
  -1   9   3    1.60    2.60
  -1   9   3    2.30    1.80
   0  -9  -3    9.20    7.00
   0   9  -3   10.00    2.70
   0   9  -3   14.20    3.50
   0   9   3   11.60    3.40
   0   9  -3    9.90    2.60
   0   9   3   11.40    3.40
   0   9  -3   15.00    3.40
   0   9  -3   14.90    3.30
   0   9   3   11.80    2.40
   0   9   3   16.30    4.00
   0   9   3   14.90    3.50
   0   9   3   15.10    3.40
  -1  -9  -3    7.80    7.10
   1   9   3    0.20    3.40
   1   9   3   -0.80    1.90
   1   9   3   -1.60    3.60
  -1   9  -3    0.80    2.40
  -1   9  -3    0.30    2.80
   1   9   3    3.80    3.10
  -1   9  -3    2.30    3.00
  -1   9  -3   -2.90    2.60
   1   9   3    1.20    2.90
  -2  -9  -3  245.88   21.80
  -2  -9  -3  264.07   20.90
   2   9   3  261.07   17.80
  -2   9  -3  268.37   16.90
   2   9   3  279.07   16.60
   2   9   3  262.07   17.60
  -2   9  -3  250.47   16.70
  -2   9  -3  272.37   16.60
  -2   9  -3  271.97   16.20
   2   9   3  255.87   17.50
   2   9   3  257.07   17.30
  -3  -9  -3   -3.70    6.90
  -3  -9  -3    5.70    8.20
  -3   9  -3   -1.80    2.50
   3   9   3    0.00    2.30
   3   9   3    6.10    4.30
   3   9   3   -0.60    4.30
  -3   9  -3   -5.30    2.50
  -3   9  -3   -0.80    2.70
   3   9   3   -1.40    3.40
   3   9   3   -4.60    4.00
  -4  -9  -3  270.17   15.60
  -4  -9  -3  228.78   21.30
  -4  -9  -3  212.58   22.30
   4   9   3  260.27   18.00
   4   9   3  251.67   18.00
  -4   9  -3  271.57   16.50
  -4   9  -3  256.67   16.00
   4   9   3  265.37   16.70
   4   9   3  245.88   17.50
  -4   9  -3  270.57   16.40
   4   9   3  252.57   17.80
   5  -9   3    3.60    2.30
  -5  -9  -3    1.30    7.30
  -5  -9  -3   -2.00    7.90
  -5  -9  -3    7.50    2.00
   5   9   3    1.80    3.90
  -5   9  -3    2.10    3.00
   5   9   3    4.80    3.30
   5   9   3    9.80    5.30
   5   9   3    6.40    4.60
  -6  -9  -3   27.50    4.50
   6  -9   3   22.80    4.80
  -6  -9  -3   37.50   10.00
  -6   9  -3   23.50    3.50
   6   9   3   19.70    5.20
   6   9   3   23.60    5.20
   6   9   3   19.00    5.20
  -6   9  -3   33.50    5.60
   6   9   3   28.00    5.50
  -7  -9  -3  181.88   11.30
  -7  -9  -3  165.38   18.40
   7  -9   3  140.69   11.40
  -7  -9  -3  156.48   12.50
  -7   9  -3  170.18   11.40
   7   9   3  180.08   12.40
   7   9   3  178.78   13.70
  -7   9  -3  167.98   11.00
   7   9   3  159.58   13.70
   7   9   3  175.78   13.30
  -8  -9  -3   70.79    6.90
  -8  -9  -3   49.10   10.40
   8  -9   3   77.39    6.80
  -8  -9  -3   63.29    7.90
   8   9   3   68.59    9.20
  -8   9  -3   69.19    6.00
   8   9   3   79.49    9.60
   8   9   3   78.79    7.50
   8   9   3   66.09    8.60
  -8   9  -3   69.49    6.50
   9  -9   3    4.10    2.80
  -9  -9  -3    1.10    3.80
  -9  -9  -3    4.00    3.00
  -9   9  -3    5.50    2.70
   9   9   3    5.10    3.80
   9   9   3    3.40    3.90
  -9   9  -3    7.50    2.50
   9   9   3    9.00    3.40
 -10  -9  -3    5.80    3.00
  10  -9   3    9.60    2.90
 -10  -9  -3    8.10    2.90
 -10  -9  -3    9.40    3.60
  10   9   3    8.60    3.20
  10   9   3   20.70    3.90
  10   9   3   11.10    3.10
 -10   9  -3    9.30    2.30
 -11  -9  -3   23.40    4.40
  11  -9   3   26.20    3.90
 -11   9  -3   18.20    2.90
 -11 -10   3    4.50    2.90
  11 -10  -3    5.40    2.30
 -11  10   3    4.40    1.80
  11  10  -3    6.20    3.10
  10 -10  -3    5.50    3.80
 -10 -10   3    5.50    2.30
  10 -10  -3    7.00    2.70
 -10 -10   3    2.80    2.90
  10  10  -3   12.70    4.10
  10  10  -3    0.80    3.70
  10  10  -3    4.00    3.60
 -10  10   3    3.50    2.10
  -9 -10   3    2.80    2.30
   9 -10  -3    1.50    2.60
   9 -10  -3    3.20    4.00
   9  10  -3    3.50    4.30
  -9  10   3    5.30    2.50
   9  10  -3    4.40    4.40
   9  10  -3    4.60    4.20
  -8 -10   3    1.50    2.30
   8 -10  -3    3.50    2.60
   8  10  -3   -1.00    4.30
   8  10  -3   -0.20    4.80
   8  10  -3   -4.60    5.30
   8  10  -3    5.80    5.00
  -8  10   3   -0.20    2.40
  -7 -10   3   -0.20    2.80
  -7 -10   3    1.20    6.80
  -7 -10   3    1.10    2.20
   7  10  -3    7.70    5.30
   7  10  -3    4.10    4.60
   7  10  -3    2.70    4.90
   7  10  -3   22.40    5.30
  -7  10   3    3.10    2.20
  -7  10   3    4.50    2.40
  -6 -10   3    0.80    2.80
  -6 -10   3   -1.20    2.20
  -6  10   3    1.00    2.00
   6  10  -3   -0.20    4.90
  -6  10   3   -0.40    2.40
   6  10  -3    3.50    4.10
   6  10  -3    3.60    5.30
  -5 -10   3   37.10    4.50
  -5  10   3   41.70    4.20
   5  10  -3   20.70    5.20
   5  10  -3   38.10    6.40
  -5  10   3   38.10    4.50
   5  10  -3   34.60    5.80
   5  10  -3   40.50    7.90
  -4 -10   3   32.80    5.20
  -4 -10   3   31.40    4.10
   4  10  -3   28.40    5.30
  -4  10   3   32.30    5.00
  -4  10   3   29.30    3.80
   4  10  -3   36.80    7.30
   4  10  -3   29.00    6.10
   4  10  -3   30.70    5.80
  -4  10   3   28.00    4.10
  -3 -10   3    6.50    2.00
   3  10  -3    3.00    4.50
  -3  10   3    6.90    2.10
   3  10  -3    4.90    4.40
  -3  10   3    1.30    3.30
   3  10  -3   11.20    4.30
   3  10  -3    0.80    3.90
  -3  10   3    4.70    2.50
  -2 -10   3  283.07   16.60
   2 -10  -3  247.78   23.60
  -2  10   3  273.27   17.60
   2  10  -3  294.17   18.20
  -2  10   3  271.67   16.90
  -2  10   3  294.87   17.70
   2  10  -3  268.47   18.00
   2  10  -3  263.37   17.10
   2  10  -3  284.27   17.80
  -2  10   3  243.58   17.70
   2  10  -3  292.47   18.70
  -2  10   3  273.97   18.00
   1 -10  -3    4.90    9.00
  -1  10   3   26.70    4.40
  -1  10   3   36.60    5.60
  -1  10   3   37.20    5.70
  -1  10   3   32.10    3.90
   1  10  -3   44.60    7.20
   1  10  -3   38.70    6.30
   1  10  -3   37.40    5.40
   1  10  -3   33.40    5.10
  -1  10   3   35.40    6.20
   1  10  -3   33.20    5.70
  -1  10   3   46.20    6.90
   0  10  -3  370.16   22.00
   0  10  -3  311.07   21.60
   0  10   3  349.37   22.20
   0  10  -3  356.96   21.70
   0  10   3  342.97   22.40
   0  10   3  370.46   22.20
   0  10   3  350.06   21.80
   0  10  -3  374.46   22.40
   0  10  -3  345.07   21.20
   0  10   3  347.27   21.30
  -1 -10  -3   -0.90    8.20
  -1 -10  -3   15.20    8.10
  -1  10  -3   10.30    2.80
   1  10   3    9.60    2.60
  -1  10  -3   13.30    3.40
   1  10   3   10.60    4.40
   1  10   3    2.90    3.50
   1  10   3   11.70    4.20
   1  10   3   10.40    4.50
  -1  10  -3   13.10    3.90
  -1  10  -3   11.00    3.50
  -2 -10  -3   60.09   12.40
  -2 -10  -3  108.79   14.10
   2  10   3   97.39   10.70
   2  10   3   99.29   10.20
   2  10   3   95.49    9.70
   2  10   3   95.69    9.50
   2  10   3  107.99    7.80
  -2  10  -3  104.09    8.90
  -2  10  -3  115.19    7.90
  -3 -10  -3    8.00    1.80
  -3 -10  -3    8.80    8.00
  -3 -10  -3    6.50    9.00
   3  10   3    5.60    2.60
   3  10   3    6.80    4.10
  -3  10  -3    6.20    3.00
  -3  10  -3    5.30    3.10
   3  10   3    7.50    5.00
   3  10   3    1.80    4.70
   3  10   3   10.70    5.00
  -3  10  -3    9.20    3.40
  -4 -10  -3   -2.50    7.80
  -4 -10  -3    6.20    1.90
   4  10   3    5.80    2.90
   4  10   3    4.50    5.10
   4  10   3    5.30    4.40
   4  10   3    4.30    5.20
  -4  10  -3    3.20    2.90
  -4  10  -3    3.60    3.20
  -4  10  -3    5.10    2.90
   4  10   3    9.30    4.90
   5 -10   3   -0.10    2.30
  -5 -10  -3   -0.50    8.00
  -5 -10  -3   -1.80    1.90
   5  10   3    2.60    4.10
  -5  10  -3   -2.10    3.10
  -5  10  -3    4.10    3.10
   5  10   3    1.50    2.80
   5  10   3   -0.20    4.70
   5  10   3    2.60    4.70
  -6 -10  -3    4.90    2.50
  -6 -10  -3   17.70    4.00
   6 -10   3    7.40    2.80
  -6 -10  -3    8.40    8.80
  -6  10  -3   11.20    2.80
   6  10   3   13.80    5.20
   6  10   3   12.80    4.60
   6  10   3   17.50    5.50
   6  10   3   15.00    3.50
  -6  10  -3   10.50    3.40
  -7 -10  -3   22.80    4.30
   7 -10   3   17.20    3.20
  -7 -10  -3   17.70    3.10
   7  10   3   10.60    4.40
   7  10   3   22.90    4.00
   7  10   3   19.30    5.10
   7  10   3   13.70    5.10
  -7  10  -3   21.60    3.60
  -7  10  -3   19.30    3.40
  -8 -10  -3    3.80    2.60
   8 -10   3    3.70    2.70
  -8 -10  -3    3.40    3.60
   8  10   3    4.40    4.30
  -8  10  -3    2.90    2.60
   8  10   3   -1.10    4.60
   8  10   3    3.70    3.60
  -8  10  -3    4.00    2.50
   8  10   3    5.70    3.10
   9 -10   3    7.60    2.60
  -9 -10  -3    5.70    3.60
  -9 -10  -3    5.20    2.70
   9  10   3   11.60    3.50
   9  10   3   11.10    3.80
  -9  10  -3    6.30    2.20
 -10 -10  -3    5.40    2.80
  10 -10   3   12.00    2.60
 -10 -10  -3    5.30    3.00
 -10 -10  -3    8.60    2.40
  10  10   3    6.80    3.00
 -10  10  -3    5.90    1.90
  10 -11  -3   21.80    3.90
 -10 -11   3   21.00    3.30
  10  11  -3   24.20    4.80
  -9 -11   3   10.80    3.00
   9 -11  -3   14.00    2.80
  -9 -11   3   12.60    2.40
   9  11  -3   11.70    4.20
   9  11  -3   11.10    4.10
   9  11  -3   13.30    4.00
  -9  11   3   11.70    2.30
  -8 -11   3   90.39    6.40
   8 -11  -3   83.59    6.90
   8  11  -3   88.79    9.40
   8  11  -3   65.09    8.70
   8  11  -3   80.89    9.20
  -8  11   3   80.69    6.30
  -7 -11   3    1.20    2.10
   7  11  -3    2.00    5.00
   7  11  -3    1.30    5.10
  -7  11   3    0.00    2.20
   7  11  -3   -3.00    4.10
   7  11  -3   -2.80    4.60
  -6 -11   3  121.29    8.30
   6  11  -3  112.29   10.70
   6  11  -3  136.39   12.10
   6  11  -3  126.19   11.40
   6  11  -3  112.29   11.30
  -6  11   3  115.59    8.30
  -6  11   3  126.59    8.20
  -5 -11   3    7.50    2.30
  -5 -11   3    3.00    2.80
   5  11  -3   12.90    5.00
  -5  11   3    7.70    2.10
   5  11  -3    8.60    5.20
   5  11  -3    7.30    4.10
  -5  11   3    8.60    2.60
   5  11  -3   12.10    4.90
  -4 -11   3    4.20    2.10
  -4 -11   3    3.70    2.80
   4  11  -3    5.80    4.20
  -4  11   3    3.50    2.00
   4  11  -3    5.10    4.60
   4  11  -3    4.00    5.20
   4  11  -3    0.80    4.30
  -3 -11   3  112.99    7.60
   3  11  -3  125.59   12.10
   3  11  -3   99.09   10.20
   3  11  -3  116.19   10.50
  -3  11   3  109.69    7.70
   3  11  -3  102.09   10.00
  -2 -11   3   33.10    4.00
  -2  11   3   27.70    4.00
  -2  11   3   36.70    5.00
  -2  11   3   31.90    3.90
   2  11  -3   45.80    7.90
   2  11  -3   22.00    4.50
   2  11  -3   33.30    5.90
   2  11  -3   36.10    4.40
   2  11  -3   23.90    4.70
   1  11  -3    5.50    3.30
   1  11  -3    9.10    4.80
   1  11  -3    8.80    4.20
  -1  11   3    5.50    2.10
  -1  11   3    7.80    3.20
   1  11  -3    4.50    3.00
   1  11  -3   10.00    4.10
   0 -11  -3   -2.70    7.70
   0  11   3   16.00    3.20
   0  11   3   18.50    4.10
   0  11   3   14.50    4.60
   0  11  -3   12.80    4.10
   0  11  -3   12.10    4.10
   0  11  -3    4.60    4.40
   0  11  -3   15.10    3.50
   0  11   3   10.30    4.10
  -1 -11  -3   88.89   14.10
  -1  11  -3   92.19    7.40
   1  11   3   79.59    8.40
   1  11   3   88.79    6.70
   1  11   3   75.49    8.90
   1  11   3   96.59   10.00
  -1  11  -3   89.19    8.50
   1  11   3  101.89    9.50
  -1  11  -3   89.19    8.80
  -1  11  -3   89.59    9.00
  -2 -11  -3   31.30    9.90
  -2  11  -3   47.40    6.70
   2  11   3   42.00    7.20
   2  11   3   34.70    5.60
   2  11   3   34.60    5.70
   2  11   3   37.80    5.70
  -2  11  -3   49.90    7.00
   2  11   3   35.00    4.70
  -2  11  -3   35.40    5.50
  -3 -11  -3   -0.60    8.80
  -3 -11  -3    3.00    1.80
   3  11   3    4.70    2.60
  -3  11  -3   -0.90    3.20
   3  11   3    5.00    4.90
   3  11   3    2.20    4.60
  -3  11  -3    4.80    3.50
   3  11   3    3.90    4.60
  -3  11  -3    4.30    3.20
   3  11   3    1.50    3.90
  -4 -11  -3   31.90    4.00
  -4 -11  -3   38.70   10.90
   4  11   3   44.00    7.80
   4  11   3   44.00    6.20
   4  11   3   40.30    6.20
  -4  11  -3   46.40    6.30
  -4  11  -3   45.70    5.40
   5 -11   3    3.90    2.30
  -5 -11  -3    0.70    2.00
  -5 -11  -3   12.60    9.10
   5  11   3    1.30    4.90
   5  11   3   -0.40    4.10
   5  11   3    0.90    5.00
  -5  11  -3    0.10    3.20
  -5  11  -3    0.80    3.00
  -6 -11  -3   50.89    6.80
  -6 -11  -3   47.30    5.10
   6 -11   3   36.90    5.10
   6  11   3   46.00    8.70
   6  11   3   50.99    7.40
  -6  11  -3   44.40    5.70
  -6  11  -3   47.80    5.30
   6  11   3   50.79    8.90
  -7 -11  -3    3.80    3.20
   7 -11   3   -1.30    2.30
  -7 -11  -3    3.30    2.60
  -7  11  -3    0.80    2.50
   7  11   3    0.70    3.70
   7  11   3    4.70    4.60
   7  11   3    8.00    4.20
  -7  11  -3    0.70    2.70
  -8 -11  -3   66.99    6.10
  -8 -11  -3   65.99    7.00
   8 -11   3   67.79    5.90
   8  11   3   62.89    7.60
  -8  11  -3   61.49    5.30
   8  11   3   75.49    7.40
   9 -11   3   -1.50    2.00
  -9 -11  -3   -2.40    2.20
  -9 -11  -3   -1.80    2.40
  -9 -11  -3    2.10    2.60
  -9  11  -3   -1.90    1.80
   9  11   3    4.30    4.50
   9  11   3   -1.30    2.70
  -9 -12   3    3.90    3.90
   9  12  -3    9.20    4.40
  -8 -12   3   -0.50    1.70
   8  12  -3    0.70    3.40
   8  12  -3   -2.30    3.00
   8  12  -3    2.60    3.60
  -7 -12   3  113.49    7.30
   7  12  -3   84.29    9.70
   7  12  -3  105.29   10.10
   7  12  -3   98.39    9.30
   7  12  -3  111.49    9.50
  -6 -12   3   17.70    3.50
   6  12  -3   23.10    4.80
   6  12  -3   13.80    4.80
   6  12  -3   20.50    4.80
   6  12  -3   21.20    5.20
  -5 -12   3    4.80    2.00
   5  12  -3    9.60    5.30
   5  12  -3    4.70    4.80
   5  12  -3    3.90    4.20
   5  12  -3    3.30    3.80
  -4 -12   3  149.39    9.50
  -4 -12   3  137.89   10.10
   4  12  -3  131.79   11.70
   4  12  -3  144.89   11.80
   4  12  -3  155.88   13.40
   4  12  -3  163.28   11.90
  -3 -12   3   -0.30    1.80
  -3 -12   3    4.30    2.70
   3  12  -3   -1.10    4.50
   3  12  -3    0.70    4.90
   3  12  -3    3.30    4.20
   3  12  -3    1.40    3.50
  -2 -12   3    3.00    1.90
   2  12  -3    6.80    4.30
   2  12  -3    4.10    4.20
   2  12  -3    4.30    5.00
   2  12  -3    4.30    3.50
  -1 -12   3    0.90    1.80
   1  12  -3   -0.20    3.10
   1  12  -3    3.20    3.90
   1  12  -3    6.30    4.20
  -1  12   3    4.60    3.00
  -1  12   3    2.10    3.60
   1  12  -3    5.90    4.90
   0  12   3   45.80    6.90
   0  12  -3   41.10    7.10
   0  12   3   38.80    6.20
   0  12   3   42.20    7.70
   0  12  -3   43.30    7.80
   0  12  -3   39.50    5.70
   0  12  -3   38.40    5.70
  -1  12  -3    3.30    3.70
   1  12   3    6.70    3.90
   1  12   3    3.80    3.50
  -1  12  -3    4.00    3.10
   1  12   3    7.90    4.40
  -1  12  -3    2.40    3.80
  -1  12  -3    6.00    4.70
   1  12   3    4.90    4.40
   2  12   3   54.59    7.70
   2  12   3   33.90    5.60
  -2  12  -3   52.39    6.70
  -2  12  -3   46.30    7.00
   2  12   3   42.90    7.00
   2  12   3   50.29    8.60
  -2  12  -3   48.00    5.70
  -3 -12  -3   11.20    1.90
   3  12   3   11.10    4.30
  -3  12  -3    9.40    3.80
   3  12   3   16.70    4.90
  -3  12  -3    7.50    3.40
   3  12   3   11.40    4.70
  -3  12  -3   10.20    3.20
   4 -12   3   25.40    4.20
  -4 -12  -3   24.00    3.50
  -4  12  -3   24.50    4.00
  -4  12  -3   18.30    3.30
   4  12   3   19.20    4.80
   4  12   3   28.00    4.70
   4  12   3   21.50    4.80
  -5 -12  -3   12.90    3.40
  -5 -12  -3   18.50    3.60
   5 -12   3   21.90    4.00
   5  12   3   15.80    4.00
   5  12   3   15.30    4.80
   5  12   3   23.30    5.00
  -5  12  -3   18.10    3.50
  -5  12  -3   13.60    3.00
   6 -12   3    1.90    2.10
  -6 -12  -3    3.20    2.20
  -6 -12  -3    5.50    2.90
  -6  12  -3    0.70    2.50
   6  12   3    6.20    4.20
  -6  12  -3    3.40    2.70
   6  12   3    4.00    3.70
   6  12   3    4.50    3.80
   7 -12   3   38.70    4.10
  -7 -12  -3   33.80    4.20
  -7 -12  -3   24.70    3.80
  -7  12  -3   29.20    3.80
   7  12   3   32.20    6.20
   7  12   3   37.20    5.90
   8 -12   3    1.60    1.80
  -8 -12  -3    4.10    2.10
  -8  12  -3    1.90    1.80
   8  12   3    1.10    2.70
  -7 -13   3    0.80    1.50
   7  13  -3    4.90    3.20
   7  13  -3    4.10    4.00
   7  13  -3    6.80    3.00
  -6 -13   3    7.40    1.80
   6  13  -3    6.60    3.50
   6  13  -3    0.30    3.60
   6  13  -3    5.60    3.50
   6  13  -3    4.50    4.00
  -5 -13   3    2.70    1.60
   5  13  -3    3.20    3.70
   5  13  -3    8.60    3.70
   5  13  -3    5.10    4.10
   5  13  -3    2.70    4.20
  -4 -13   3    3.10    1.70
   4  13  -3    4.50    4.10
   4  13  -3    2.90    3.80
   4  13  -3    3.90    4.40
   4  13  -3    2.50    3.30
  -3 -13   3   19.90    3.20
   3  13  -3   15.00    5.00
   3  13  -3   27.60    4.80
   3  13  -3   18.90    4.60
   3  13  -3   31.50    6.10
  -2 -13   3    1.60    1.70
  -2 -13   3    4.10    2.40
   2  13  -3    0.70    3.80
   2  13  -3    5.80    4.40
   2  13  -3    7.40    4.10
  -1 -13   3   14.50    2.10
   1  13  -3    9.20    4.00
   1  13  -3   10.60    4.40
   1  13  -3   15.40    4.20
   0  13  -3   22.80    4.50
   0  13   3   25.20    4.40
   0  13   3   22.30    4.50
   0  13   3   29.40    4.90
   0  13  -3   27.90    4.50
   0  13  -3   26.40    4.80
   0  13  -3   17.10    3.50
  -1  13  -3   42.80    6.50
   1  13   3   31.90    4.70
   1  13   3   25.10    4.80
  -1  13  -3   20.90    3.40
   1  13   3   25.10    4.00
  -1  13  -3   31.00    6.00
  -2  13  -3   57.39    6.80
  -2  13  -3   66.39    6.50
  -2  13  -3   46.90    5.80
   2  13   3   53.29    7.80
   2  13   3   53.79    6.60
   2  13   3   53.69    7.50
  -3 -13  -3   -1.20    2.40
  -3 -13  -3    1.50    1.40
   3  13   3   -2.60    3.00
   3  13   3    2.10    3.90
  -3  13  -3    2.20    3.00
   3  13   3    1.40    4.00
  -3  13  -3    1.50    2.60
  -4 -13  -3   11.40    2.90
  -4 -13  -3   18.60    3.00
   4  13   3   16.80    4.10
  -4  13  -3   17.00    3.20
  -4  13  -3   14.40    2.70
   4  13   3   16.80    4.30
   4  13   3   14.10    3.70
  -5 -13  -3    0.60    1.80
   5 -13   3    0.40    1.70
  -5 -13  -3   -0.20    2.50
   5  13   3    2.40    3.70
  -5  13  -3    0.80    2.10
   5  13   3    0.70    3.40
   5  13   3    2.00    2.90
  -6 -13  -3   26.40    3.70
   6  13   3   42.00    5.60
  -6  13  -3   24.90    3.60
   6  13   3   42.10    5.10
  -5 -14   3   12.30    2.50
   5  14  -3   19.90    4.20
  -4 -14   3    3.10    1.30
   4  14  -3    2.10    3.10
   4  14  -3    2.50    3.30
   4  14  -3    4.60    2.80
  -3 -14   3    6.90    1.50
   3  14  -3    9.50    3.50
   3  14  -3    8.20    3.70
   3  14  -3    7.60    3.40
  -2 -14   3    1.80    1.30
   2  14  -3    2.30    3.50
   2  14  -3    0.30    2.90
   2  14  -3   -2.40    3.40
  -1 -14   3    1.40    2.30
   1  14  -3    4.90    3.50
   1  14  -3    7.40    3.30
   0  14  -3   11.70    3.60
   0  14  -3   13.00    3.50
  -1  14  -3   11.60    3.40
   1  14   3   15.10    3.60
   2  14   3    8.70    3.40
  -2  14  -3    7.40    4.10
   2  14   3   14.90    3.80
   2  14   3   15.30    6.80
   3  14   3   18.30    3.60
 -15   0   4   -1.30    1.60
  15   0  -4    0.10    3.50
  14   0  -4   38.30    7.60
 -14   0   4   33.10    4.50
  13   0  -4   10.40    5.30
 -13   0   4    1.50    2.60
  12   0  -4    3.20    5.40
 -12   0   4   -6.40    4.60
 -12   0   4    1.10    2.60
 -11   0   4    3.80    6.00
 -11   0   4    4.90    5.00
 -11   0   4    1.90    2.40
  11   0  -4    2.40    5.40
 -10   0   4 2008.00  114.19
  10   0  -4 1805.02  112.09
  10   0  -4 2082.89  113.49
 -10   0   4 1738.03  111.69
 -10   0   4 1976.20  114.89
  10   0  -4 2056.89  112.59
  -9   0   4    0.70    2.10
   9   0  -4    0.10    2.40
  -9   0   4    2.10    4.00
   9   0  -4    1.20    3.80
  -9   0   4    0.90    4.30
   9   0  -4    0.30    2.80
  -8   0   4  270.97   15.30
   8   0  -4  231.58   16.50
   8   0  -4  280.27   16.20
   8   0  -4  223.58   15.70
  -8   0   4  263.47   17.80
  -8   0   4  251.17   17.20
  -7   0   4   -0.70    1.40
   7   0  -4    1.50    2.10
   7   0  -4    0.70    1.80
  -7   0   4   -1.00    3.10
  -7   0   4   -1.40    2.70
  -6   0   4   41.00    5.20
  -6   0   4   58.69    6.00
  -6   0   4   59.69    3.90
  -6   0   4   50.59    3.70
   6   0  -4   56.69    4.80
  -5   0   4    0.70    2.10
  -5   0   4    1.00    1.90
  -5   0   4    0.40    0.80
  -4   0   4  795.42   46.60
  -4   0   4  790.62   46.80
  -3   0   4    0.40    1.30
  -3   0   4    0.90    1.50
  -2   0   4 1574.34   87.89
  -2   0   4 1467.65   87.69
  -1   0   4    2.40    1.10
  -1   0   4    1.10    0.90
   0   0   4  549.05   33.30
   0   0   4  600.14   33.40
   1   0   4    0.50    0.60
   1   0   4    1.10    0.80
   2   0   4 1289.47   78.69
  -2   0  -4 1451.95   79.19
  -3   0  -4    0.80    1.80
  -3   0  -4    0.10    1.80
  -4   0  -4  692.13   42.00
  -4   0  -4  716.63   42.20
  -4   0  -4  727.43   41.30
  -5   0  -4   -1.10    1.20
  -5   0  -4   -0.30    2.30
   5   0   4    1.10    2.00
   5   0   4    0.70    1.30
  -5   0  -4   -1.60    1.40
  -5   0  -4   -0.40    2.50
   6   0   4  624.74   39.30
   6   0   4  611.74   38.60
  -6   0  -4  711.43   38.60
  -6   0  -4  674.53   38.60
  -6   0  -4  687.93   40.20
  -6   0  -4  675.13   39.80
  -7   0  -4    0.70    1.90
   7   0   4    0.90    1.70
  -7   0  -4   -0.40    3.80
  -7   0  -4   -1.30    1.60
  -7   0  -4    0.40    1.30
   7   0   4   -1.20    3.00
  -7   0  -4    2.00    3.20
  -8   0  -4   73.99    5.80
  -8   0  -4   59.19    5.50
  -8   0  -4   67.59    7.60
  -8   0  -4   75.49    9.40
   8   0   4   64.49    5.60
   8   0   4   66.19    7.70
  -8   0  -4   63.09    4.80
  -9   0  -4    3.40    4.80
  -9   0  -4    0.60    2.40
   9   0   4   -2.10    4.20
  -9   0  -4   -0.50    1.70
  -9   0  -4    0.60    1.70
  -9   0  -4   -9.10    6.10
  10   0   4  153.28   12.40
 -10   0  -4  135.99    9.90
  11   0   4    1.30    5.50
 -11   0  -4   -0.80    2.40
  12   0   4    5.60    5.60
 -12   0  -4    7.00    2.50
  13   0   4    5.00    4.20
 -13   0  -4   27.50    3.90
  14   0   4   33.70    5.30
  15  -1  -4   14.60    4.20
 -15  -1   4   12.30    2.60
 -15   1   4   12.90    2.10
  14  -1  -4   22.70    5.50
 -14  -1   4   24.30    4.20
 -14   1   4   27.70    4.10
  14   1  -4   24.70    5.00
  13  -1  -4   -1.50    5.50
 -13  -1   4    1.50    2.70
  13   1  -4   -4.60    4.50
 -13   1   4   -2.30    2.30
 -12  -1   4  183.08   12.90
  12  -1  -4  229.08   16.20
 -12  -1   4  211.78   16.20
 -12   1   4  209.78   13.00
 -12   1   4  172.08   15.50
  12   1  -4  204.78   15.80
 -11  -1   4   -5.70    4.60
  11  -1  -4   -2.00    5.10
 -11  -1   4    3.60    6.00
 -11  -1   4    3.20    2.60
  11  -1  -4    4.90    3.20
 -11   1   4    4.50    2.60
 -11   1   4   -0.20    4.80
  11   1  -4   -0.50    5.00
 -11   1   4    2.90    6.10
  11   1  -4    4.20    3.90
 -10  -1   4  284.97   20.20
  10  -1  -4  253.07   19.40
  10  -1  -4  271.57   18.10
 -10  -1   4  269.27   20.90
 -10   1   4  303.27   20.00
 -10   1   4  276.67   17.30
  10   1  -4  313.27   18.70
 -10   1   4  278.37   20.80
  10   1  -4  292.97   19.30
   9  -1  -4   68.19    7.10
   9  -1  -4   68.19    7.00
  -9  -1   4   85.69    6.30
   9  -1  -4   77.59    8.60
  -9  -1   4   75.89    9.00
  -9  -1   4   76.09    9.10
   9   1  -4   95.09    7.70
  -9   1   4   76.89    6.20
   9   1  -4   80.89    6.80
   9   1  -4   86.89    8.40
  -9   1   4   92.39    8.30
  -9   1   4   76.99    9.10
  -8  -1   4   88.69    5.90
  -8  -1   4   81.39    9.00
   8  -1  -4   80.89    6.90
  -8  -1   4   81.89    7.10
   8  -1  -4   79.49    6.90
  -8  -1   4   90.99    8.60
  -8   1   4   84.39    8.80
   8   1  -4   79.49    6.80
  -8   1   4   90.29    8.20
   8   1  -4   74.29    7.60
   8   1  -4   89.69    7.50
  -8   1   4   88.29    6.10
   7  -1  -4   16.10    2.70
  -7  -1   4   19.70    4.50
  -7  -1   4   23.20    4.30
  -7  -1   4   21.10    2.70
   7  -1  -4   18.20    3.70
  -7   1   4   15.60    2.30
  -7   1   4   22.10    2.90
   7   1  -4   19.10    2.70
   7   1  -4   21.60    3.30
   7   1  -4   23.30    3.80
  -7   1   4   18.40    4.40
  -7   1   4   24.00    4.00
  -6  -1   4   54.69    3.80
  -6  -1   4   44.90    5.70
   6  -1  -4   47.90    4.50
   6  -1  -4   47.40    4.40
  -6  -1   4   42.60    5.20
   6   1  -4   51.29    4.70
  -6   1   4   51.89    5.40
  -6   1   4   60.49    6.00
  -6   1   4   46.20    3.50
   6   1  -4   42.30    4.30
  -6   1   4   54.59    3.70
  -5  -1   4    2.90    2.40
  -5  -1   4    1.50    0.90
  -5  -1   4   -0.40    2.00
  -5   1   4    0.50    2.10
   5   1  -4    1.20    1.70
  -5   1   4    0.50    1.90
  -5   1   4    0.50    0.80
  -4  -1   4  430.06   25.90
  -4  -1   4  417.36   25.60
  -4   1   4  440.16   25.90
  -4   1   4  418.86   25.60
  -3  -1   4  423.16   24.60
  -3   1   4  406.76   24.60
  -3   1   4  398.06   24.40
  -2  -1   4  374.56   22.00
  -2  -1   4  365.86   21.80
  -2   1   4  363.26   22.00
  -2   1   4  367.76   21.80
  -1  -1   4   57.39    3.80
  -1  -1   4   54.59    3.90
  -1   1   4   52.39    4.00
  -1   1   4   59.49    4.10
   0  -1   4 4156.48  238.58
   0  -1   4 4164.08  238.58
   1  -1   4 1829.62  107.49
   1  -1   4 1834.82  107.59
   1   1   4 1948.61  107.89
   1   1   4 1885.31  107.79
  -2   1  -4 1294.57   67.79
   2   1   4 1148.79   67.79
  -2   1  -4 1081.29   67.79
  -3  -1  -4    1.60    2.00
  -3   1  -4    5.40    1.70
  -3   1  -4    2.00    1.50
  -4  -1  -4  248.58   16.40
  -4  -1  -4  259.37   16.30
  -4  -1  -4  275.37   15.20
  -4  -1  -4  247.08   15.30
  -4   1  -4  253.87   15.90
  -4   1  -4  269.77   15.20
   4   1   4  223.58   15.60
  -4   1  -4  261.57   15.80
  -5  -1  -4  166.38    9.60
   5  -1   4  144.49   10.10
  -5  -1  -4  154.98    9.30
  -5  -1  -4  154.68   10.90
   5  -1   4  131.49    9.50
  -5  -1  -4  151.68    9.60
  -5  -1  -4  148.99   11.30
  -5   1  -4  151.98    9.40
  -5   1  -4  153.58   10.30
  -5   1  -4  162.88    9.40
  -5   1  -4  155.58   10.50
   5   1   4  143.69   10.20
  -6  -1  -4  214.58   12.90
   6  -1   4  185.88   13.10
  -6  -1  -4  205.58   14.70
   6  -1   4  224.78   14.00
  -6  -1  -4  221.68   13.10
  -6  -1  -4  212.68   15.20
  -6  -1  -4  206.28   13.20
   6   1   4  209.08   13.90
  -6   1  -4  215.68   14.00
  -6   1  -4  225.88   14.40
  -6   1  -4  211.78   13.00
  -6   1  -4  214.28   12.70
  -6   1  -4  230.08   13.00
   7  -1   4  145.39   10.60
  -7  -1  -4  142.69   12.10
  -7  -1  -4  146.69    9.40
  -7  -1  -4  123.39    9.30
  -7  -1  -4  155.78   11.50
   7  -1   4  131.19    9.40
  -7   1  -4  145.59    8.70
   7   1   4  151.98   10.80
  -7   1  -4  129.39   11.10
  -7   1  -4  140.19    9.00
  -7   1  -4  141.79    9.20
  -7   1  -4  135.89   10.30
  -8  -1  -4    2.90    5.30
   8  -1   4   11.70    2.60
  -8  -1  -4   10.10    2.20
  -8  -1  -4   12.20    2.90
   8  -1   4   12.80    4.40
  -8  -1  -4    8.20    4.60
  -8   1  -4   10.80    2.50
   8   1   4    6.50    4.10
  -8   1  -4   11.50    5.30
  -8   1  -4    9.50    1.90
  -8   1  -4   13.30    4.20
  -8   1  -4   10.60    2.00
  -9  -1  -4    3.60    2.70
  -9  -1  -4    4.40    6.20
  -9  -1  -4    0.80    4.40
   9  -1   4    1.90    4.40
   9  -1   4    1.10    2.40
  -9  -1  -4    2.90    2.10
  -9   1  -4    0.90    1.80
  -9   1  -4    5.00    2.50
   9   1   4   -3.30    4.50
  -9   1  -4    2.50    1.80
  10  -1   4   18.30    5.70
 -10  -1  -4   24.20    6.80
 -10  -1  -4   23.70    4.00
 -10  -1  -4   25.10    5.00
 -10   1  -4   23.60    3.50
 -10   1  -4   15.50    3.00
  10   1   4   26.00    6.20
  11  -1   4   -6.00    5.00
 -11  -1  -4   -3.40    2.60
 -11   1  -4   -0.60    2.50
  11   1   4   -5.10    5.40
  12  -1   4   36.40    7.80
 -12  -1  -4   37.40    5.20
 -12   1  -4   34.50    4.70
  12   1   4   42.10    8.10
  13  -1   4    2.20    4.00
 -13  -1  -4    1.40    2.10
  13   1   4    2.00    3.90
 -13   1  -4    4.10    2.10
  14   1   4   42.30    5.70
  15  -2  -4    6.60    3.80
 -15   2   4    3.40    1.60
  14  -2  -4   10.20    5.10
 -14  -2   4    6.40    2.30
 -14   2   4    8.30    2.20
  14   2  -4   11.20    4.20
 -13  -2   4    4.80    2.40
  13  -2  -4    6.90    6.10
  13   2  -4    3.60    4.50
 -12  -2   4   34.30    5.30
 -12  -2   4   56.29    8.50
  12  -2  -4   53.39    9.00
  12  -2  -4   55.59    6.80
 -12   2   4   46.40    5.20
  12   2  -4   29.00    6.20
 -12   2   4   45.40    7.90
 -11  -2   4    1.90    2.70
 -11  -2   4    3.20    6.50
 -11  -2   4    0.50    5.40
  11  -2  -4    9.60    3.50
  11  -2  -4    6.20    5.70
  11   2  -4    6.00    4.30
 -11   2   4    2.60    2.60
 -11   2   4    4.90    4.90
  11   2  -4    2.40    4.90
 -11   2   4    0.60    6.10
  10  -2  -4   84.79    8.60
 -10  -2   4   88.99    7.40
  10  -2  -4  107.89   10.40
 -10  -2   4   84.59   11.70
 -10  -2   4  102.29    7.60
 -10  -2   4   96.89   11.00
  10   2  -4  109.99    9.90
 -10   2   4  118.79   12.00
  10   2  -4  109.89    9.70
 -10   2   4  102.69    7.30
 -10   2   4  109.69   10.20
  -9  -2   4   24.40    5.60
  -9  -2   4   20.60    5.90
  -9  -2   4   23.70    4.00
  -9  -2   4   28.30    3.30
   9  -2  -4   25.00    5.30
  -9   2   4   27.30    5.70
   9   2  -4   24.00    4.80
   9   2  -4   27.20    4.70
  -9   2   4   27.90    3.70
  -9   2   4   30.20    5.70
  -8  -2   4  236.88   14.70
  -8  -2   4  261.27   17.10
   8  -2  -4  229.38   15.40
  -8  -2   4  274.27   17.80
  -8  -2   4  222.38   14.60
   8  -2  -4  239.28   15.40
  -8   2   4  238.48   14.90
   8   2  -4  241.28   16.00
  -8   2   4  239.98   17.00
  -8   2   4  258.97   14.80
  -8   2   4  252.97   16.70
   8   2  -4  266.57   16.00
   7  -2  -4    8.80    2.30
  -7  -2   4    6.60    4.00
  -7  -2   4    5.40    3.50
  -7  -2   4    5.00    1.20
  -7  -2   4    7.20    1.90
   7  -2  -4    8.80    2.30
   7   2  -4    6.50    3.00
  -7   2   4    7.20    1.60
   7   2  -4    7.20    2.70
  -7   2   4    5.60    1.60
  -7   2   4   10.50    3.60
  -7   2   4    8.40    3.10
   7   2  -4    7.00    2.10
  -6  -2   4   77.59    5.00
  -6  -2   4   80.09    7.50
  -6  -2   4   71.59    6.80
   6  -2  -4   75.19    5.50
  -6  -2   4   70.99    4.60
  -6   2   4   67.59    4.80
  -6   2   4   76.59    6.60
   6   2  -4   58.59    5.80
  -6   2   4   72.49    6.90
  -6   2   4   73.19    4.80
   6   2  -4   67.69    5.90
   6   2  -4   67.99    5.30
  -5  -2   4 1470.85   84.99
  -5  -2   4 1536.45   84.69
  -5  -2   4 1564.44   83.49
  -5   2   4 1416.86   83.49
   5   2  -4 1327.57   83.89
  -5   2   4 1357.76   83.69
  -5   2   4 1492.45   84.59
  -5   2   4 1462.25   84.89
  -4  -2   4 1299.37   77.29
  -4  -2   4 1321.87   77.09
  -4   2   4 1339.77   77.09
  -4   2   4 1339.87   77.39
  -3  -2   4  261.37   15.60
  -3  -2   4  251.67   15.40
  -3   2   4  248.28   15.60
  -3   2   4  242.08   15.40
  -2  -2   4   61.59    4.60
  -2  -2   4   64.69    4.70
  -2   2   4   60.19    4.50
  -2   2   4   64.19    4.80
  -1  -2   4 5023.30  291.27
  -1  -2   4 5132.09  291.37
   0  -2   4 1161.68   66.99
   0   2   4 1212.68   67.59
   0   2   4 1126.79   67.39
   1   2   4 1980.90  110.89
   1   2   4 1865.11  110.69
   2   2   4  427.16   25.10
  -3  -2  -4  571.44   33.70
  -3   2  -4  550.04   32.30
  -4  -2  -4   20.70    4.00
   4  -2   4   17.30    2.40
  -4  -2  -4   20.30    2.60
  -4  -2  -4   11.60    3.40
  -4  -2  -4   15.10    2.20
  -4   2  -4   10.20    1.60
  -4   2  -4   14.50    2.40
  -4   2  -4   12.10    2.30
  -4   2  -4   13.20    2.00
   5  -2   4  576.84   36.70
  -5  -2  -4  670.73   38.70
   5  -2   4  659.33   37.30
  -5  -2  -4  592.24   36.50
  -5  -2  -4  675.53   36.70
  -5   2  -4  634.94   37.00
  -5   2  -4  683.53   36.70
  -5   2  -4  623.84   36.60
  -5   2  -4  564.54   36.40
   5   2   4  635.24   37.40
  -5   2  -4  671.03   37.20
   5   2   4  603.64   36.90
  -6  -2  -4  113.59    9.90
  -6  -2  -4  100.49    7.80
  -6  -2  -4  117.29    7.90
  -6  -2  -4  111.59    7.50
   6  -2   4  102.49    7.70
   6  -2   4  114.19    8.60
  -6  -2  -4  115.79   10.50
  -6   2  -4  121.99    7.60
   6   2   4  141.09    9.30
  -6   2  -4  114.39    8.20
   6   2   4   98.39    7.80
  -6   2  -4  121.69    7.20
   6   2   4  116.09    8.80
  -6   2  -4  113.59    7.40
  -6   2  -4  107.19    8.50
  -7  -2  -4   30.10    5.90
   7  -2   4   44.10    5.50
  -7  -2  -4   39.80    4.70
  -7  -2  -4   31.30    4.70
   7  -2   4   31.20    4.40
  -7  -2  -4   31.90    6.40
  -7  -2  -4   36.90    4.20
  -7   2  -4   36.30    3.70
  -7   2  -4   33.00    5.50
  -7   2  -4   39.30    4.10
   7   2   4   37.20    5.90
  -8  -2  -4  107.99    8.50
  -8  -2  -4  115.79    8.60
   8  -2   4  126.19    8.80
   8  -2   4  129.79   10.50
  -8  -2  -4  103.89   12.40
  -8  -2  -4  110.49    8.30
  -8   2  -4  117.39    7.90
   8   2   4  123.59   10.40
  -8   2  -4  129.29    7.80
  -8   2  -4  116.89    8.30
   9  -2   4    0.50    4.50
  -9  -2  -4   -3.60    2.20
  -9  -2  -4   -0.40    6.60
  -9  -2  -4   -1.00    2.80
  -9  -2  -4   -1.20    4.90
   9  -2   4    4.80    2.70
  -9   2  -4    2.60    1.90
   9   2   4   -2.20    4.30
  -9   2  -4    1.00    2.20
 -10  -2  -4   47.40   10.90
 -10  -2  -4   44.00    6.30
  10  -2   4   55.89    5.80
 -10  -2  -4   37.10    5.20
  10  -2   4   60.29    8.50
 -10  -2  -4   42.30    7.70
  10   2   4   55.89    8.80
 -10   2  -4   46.90    4.80
 -10   2  -4   61.69    5.60
 -11  -2  -4    2.80    7.40
  11  -2   4    2.40    5.10
 -11  -2  -4    2.20    2.70
  11   2   4    3.30    5.10
 -11   2  -4    7.10    2.20
 -11   2  -4    2.20    2.30
  12  -2   4   33.80    6.40
 -12  -2  -4   20.50    3.30
  12   2   4   28.70    5.80
 -12   2  -4   27.80    4.30
 -13  -2  -4   13.50    2.50
  13  -2   4   17.70    4.70
  13   2   4   15.70    4.50
 -13   2  -4   11.20    2.20
  14  -3  -4   39.50    7.80
 -14  -3   4   36.70    4.30
 -14   3   4   36.50    4.20
  14   3  -4   37.10    5.80
  13  -3  -4    7.80    5.80
  13  -3  -4    1.50    3.10
 -13  -3   4    2.60    2.50
  13   3  -4    1.80    3.80
 -13   3   4    3.90    2.60
  12  -3  -4   52.09    7.20
 -12  -3   4   39.70    5.50
  12  -3  -4   58.09   10.00
 -12  -3   4   42.90    8.00
 -12   3   4   47.40    5.30
 -12   3   4   51.49    7.40
  12   3  -4   53.89    7.90
  12   3  -4   51.09    8.20
 -11  -3   4   32.70    5.20
 -11  -3   4   34.80    6.90
 -11  -3   4   41.80    7.60
  11  -3  -4   43.90    7.50
  11  -3  -4   37.80    7.00
  11   3  -4   26.40    5.70
 -11   3   4   31.20    5.90
 -11   3   4   42.70    5.10
  11   3  -4   34.30    5.70
 -10  -3   4   69.69    6.40
  10  -3  -4   72.59    7.60
 -10  -3   4   77.89   10.10
  10  -3  -4   78.79    9.10
 -10  -3   4   62.49    6.30
 -10  -3   4   54.99    9.20
 -10   3   4   73.19    6.00
  10   3  -4   90.59    8.70
 -10   3   4   74.39   10.10
  10   3  -4   52.79    8.10
 -10   3   4   75.29    8.50
   9  -3  -4   12.80    3.20
  -9  -3   4   11.70    2.50
  -9  -3   4   17.90    5.70
  -9  -3   4   16.80    2.70
  -9  -3   4   17.90    6.00
  -9  -3   4   24.10    4.10
  -9   3   4   29.80    5.30
  -9   3   4   20.00    2.70
   9   3  -4   15.00    4.40
  -9   3   4   21.60    5.50
   9   3  -4   16.60    4.30
  -8  -3   4   80.59    5.50
  -8  -3   4   67.89    9.00
  -8  -3   4   86.49    6.10
  -8  -3   4   66.89    9.50
   8  -3  -4   75.99    7.10
   8   3  -4   78.39    6.50
  -8   3   4   90.49    8.80
   8   3  -4   87.79    8.00
   8   3  -4   76.49    7.50
  -8   3   4   78.39    5.90
  -8   3   4   77.79    5.80
  -8   3   4   88.79    8.10
  -7  -3   4   44.20    6.90
   7  -3  -4   49.99    5.40
   7  -3  -4   46.50    4.60
  -7  -3   4   51.99    3.80
  -7  -3   4   51.99    4.30
  -7  -3   4   50.99    7.60
   7   3  -4   44.00    5.40
   7   3  -4   45.60    6.10
  -7   3   4   48.00    5.50
  -7   3   4   48.10    6.10
   7   3  -4   38.70    4.60
   7   3  -4   42.00    5.30
  -7   3   4   51.99    3.80
   6  -3  -4  234.98   15.30
  -6  -3   4  256.87   16.70
  -6  -3   4  258.27   17.10
  -6  -3   4  272.47   15.00
  -6  -3   4  261.37   14.80
  -6   3   4  241.88   15.10
  -6   3   4  238.68   14.90
   6   3  -4  235.68   15.30
   6   3  -4  238.88   15.30
  -6   3   4  264.07   16.40
  -6   3   4  259.67   16.70
   6   3  -4  260.27   15.90
  -5  -3   4   10.60    1.90
  -5  -3   4   12.20    2.20
  -5  -3   4    7.80    3.10
  -5  -3   4    9.90    2.90
  -5   3   4    9.90    1.70
  -5   3   4   10.40    1.80
  -5   3   4    7.00    2.90
   5   3  -4   11.60    2.60
   5   3  -4   11.20    1.90
  -5   3   4   10.90    2.70
  -4  -3   4  495.45   27.40
  -4  -3   4  483.15   28.80
  -4  -3   4  489.85   27.50
  -4  -3   4  482.95   28.60
  -4   3   4  493.25   28.70
  -4   3   4  435.96   27.70
   4   3  -4  442.76   28.00
  -4   3   4  472.75   28.40
  -3  -3   4  355.56   21.40
  -3  -3   4  372.16   21.30
  -3   3   4  346.37   21.10
  -3   3   4  327.87   21.30
  -2  -3   4  960.60   59.79
  -2  -3   4  948.21   59.69
  -2   3   4 1062.89   59.79
  -2   3   4 1152.98   60.09
  -1  -3   4  183.88   10.90
  -1  -3   4  169.48   10.80
  -1   3   4  176.28   11.20
  -1   3   4  179.48   11.00
   0  -3   4   18.70    1.40
   0   3   4   15.90    2.20
   0   3   4   15.60    2.50
   1   3   4 1104.19   63.99
   1   3   4 1102.39   64.09
   2   3   4  175.78   11.00
  -3  -3  -4    3.60    1.30
  -3  -3  -4    5.30    3.30
   3   3   4    2.50    2.00
   3   3   4    3.80    1.70
   3   3   4    1.60    1.40
  -3   3  -4    4.90    1.10
   3   3   4    3.10    1.60
  -4  -3  -4  692.83   38.00
  -4  -3  -4  702.93   38.20
  -4  -3  -4  707.13   39.80
  -4  -3  -4  694.73   40.20
   4   3   4  649.93   38.80
   4   3   4  644.84   38.50
  -4   3  -4  671.83   38.20
  -4   3  -4  614.24   38.20
  -4   3  -4  619.64   38.00
   4   3   4  668.83   38.70
   4   3   4  596.64   38.40
  -5  -3  -4   23.50    2.80
  -5  -3  -4   19.00    3.50
   5  -3   4   17.00    3.20
   5  -3   4   14.60    2.90
  -5  -3  -4   19.20    4.70
  -5  -3  -4   15.50    4.80
   5   3   4   23.40    3.50
   5   3   4   15.00    2.60
  -5   3  -4   20.60    2.90
   5   3   4   19.30    3.40
   5   3   4   14.20    3.00
  -5   3  -4   16.20    2.60
  -5   3  -4   20.70    2.40
  -6  -3  -4  312.27   20.00
  -6  -3  -4  324.07   20.30
  -6  -3  -4  363.86   23.40
   6  -3   4  343.67   21.10
  -6  -3  -4  350.76   22.70
  -6   3  -4  347.37   20.20
   6   3   4  326.17   21.10
   6   3   4  328.67   20.60
  -6   3  -4  352.16   20.10
   6   3   4  360.96   20.70
  -6   3  -4  346.37   20.00
  -7  -3  -4   75.39    6.90
  -7  -3  -4   77.59    6.40
  -7  -3  -4   91.09    7.20
   7  -3   4   84.99    7.90
  -7  -3  -4   67.99   10.70
   7  -3   4   83.09    6.80
  -7  -3  -4   76.59    9.70
  -7   3  -4   86.99    6.30
   7   3   4   87.79    6.90
   7   3   4   95.39    8.10
   7   3   4   81.49    7.10
  -7   3  -4   84.89    5.90
  -7   3  -4   85.59    5.90
   8  -3   4   11.00    4.60
  -8  -3  -4    5.40    2.60
  -8  -3  -4   16.30    6.60
   8  -3   4    6.10    2.70
  -8  -3  -4    9.20    5.50
  -8  -3  -4    6.20    2.60
  -8  -3  -4    7.90    2.80
  -8   3  -4    5.10    2.70
  -8   3  -4    8.60    2.40
   8   3   4    7.90    4.40
  -8   3  -4    8.50    2.10
   9  -3   4  113.49   10.30
   9  -3   4  116.89    8.50
  -9  -3  -4   95.09   13.90
  -9  -3  -4   88.09    8.10
  -9  -3  -4   89.59    8.40
  -9  -3  -4   98.09   11.90
   9   3   4  113.09   10.30
  -9   3  -4  107.29    7.20
  -9   3  -4   99.19    7.70
  10  -3   4   73.59    9.50
 -10  -3  -4   50.69    6.20
 -10  -3  -4   58.39    6.80
 -10  -3  -4   65.69    9.80
  10  -3   4   79.59    6.90
 -10   3  -4   69.69    5.70
 -10   3  -4   68.69    6.30
  10   3   4   83.59    9.40
 -11  -3  -4   26.90    5.40
 -11  -3  -4   23.10    3.30
  11  -3   4   23.30    5.00
  11  -3   4   30.40    6.50
 -11  -3  -4   23.30    7.70
 -11   3  -4   19.90    3.80
 -11   3  -4   21.60    4.30
  11   3   4   32.80    6.70
 -12  -3  -4   13.20    2.90
  12  -3   4   14.00    5.10
  12   3   4    4.80    4.60
 -12   3  -4    8.00    2.40
 -12   3  -4    7.30    2.10
  13  -3   4    4.20    3.70
 -13  -3  -4    1.50    2.00
 -13   3  -4    4.20    1.80
  13   3   4    8.20    4.20
  14  -4  -4   19.20    5.00
 -14  -4   4   14.50    2.40
 -14   4   4   19.70    3.40
 -13  -4   4   28.40    4.70
  13  -4  -4   37.70    5.90
  13  -4  -4   42.20    7.40
 -13   4   4   39.30    4.60
  13   4  -4   22.60    4.90
 -12  -4   4   25.70    4.90
  12  -4  -4   32.20    6.90
 -12  -4   4   23.70    7.00
  12  -4  -4   23.00    6.60
  12   4  -4   36.00    5.50
 -12   4   4   44.00    7.10
  12   4  -4   26.30    5.30
 -12   4   4   26.70    4.70
 -11  -4   4    2.20    2.80
 -11  -4   4   -1.80    5.50
  11  -4  -4   -1.00    3.60
 -11  -4   4   10.50    2.80
  11  -4  -4   -1.70    5.80
 -11   4   4    0.20    4.30
  11   4  -4   -1.50    3.80
 -11   4   4    0.60    2.40
  11   4  -4   10.50    5.00
  10  -4  -4   46.20    8.40
 -10  -4   4   21.60    3.50
 -10  -4   4   34.30    3.90
  10  -4  -4   36.60    6.50
 -10  -4   4   36.70    8.20
 -10  -4   4   32.40    7.10
  10   4  -4   36.10    6.50
  10   4  -4   37.70    6.30
 -10   4   4   35.50    6.00
 -10   4   4   32.50    4.50
 -10   4   4   30.10    7.20
  -9  -4   4  113.69   11.20
  -9  -4   4  110.99    7.90
  -9  -4   4  104.09   11.80
   9  -4  -4  105.89    9.00
  -9  -4   4   99.19    7.90
  -9  -4   4  106.29    7.40
  -9   4   4  110.99    7.70
   9   4  -4  101.69    8.60
   9   4  -4  132.99   10.60
  -9   4   4  114.19    9.90
  -9   4   4  116.49   11.30
  -9   4   4  118.99    7.90
   9   4  -4   97.79    9.30
  -8  -4   4   55.39    5.30
   8  -4  -4   55.39    6.00
  -8  -4   4   50.99    4.60
  -8  -4   4   46.70    7.60
  -8  -4   4   66.39    8.60
  -8   4   4   56.09    4.80
  -8   4   4   64.09    6.80
   8   4  -4   49.30    5.80
  -8   4   4   53.09    4.70
  -8   4   4   61.89    7.90
   8   4  -4   58.49    7.70
  -7  -4   4   67.59    9.10
  -7  -4   4   74.79    8.60
  -7  -4   4   81.79    6.00
  -7  -4   4   83.69    5.50
   7   4  -4   84.49    7.80
  -7   4   4   83.69    7.90
  -7   4   4   78.89    5.60
  -7   4   4   78.69    5.80
   7   4  -4   81.79    6.80
   7   4  -4   76.09    7.30
   7   4  -4   72.19    6.80
  -7   4   4   80.29    7.40
   7   4  -4   73.09    6.10
   6  -4  -4   91.79    7.70
  -6  -4   4  120.49    7.20
  -6  -4   4  118.69    9.60
  -6  -4   4  114.89    7.50
  -6  -4   4  107.19   10.00
  -6   4   4  116.69    8.80
  -6   4   4  104.19    9.10
   6   4  -4  125.09    9.00
   6   4  -4  108.69    8.10
   6   4  -4  119.29    7.80
   6   4  -4  121.09    8.20
  -6   4   4  108.89    7.40
  -6   4   4  118.79    7.30
  -5  -4   4  524.75   33.00
  -5  -4   4  562.54   31.20
  -5  -4   4  551.54   31.30
  -5  -4   4  555.84   32.80
  -5   4   4  545.65   32.40
  -5   4   4  524.35   31.20
   5   4  -4  501.35   31.60
  -5   4   4  552.24   32.70
  -5   4   4  535.75   31.50
   5   4  -4  521.85   32.10
   5   4  -4  524.25   31.40
   5   4  -4  549.54   31.50
  -4  -4   4  582.24   35.20
  -4  -4   4  614.24   36.70
  -4  -4   4  624.94   36.50
   4   4  -4  594.24   35.40
  -4   4   4  611.94   35.20
  -4   4   4  625.84   36.50
   4   4  -4  637.34   35.40
   4   4  -4  611.24   36.00
  -4   4   4  605.64   35.50
  -4   4   4  589.64   36.10
  -4   4   4  620.84   36.20
   4   4  -4  597.14   35.60
  -3  -4   4  334.67   19.60
  -3  -4   4  322.47   19.70
   3   4  -4  338.67   18.60
  -3   4   4  329.07   19.40
   3   4  -4  306.57   18.90
   3   4  -4  307.67   19.20
  -3   4   4  320.47   19.60
   3   4  -4  305.67   18.70
  -3   4   4  300.67   18.80
  -2  -4   4  191.68   12.40
  -2  -4   4  186.08   12.30
  -2   4   4  194.78   12.60
   2   4  -4  197.68   12.50
   2   4  -4  215.08   11.80
  -2   4   4  188.38   12.30
  -2   4   4  194.48   12.10
  -1  -4   4  475.95   28.50
  -1  -4   4  479.25   28.50
  -1   4   4  491.55   29.00
  -1   4   4  494.85   28.80
   0  -4   4   22.10    1.70
   0   4   4   21.80    3.00
   0   4   4   23.30    2.70
  -1   4  -4  228.08   13.80
   1   4   4  251.37   14.50
   1   4   4  240.88   14.20
   1   4   4  202.18   13.90
  -1   4  -4  223.48   13.70
   1   4   4  255.17   14.10
   1   4   4  222.08   14.00
  -2   4  -4    3.60    1.20
   2   4   4    2.70    1.60
  -2   4  -4    3.30    1.10
   2   4   4    2.20    1.50
  -2   4  -4    4.80    1.30
   2   4   4    0.40    1.90
   2   4   4    1.60    1.80
   2   4   4    1.10    1.40
  -3  -4  -4  475.45   25.40
  -3  -4  -4  455.75   27.80
   3   4   4  426.26   26.20
   3   4   4  428.56   26.20
  -3   4  -4  421.76   25.70
   3   4   4  427.26   26.00
  -3   4  -4  442.46   25.70
  -3   4  -4  421.56   25.50
   3   4   4  418.66   26.00
   3   4   4  475.35   26.20
  -4  -4  -4  147.49    8.50
  -4  -4  -4  152.48   11.30
  -4  -4  -4  142.19    8.80
  -4  -4  -4  135.89   11.60
   4   4   4  139.89    9.70
   4   4   4  135.19    9.30
   4   4   4  125.19    9.40
  -4   4  -4  140.99    8.60
  -4   4  -4  130.09    8.70
  -4   4  -4  133.49    8.80
   4   4   4  150.68    9.50
  -5  -4  -4    7.00    5.20
   5  -4   4   18.30    3.20
   5  -4   4    6.80    2.00
  -5  -4  -4   11.20    2.30
  -5  -4  -4   11.60    1.80
  -5  -4  -4   10.80    4.80
   5   4   4    9.20    2.40
   5   4   4   11.50    3.10
  -5   4  -4    9.30    1.60
   5   4   4    8.90    3.10
  -5   4  -4    9.90    1.70
   5   4   4    9.30    2.70
  -5   4  -4    8.70    1.90
  -6  -4  -4  157.68   13.60
  -6  -4  -4  142.59   14.10
  -6  -4  -4  163.58   10.10
   6  -4   4  165.78   10.70
  -6  -4  -4  165.28   10.70
   6  -4   4  163.38   11.30
   6   4   4  159.08   11.50
   6   4   4  157.58   11.60
  -6   4  -4  166.58   10.00
  -6   4  -4  169.98   10.40
   6   4   4  158.28   11.00
  -6   4  -4  169.98   10.20
   6   4   4  136.69   11.10
  -7  -4  -4    7.60    5.50
  -7  -4  -4    8.60    2.30
   7  -4   4    8.90    2.50
  -7  -4  -4    3.30    6.00
  -7  -4  -4    6.30    2.80
   7  -4   4    8.00    3.80
  -7   4  -4    9.00    1.80
  -7   4  -4    6.40    1.90
  -7   4  -4    7.50    2.10
   7   4   4    7.90    2.90
   7   4   4    7.80    2.90
   7   4   4    7.60    4.10
   8  -4   4    5.00    4.30
  -8  -4  -4   11.70    3.50
   8  -4   4    6.40    2.80
  -8  -4  -4    8.80    6.90
  -8  -4  -4   10.10    6.10
  -8  -4  -4   15.60    3.30
  -8  -4  -4   13.40    2.90
   8   4   4   12.20    3.40
  -8   4  -4   12.40    2.40
   8   4   4   11.40    4.50
   8   4   4   12.70    3.30
  -9  -4  -4   83.99   12.40
  -9  -4  -4   79.59    7.50
  -9  -4  -4   72.19    7.80
  -9  -4  -4   78.29    8.00
  -9  -4  -4   83.79   12.00
   9  -4   4   94.49    7.80
   9  -4   4  102.39    9.50
  -9   4  -4   89.79    6.50
  -9   4  -4   95.19    7.20
   9   4   4   94.19    9.60
  10  -4   4   18.10    5.40
  10  -4   4   10.90    3.30
 -10  -4  -4    3.40    3.50
 -10  -4  -4    4.00    2.90
 -10  -4  -4    8.40    6.70
 -10   4  -4    4.20    2.40
  10   4   4    7.60    5.10
 -10   4  -4    4.30    2.60
  11  -4   4    6.70    4.80
 -11  -4  -4    1.70    2.90
 -11  -4  -4    1.20    2.50
  11  -4   4    2.20    2.80
  11   4   4    6.40    5.00
 -11   4  -4    0.50    2.10
 -11   4  -4    4.00    2.30
  12  -4   4   -0.60    4.00
 -12  -4  -4    2.50    2.60
  12   4   4   -3.50    4.30
 -12   4  -4    4.30    1.90
 -12   4  -4   -0.90    1.90
  13  -4   4   18.50    3.90
 -13  -4  -4   21.30    3.80
  13   4   4   33.90    5.60
  14  -5  -4   25.90    5.40
 -14   5   4   23.10    3.50
 -13  -5   4   11.70    2.40
  13  -5  -4   16.20    3.50
  13  -5  -4   11.60    5.30
 -13   5   4   11.60    2.40
  13   5  -4   19.30    4.30
  12  -5  -4   58.29    7.30
 -12  -5   4   39.40    5.20
  12  -5  -4   62.39    9.90
 -12  -5   4   40.70    5.70
  12   5  -4   44.30    7.60
 -12   5   4   52.79    5.40
 -11  -5   4    7.00    3.20
  11  -5  -4   21.20    6.80
  11  -5  -4   11.60    3.90
 -11  -5   4    1.50    5.60
 -11  -5   4   12.70    3.20
 -11   5   4    8.10    2.60
  11   5  -4    7.70    4.80
 -11   5   4    8.80    5.00
 -10  -5   4   60.19    9.20
  10  -5  -4   50.49    7.10
 -10  -5   4   43.40    4.90
 -10  -5   4   31.10    8.60
 -10  -5   4   41.90    6.00
 -10  -5   4   40.70    5.60
 -10   5   4   42.80    5.10
 -10   5   4   53.49    7.60
  10   5  -4   54.59    8.50
  10   5  -4   41.40    7.00
 -10   5   4   38.90    8.10
  -9  -5   4   90.39   12.10
  -9  -5   4   81.09    6.10
   9  -5  -4   81.59    7.90
  -9  -5   4   80.99   10.80
  -9  -5   4   70.29    6.70
  -9   5   4   94.79   10.80
  -9   5   4   73.99    6.30
   9   5  -4   88.19    9.90
  -9   5   4   75.89    6.30
   9   5  -4   71.79    7.90
   9   5  -4   62.89    8.50
  -9   5   4   88.29    8.70
  -8  -5   4    5.50    5.20
   8  -5  -4    1.00    2.60
  -8  -5   4    2.50    1.80
  -8  -5   4   -1.20    4.60
  -8  -5   4    5.00    2.70
   8   5  -4    4.20    3.10
   8   5  -4    3.90    4.20
  -8   5   4   -1.20    1.90
   8   5  -4   -0.10    4.10
  -8   5   4    0.30    4.00
  -8   5   4    2.50    2.10
  -8   5   4    0.60    3.30
   8   5  -4    4.40    2.80
  -7  -5   4  222.58   18.90
  -7  -5   4  266.67   15.80
  -7  -5   4  254.17   18.50
  -7  -5   4  271.97   16.10
   7   5  -4  265.37   16.90
   7   5  -4  272.67   16.90
  -7   5   4  259.97   15.90
  -7   5   4  254.07   16.10
   7   5  -4  262.47   16.40
  -7   5   4  275.87   17.60
  -7   5   4  261.37   18.20
   7   5  -4  268.67   17.60
   6  -5  -4   14.20    2.90
  -6  -5   4   18.70    2.70
  -6  -5   4   11.40    4.70
  -6  -5   4   19.60    4.70
  -6  -5   4   15.10    2.40
  -6   5   4   18.80    4.20
   6   5  -4   10.50    2.40
   6   5  -4   15.30    3.80
   6   5  -4    7.50    2.70
  -6   5   4   15.80    2.60
  -6   5   4   25.20    4.00
  -6   5   4   17.30    2.60
   6   5  -4   25.60    5.00
  -5  -5   4   59.29    4.00
  -5  -5   4   49.50    5.90
  -5  -5   4   47.80    6.50
  -5  -5   4   54.19    4.50
   5   5  -4   46.10    4.80
   5   5  -4   50.59    5.40
   5   5  -4   59.39    5.60
  -5   5   4   46.60    4.40
  -5   5   4   49.40    4.00
   5   5  -4   47.30    6.10
  -5   5   4   50.89    3.90
  -5   5   4   45.90    5.80
  -5   5   4   51.59    5.30
  -4  -5   4   65.69    4.40
  -4  -5   4   65.69    6.20
  -4  -5   4   57.79    6.30
   4   5  -4   68.09    5.70
   4   5  -4   71.79    6.30
  -4   5   4   67.79    5.60
  -4   5   4   61.99    4.90
  -4   5   4   66.59    4.70
   4   5  -4   66.29    5.10
   4   5  -4   66.99    5.40
  -4   5   4   53.39    4.30
  -4   5   4   58.99    5.90
  -3  -5   4  246.88   15.90
  -3  -5   4  257.37   16.20
  -3  -5   4  232.98   14.70
  -3   5   4  250.67   15.00
  -3   5   4  254.27   15.20
   3   5  -4  240.98   15.60
   3   5  -4  254.17   15.00
  -3   5   4  259.07   15.60
  -3   5   4  251.07   15.90
   3   5  -4  244.48   15.30
   3   5  -4  240.98   15.00
   3   5  -4  266.97   14.90
  -2  -5   4  349.67   21.80
  -2  -5   4  380.06   22.00
  -2   5   4  351.56   21.30
  -2   5   4  370.06   21.80
   2   5  -4  372.26   21.00
   2   5  -4  345.67   21.60
  -2   5   4  353.06   22.10
   2   5  -4  363.86   21.10
   2   5  -4  349.37   21.40
   2   5  -4  360.06   21.20
  -1  -5   4    9.00    1.90
  -1  -5   4    8.80    2.00
  -1   5   4    9.20    2.10
  -1   5   4    9.40    1.90
  -1   5   4    6.10    2.20
   1   5  -4    8.50    1.60
   1   5  -4    6.20    1.70
   1   5  -4   10.60    1.70
   1   5  -4    4.30    1.50
  -1   5   4    8.60    1.60
  -1   5   4    8.50    2.00
   0  -5   4  264.57   15.20
   0   5  -4  268.57   15.20
   0   5   4  232.38   15.70
   0   5  -4  253.97   15.40
   0   5   4  237.58   15.60
   0   5   4  280.07   16.00
   0   5   4  292.77   15.80
   0   5  -4  249.68   15.60
   0   5   4  252.67   15.70
   0   5   4  272.67   16.30
   0   5  -4  251.57   15.50
  -1   5  -4  162.58    9.50
   1   5   4  155.88   10.20
  -1   5  -4  150.28    9.90
   1   5   4  155.48   10.20
   1   5   4  162.88   10.20
  -1   5  -4  151.98    9.80
   1   5   4  152.28   10.00
   1   5   4  157.48   10.60
   1   5   4  162.88   10.30
  -1   5  -4  157.78    9.70
  -2  -5  -4  104.09    9.90
  -2   5  -4   97.39    6.60
   2   5   4   91.69    6.80
   2   5   4  101.19    7.50
   2   5   4  100.89    7.10
   2   5   4  112.59    7.60
   2   5   4   98.99    7.20
  -2   5  -4   93.39    6.60
  -2   5  -4   93.79    6.30
   2   5   4  109.59    7.30
  -3  -5  -4   15.90    5.30
  -3  -5  -4   17.90    2.00
   3  -5   4   16.70    2.20
  -3   5  -4   17.00    2.90
   3   5   4   18.50    3.30
  -3   5  -4   17.60    2.90
   3   5   4   17.30    2.70
   3   5   4   18.00    3.10
   3   5   4   17.80    3.10
   3   5   4   19.40    3.10
  -3   5  -4   22.10    2.60
  -4  -5  -4  384.76   25.20
  -4  -5  -4  389.66   24.70
  -4  -5  -4  403.76   21.90
   4  -5   4  349.47   22.20
   4   5   4  336.87   22.80
  -4   5  -4  373.46   22.20
  -4   5  -4  381.06   22.20
   4   5   4  362.36   22.70
  -4   5  -4  386.16   22.00
   4   5   4  389.46   22.90
   4   5   4  373.16   22.90
  -5  -5  -4  169.88   13.40
  -5  -5  -4  163.78    9.70
  -5  -5  -4  170.08   14.20
  -5  -5  -4  156.58   10.30
  -5   5  -4  157.48   10.10
  -5   5  -4  154.78   10.00
   5   5   4  170.88   11.30
   5   5   4  155.68   10.80
   5   5   4  143.59   11.00
  -5   5  -4  149.69    9.70
   5   5   4  153.78   11.20
  -6  -5  -4   28.00    7.20
  -6  -5  -4   47.70    8.50
   6  -5   4   50.69    5.20
   6  -5   4   47.00    5.70
  -6  -5  -4   54.69    5.60
  -6  -5  -4   53.99    4.80
   6   5   4   54.59    6.50
  -6   5  -4   51.49    4.40
   6   5   4   59.39    7.00
   6   5   4   52.79    6.90
   6   5   4   57.99    6.20
  -6   5  -4   43.60    4.50
  -6   5  -4   47.70    4.90
  -7  -5  -4  404.46   23.80
  -7  -5  -4  378.36   28.30
  -7  -5  -4  386.46   27.30
  -7  -5  -4  394.66   23.40
   7  -5   4  384.56   23.80
   7  -5   4  385.16   24.60
   7   5   4  353.66   24.70
  -7   5  -4  384.86   23.20
   7   5   4  384.46   24.30
   7   5   4  404.16   24.90
   7   5   4  402.96   24.40
  -7   5  -4  387.36   23.50
  -7   5  -4  431.76   23.60
  -8  -5  -4   16.70    7.50
  -8  -5  -4   27.10    5.10
   8  -5   4   24.50    5.10
  -8  -5  -4   20.50    3.90
   8  -5   4   17.70    4.60
  -8  -5  -4   21.90    8.70
   8   5   4   24.80    4.40
  -8   5  -4   25.40    4.60
  -8   5  -4   21.20    3.90
   8   5   4   24.10    5.30
   8   5   4   17.90    4.00
  -9  -5  -4   72.49    8.30
  -9  -5  -4  103.69   13.60
   9  -5   4  106.39    8.10
  -9  -5  -4   85.19    8.10
  -9  -5  -4   90.19    8.80
   9  -5   4   95.39    9.60
  -9   5  -4   93.39    6.90
   9   5   4   93.29    8.40
   9   5   4  105.69   10.10
  -9   5  -4   92.59    7.50
  10  -5   4    3.00    4.20
 -10  -5  -4   -7.30    6.10
 -10  -5  -4    1.70    3.30
 -10  -5  -4    0.60    2.80
  10  -5   4   -0.20    2.90
 -10   5  -4    4.40    2.30
  10   5   4    2.20    4.70
 -11  -5  -4    4.60    3.00
  11  -5   4   -3.40    3.90
 -11  -5  -4    2.60    2.60
  11  -5   4    1.10    2.80
 -11   5  -4    3.00    2.30
 -11   5  -4    2.80    2.20
  11   5   4    2.20    4.50
 -12  -5  -4    0.90    2.50
  12  -5   4    1.50    2.50
  12  -5   4    1.10    3.40
 -12   5  -4   -0.30    1.80
  12   5   4    4.50    3.70
 -12   5  -4    1.00    1.90
 -13  -5  -4    2.10    2.00
  13   5   4   -0.60    2.70
 -14   6   4   10.90    3.20
  13  -6  -4   57.89    6.40
  13  -6  -4   54.59    8.40
  13   6  -4   54.79    6.50
 -13   6   4   52.39    5.10
 -12  -6   4    0.80    2.80
 -12  -6   4    1.60    2.30
  12  -6  -4   -1.00    5.30
  12  -6  -4    3.70    3.30
 -12   6   4    1.90    2.60
  12   6  -4   -0.90    4.20
  11  -6  -4   36.10    7.40
  11  -6  -4   31.20    4.80
 -11  -6   4   18.10    6.90
 -11  -6   4   31.70    4.30
 -11  -6   4   25.80    3.70
 -11   6   4   31.30    4.80
  11   6  -4   31.60    5.60
 -10  -6   4    4.30    3.10
 -10  -6   4    7.20    3.00
  10  -6  -4    3.00    3.60
 -10  -6   4    4.10    2.30
 -10  -6   4   -2.30    5.70
 -10   6   4    2.80    2.60
  10   6  -4    3.40    4.90
  10   6  -4    1.50    3.90
 -10   6   4   10.20    4.90
  -9  -6   4   30.40    8.20
  -9  -6   4   41.30    4.80
  -9  -6   4   49.20    8.30
  -9  -6   4   45.20    5.50
   9  -6  -4   41.00    6.70
   9   6  -4   42.10    6.70
  -9   6   4   43.70    5.00
  -9   6   4   44.80    7.10
  -9   6   4   34.00    7.00
   9   6  -4   50.69    7.40
  -9   6   4   48.10    4.70
   9   6  -4   32.60    6.00
   8  -6  -4  160.58   10.90
  -8  -6   4  123.69   10.10
  -8  -6   4  162.18    9.80
  -8  -6   4  155.58   13.40
  -8  -6   4  140.69   13.80
   8   6  -4  169.18   12.80
  -8   6   4  157.28   11.70
   8   6  -4  143.99   10.90
   8   6  -4  133.09   12.00
  -8   6   4  151.68   10.00
   8   6  -4  142.09   11.50
  -8   6   4  140.39    9.80
  -8   6   4  157.68   13.10
  -7  -6   4   48.70    8.50
  -7  -6   4   38.50    7.30
  -7  -6   4   43.40    4.30
   7  -6  -4   38.70    4.90
  -7  -6   4   37.30    5.10
  -7   6   4   44.80    4.30
  -7   6   4   51.99    6.80
   7   6  -4   41.10    7.90
  -7   6   4   41.90    4.40
  -7   6   4   55.69    6.30
   7   6  -4   42.60    6.70
   7   6  -4   38.10    7.00
   7   6  -4   38.40    5.80
  -6   6   4    2.60    3.00
  -6   6   4    4.90    1.80
  -6   6   4    7.00    1.80
  -6   6   4    6.50    3.60
  -5  -6   4  298.07   20.40
  -5  -6   4  280.97   19.70
  -5  -6   4  316.27   17.90
  -5  -6   4  310.67   18.10
   5   6  -4  305.67   18.70
  -5   6   4  283.57   17.90
  -5   6   4  298.37   18.30
  -5   6   4  284.77   18.20
   5   6  -4  324.07   19.60
   5   6  -4  300.37   18.50
  -5   6   4  312.07   19.20
  -5   6   4  309.47   19.70
   5   6  -4  297.87   18.90
  -4  -6   4  232.18   17.00
  -4  -6   4  261.97   16.70
  -4  -6   4  262.27   15.00
   4   6  -4  248.48   15.60
  -4   6   4  246.98   14.90
   4   6  -4  256.17   15.50
   4   6  -4  251.67   16.30
  -4   6   4  240.38   16.40
  -4   6   4  245.38   15.40
  -4   6   4  258.17   16.10
   4   6  -4  260.47   16.00
  -4   6   4  242.88   15.30
  -3  -6   4  724.53   42.60
  -3  -6   4  738.73   44.20
  -3  -6   4  754.62   43.90
   3   6  -4  769.42   42.80
   3   6  -4  772.62   42.90
  -3   6   4  731.03   43.90
  -3   6   4  700.63   43.00
  -3   6   4  682.13   42.90
   3   6  -4  737.33   43.00
  -3   6   4  752.82   43.60
  -3   6   4  717.83   42.60
   3   6  -4  745.23   43.30
  -3   6   4  750.72   43.10
   3   6  -4  744.73   43.50
  -2  -6   4   86.19    6.10
  -2  -6   4   91.89    7.40
  -2  -6   4   90.29    7.70
   2   6  -4   93.89    6.40
  -2   6   4  102.69    6.60
  -2   6   4   98.19    7.60
  -2   6   4   95.29    7.00
   2   6  -4   97.69    6.90
  -2   6   4   97.59    7.20
   2   6  -4  107.29    7.60
   2   6  -4  106.59    6.80
  -2   6   4   96.79    6.80
   2   6  -4   96.79    7.40
  -1  -6   4   95.99    7.40
  -1  -6   4   97.09    7.50
   1   6  -4  112.99    6.90
   1   6  -4  107.19    7.30
  -1   6   4  105.69    7.60
  -1   6   4  118.49    7.40
  -1   6   4  104.19    7.40
  -1   6   4   94.49    7.00
   1   6  -4   98.49    7.50
  -1   6   4  111.39    8.00
  -1   6   4  104.79    7.60
   1   6  -4  103.99    7.60
   1   6  -4  110.99    7.10
   0   6   4   23.60    2.80
   0   6  -4   23.30    3.20
   0   6   4   33.20    4.10
   0   6   4   17.00    3.30
   0   6   4   23.30    3.70
   0   6  -4   27.40    3.60
   0   6   4   17.40    3.00
   0   6  -4   22.10    3.50
   0   6   4   19.90    4.00
   0   6   4   23.00    4.10
  -1   6  -4  230.08   14.30
  -1   6  -4  238.88   13.90
   1   6   4  245.58   14.90
   1   6   4  214.48   14.40
   1   6   4  239.18   14.70
  -1   6  -4  221.48   14.40
   1   6   4  252.07   14.70
   1   6   4  229.88   14.40
  -1   6  -4  236.28   14.20
   1   6   4  236.28   14.90
  -2  -6  -4   18.20    5.70
   2   6   4   10.60    2.40
   2   6   4   19.90    3.20
   2   6   4   10.70    2.60
   2   6   4   13.20    3.10
  -2   6  -4   13.90    2.30
  -2   6  -4   11.00    1.90
  -2   6  -4    8.20    1.90
   2   6   4   14.10    3.10
  -2   6  -4    7.90    2.10
   2   6   4   12.30    2.70
  -3  -6  -4   36.10    2.70
  -3  -6  -4   44.20    7.30
   3  -6   4   27.10    3.40
   3   6   4   23.40    4.60
   3   6   4   24.70    3.80
   3   6   4   23.40    4.10
  -3   6  -4   29.30    3.40
  -3   6  -4   31.90    3.70
  -3   6  -4   32.90    3.90
   3   6   4   34.60    4.10
   3   6   4   31.30    5.60
  -4  -6  -4   79.99   10.30
  -4  -6  -4   59.49    4.30
   4  -6   4   52.49    4.90
  -4  -6  -4   50.69    9.00
   4   6   4   59.49    7.30
  -4   6  -4   63.89    5.10
  -4   6  -4   53.29    4.40
   4   6   4   57.69    5.70
   4   6   4   50.29    5.90
  -4   6  -4   56.59    5.10
   4   6   4   54.99    7.00
  -5  -6  -4  368.26   27.30
  -5  -6  -4  406.66   23.10
  -5  -6  -4  412.76   22.70
   5   6   4  360.56   23.90
  -5   6  -4  375.76   22.70
   5   6   4  378.36   23.90
   5   6   4  399.66   23.80
   5   6   4  384.36   24.00
  -5   6  -4  386.96   23.00
  -5   6  -4  363.26   23.00
  -6  -6  -4   67.59    6.70
  -6  -6  -4   73.39    5.80
   6  -6   4   59.79    6.00
  -6  -6  -4   53.89   10.00
  -6  -6  -4   63.29   11.30
   6   6   4   76.29    7.40
  -6   6  -4   69.89    5.70
   6   6   4   75.99    7.40
  -6   6  -4   72.59    6.10
  -6   6  -4   69.49    5.40
   6   6   4   54.59    8.30
   6   6   4   62.99    8.40
  -7  -6  -4   37.60    5.00
  -7  -6  -4   30.80    6.10
   7  -6   4   31.50    6.50
   7  -6   4   31.00    5.20
  -7  -6  -4   11.00    7.90
  -7  -6  -4   28.80    7.80
   7   6   4   41.30    6.00
  -7   6  -4   24.20    4.10
   7   6   4   26.20    4.60
   7   6   4   37.70    6.70
   7   6   4   23.50    5.00
  -7   6  -4   32.00    4.80
  -8  -6  -4  142.89   16.20
  -8  -6  -4  137.29   14.40
   8  -6   4  126.69   10.80
  -8  -6  -4  110.99   10.40
   8  -6   4  135.49    9.80
  -8  -6  -4  120.79    9.50
   8   6   4  154.58   10.90
  -8   6  -4  147.29    9.50
  -8   6  -4  122.19    8.80
   8   6   4  119.29   11.20
   8   6   4  144.69   11.30
  -9  -6  -4   13.90    3.70
   9  -6   4   10.90    4.60
  -9  -6  -4   13.90    3.50
   9  -6   4   14.10    3.40
  -9  -6  -4   20.50    4.30
  -9  -6  -4   17.30    8.00
  -9   6  -4   12.50    2.70
   9   6   4   23.30    5.50
   9   6   4   21.70    4.30
   9   6   4   17.10    4.20
  -9   6  -4   15.10    3.00
 -10  -6  -4   -0.20    2.90
  10  -6   4    8.20    4.40
 -10  -6  -4    5.70    3.80
 -10  -6  -4    1.30    6.70
 -10  -6  -4    7.00    3.20
  10  -6   4    8.90    3.30
 -10   6  -4    5.90    2.50
  10   6   4    8.00    4.80
 -10   6  -4    5.10    2.40
 -11  -6  -4   44.20    6.30
  11  -6   4   60.09    5.60
 -11  -6  -4   37.30    5.30
 -11   6  -4   40.50    4.40
  11   6   4   67.79    7.50
 -11   6  -4   49.80    4.80
  12  -6   4   47.40    4.50
 -12  -6  -4   29.50    4.80
 -12   6  -4   33.00    3.40
  12   6   4   41.40    5.70
  13  -7  -4    5.20    4.30
  13  -7  -4   -0.10    2.40
 -13   7   4    3.20    1.70
 -12  -7   4   56.19    5.20
  12  -7  -4   66.09    7.10
  12  -7  -4   65.69    8.80
 -12  -7   4   50.79    6.10
 -12   7   4   62.19    5.50
  12   7  -4   69.19    7.50
 -11  -7   4   18.00    3.80
  11  -7  -4   20.40    6.00
 -11  -7   4   12.10    3.00
  11  -7  -4   20.30    4.20
 -11   7   4   19.70    3.20
  11   7  -4   20.30    5.50
 -10  -7   4    4.80    3.20
  10  -7  -4   -2.80    3.20
 -10  -7   4    6.20    3.00
 -10  -7   4    1.40    5.80
 -10  -7   4    1.70    2.30
 -10   7   4    5.90    3.00
  10   7  -4    2.80    4.00
  10   7  -4    4.10    4.90
   9  -7  -4   32.90    6.30
  -9  -7   4   29.30    5.30
  -9  -7   4   29.70    7.40
  -9  -7   4   35.40    4.90
  -9   7   4   40.80    4.70
   9   7  -4   27.00    4.90
  -9   7   4   34.00    5.00
   9   7  -4   28.50    5.90
   9   7  -4   30.40    5.00
  -9   7   4   41.20    7.00
  -8  -7   4   14.40    6.60
   8  -7  -4   15.80    3.40
  -8  -7   4   14.50    6.30
  -8  -7   4   14.80    3.40
  -8   7   4   18.70    3.60
   8   7  -4   15.30    5.20
  -8   7   4   19.40    5.90
  -8   7   4   14.90    2.90
  -8   7   4    9.70    4.10
  -7  -7   4  170.88   16.30
  -7  -7   4  192.18   12.10
   7  -7  -4  160.08   11.90
  -7  -7   4  188.08   15.50
  -7  -7   4  164.48   11.60
  -7   7   4  194.98   11.90
   7   7  -4  191.28   12.90
  -7   7   4  200.88   14.70
  -7   7   4  183.98   11.70
   7   7  -4  199.68   14.50
  -7   7   4  207.18   13.50
  -6  -7   4    6.30    4.80
  -6  -7   4    2.70    2.50
  -6  -7   4    1.20    5.20
  -6  -7   4    1.20    1.60
   6   7  -4   -1.00    3.20
   6   7  -4   -1.90    4.40
  -6   7   4    2.00    2.10
  -6   7   4   -0.30    1.80
   6   7  -4    1.00    3.40
   6   7  -4   -1.60    3.90
  -6   7   4    1.30    2.90
  -6   7   4   -2.10    3.60
  -5  -7   4  423.96   23.70
  -5  -7   4  405.26   24.00
  -5  -7   4  361.66   26.40
  -5  -7   4  381.96   25.90
  -5   7   4  424.36   25.80
   5   7  -4  395.46   24.40
   5   7  -4  417.46   25.50
  -5   7   4  406.46   25.10
  -5   7   4  391.76   24.10
   5   7  -4  413.56   25.00
   5   7  -4  417.16   24.60
  -5   7   4  409.76   23.80
  -5   7   4  368.06   24.00
  -4  -7   4   10.30    1.80
  -4  -7   4    7.90    4.30
  -4  -7   4    6.40    3.40
   4   7  -4    9.10    3.70
   4   7  -4   12.60    3.00
  -4   7   4   10.90    3.10
   4   7  -4   10.40    3.20
   4   7  -4    8.10    3.40
  -4   7   4    9.90    2.10
  -4   7   4   10.30    3.50
  -4   7   4    9.60    2.30
  -4   7   4    8.90    1.80
  -3  -7   4   42.80    5.40
  -3  -7   4   35.70    3.40
  -3  -7   4   31.20    5.30
  -3   7   4   39.60    4.80
   3   7  -4   29.40    4.90
  -3   7   4   32.90    4.20
   3   7  -4   36.80    5.80
   3   7  -4   28.80    4.50
   3   7  -4   33.50    4.90
  -3   7   4   36.30    3.50
  -3   7   4   31.20    3.20
  -3   7   4   31.30    4.40
  -3   7   4   35.30    5.20
   3   7  -4   33.10    4.20
  -2  -7   4   13.10    3.80
  -2  -7   4   10.60    1.60
  -2   7   4   11.00    2.40
   2   7  -4   15.00    3.20
  -2   7   4   12.70    2.80
   2   7  -4   18.90    3.80
  -2   7   4   13.30    2.70
   2   7  -4    6.50    2.20
  -2   7   4   17.80    2.80
  -2   7   4   10.50    3.20
   2   7  -4   19.20    2.70
   2   7  -4   13.70    3.10
   1   7  -4   85.09    7.30
  -1   7   4   97.79    7.20
   1   7  -4  103.19    7.60
  -1   7   4   99.39    7.30
  -1   7   4  103.79    7.90
  -1   7   4   96.89    6.70
  -1   7   4   85.79    6.90
  -1   7   4   98.29    7.60
   1   7  -4   95.39    6.50
   1   7  -4   76.99    6.80
  -1   7   4  106.09    7.20
   0   7   4   28.40    5.30
   0   7   4   18.70    3.20
   0   7   4   24.70    4.30
   0   7  -4   18.40    2.80
   0   7  -4   20.10    4.00
   0   7  -4   30.20    4.40
   0   7  -4   21.20    2.70
   0   7   4   24.60    3.00
   0   7   4   22.60    4.40
   0   7   4   20.50    3.30
   0   7   4   20.90    3.80
   0   7  -4   13.90    2.50
  -1  -7  -4  218.98   17.00
  -1   7  -4  219.98   14.00
   1   7   4  223.18   14.40
   1   7   4  215.68   14.40
   1   7   4  222.08   14.00
   1   7   4  217.28   14.30
   1   7   4  214.68   13.80
  -1   7  -4  226.38   13.40
   1   7   4  230.28   14.40
  -1   7  -4  223.08   13.60
  -2  -7  -4   30.90    7.30
   2   7   4   35.70    4.80
   2   7   4   35.20    5.80
  -2   7  -4   38.10    4.40
  -2   7  -4   32.90    3.70
   2   7   4   32.40    6.20
   2   7   4   34.50    4.10
   2   7   4   36.90    6.00
  -2   7  -4   36.00    4.10
  -2   7  -4   30.40    4.30
   2   7   4   34.90    5.20
  -3  -7  -4  509.05   32.60
  -3  -7  -4  494.65   28.20
   3   7   4  479.55   29.20
   3   7   4  476.25   29.30
   3   7   4  501.95   29.50
  -3   7  -4  465.15   28.70
   3   7   4  490.75   29.60
   3   7   4  495.05   29.50
  -3   7  -4  485.45   28.80
  -3   7  -4  484.95   28.50
   4  -7   4    6.80    2.00
  -4  -7  -4    4.90    1.60
  -4  -7  -4    1.60    6.60
  -4  -7  -4    2.30    6.30
  -4   7  -4    7.50    2.20
   4   7   4    5.60    3.00
   4   7   4    5.30    3.90
  -4   7  -4    6.50    2.40
   4   7   4    3.90    3.20
   4   7   4    5.20    4.00
  -4   7  -4    7.50    2.30
  -5  -7  -4  274.37   23.70
  -5  -7  -4  329.07   18.10
  -5  -7  -4  314.97   23.10
   5  -7   4  271.37   18.40
   5   7   4  299.97   19.60
   5   7   4  308.97   19.30
   5   7   4  286.77   19.80
  -5   7  -4  304.47   18.40
  -5   7  -4  308.77   18.50
   5   7   4  310.07   19.50
  -5   7  -4  297.07   18.10
  -6  -7  -4   96.19   12.90
  -6  -7  -4   85.69    6.80
  -6  -7  -4   84.49    7.70
  -6  -7  -4   64.79   11.20
   6  -7   4   71.59    7.00
   6   7   4   88.19    8.60
  -6   7  -4   92.09    7.00
   6   7   4   79.39    9.70
   6   7   4   89.69    8.20
   6   7   4   90.69    9.90
  -6   7  -4   79.99    6.60
  -6   7  -4   95.69    6.50
  -7  -7  -4   27.10    9.80
   7  -7   4   35.20    5.50
  -7  -7  -4   41.20    9.50
  -7  -7  -4   37.90    5.60
  -7  -7  -4   39.40    6.90
   7   7   4   45.70    8.50
   7   7   4   47.90    7.40
   7   7   4   47.60    6.70
   7   7   4   45.40    6.80
  -7   7  -4   45.00    4.70
  -7   7  -4   34.90    5.50
  -8  -7  -4   -1.30    7.60
  -8  -7  -4    4.70    3.00
  -8  -7  -4    2.10    3.90
   8  -7   4    1.20    2.80
   8   7   4   -0.70    4.20
  -8   7  -4   -1.50    2.40
   8   7   4   -2.20    3.60
  -8   7  -4    0.30    2.50
   8   7   4   -6.40    4.00
  -9  -7  -4  141.09   10.70
  -9  -7  -4  128.29   11.20
  -9  -7  -4  137.39   16.10
  -9  -7  -4  134.99   11.40
   9  -7   4  161.38   10.80
  -9   7  -4  160.28   10.30
   9   7   4  180.18   12.30
  -9   7  -4  148.09    9.90
   9   7   4  131.59   11.80
   9   7   4  148.39   11.60
 -10  -7  -4   -0.70    3.40
  10  -7   4   -0.10    2.90
 -10  -7  -4    0.10    2.70
 -10  -7  -4   -1.50    2.90
 -10   7  -4    0.30    2.40
 -10   7  -4    2.30    2.40
  10   7   4   -1.10    3.00
  10   7   4    4.50    4.00
  11  -7   4   30.60    4.60
 -11  -7  -4   24.70    3.50
 -11  -7  -4   25.20    4.90
  11   7   4   34.80    5.90
 -11   7  -4   21.40    3.40
 -11   7  -4   24.20    3.80
 -12  -7  -4    8.50    2.40
  12  -8  -4    9.40    4.40
 -12  -8   4    0.90    2.50
  12  -8  -4    5.30    2.90
 -12   8   4    2.10    1.90
  12   8  -4    5.70    3.50
 -11  -8   4   50.49    5.10
 -11  -8   4   46.30    6.10
  11  -8  -4   48.60    6.70
  11  -8  -4   48.60    8.10
  11   8  -4   50.29    7.50
 -11   8   4   53.09    5.00
  10  -8  -4   23.80    6.00
 -10  -8   4   29.50    4.80
 -10  -8   4   21.20    3.80
  10  -8  -4   34.90    4.60
 -10  -8   4   32.70    4.70
 -10   8   4   34.00    4.80
  10   8  -4   40.20    7.60
  10   8  -4   35.70    6.10
  10   8  -4   27.30    5.10
   9  -8  -4    5.00    3.10
  -9  -8   4    5.80    2.40
  -9  -8   4    2.30    5.60
  -9  -8   4    1.50    2.90
   9   8  -4   -0.10    4.00
   9   8  -4   -1.20    4.40
  -9   8   4    1.60    2.80
   9   8  -4   -3.60    5.10
  -8  -8   4    4.10    2.40
   8  -8  -4    1.60    2.70
  -8  -8   4    4.70    5.80
  -8  -8   4    0.30    2.90
   8   8  -4    5.40    4.60
   8   8  -4    2.10    3.80
   8   8  -4    8.20    5.60
  -8   8   4    1.70    2.40
   8   8  -4   -2.70    5.10
  -8   8   4    1.60    2.50
  -8   8   4   -0.50    4.40
  -7  -8   4   -3.50    5.20
  -7  -8   4    0.20    2.90
  -7  -8   4   11.10    6.70
  -7  -8   4    1.30    2.20
  -7   8   4    0.20    3.60
  -7   8   4    3.20    2.20
  -7   8   4   -1.70    5.90
   7   8  -4    3.40    4.40
   7   8  -4    0.10    4.60
  -7   8   4   -2.50    2.40
   7   8  -4    2.00    3.70
  -6  -8   4  148.59    9.70
  -6  -8   4  133.09   13.30
  -6  -8   4  139.99   10.20
  -6  -8   4  120.89   14.20
   6   8  -4  138.69   11.40
   6   8  -4  144.59   12.00
  -6   8   4  140.29    9.80
  -6   8   4  161.18   11.60
   6   8  -4  145.89   11.70
  -6   8   4  158.28    9.90
  -6   8   4  179.78   13.30
   6   8  -4  161.98   12.90
  -5  -8   4    1.30    4.70
  -5  -8   4   -0.60    2.70
  -5  -8   4   -2.90    4.00
  -5  -8   4    1.40    1.80
   5   8  -4    4.70    3.70
  -5   8   4    1.00    1.80
  -5   8   4    2.40    2.20
  -5   8   4    3.60    2.00
   5   8  -4   -1.40    4.00
  -5   8   4   -1.30    3.70
   5   8  -4    1.30    4.00
  -5   8   4    2.20    3.10
   5   8  -4    0.90    3.20
  -4  -8   4   -1.00    3.80
  -4  -8   4   -0.70    1.60
  -4  -8   4   -0.60    4.60
   4   8  -4    3.10    3.20
  -4   8   4   -1.60    2.70
  -4   8   4   -0.60    1.90
  -4   8   4    1.30    3.60
  -4   8   4    0.40    1.70
   4   8  -4   -0.30    3.40
  -4   8   4   -0.60    1.70
   4   8  -4    0.70    3.70
   4   8  -4    1.50    3.40
  -3  -8   4  501.45   28.40
  -3  -8   4  459.75   30.60
  -3   8   4  464.65   29.00
   3   8  -4  481.85   29.70
  -3   8   4  514.65   30.20
  -3   8   4  427.66   28.80
   3   8  -4  517.65   29.60
   3   8  -4  517.55   28.90
   3   8  -4  505.25   29.00
   3   8  -4  486.75   28.60
  -3   8   4  457.35   28.30
  -3   8   4  483.45   28.70
  -2  -8   4   95.49    6.70
  -2   8   4   90.39    7.70
  -2   8   4  107.89    7.90
  -2   8   4  102.29    8.90
  -2   8   4  112.19    8.20
  -2   8   4   99.59    8.10
   2   8  -4  104.29    7.40
   2   8  -4  106.29    8.80
   2   8  -4  109.39    8.30
   2   8  -4   99.09    7.90
   2   8  -4   94.19    8.40
  -2   8   4  102.79    7.20
  -1  -8   4   77.09    6.30
  -1   8   4   84.29    7.60
   1   8  -4  112.39    7.40
   1   8  -4  102.09    6.80
  -1   8   4   90.79    7.60
  -1   8   4  105.49    7.70
  -1   8   4   79.99    7.50
   1   8  -4   99.79    7.80
  -1   8   4   95.29    6.80
  -1   8   4  104.19    8.40
  -1   8   4   95.49    8.10
   1   8  -4  104.09    8.20
   1   8  -4   82.79    7.50
   0   8   4   55.79    5.90
   0   8   4   52.79    4.80
   0   8   4   54.19    6.50
   0   8   4   58.59    6.90
   0   8   4   39.20    6.00
   0   8   4   60.79    6.00
  -1  -8  -4  327.07   24.30
  -1   8  -4  318.37   20.60
  -1   8  -4  329.47   20.00
   1   8   4  333.77   21.00
  -1   8  -4  329.97   20.20
   1   8   4  344.37   21.20
   1   8   4  339.57   20.40
   1   8   4  343.67   20.70
   1   8   4  332.27   20.90
   1   8   4  340.87   21.00
  -1   8  -4  340.57   20.50
  -2  -8  -4   32.20    8.50
   2   8   4   43.10    7.00
  -2   8  -4   49.20    4.80
   2   8   4   52.09    6.40
   2   8   4   51.29    5.00
  -2   8  -4   42.90    5.40
   2   8   4   37.10    6.90
  -2   8  -4   49.90    5.60
  -2   8  -4   52.69    5.30
   2   8   4   47.20    7.60
  -3  -8  -4  250.47   14.10
  -3  -8  -4  239.58   20.50
  -3  -8  -4  219.38   19.40
   3   8   4  229.18   15.20
   3   8   4  232.28   16.20
  -3   8  -4  245.38   15.00
   3   8   4  236.58   16.40
  -3   8  -4  241.88   15.00
  -3   8  -4  224.78   14.50
   3   8   4  221.78   15.70
   3   8   4  243.28   15.90
  -4  -8  -4   21.80    3.30
  -4  -8  -4    8.80    8.50
   4  -8   4   15.50    2.60
  -4  -8  -4   37.50    9.00
  -4   8  -4   14.80    3.10
   4   8   4   24.50    4.80
   4   8   4   21.40    4.50
   4   8   4   25.60    5.00
  -4   8  -4   15.30    2.70
  -4   8  -4   15.90    2.80
   4   8   4   20.80    4.70
  -5  -8  -4    6.90    8.00
  -5  -8  -4   18.90    3.70
  -5  -8  -4    8.40    8.50
   5  -8   4    9.20    2.60
   5   8   4    3.70    4.30
   5   8   4    5.00    3.70
  -5   8  -4   10.90    2.80
  -5   8  -4    8.30    2.40
   5   8   4   11.60    4.70
  -5   8  -4    9.40    2.50
   5   8   4   11.40    3.70
  -6  -8  -4  144.69   17.90
  -6  -8  -4  138.59   19.40
  -6  -8  -4  196.38   12.20
   6  -8   4  182.08   12.50
  -6  -8  -4  180.48   13.00
  -6   8  -4  195.88   12.00
   6   8   4  186.98   14.70
   6   8   4  195.38   13.50
  -6   8  -4  193.68   12.60
   6   8   4  177.28   13.80
   6   8   4  198.18   14.90
  -7  -8  -4   48.30    7.60
   7  -8   4   34.60    5.70
  -7  -8  -4   36.00    9.40
  -7  -8  -4   46.60    6.00
  -7   8  -4   37.70    5.10
   7   8   4   53.39    7.80
   7   8   4   68.89    9.20
   7   8   4   68.59    8.70
   7   8   4   60.69    7.20
  -7   8  -4   46.80    6.00
  -8  -8  -4   30.90    9.60
   8  -8   4   18.60    3.70
  -8  -8  -4   27.60    4.80
   8   8   4   33.90    6.70
   8   8   4   29.90    5.40
   8   8   4   37.50    6.90
  -8   8  -4   31.70    5.10
  -8   8  -4   33.30    4.60
  -9  -8  -4    3.60    3.40
   9  -8   4    9.10    3.20
  -9  -8  -4    7.30    3.30
  -9  -8  -4    6.00    4.00
  -9   8  -4    7.60    2.70
   9   8   4    4.00    4.00
   9   8   4    6.90    4.20
   9   8   4    5.40    3.50
  -9   8  -4    5.20    2.70
 -10  -8  -4    8.50    3.00
 -10  -8  -4    3.00    3.20
  10  -8   4   10.90    3.00
 -10  -8  -4    1.80    3.20
  10   8   4    8.80    3.70
 -10   8  -4    6.60    2.30
  10   8   4    1.20    2.80
 -10   8  -4    8.00    2.40
 -11  -8  -4   21.40    3.40
  11  -8   4   27.10    4.00
 -11  -8  -4   18.10    3.00
  11   8   4   26.00    4.40
 -11   8  -4   25.00    3.10
  12  -9  -4   -3.00    2.10
  11  -9  -4   25.80    5.00
  11  -9  -4   19.80    4.90
 -11  -9   4   13.00    3.20
  11   9  -4   19.30    4.40
 -11   9   4   24.70    2.90
 -10  -9   4    1.30    2.90
  10  -9  -4   -0.10    2.80
 -10  -9   4    3.00    2.20
  10  -9  -4    3.50    4.80
  10   9  -4   -2.60    3.80
 -10   9   4   -0.60    2.30
  10   9  -4    0.40    4.60
  10   9  -4    4.30    4.30
   9  -9  -4   39.40    6.20
  -9  -9   4   38.30    5.20
  -9   9   4   40.80    4.90
   9   9  -4   55.69    8.90
  -8  -9   4    7.80    6.20
   8  -9  -4    2.40    2.80
  -8  -9   4    8.80    2.50
  -8  -9   4   10.50    3.20
   8   9  -4    3.60    4.50
   8   9  -4    3.70    5.50
   8   9  -4   12.00    5.00
  -8   9   4    7.50    2.40
   8   9  -4    4.70    5.10
  -8   9   4   11.00    2.60
  -7  -9   4  262.07   15.50
  -7  -9   4  214.88   15.70
  -7  -9   4  239.18   19.40
   7   9  -4  234.68   17.00
   7   9  -4  269.17   18.20
  -7   9   4  268.67   18.30
   7   9  -4  251.17   17.50
  -7   9   4  254.27   15.50
  -7   9   4  252.97   15.70
   7   9  -4  264.27   18.50
  -6  -9   4    0.10    5.30
  -6  -9   4  -12.20    6.70
  -6  -9   4   -0.60    1.90
  -6  -9   4   -0.10    3.00
  -6   9   4   -5.90    5.90
   6   9  -4    1.60    3.80
  -6   9   4    0.40    2.30
   6   9  -4    3.00    4.70
   6   9  -4    1.80    4.60
  -6   9   4    1.20    3.50
  -6   9   4    0.70    2.10
   6   9  -4   -0.90    4.70
  -5  -9   4  247.18   14.10
  -5  -9   4  191.28   17.10
  -5  -9   4  218.78   14.60
  -5   9   4  223.88   14.40
  -5   9   4  227.68   14.00
   5   9  -4  234.88   15.60
   5   9  -4  228.68   15.80
  -5   9   4  228.68   17.00
   5   9  -4  241.48   16.70
   5   9  -4  207.78   16.60
  -5   9   4  236.28   15.70
  -4  -9   4   36.30    4.20
   4   9  -4   39.20    5.40
  -4   9   4   31.10    4.70
  -4   9   4   39.60    5.80
   4   9  -4   56.39    8.00
  -4   9   4   35.10    4.00
  -4   9   4   37.00    6.20
  -4   9   4   33.00    4.10
   4   9  -4   32.00    4.90
   4   9  -4   42.40    7.90
  -3  -9   4   74.99    5.80
  -3   9   4   71.89    7.30
   3   9  -4   50.59    7.90
  -3   9   4   76.49    8.60
  -3   9   4   68.39    6.80
  -3   9   4   76.69    6.70
   3   9  -4   69.29    8.70
   3   9  -4   81.99    8.40
  -3   9   4   83.89    6.00
   3   9  -4   78.09    6.90
  -2  -9   4   57.29    4.80
  -2   9   4   54.79    6.30
  -2   9   4   56.89    5.00
   2   9  -4   48.20    6.90
   2   9  -4   61.49    6.60
   2   9  -4   49.80    5.80
  -2   9   4   69.09    6.60
   2   9  -4   57.39    7.10
  -2   9   4   59.29    6.10
   2   9  -4   53.19    7.80
  -2   9   4   54.79    7.10
  -1  -9   4   49.00    4.60
   1   9  -4   57.49    6.70
  -1   9   4   64.49    6.40
  -1   9   4   61.69    6.40
  -1   9   4   63.89    7.50
   1   9  -4   55.59    5.60
  -1   9   4   59.39    5.20
   1   9  -4   57.49    6.70
   1   9  -4   57.49    7.20
   1   9  -4   49.50    6.10
  -1   9   4   49.80    6.90
   0  -9  -4    3.50    7.00
   0   9  -4    4.70    2.60
   0   9   4    5.20    2.40
   0   9  -4    3.80    2.90
   0   9  -4    6.80    3.00
   0   9   4    4.00    3.20
   0   9   4    2.20    3.70
   0   9  -4    4.30    3.20
   0   9   4   -2.30    3.20
   0   9   4    7.80    3.10
   0   9   4    4.20    3.40
   0   9  -4    2.30    3.10
  -1  -9  -4   -4.20    7.00
   1   9   4   -1.30    2.70
   1   9   4   -0.90    3.50
   1   9   4    1.10    3.40
  -1   9  -4    1.30    2.60
  -1   9  -4   -1.80    2.70
  -1   9  -4   -0.50    2.80
   1   9   4   -0.10    3.90
  -1   9  -4    3.10    2.90
   1   9   4    0.70    2.30
   1   9   4   -4.10    3.50
  -2  -9  -4   -2.20    7.90
   2   9   4    1.30    2.40
  -2   9  -4   -1.60    2.70
   2   9   4    6.40    3.90
   2   9   4    3.00    4.30
  -2   9  -4   -3.60    2.40
   2   9   4   -2.60    3.50
  -2   9  -4   -4.70    2.60
   2   9   4   -9.10    3.80
  -2   9  -4    1.00    2.90
  -3  -9  -4  246.28   13.70
  -3  -9  -4  193.98   20.10
   3  -9   4  198.58   14.10
  -3  -9  -4  220.58   19.70
   3   9   4  226.08   16.30
  -3   9  -4  212.58   14.60
  -3   9  -4  235.58   14.80
   3   9   4  210.58   15.80
   3   9   4  220.18   16.30
   3   9   4  251.37   15.00
  -3   9  -4  242.78   14.20
   3   9   4  236.08   15.80
  -4  -9  -4   18.60    3.50
   4  -9   4   14.90    2.70
  -4  -9  -4   -0.40    9.00
  -4  -9  -4   11.30    9.10
  -4   9  -4   13.40    3.20
  -4   9  -4   16.30    3.50
   4   9   4    9.90    4.50
   4   9   4   18.60    4.90
  -4   9  -4    8.60    2.90
   4   9   4   16.00    4.90
   4   9   4   14.10    3.60
  -5  -9  -4   82.89   14.80
   5  -9   4  108.89    8.80
  -5  -9  -4  107.29   15.90
  -5  -9  -4  128.99    9.80
  -5  -9  -4  139.09    8.50
   5   9   4  119.79   10.70
  -5   9  -4  116.39    8.70
  -5   9  -4  123.69    9.20
  -5   9  -4  123.59    9.40
   5   9   4  124.69   12.20
   5   9   4  115.09   11.90
   5   9   4  135.09    9.90
  -6  -9  -4   50.69    5.90
   6  -9   4   46.70    5.70
  -6  -9  -4   47.30    7.70
  -6  -9  -4   30.70    9.90
   6   9   4   65.29    9.30
  -6   9  -4   55.29    6.40
  -6   9  -4   60.29    5.60
   6   9   4   55.39    6.80
   6   9   4   55.39    9.60
   6   9   4   51.69    8.00
   7  -9   4   49.50    5.90
  -7  -9  -4   40.50   10.30
  -7  -9  -4   43.70    7.60
  -7  -9  -4   48.10    6.10
  -7   9  -4   55.89    5.50
   7   9   4   67.79    8.00
   7   9   4   50.69    9.80
   7   9   4   62.59    9.20
  -7   9  -4   55.69    6.30
   7   9   4   73.89    7.20
   8  -9   4    7.20    3.10
  -8  -9  -4    9.70    4.10
  -8  -9  -4    7.40    3.10
   8   9   4    4.70    4.40
   8   9   4    4.30    3.90
  -8   9  -4    3.60    2.80
   8   9   4    4.80    3.50
  -8   9  -4    8.20    2.90
  -9  -9  -4   64.39    6.50
  -9  -9  -4   47.00    6.60
   9  -9   4   68.29    6.30
  -9  -9  -4   55.19    7.30
  -9   9  -4   70.59    5.90
   9   9   4   64.19    7.80
   9   9   4   75.99    7.00
   9   9   4   67.19    7.00
  -9   9  -4   57.09    5.40
 -10  -9  -4   17.50    3.40
 -10  -9  -4   19.70    3.20
  10  -9   4   28.60    4.20
 -10  -9  -4   26.70    3.50
  10   9   4   25.90    4.60
 -10   9  -4   17.50    3.10
  10   9   4   17.80    3.30
  11 -10  -4   29.00    4.50
  11  10  -4   33.40    5.30
 -10 -10   4    5.00    2.90
  10 -10  -4    4.10    3.70
 -10 -10   4    6.70    2.20
  10 -10  -4    6.60    2.60
  10  10  -4    6.10    3.90
  10  10  -4    5.00    3.50
  10  10  -4    3.20    3.80
 -10  10   4    5.70    2.00
   9 -10  -4    2.90    4.40
  -9 -10   4    5.00    2.30
   9 -10  -4   10.00    2.80
  -9  10   4    3.60    2.30
   9  10  -4    9.00    4.40
   9  10  -4    3.70    4.10
   9  10  -4    5.00    4.60
  -8 -10   4   14.40    3.20
  -8 -10   4   26.50    4.40
   8 -10  -4   22.50    4.90
  -8  10   4   22.20    4.00
   8  10  -4   17.40    5.10
   8  10  -4   14.10    4.70
   8  10  -4   15.40    5.70
  -8  10   4   26.70    3.60
   8  10  -4   24.70    5.70
  -7 -10   4    9.00    3.30
  -7 -10   4   17.20    2.80
  -7  10   4   13.60    2.70
   7  10  -4   10.90    5.20
   7  10  -4   12.30    5.40
   7  10  -4   25.80    6.50
   7  10  -4   21.50    5.00
  -7  10   4   17.50    3.60
  -6 -10   4    3.80    3.00
  -6 -10   4    1.60    2.20
   6  10  -4    3.80    4.00
  -6  10   4    1.10    2.20
  -6  10   4    0.40    2.30
   6  10  -4   11.00    5.30
   6  10  -4    3.40    5.40
   6  10  -4    3.30    4.70
  -5 -10   4   20.50    2.80
  -5 -10   4   21.00    3.70
  -5  10   4   21.10    3.90
   5  10  -4   13.20    5.00
   5  10  -4   16.70    4.70
   5  10  -4   23.60    5.90
  -5  10   4   19.90    3.70
  -5  10   4   26.40    5.00
   5  10  -4   16.80    5.70
  -4 -10   4   32.60    4.20
  -4 -10   4   25.50    3.90
   4  10  -4   22.60    4.70
   4  10  -4   22.20    5.00
   4  10  -4   30.90    5.40
   4  10  -4   17.60    5.50
  -4  10   4   29.80    5.70
  -4  10   4   30.20    4.80
  -4  10   4   36.70    4.20
  -3 -10   4  126.79    8.20
  -3  10   4  121.89    8.50
   3  10  -4  122.09   10.50
  -3  10   4  110.09    9.80
   3  10  -4  107.49   10.10
  -3  10   4  115.69    9.00
   3  10  -4  122.19   10.60
   3  10  -4  135.99   11.70
  -2 -10   4   62.29    5.20
   2 -10  -4   31.60   11.10
  -2  10   4   63.79    7.80
  -2  10   4   65.79    7.10
   2  10  -4   71.99    9.30
   2  10  -4   70.29    7.80
   2  10  -4   58.79    7.50
  -2  10   4   61.29    6.70
  -2  10   4   57.49    5.40
   2  10  -4   59.99    7.20
   2  10  -4   58.49    6.40
   1 -10  -4  275.67   25.60
  -1  10   4  304.57   20.10
   1  10  -4  309.37   19.70
  -1  10   4  295.07   19.60
   1  10  -4  339.07   20.50
   1  10  -4  303.57   18.90
  -1  10   4  299.37   18.80
   1  10  -4  324.27   19.50
  -1  10   4  304.77   20.00
  -1  10   4  303.07   19.50
   0 -10   4   12.50    3.00
   0 -10  -4    8.00    9.10
   0  10   4    7.60    3.90
   0  10   4   13.80    3.00
   0  10   4    2.30    3.90
   0  10  -4   12.40    3.20
   0  10   4    7.70    3.80
   0  10   4   10.40    4.30
   0  10  -4   13.50    3.70
  -1 -10  -4  188.88   21.50
  -1  10  -4  228.28   15.10
   1  10   4  246.38   14.80
  -1  10  -4  232.78   15.50
   1  10   4  213.48   15.80
  -1  10  -4  240.98   15.40
   1  10   4  212.38   15.40
  -1  10  -4  233.78   14.50
   1  10   4  234.38   16.00
   1  10   4  222.78   15.70
  -2 -10  -4   31.50    9.70
   2 -10   4   40.40    5.70
  -2 -10  -4   13.50    9.50
   2  10   4   60.39    5.60
   2  10   4   55.69    8.20
  -2  10  -4   45.20    6.80
   2  10   4   49.10    8.70
  -2  10  -4   53.59    5.80
   2  10   4   47.60    8.40
  -2  10  -4   55.89    7.10
   2  10   4   55.39    7.60
  -3 -10  -4  234.38   26.70
  -3 -10  -4  290.77   23.60
   3 -10   4  251.27   17.20
  -3 -10  -4  305.27   16.80
   3  10   4  281.67   17.90
   3  10   4  252.47   19.10
  -3  10  -4  277.07   17.80
   3  10   4  306.57   19.30
  -3  10  -4  294.17   18.00
   3  10   4  275.27   18.70
  -3  10  -4  286.27   17.40
   4 -10   4    9.50    2.60
  -4 -10  -4   15.50    2.40
  -4 -10  -4   15.50    9.50
   4  10   4   13.20    3.40
  -4  10  -4   15.80    3.50
   4  10   4    6.60    4.00
   4  10   4   11.10    5.20
  -4  10  -4   12.50    3.40
   4  10   4   14.40    4.90
  -4  10  -4   15.50    3.80
   5 -10   4    0.80    2.30
  -5 -10  -4    7.70    3.60
  -5 -10  -4    3.70    8.60
  -5 -10  -4    4.80    2.30
   5  10   4   -1.20    3.70
   5  10   4    0.00    4.90
  -5  10  -4    3.60    2.90
  -5  10  -4    1.10    3.30
   5  10   4    0.80    2.90
   5  10   4    3.80    4.60
  -6 -10  -4    2.50    3.60
  -6 -10  -4    1.50    8.30
   6 -10   4    0.90    2.50
  -6 -10  -4    0.90    2.50
   6  10   4    0.20    4.90
   6  10   4    0.20    3.10
   6  10   4    0.60    4.30
  -6  10  -4   -0.30    2.70
  -6  10  -4   -0.90    3.10
   6  10   4   -1.00    4.30
  -7 -10  -4    4.50    2.80
  -7 -10  -4    6.00    3.80
   7 -10   4    3.40    2.80
   7  10   4    3.00    4.40
  -7  10  -4    1.60    2.70
   7  10   4    9.60    4.80
   7  10   4    6.60    3.90
  -7  10  -4    3.70    3.10
   7  10   4    6.70    3.30
  -8 -10  -4    2.80    2.80
  -8 -10  -4   -0.40    3.50
   8 -10   4    1.80    2.60
   8  10   4   -0.10    2.70
   8  10   4    3.00    4.00
   8  10   4   -2.60    3.00
  -8  10  -4   -0.60    2.60
  -8  10  -4    2.80    2.40
  -9 -10  -4    1.30    2.60
  -9 -10  -4    0.90    2.70
  -9 -10  -4   -0.80    3.00
   9 -10   4    0.50    2.30
   9  10   4    1.60    3.20
  -9  10  -4    1.50    2.10
   9  10   4    0.00    2.80
  10 -10   4    6.60    2.10
 -10 -10  -4   10.40    3.20
 -10  10  -4    3.90    1.80
  10 -11  -4   12.40    2.60
  10  11  -4    8.60    3.30
   9 -11  -4   21.10    3.10
  -9 -11   4   18.90    3.30
  -9 -11   4   26.50    3.70
  -9  11   4   19.00    3.30
   9  11  -4   21.80    4.30
   9  11  -4   26.00    4.50
   9  11  -4   25.90    4.60
   8 -11  -4    9.20    2.60
  -8 -11   4   12.20    2.40
  -8  11   4    5.00    2.20
   8  11  -4   14.40    4.80
   8  11  -4   14.00    3.90
   8  11  -4    7.90    4.40
   8  11  -4   18.50    4.70
  -7 -11   4  107.59    8.60
  -7 -11   4  127.09    8.40
   7  11  -4  139.09   12.00
  -7  11   4  129.89    8.30
   7  11  -4  107.79   10.80
   7  11  -4  134.19   11.50
   7  11  -4  111.69   10.30
  -6 -11   4   11.10    2.40
  -6 -11   4    5.90    2.90
   6  11  -4   11.40    5.40
   6  11  -4    9.40    4.10
  -6  11   4   14.80    3.20
   6  11  -4   12.40    5.00
   6  11  -4   16.90    5.10
  -5 -11   4  127.29    9.70
  -5 -11   4  141.39    9.10
   5  11  -4  124.69   11.30
   5  11  -4  148.09   13.20
  -5  11   4  134.39    9.00
   5  11  -4  131.29   11.90
   5  11  -4  130.49   11.40
  -4 -11   4  108.39    7.30
   4  11  -4   72.89    9.70
   4  11  -4   92.79    9.70
   4  11  -4  105.49   10.00
  -4  11   4  103.99    7.30
   4  11  -4   98.89   11.70
  -3 -11   4    8.30    2.20
   3  11  -4    5.40    5.30
  -3  11   4    6.90    2.70
  -3  11   4    6.90    4.20
  -3  11   4    5.60    2.30
   3  11  -4    4.80    3.90
   3  11  -4    4.10    4.30
   3  11  -4    3.70    4.50
  -2 -11   4    2.60    2.00
   2  11  -4    1.80    4.00
   2  11  -4    2.80    3.50
   2  11  -4   -0.30    3.90
  -2  11   4    6.00    3.60
   2  11  -4    0.30    4.90
  -2  11   4    1.30    2.60
   2  11  -4    0.20    3.60
  -2  11   4    0.80    2.20
  -1 -11   4    5.20    2.00
   1  11  -4    6.50    4.00
   1  11  -4    8.60    4.20
  -1  11   4    5.50    3.90
  -1  11   4    5.40    2.20
   1  11  -4    6.20    3.50
  -1  11   4    5.50    3.30
  -1  11   4    5.60    3.80
   1  11  -4    8.20    4.80
   0 -11   4   55.99    5.10
   0 -11  -4   37.30   10.10
   0  11  -4   51.49    8.10
   0  11  -4   62.19    7.50
   0  11   4   60.19    8.40
   0  11   4   46.00    7.00
   0  11  -4   67.19    8.10
   0  11  -4   55.69    6.30
   0  11   4   55.09    5.20
   0  11   4   45.70    7.80
  -1 -11  -4   -1.20    7.70
   1 -11   4    7.90    2.40
   1  11   4    8.30    4.40
   1  11   4    4.80    3.60
  -1  11  -4    8.00    3.90
  -1  11  -4    9.20    4.10
  -1  11  -4   11.20    3.40
   1  11   4   11.50    2.80
   1  11   4   11.70    4.70
   1  11   4    4.80    4.20
  -1  11  -4    7.90    3.80
   2 -11   4   46.10    5.40
  -2 -11  -4   47.50   11.10
  -2  11  -4   53.49    6.10
  -2  11  -4   61.29    7.40
   2  11   4   47.00    8.40
   2  11   4   56.89    9.20
   2  11   4   61.39    5.70
  -2  11  -4   60.69    7.30
   2  11   4   51.39    7.50
  -3 -11  -4   12.90    2.20
  -3 -11  -4   19.80    8.60
   3 -11   4    8.90    2.50
   3  11   4    9.60    4.70
  -3  11  -4   12.90    3.90
  -3  11  -4   12.90    3.50
   3  11   4   18.60    3.40
   3  11   4   14.30    4.40
  -3  11  -4   14.60    3.60
   3  11   4    7.80    4.50
  -4 -11  -4    0.50    1.90
  -4 -11  -4    1.50    8.50
  -4 -11  -4    1.30    3.10
   4 -11   4    1.80    2.30
   4  11   4    2.40    4.90
  -4  11  -4    3.90    3.40
   4  11   4    4.00    4.60
  -4  11  -4   -2.20    2.90
  -4  11  -4    1.30    2.90
   4  11   4    0.90    2.60
   4  11   4   -2.10    3.90
  -5 -11  -4   60.79    5.50
  -5 -11  -4   48.70    6.90
   5 -11   4   53.19    5.60
   5  11   4   49.99    8.80
  -5  11  -4   55.89    5.90
   5  11   4   64.39    8.90
  -5  11  -4   50.09    6.60
   5  11   4   56.99    5.70
   5  11   4   49.10    8.00
  -6 -11  -4    4.50    2.60
  -6 -11  -4    7.80    3.40
   6 -11   4    5.90    2.60
   6  11   4    4.40    4.20
   6  11   4    3.80    4.50
   6  11   4    4.10    2.70
  -6  11  -4    7.70    3.30
  -6  11  -4    6.50    2.70
   6  11   4    4.90    3.70
   7 -11   4  112.19    7.50
  -7 -11  -4   89.69    8.40
   7  11   4   93.69    9.20
   7  11   4  101.39    8.80
  -7  11  -4  103.49    7.60
  -7  11  -4   92.39    7.10
  -8 -11  -4    0.20    2.40
  -8 -11  -4    0.00    2.90
   8 -11   4   -0.50    2.00
  -8 -11  -4    0.60    2.90
  -8  11  -4   -0.20    2.00
   8  11   4    1.90    3.30
   8  11   4    2.40    3.10
   9 -11   4   29.50    3.60
  -9  11  -4   18.80    3.40
  -8 -12   4   29.80    3.70
   8  12  -4   30.70    5.90
   8  12  -4   36.20    6.00
   8  12  -4   30.20    5.70
  -7 -12   4    3.30    2.00
   7  12  -4    7.80    3.70
   7  12  -4   -2.70    4.20
   7  12  -4    0.00    4.20
   7  12  -4    3.50    3.80
  -6 -12   4   34.10    3.90
   6  12  -4   24.20    4.70
   6  12  -4   32.90    5.00
   6  12  -4   15.80    4.80
   6  12  -4   40.90    6.00
  -6  12   4   30.20    3.40
  -5 -12   4    8.20    2.10
  -5 -12   4    3.50    2.70
   5  12  -4    9.50    4.20
   5  12  -4    3.00    3.60
   5  12  -4    7.80    4.70
  -5  12   4    7.80    2.20
   5  12  -4    3.00    5.00
  -4 -12   4   24.60    3.90
  -4 -12   4   14.40    3.30
   4  12  -4   15.20    4.30
   4  12  -4   23.50    5.50
  -4  12   4   27.90    3.50
   4  12  -4   27.90    4.90
   4  12  -4   24.00    5.10
  -3 -12   4   12.50    2.30
  -3 -12   4    4.60    2.90
   3  12  -4   15.00    4.50
   3  12  -4   14.50    4.70
  -3  12   4   13.20    2.40
   3  12  -4   10.40    3.80
   3  12  -4   18.80    5.30
  -2 -12   4    4.00    1.90
   2  12  -4    7.70    5.60
  -2  12   4    2.00    2.00
  -2  12   4    6.20    2.70
   2  12  -4    2.90    4.00
   2  12  -4    3.30    4.00
   2  12  -4    2.20    4.60
  -1 -12   4   66.39    5.50
  -1  12   4   68.09    8.10
   1  12  -4   67.79    9.00
  -1  12   4   70.89    7.00
   1  12  -4   75.29    8.40
   1  12  -4   56.49    6.60
  -1  12   4   65.69    5.70
   1  12  -4   66.99    7.90
   0 -12   4   16.50    3.60
   0  12   4   14.90    4.30
   0  12  -4   19.80    4.30
   0  12   4   15.30    4.40
   0  12  -4   16.40    4.30
   0  12  -4   16.70    3.70
   0  12   4   17.50    3.80
   0  12   4   12.80    2.60
   0  12  -4    9.70    4.60
   1 -12   4   16.50    3.50
  -1  12  -4   12.10    4.00
  -1  12  -4   10.50    3.90
   1  12   4   13.00    3.70
  -1  12  -4   15.80    3.40
   1  12   4   12.90    4.50
   1  12   4   19.20    4.50
   2 -12   4    2.00    1.90
   2  12   4    1.30    3.40
   2  12   4    4.20    4.50
   2  12   4   -0.20    4.30
  -2  12  -4    3.00    3.40
  -2  12  -4    0.10    3.50
  -2  12  -4   -3.20    3.00
   3 -12   4   58.39    5.40
  -3 -12  -4   63.49    4.80
  -3 -12  -4   58.09    6.10
  -3  12  -4   61.19    6.70
   3  12   4   53.19    8.80
  -3  12  -4   51.39    6.00
   3  12   4   66.89    8.90
  -3  12  -4   58.79    6.90
   3  12   4   61.49    7.30
  -4 -12  -4   23.90    3.70
   4 -12   4   22.60    3.80
  -4 -12  -4   12.60    3.30
  -4  12  -4   12.80    3.10
   4  12   4   18.90    4.90
   4  12   4   22.00    5.00
  -4  12  -4   24.10    3.90
   4  12   4   22.30    4.30
   5 -12   4    1.00    1.90
  -5 -12  -4    2.50    2.90
  -5 -12  -4   -0.80    2.10
   5  12   4   -6.10    4.00
  -5  12  -4    1.80    2.70
  -5  12  -4    3.20    3.00
   5  12   4    3.10    3.40
   5  12   4   -4.50    3.80
  -6 -12  -4   14.60    3.30
   6 -12   4   11.50    2.30
  -6 -12  -4   13.20    2.50
  -6  12  -4   16.50    3.00
   6  12   4   14.00    4.00
   6  12   4   20.70    4.20
  -6  12  -4   14.60    2.80
   7 -12   4    1.10    1.80
  -7 -12  -4    2.00    2.20
  -7 -12  -4    1.40    2.60
   7  12   4   -1.10    3.10
   7  12   4    1.00    2.90
  -7  12  -4    4.00    2.00
  -7 -13   4   29.70    3.30
   7  13  -4   30.70    4.50
   7  13  -4   38.60    6.40
  -6 -13   4    1.10    1.60
   6  13  -4   -3.10    3.70
   6  13  -4   -0.90    3.50
   6  13  -4    1.70    3.20
   6  13  -4    0.60    3.20
  -5 -13   4    8.90    1.80
   5  13  -4   10.10    4.50
   5  13  -4    7.80    3.60
   5  13  -4    9.20    3.60
   5  13  -4    3.70    4.00
  -4 -13   4   10.80    2.00
   4  13  -4   12.80    4.40
   4  13  -4    6.50    3.60
   4  13  -4    5.30    4.30
   4  13  -4    2.70    3.40
  -3 -13   4    7.20    1.90
  -3 -13   4    6.00    2.50
   3  13  -4    3.90    3.70
   3  13  -4    3.40    4.20
   3  13  -4    5.70    3.60
  -2 -13   4   17.10    3.20
  -2 -13   4   13.00    2.80
   2  13  -4   21.20    4.40
   2  13  -4   17.20    4.30
   2  13  -4   19.90    4.80
  -1 -13   4    2.60    1.70
  -1  13   4    1.50    5.10
   1  13  -4    0.70    3.70
   1  13  -4    1.10    3.70
  -1  13   4   -0.80    2.40
   1  13  -4    1.00    4.00
   0 -13   4   25.50    3.40
   0  13  -4   23.10    4.20
   0  13   4   29.60    4.50
   0  13  -4   18.30    3.50
   0  13   4   23.40    4.70
   0  13  -4   20.90    4.40
   0  13   4   27.70    5.00
   0  13  -4   26.50    4.90
   1 -13   4    2.80    1.70
  -1  13  -4    4.80    3.50
   1  13   4    6.00    4.00
  -1  13  -4    2.40    3.40
   1  13   4    1.80    3.00
   1  13   4    1.10    3.60
  -1  13  -4    0.80    2.80
   2 -13   4   -1.00    1.60
  -2  13  -4   -2.60    3.10
  -2  13  -4    0.30    2.70
  -2  13  -4    3.40    3.30
   2  13   4    4.60    3.20
   2  13   4    0.40    3.50
   2  13   4    2.60    3.90
   3 -13   4   24.70    3.40
  -3 -13  -4   22.80    3.30
   3  13   4   34.10    5.80
  -3  13  -4   26.00    4.60
   3  13   4   23.70    4.70
  -3  13  -4   28.80    5.10
   3  13   4   43.30    6.70
  -4 -13  -4   -0.40    1.70
   4 -13   4    1.60    1.60
   4  13   4   -4.70    3.20
  -4  13  -4    3.00    2.70
   4  13   4    0.20    3.50
  -4  13  -4    0.00    2.20
   4  13   4    0.70    2.90
   5 -13   4    5.70    1.70
  -5 -13  -4    3.60    2.00
  -5  13  -4    2.20    2.00
   5  13   4    4.90    2.90
   5  13   4    3.90    3.30
  -6 -13  -4    3.20    1.90
   6  13   4    5.00    4.40
   6  13   4    6.10    4.00
  -4 -14   4   16.90    2.40
   4  14  -4    9.70    3.00
   4  14  -4   15.40    3.50
  -3 -14   4    0.40    1.30
   3  14  -4   -0.10    2.80
   3  14  -4   -1.00    3.70
   3  14  -4    0.50    3.30
  -2 -14   4   11.20    1.70
   2  14  -4    8.50    3.60
   2  14  -4   11.40    3.50
  -1 -14   4    3.30    1.40
   1  14  -4    3.30    3.10
   1  14  -4    2.20    3.10
   0  14  -4    3.70    3.00
   0  14  -4    5.60    3.30
  -1  14  -4    8.50    3.10
 -15   0   5   28.50    3.50
 -14   0   5   -1.60    2.00
  14   0  -5   -4.80    4.20
  13   0  -5   27.80    6.50
 -13   0   5   26.10    3.70
 -12   0   5    0.90    4.80
  12   0  -5    4.90    5.60
 -12   0   5    2.00    2.80
  11   0  -5  890.81   49.99
 -11   0   5  832.52   50.69
 -11   0   5  798.22   48.00
 -11   0   5  749.82   51.39
 -10   0   5   -2.20    4.30
 -10   0   5   -0.70    4.90
  10   0  -5   -0.80    2.70
  10   0  -5   -4.20    4.20
  10   0  -5    0.00    3.40
 -10   0   5    1.70    2.50
  -9   0   5  491.65   28.30
   9   0  -5  489.15   29.90
  -9   0   5  495.55   30.50
  -9   0   5  449.95   31.00
   9   0  -5  430.36   28.80
   9   0  -5  519.55   29.30
  -8   0   5   -0.90    3.50
  -8   0   5    0.40    1.90
   8   0  -5   -4.90    2.00
   8   0  -5    0.50    2.70
  -8   0   5    2.10    3.70
  -7   0   5   50.79    6.20
  -7   0   5   48.80    3.90
  -7   0   5   51.99    6.70
  -7   0   5   56.19    4.20
   7   0  -5   43.10    4.90
   7   0  -5   53.09    5.60
  -6   0   5   -2.80    2.40
   6   0  -5    0.20    1.70
  -6   0   5   -0.80    0.90
  -6   0   5   -0.60    1.10
   6   0  -5    1.10    1.80
  -6   0   5    0.50    2.80
  -5   0   5  313.17   18.80
  -5   0   5  301.87   19.10
   5   0  -5  294.97   18.10
   5   0  -5  267.57   18.00
  -5   0   5  321.47   17.60
  -4   0   5   -0.30    1.60
  -4   0   5   -1.80    1.80
  -3   0   5 1297.37   74.39
  -3   0   5 1259.67   74.19
  -2   0   5   -0.80    1.10
  -2   0   5    0.20    1.30
  -1   0   5   18.60    2.00
  -1   0   5   15.50    2.20
   0   0   5    0.10    0.80
   0   0   5    1.20    1.00
   1   0   5    4.90    1.10
   1   0   5    5.30    1.00
   2   0   5    0.40    0.70
  -2   0  -5    2.50    1.80
  -3   0  -5  229.68   13.90
  -3   0  -5  232.78   13.80
  -3   0  -5  230.18   14.50
  -3   0  -5  234.68   14.70
  -4   0  -5   -2.20    2.10
  -4   0  -5   -1.80    2.40
  -4   0  -5    0.40    1.40
   4   0   5    0.50    1.70
  -4   0  -5   -1.00    1.10
  -5   0  -5 3002.50  177.88
  -5   0  -5 3377.56  176.98
   5   0   5 2853.31  176.98
   5   0   5 2977.20  177.58
  -5   0  -5 3230.88  177.08
  -5   0  -5 3043.10  178.18
  -6   0  -5    2.40    1.70
  -6   0  -5    0.70    2.90
   6   0   5   -1.90    2.60
   6   0   5    1.40    1.50
  -6   0  -5    2.40    1.70
  -6   0  -5    2.80    3.40
  -7   0  -5  278.07   17.60
  -7   0  -5  293.77   19.10
  -7   0  -5  286.87   17.60
   7   0   5  314.27   18.90
  -7   0  -5  265.87   19.80
   7   0   5  295.07   17.50
  -8   0  -5   -1.40    2.30
  -8   0  -5   -3.10    5.80
  -8   0  -5    0.80    4.20
   8   0   5   -0.70    4.20
  -8   0  -5   -0.30    1.90
   9   0   5  116.19   10.50
  -9   0  -5   90.89    7.30
  -9   0  -5  102.49    7.90
  10   0   5    3.70    4.90
 -10   0  -5    1.30    2.70
 -10   0  -5   -0.50    2.20
  11   0   5   50.69    8.60
 -11   0  -5   42.60    5.50
 -12   0  -5   -1.30    2.10
  12   0   5    1.40    4.70
 -13   0  -5    2.60    2.00
  13   0   5    1.30    3.80
 -15  -1   5    0.30    1.80
 -15   1   5    1.40    1.60
 -14  -1   5    0.10    2.00
  14  -1  -5    5.60    4.80
 -14   1   5   -0.40    2.00
  14   1  -5    2.50    4.10
 -13  -1   5   83.79    7.00
  13  -1  -5   95.99   10.30
 -13   1   5   74.29    6.70
  13   1  -5   83.89    9.50
 -12  -1   5   15.20    6.00
 -12  -1   5   12.50    2.90
  12  -1  -5   16.00    6.30
 -12   1   5   17.80    3.20
 -12   1   5   19.70    5.90
  12   1  -5   22.80    6.20
 -11  -1   5  104.09   13.10
  11  -1  -5  106.19    9.40
 -11  -1   5  103.49    8.40
  11  -1  -5  123.79   11.60
 -11  -1   5   86.99   10.80
  11   1  -5  125.19   11.10
  11   1  -5  123.69   10.30
 -11   1   5  119.19   13.00
 -11   1   5  111.49   10.90
 -11   1   5  109.49    8.30
  10  -1  -5  337.17   20.90
 -10  -1   5  334.67   22.60
  10  -1  -5  299.37   20.60
 -10  -1   5  349.57   23.60
 -10  -1   5  327.67   20.00
  10  -1  -5  338.37   22.10
  10   1  -5  359.16   21.50
 -10   1   5  343.17   20.00
 -10   1   5  301.57   22.20
 -10   1   5  329.57   23.40
  10   1  -5  305.17   21.60
  -9  -1   5  492.85   30.30
  -9  -1   5  456.95   27.80
  -9  -1   5  453.45   30.70
   9  -1  -5  432.06   28.40
   9  -1  -5  487.25   28.60
  -9   1   5  473.15   30.70
  -9   1   5  469.35   29.90
   9   1  -5  458.15   29.20
  -9   1   5  480.05   27.80
   9   1  -5  503.95   29.00
  -8  -1   5   12.30    4.30
  -8  -1   5   14.30    4.50
   8  -1  -5    9.40    2.60
  -8  -1   5   10.60    2.10
   8  -1  -5    9.90    3.00
  -8   1   5   12.40    4.10
   8   1  -5   11.20    2.70
  -8   1   5   12.40    2.50
   8   1  -5   11.70    3.40
   8   1  -5    7.40    3.60
  -8   1   5   13.00    2.30
  -8   1   5   15.60    4.00
   7  -1  -5  409.06   26.10
  -7  -1   5  430.36   27.80
   7  -1  -5  465.75   26.30
  -7  -1   5  448.96   25.70
  -7  -1   5  449.46   27.40
  -7   1   5  437.36   27.30
   7   1  -5  457.65   26.60
  -7   1   5  453.95   25.70
  -7   1   5  438.06   27.80
   7   1  -5  402.86   26.60
  -7   1   5  424.16   25.80
   6  -1  -5   58.79    5.10
  -6  -1   5   51.89    6.40
   6  -1  -5   52.49    5.10
  -6  -1   5   54.69    5.90
  -6  -1   5   61.29    4.20
  -6   1   5   51.39    4.00
   6   1  -5   57.09    5.40
  -6   1   5   60.59    5.90
  -6   1   5   65.39    6.40
   6   1  -5   45.90    4.80
  -6   1   5   59.39    4.10
  -5  -1   5  214.08   14.50
  -5  -1   5  235.88   14.30
  -5  -1   5  219.38   13.00
   5  -1  -5  214.48   13.60
  -5   1   5  224.68   13.00
  -5   1   5  209.48   13.10
  -5   1   5  232.68   14.30
   5   1  -5  219.28   13.70
  -5   1   5  208.98   14.40
  -4  -1   5   51.39    4.60
  -4  -1   5   47.90    4.80
  -4   1   5   48.90    4.50
  -4   1   5   48.30    4.70
  -3  -1   5   19.50    3.10
  -3  -1   5   18.80    2.80
  -3   1   5   18.10    2.80
  -3   1   5   18.40    2.70
  -2  -1   5   75.19    5.30
  -2  -1   5   70.09    5.10
  -2   1   5   73.39    5.20
  -1  -1   5  153.48    9.40
  -1  -1   5  154.38    9.60
   0  -1   5  754.12   44.80
   0  -1   5  779.62   44.90
   0   1   5  808.82   45.20
   0   1   5  760.72   45.00
   1  -1   5  431.16   25.40
   1  -1   5  422.86   25.40
   1   1   5  450.65   25.80
   1   1   5  448.26   25.70
  -2   1  -5   18.20    2.80
   2   1   5   18.40    2.10
  -3  -1  -5  970.30   56.59
  -3  -1  -5  981.50   55.69
  -3   1  -5 1003.80   55.59
  -3   1  -5  975.90   55.89
  -3   1  -5  961.20   55.59
  -3   1  -5  976.50   55.99
   3   1   5  872.41   55.99
  -4  -1  -5   82.69    7.50
  -4  -1  -5   76.69    5.70
   4  -1   5   72.89    5.80
   4  -1   5   64.99    5.30
  -4  -1  -5   88.79    5.50
  -4  -1  -5   78.19    5.30
  -4  -1  -5   87.49    7.10
  -4   1  -5   79.29    6.30
  -4   1  -5   81.09    5.30
   4   1   5   71.19    5.80
  -4   1  -5   85.89    5.50
   4   1   5   72.49    5.90
  -4   1  -5   77.39    6.20
   5  -1   5  133.89    9.50
  -5  -1  -5  154.88   11.30
  -5  -1  -5  160.28    9.40
  -5  -1  -5  156.08    9.80
  -5  -1  -5  150.48   11.70
   5  -1   5  144.99   10.20
  -5  -1  -5  162.18    9.60
  -5   1  -5  145.59   10.30
   5   1   5  139.99   10.30
   5   1   5  133.79    9.80
  -5   1  -5  167.18    9.50
  -5   1  -5  152.58   10.60
  -5   1  -5  154.88    9.50
  -6  -1  -5  213.58   15.70
   6  -1   5  205.08   13.50
  -6  -1  -5  219.28   13.40
   6  -1   5  255.47   14.60
  -6  -1  -5  209.88   15.20
  -6  -1  -5  225.98   13.70
  -6  -1  -5  230.18   13.50
  -6   1  -5  207.48   14.70
  -6   1  -5  221.18   13.50
  -6   1  -5  213.68   13.10
  -6   1  -5  224.88   13.40
  -6   1  -5  203.58   14.30
   6   1   5  211.58   14.30
   7  -1   5    0.80    3.30
  -7  -1  -5    1.10    1.90
   7  -1   5    2.70    2.00
  -7  -1  -5    1.30    1.90
  -7  -1  -5   -3.70    4.40
  -7  -1  -5    1.70    3.90
  -7   1  -5   -1.80    4.30
  -7   1  -5    1.70    1.60
   7   1   5    0.50    3.30
  -7   1  -5    4.00    2.10
  -7   1  -5    3.00    1.50
  -7   1  -5    0.90    4.30
  -8  -1  -5   36.40    5.20
  -8  -1  -5   29.30    6.90
   8  -1   5   42.90    4.70
  -8  -1  -5   28.30    5.80
  -8  -1  -5   40.40    5.00
   8  -1   5   35.80    7.10
  -8   1  -5   32.00    4.30
  -8   1  -5   47.20    4.10
  -8   1  -5   42.80    4.70
   8   1   5   49.30    7.10
  -9  -1  -5    1.90    5.30
  -9  -1  -5    7.60    2.60
  -9  -1  -5    5.00    2.70
   9  -1   5    6.60    4.90
   9   1   5   15.50    5.20
  -9   1  -5    7.30    2.70
  -9   1  -5   10.80    2.20
 -10  -1  -5    4.60    2.30
 -10  -1  -5    6.10    2.80
  10  -1   5   11.00    5.60
  10   1   5    4.80    5.00
 -10   1  -5   10.60    2.90
  11  -1   5    3.10    4.90
 -11  -1  -5   -1.50    2.60
 -11   1  -5    1.60    2.50
  11   1   5   -2.90    4.90
  12  -1   5    1.10    4.60
 -12  -1  -5    3.50    2.60
  12   1   5    1.30    4.40
 -12   1  -5    0.20    2.30
  13  -1   5   35.00    5.30
 -13  -1  -5   22.50    3.70
  13   1   5   31.70    6.20
 -13   1  -5   20.10    3.40
 -15   2   5   15.90    2.80
 -14  -2   5    1.70    2.00
  14  -2  -5    1.20    5.00
  14   2  -5    1.80    3.70
 -14   2   5    0.90    2.00
  13  -2  -5   61.29    9.50
 -13  -2   5   44.40    5.50
 -13   2   5   46.90    5.20
  13   2  -5   40.10    7.40
  12  -2  -5   -0.60    3.10
 -12  -2   5    2.80    2.60
  12  -2  -5    2.70    5.70
 -12  -2   5    7.60    5.80
  12   2  -5   11.60    4.90
 -12   2   5   -0.10    4.40
  12   2  -5    4.70    4.80
 -12   2   5    3.80    2.60
  11  -2  -5   21.10    6.40
  11  -2  -5   19.30    4.20
 -11  -2   5   26.40    6.50
 -11  -2   5   22.80    3.60
  11   2  -5   25.10    5.40
 -11   2   5   16.10    5.50
 -11   2   5   25.20    3.40
  11   2  -5   20.60    6.00
 -11   2   5   26.40    7.90
  10  -2  -5  193.18   13.70
  10  -2  -5  189.38   15.20
 -10  -2   5  190.48   12.70
 -10  -2   5  191.28   16.60
 -10  -2   5  198.78   15.80
 -10   2   5  195.68   12.50
  10   2  -5  218.28   14.30
 -10   2   5  201.48   16.20
 -10   2   5  182.08   14.80
  -9  -2   5    4.30    2.50
   9  -2  -5    4.70    3.10
  -9  -2   5   -0.90    4.50
  -9  -2   5    9.00    4.90
   9  -2  -5    5.70    2.90
  -9   2   5    4.10    2.30
   9   2  -5    4.60    3.90
   9   2  -5    2.00    3.60
  -9   2   5    3.80    3.90
  -9   2   5    5.70    4.70
  -8  -2   5    5.70    3.90
   8  -2  -5    4.80    2.70
  -8  -2   5    6.10    2.10
  -8  -2   5    3.50    4.20
   8  -2  -5    8.40    2.70
  -8   2   5    5.10    4.00
  -8   2   5    9.60    3.90
  -8   2   5    9.60    2.20
  -8   2   5    6.60    1.90
   8   2  -5   11.40    3.70
   8   2  -5   10.70    3.60
   7  -2  -5   39.70    4.70
  -7  -2   5   27.70    4.00
   7  -2  -5   47.00    5.10
  -7  -2   5   36.30    3.10
  -7  -2   5   49.80    5.80
  -7  -2   5   39.80    6.20
   7   2  -5   38.30    4.20
   7   2  -5   33.10    5.10
  -7   2   5   49.10    5.70
   7   2  -5   51.59    5.80
  -7   2   5   42.00    3.50
  -7   2   5   43.00    3.80
  -7   2   5   48.80    6.40
  -6  -2   5    1.40    0.90
   6  -2  -5   -0.70    1.60
  -6  -2   5    0.90    2.80
  -6  -2   5    1.20    1.50
  -6  -2   5    0.50    2.50
   6  -2  -5    2.50    1.90
  -6   2   5   -0.40    1.10
   6   2  -5    0.30    2.50
   6   2  -5    1.10    2.30
   6   2  -5    0.10    1.60
  -6   2   5   -2.10    2.50
  -6   2   5    1.20    1.20
  -6   2   5    1.80    2.40
  -5  -2   5 1755.82  101.29
  -5  -2   5 1656.33  101.49
  -5  -2   5 1906.31  100.09
  -5  -2   5 1824.02   99.99
   5  -2  -5 1715.63  100.49
   5   2  -5 1721.13  100.69
   5   2  -5 1672.93  100.29
  -5   2   5 1658.53  100.29
  -5   2   5 1698.83  100.09
  -5   2   5 1756.72  101.49
  -5   2   5 1778.52  101.29
  -4  -2   5  271.07   15.60
  -4  -2   5  280.77   16.90
  -4  -2   5  273.97   16.70
  -4   2   5  272.47   16.80
   4   2  -5  241.58   16.10
  -4   2   5  280.77   16.60
  -4   2   5  248.58   15.70
  -3  -2   5  218.58   14.00
  -3  -2   5  220.18   14.20
  -3   2   5  225.88   14.00
  -3   2   5  238.88   14.30
  -2  -2   5  335.57   20.10
  -2  -2   5  329.67   19.90
  -2   2   5  333.97   20.20
  -2   2   5  334.87   20.10
  -1  -2   5  673.03   38.60
  -1  -2   5  643.74   38.50
  -1   2   5  655.73   38.80
  -1   2   5  680.33   39.00
   0  -2   5  482.15   28.00
   0   2   5  486.45   28.50
   0   2   5  481.55   28.70
   1   2   5    7.00    1.70
   1   2   5    5.00    1.30
   2   2   5  138.39    8.80
  -3  -2  -5    1.30    1.10
   3  -2   5    3.20    1.20
  -3  -2  -5    0.30    3.00
  -3  -2  -5    2.10    1.30
  -3   2  -5    2.20    1.10
   3   2   5    3.10    1.80
   3   2   5    3.00    1.70
  -3   2  -5    0.90    1.10
   3   2   5   -0.10    1.20
   4  -2   5    5.90    1.70
  -4  -2  -5    4.90    3.40
  -4  -2  -5    6.60    1.70
  -4  -2  -5    5.80    1.50
  -4  -2  -5    6.50    4.00
  -4  -2  -5    6.30    1.90
   4  -2   5    4.60    2.00
   4   2   5    6.70    2.30
  -4   2  -5   10.40    1.60
   4   2   5    6.30    1.80
   4   2   5    1.10    1.90
  -4   2  -5    5.40    1.50
  -4   2  -5    5.60    1.20
  -4   2  -5    5.00    1.50
   5  -2   5  246.68   15.20
  -5  -2  -5  261.07   17.00
  -5  -2  -5  255.67   15.20
  -5  -2  -5  250.37   15.00
  -5  -2  -5  257.87   17.60
  -5  -2  -5  233.28   15.30
   5  -2   5  248.08   15.70
  -5   2  -5  247.28   14.70
  -5   2  -5  231.38   15.30
  -5   2  -5  272.37   15.10
   5   2   5  240.88   15.80
   5   2   5  250.77   15.30
   5   2   5  237.78   15.40
  -5   2  -5  263.57   15.10
  -6  -2  -5    4.00    2.20
   6  -2   5    4.30    2.00
   6  -2   5    2.00    2.80
  -6  -2  -5    3.80    1.90
  -6  -2  -5    4.60    4.50
  -6  -2  -5    8.20    4.20
  -6  -2  -5    2.30    2.20
   6   2   5    5.80    3.20
   6   2   5    1.40    2.10
  -6   2  -5    1.30    1.60
  -6   2  -5    2.90    1.70
  -6   2  -5    3.90    1.40
  -7  -2  -5   46.60    4.90
  -7  -2  -5   40.60    7.50
   7  -2   5   47.00    5.10
  -7  -2  -5   48.10    7.00
  -7  -2  -5   46.70    5.50
  -7  -2  -5   47.70    5.40
   7  -2   5   39.20    6.10
  -7   2  -5   56.69    4.20
  -7   2  -5   48.20    4.50
  -7   2  -5   49.40    4.90
   7   2   5   56.39    6.80
  -8  -2  -5    6.50    2.70
  -8  -2  -5   11.20    6.30
  -8  -2  -5    5.50    5.00
   8  -2   5    7.70    2.60
  -8  -2  -5   11.80    3.10
   8  -2   5    6.50    4.10
  -8   2  -5    9.90    2.40
   8   2   5    8.50    4.30
  -8   2  -5    9.50    2.10
  -8   2  -5    9.20    2.10
  -9  -2  -5   75.09    7.30
   9  -2   5  104.69    7.30
  -9  -2  -5   75.29   11.40
  -9  -2  -5   77.49   10.60
  -9  -2  -5   82.79    7.40
   9  -2   5   93.99    9.70
   9   2   5   91.99    9.70
  -9   2  -5   85.19    6.30
  -9   2  -5   86.59    7.10
  -9   2  -5   81.69    6.80
 -10  -2  -5   30.30    8.10
 -10  -2  -5   54.19    6.10
  10  -2   5   57.89    8.50
 -10  -2  -5   44.60    5.50
 -10   2  -5   53.69    5.60
  10   2   5   61.29    8.70
 -10   2  -5   59.39    5.00
  11  -2   5   26.10    6.30
 -11  -2  -5   25.70    3.70
  11   2   5   28.60    6.40
 -11   2  -5   23.70    4.60
 -12  -2  -5    1.70    2.30
  12  -2   5    4.70    3.90
 -12   2  -5   -0.70    2.10
  12   2   5   -2.40    4.30
  13  -2   5   23.30    4.30
 -13  -2  -5   19.70    2.80
  13   2   5   19.80    4.50
 -14  -3   5    2.10    2.10
  14  -3  -5    1.50    5.00
 -14   3   5    1.60    2.00
  13  -3  -5   27.50    6.70
 -13  -3   5   25.70    4.70
  13  -3  -5   34.10    5.70
  13   3  -5   23.90    4.80
 -13   3   5   32.70    4.50
  12  -3  -5   10.30    3.80
 -12  -3   5    5.40    5.30
 -12  -3   5    7.20    3.00
  12  -3  -5    2.50    6.30
  12   3  -5    1.70    4.10
  12   3  -5    2.30    4.30
 -12   3   5    7.50    4.80
 -12   3   5    4.70    2.50
  11  -3  -5  129.29   10.90
 -11  -3   5  132.29   13.10
  11  -3  -5  140.79   12.40
 -11  -3   5  135.99    9.50
 -11   3   5  124.89    9.10
  11   3  -5  146.09   12.10
  11   3  -5  122.79   11.30
 -11   3   5  131.39   11.80
 -10  -3   5   13.40    3.10
 -10  -3   5   11.90    6.20
 -10  -3   5    9.40    5.60
  10  -3  -5    9.20    3.40
 -10   3   5   13.10    4.90
  10   3  -5    9.20    4.50
 -10   3   5   12.70    6.00
 -10   3   5    9.00    2.50
  10   3  -5    8.00    4.80
   9  -3  -5   58.29    6.90
  -9  -3   5   54.79    5.40
  -9  -3   5   60.29    9.00
  -9  -3   5   66.09    8.40
  -9  -3   5   55.09    5.70
  -9   3   5   62.89    7.50
   9   3  -5   52.49    7.30
  -9   3   5   61.09    5.20
  -9   3   5   59.39    5.20
   9   3  -5   75.99    8.60
  -9   3   5   64.89    8.60
   8  -3  -5  193.78   13.00
  -8  -3   5  185.18   11.70
  -8  -3   5  210.48   12.30
  -8  -3   5  185.98   15.40
  -8  -3   5  186.88   14.70
   8  -3  -5  201.38   12.90
  -8   3   5  205.78   14.90
  -8   3   5  190.38   12.20
   8   3  -5  187.08   12.60
   8   3  -5  207.38   13.80
  -8   3   5  188.68   12.10
  -8   3   5  206.98   14.20
   8   3  -5  187.78   13.30
  -7  -3   5  257.97   18.20
  -7  -3   5  256.37   15.30
   7  -3  -5  262.57   16.20
  -7  -3   5  262.37   17.70
  -7  -3   5  278.77   15.70
  -7   3   5  264.57   15.50
  -7   3   5  256.77   15.80
  -7   3   5  271.27   17.20
   7   3  -5  248.48   16.00
   7   3  -5  255.47   16.00
   7   3  -5  268.17   16.90
   7   3  -5  222.58   16.30
  -7   3   5  267.67   17.70
   6  -3  -5    5.20    1.80
  -6  -3   5    4.20    1.70
  -6  -3   5    4.50    1.20
   6  -3  -5    1.10    1.80
  -6  -3   5    9.20    3.60
  -6  -3   5    4.80    3.00
   6   3  -5    4.70    2.10
  -6   3   5    2.90    3.00
  -6   3   5    2.30    1.30
   6   3  -5   -1.00    2.10
  -6   3   5    4.50    2.70
   6   3  -5   -0.60    2.70
  -6   3   5    7.80    1.70
  -5  -3   5  266.57   17.00
  -5  -3   5  267.97   16.70
   5  -3  -5  236.68   15.30
  -5  -3   5  268.87   15.20
   5  -3  -5  227.28   15.80
  -5  -3   5  274.97   15.40
  -5   3   5  254.37   15.50
   5   3  -5  266.97   15.60
  -5   3   5  271.87   16.90
  -5   3   5  276.27   16.50
   5   3  -5  250.07   16.20
  -5   3   5  260.97   15.20
   5   3  -5  246.58   15.70
  -4  -3   5  310.97   17.50
  -4  -3   5  291.17   18.90
  -4  -3   5  292.47   18.70
  -4  -3   5  317.67   17.70
  -4   3   5  313.47   19.00
   4   3  -5  290.97   17.90
  -4   3   5  281.87   17.80
  -4   3   5  308.27   18.60
  -4   3   5  297.57   18.00
   4   3  -5  290.37   18.30
  -3  -3   5  276.27   16.40
  -3  -3   5  272.27   16.60
  -3  -3   5  269.97   15.50
  -3   3   5  282.17   16.70
   3   3  -5  233.58   16.10
  -3   3   5  274.27   16.00
  -3   3   5  253.97   15.70
   3   3  -5  274.97   15.60
  -3   3   5  265.97   16.30
   3   3  -5  244.98   15.80
  -2  -3   5  616.14   37.20
  -2  -3   5  641.94   37.40
  -2   3   5  645.24   37.40
  -2   3   5  639.14   37.60
  -1  -3   5  244.28   15.10
  -1  -3   5  254.67   15.20
  -1   3   5  265.77   15.80
  -1   3   5  252.47   15.50
   0  -3   5   58.09    3.50
   0   3   5   68.69    5.00
   0   3   5   59.49    4.60
   1   3   5   16.40    2.40
   1   3   5   23.40    2.50
  -1   3  -5   14.80    2.20
   1   3   5   27.40    3.00
   1   3   5   12.00    2.10
   2  -3   5  462.45   30.20
  -2   3  -5  514.15   30.20
   2   3   5  522.05   30.50
   2   3   5  548.45   30.70
   2   3   5  538.35   30.60
   2   3   5  512.55   30.60
  -2   3  -5  527.25   30.20
   2   3   5  532.55   30.50
  -3  -3  -5  352.16   19.00
   3  -3   5  280.67   19.00
  -3  -3  -5  348.27   21.10
  -3  -3  -5  358.56   18.90
  -3   3  -5  314.07   18.80
   3   3   5  330.07   19.60
  -3   3  -5  322.27   19.10
   3   3   5  327.37   19.50
   3   3   5  313.57   19.40
   3   3   5  300.67   19.30
  -3   3  -5  324.17   19.00
   3   3   5  301.67   19.50
  -4  -3  -5  101.49    6.70
  -4  -3  -5   95.19    9.30
  -4  -3  -5  100.19    6.40
   4  -3   5   86.69    6.60
  -4  -3  -5  106.89    8.90
   4   3   5   94.89    7.00
   4   3   5   96.09    7.30
  -4   3  -5   95.69    6.50
  -4   3  -5  102.59    6.30
  -4   3  -5  101.49    6.50
   4   3   5   97.39    7.20
   5  -3   5  805.82   48.90
  -5  -3  -5  918.91   50.49
  -5  -3  -5  792.32   50.59
   5  -3   5  781.72   48.50
  -5  -3  -5  855.11   48.40
  -5  -3  -5  799.02   48.20
   5   3   5  806.02   49.20
   5   3   5  866.71   48.80
  -5   3  -5  856.11   48.20
   5   3   5  828.32   48.80
  -5   3  -5  850.61   48.40
  -5   3  -5  856.01   48.40
   6  -3   5  143.49    9.80
  -6  -3  -5  129.59    9.90
   6  -3   5  146.69   10.50
  -6  -3  -5  142.59   13.80
  -6  -3  -5  156.78   10.00
  -6  -3  -5  154.88   12.90
  -6  -3  -5  138.29    9.40
   6   3   5  163.38   10.90
  -6   3  -5  145.39    9.20
  -6   3  -5  156.38    9.60
   6   3   5  151.48   10.00
   6   3   5  155.98   10.30
  -6   3  -5  139.29    9.40
  -7  -3  -5   10.20    3.00
   7  -3   5   12.20    2.90
  -7  -3  -5   -0.10    5.70
  -7  -3  -5    1.40    5.10
  -7  -3  -5    6.50    2.50
  -7  -3  -5   11.70    3.10
   7  -3   5    7.20    3.70
   7   3   5    9.60    3.10
  -7   3  -5    9.90    2.00
   7   3   5   13.70    4.30
  -7   3  -5    9.70    2.00
   7   3   5   10.60    2.90
  -7   3  -5    8.60    2.20
   8  -3   5   39.40    5.30
  -8  -3  -5   25.60    3.90
  -8  -3  -5   30.50    8.60
  -8  -3  -5   39.20    7.40
  -8  -3  -5   35.50    5.50
  -8  -3  -5   33.80    5.40
   8  -3   5   39.60    6.80
   8   3   5   33.70    7.00
  -8   3  -5   34.80    4.40
  -8   3  -5   36.90    3.90
  -8   3  -5   34.50    4.00
  -9  -3  -5    3.60    8.80
  -9  -3  -5    2.30    2.90
   9  -3   5    5.90    2.90
  -9  -3  -5    4.70    2.80
   9  -3   5    1.20    4.40
  -9  -3  -5    3.30    6.20
  -9   3  -5    3.80    2.50
   9   3   5    6.00    4.70
  -9   3  -5    4.70    2.20
  10  -3   5  165.08   12.40
 -10  -3  -5  117.79   14.40
  10  -3   5  172.78   10.40
 -10  -3  -5  137.89   10.60
 -10  -3  -5  120.59   10.10
 -10   3  -5  141.09    9.50
  10   3   5  158.88   12.50
 -10   3  -5  145.49   10.00
  11  -3   5    2.00    4.40
 -11  -3  -5    1.80    2.30
 -11  -3  -5    0.80    2.70
 -11   3  -5    0.80    2.40
 -11   3  -5    2.40    2.90
  11   3   5   -3.00    4.80
 -12  -3  -5    9.30    2.50
  12  -3   5   15.80    4.60
  12   3   5   16.20    4.60
 -12   3  -5   12.60    2.40
 -13  -3  -5   20.00    3.90
  13  -3   5   30.00    5.30
  13   3   5   32.90    5.70
  14  -4  -5   66.79    8.00
 -14  -4   5   45.70    4.70
 -14   4   5   53.29    4.70
 -13  -4   5   -1.70    2.40
  13  -4  -5   -1.90    5.30
  13  -4  -5    0.20    3.00
 -13   4   5   -1.90    1.90
  13   4  -5   -1.50    3.70
 -12  -4   5   83.29    7.50
  12  -4  -5  113.49   11.60
  12  -4  -5   95.29    9.30
  12   4  -5   99.39   10.00
 -12   4   5   99.79    7.50
 -11  -4   5   33.70    5.60
 -11  -4   5   35.30    7.40
  11  -4  -5   44.00    7.20
 -11   4   5   38.10    5.10
 -11   4   5   50.39    7.20
  11   4  -5   40.20    7.50
 -10  -4   5   -0.50    5.00
 -10  -4   5   -1.90    5.90
  10  -4  -5    7.90    3.70
 -10  -4   5    6.60    2.90
 -10  -4   5    6.90    2.70
 -10   4   5    4.90    2.60
  10   4  -5    1.40    4.80
  10   4  -5    8.50    4.10
 -10   4   5   10.40    4.90
 -10   4   5    9.30    6.30
  -9  -4   5    5.80    2.20
  -9  -4   5    0.20    4.90
  -9  -4   5    0.70    4.70
  -9  -4   5    0.80    2.60
  -9  -4   5    9.10    1.90
   9  -4  -5    3.20    3.10
   9   4  -5    5.10    3.70
  -9   4   5    4.60    2.30
  -9   4   5    4.90    4.90
  -9   4   5   -0.40    2.20
   9   4  -5    1.70    4.20
  -9   4   5    6.20    4.10
   9   4  -5    0.40    2.90
  -8  -4   5   18.90    5.80
  -8  -4   5   38.20    4.70
  -8  -4   5   26.00    5.90
   8  -4  -5   37.40    6.00
  -8  -4   5   33.40    3.60
  -8   4   5   34.10    5.80
   8   4  -5   24.80    4.40
  -8   4   5   34.20    4.00
  -8   4   5   37.50    5.70
  -8   4   5   34.00    3.80
   8   4  -5   36.20    5.50
   8   4  -5   29.20    5.00
   7  -4  -5    7.90    2.50
   7  -4  -5    5.20    2.30
  -7  -4   5    5.90    2.30
  -7  -4   5    7.10    1.60
  -7  -4   5    9.20    4.40
  -7  -4   5    4.90    4.40
   7   4  -5    6.60    2.30
  -7   4   5    8.70    2.10
   7   4  -5    8.00    3.70
   7   4  -5    9.10    2.60
  -7   4   5    8.60    1.90
   7   4  -5    3.80    3.00
  -7   4   5    2.20    3.20
  -7   4   5    2.80    3.60
   6  -4  -5   85.49    7.00
  -6  -4   5   92.09    9.10
  -6  -4   5  100.59    8.60
  -6  -4   5   97.79    6.10
   6  -4  -5   82.39    6.50
  -6   4   5  114.59    8.70
  -6   4   5  104.69    8.00
  -6   4   5   92.19    6.40
   6   4  -5   98.09    7.20
   6   4  -5   96.69    7.20
  -6   4   5   93.79    6.20
   6   4  -5   83.09    7.90
   6   4  -5   91.59    6.70
   5  -4  -5  426.66   27.40
  -5  -4   5  462.55   29.20
  -5  -4   5  503.15   27.60
  -5  -4   5  467.95   28.90
  -5  -4   5  496.45   27.40
  -5   4   5  476.15   27.40
  -5   4   5  481.35   27.80
  -5   4   5  473.55   29.00
   5   4  -5  451.15   28.30
   5   4  -5  491.65   27.70
   5   4  -5  451.35   27.60
   5   4  -5  470.75   27.90
  -5   4   5  450.95   28.50
  -4  -4   5    0.10    2.60
  -4  -4   5    0.90    1.00
  -4  -4   5    1.50    2.40
   4   4  -5    0.80    1.80
  -4   4   5   -0.10    1.20
  -4   4   5    0.60    2.00
   4   4  -5    0.80    1.70
  -4   4   5    1.70    0.90
  -4   4   5    1.90    1.40
  -4   4   5    3.50    2.40
   4   4  -5    3.10    1.40
   4   4  -5   -1.20    2.10
  -3  -4   5 1153.98   66.39
  -3  -4   5 1147.09   66.59
  -3  -4   5 1065.59   65.39
  -3   4   5 1141.29   65.79
  -3   4   5 1127.59   66.59
   3   4  -5 1104.89   65.59
   3   4  -5 1236.08   65.59
  -3   4   5 1142.19   66.39
   3   4  -5 1149.19   65.59
   3   4  -5 1097.19   65.89
  -3   4   5 1146.69   65.89
  -2  -4   5   30.80    2.80
  -2  -4   5   30.90    3.50
  -2  -4   5   33.90    3.70
  -2   4   5   34.40    4.00
   2   4  -5   30.50    3.90
  -2   4   5   35.30    3.60
  -2   4   5   38.00    3.00
   2   4  -5   30.10    3.20
  -2   4   5   36.50    3.60
   2   4  -5   32.50    3.40
   2   4  -5   35.20    3.10
   2   4  -5   34.30    3.00
  -1  -4   5   68.09    5.10
  -1   4   5   77.19    5.60
   1   4  -5   78.99    4.90
  -1   4   5   77.69    5.10
   1   4  -5   73.69    5.00
  -1   4   5   71.79    5.40
   1   4  -5   68.09    5.30
  -1   4   5   71.09    5.50
   1   4  -5   72.59    5.10
  -1   4   5   75.39    5.90
   0   4  -5  557.14   30.70
   0   4   5  549.25   31.50
   0   4   5  556.64   31.80
   0   4   5  528.95   31.10
   0   4  -5  517.45   30.80
   0   4  -5  516.85   30.90
   0   4   5  498.45   31.10
   0   4  -5  509.85   31.00
   0   4   5  544.85   31.20
   1  -4   5  100.59    7.50
   1   4   5  126.59    8.20
   1   4   5  120.49    7.80
   1   4   5  120.69    8.10
   1   4   5  127.39    8.50
   1   4   5  129.39    8.20
   1   4   5  112.29    7.90
  -1   4  -5  121.09    7.30
  -2  -4  -5   51.49    3.30
  -2  -4  -5   48.80    3.70
   2  -4   5   39.30    3.70
   2   4   5   49.99    5.00
  -2   4  -5   45.80    3.40
   2   4   5   32.60    4.10
  -2   4  -5   50.79    4.00
   2   4   5   53.69    5.20
  -2   4  -5   45.30    3.90
   2   4   5   47.80    4.50
   2   4   5   44.80    4.20
  -3  -4  -5  283.87   16.30
  -3  -4  -5  298.17   16.10
  -3  -4  -5  285.27   18.90
  -3   4  -5  275.37   16.40
   3   4   5  286.57   17.10
   3   4   5  263.47   17.00
   3   4   5  252.97   16.90
  -3   4  -5  248.88   16.40
   3   4   5  270.37   17.00
   3   4   5  282.67   16.90
  -3   4  -5  271.97   16.20
  -4  -4  -5   52.39    4.80
  -4  -4  -5   55.79    4.10
  -4  -4  -5   59.49    7.60
   4  -4   5   40.90    4.40
  -4  -4  -5   58.59    8.10
  -4   4  -5   51.09    4.00
   4   4   5   56.39    6.00
  -4   4  -5   49.20    4.30
  -4   4  -5   57.09    4.30
   4   4   5   51.39    5.20
   4   4   5   48.60    5.20
   4   4   5   54.49    5.50
  -5  -4  -5   11.60    5.90
  -5  -4  -5   11.10    5.40
  -5  -4  -5   10.40    2.00
   5  -4   5    9.30    2.10
  -5  -4  -5   11.20    2.60
  -5   4  -5    9.90    1.90
   5   4   5    2.10    2.90
   5   4   5   12.90    3.70
   5   4   5    7.80    3.10
   5   4   5    8.30    2.50
  -5   4  -5    4.70    1.60
  -5   4  -5    7.00    1.80
  -6  -4  -5   77.49    6.30
  -6  -4  -5   86.59   11.80
   6  -4   5   88.39    6.60
  -6  -4  -5   82.69    7.10
   6  -4   5   67.99    7.10
  -6  -4  -5   75.29   10.40
   6   4   5   89.49    7.30
   6   4   5   86.29    7.90
  -6   4  -5   84.39    5.80
   6   4   5   87.59    7.70
  -6   4  -5   83.09    6.30
  -6   4  -5   81.79    6.10
  -7  -4  -5  186.38   12.60
  -7  -4  -5  153.48   15.70
  -7  -4  -5  175.58   17.00
  -7  -4  -5  175.48   12.50
   7  -4   5  201.48   12.30
  -7  -4  -5  176.88   12.00
   7  -4   5  204.28   13.40
  -7   4  -5  183.68   12.00
   7   4   5  187.48   12.60
  -7   4  -5  186.38   11.80
  -7   4  -5  186.08   11.60
   7   4   5  195.88   13.00
   7   4   5  189.18   13.70
   8  -4   5   12.00    4.40
  -8  -4  -5   11.70    3.30
  -8  -4  -5    5.10    7.40
  -8  -4  -5   10.10    6.20
  -8  -4  -5   11.50    3.10
  -8  -4  -5    6.90    3.20
   8  -4   5   15.00    3.30
  -8   4  -5   10.30    2.80
   8   4   5   15.80    4.80
   8   4   5   13.00    3.50
  -8   4  -5   11.60    2.50
  -8   4  -5    7.80    2.30
   8   4   5   13.40    3.60
   9  -4   5   37.20    7.40
  -9  -4  -5   34.90    5.90
   9  -4   5   34.50    5.50
  -9  -4  -5   34.50    6.00
  -9  -4  -5   44.30    8.90
  -9  -4  -5   37.50    5.90
  -9   4  -5   31.20    5.20
  -9   4  -5   36.80    4.30
   9   4   5   32.50    6.10
  10  -4   5   -4.00    2.60
 -10  -4  -5    6.30    6.80
  10  -4   5    3.20    4.60
 -10  -4  -5    1.90    2.80
 -10  -4  -5    1.60    3.10
  10   4   5    3.80    5.10
 -10   4  -5    2.30    2.20
 -10   4  -5    2.20    2.60
 -11  -4  -5   43.00    5.50
  11  -4   5   64.09    5.90
  11  -4   5   61.69    7.60
 -11  -4  -5   53.29    6.20
 -11   4  -5   58.69    5.40
 -11   4  -5   55.79    4.60
  11   4   5   62.39    8.20
 -12  -4  -5    2.20    2.50
  12  -4   5    1.30    3.30
 -12   4  -5    3.20    2.00
  12   4   5    0.10    4.20
 -13  -4  -5    6.70    2.10
  13   4   5   11.50    3.40
  14  -5  -5    2.50    4.10
 -14   5   5    0.70    1.60
  13  -5  -5   16.10    5.30
  13  -5  -5   20.90    3.70
 -13   5   5   22.30    3.00
  13   5  -5   20.30    4.40
  12  -5  -5    1.60    3.40
 -12  -5   5    1.20    2.60
  12  -5  -5   -3.40    5.50
  12   5  -5   -3.00    4.10
 -12   5   5    4.50    2.60
 -11  -5   5   43.80    8.20
 -11  -5   5   38.30    5.60
  11  -5  -5   42.00    7.60
 -11  -5   5   32.60    5.60
  11  -5  -5   39.70    7.30
 -11   5   5   35.80    4.90
  11   5  -5   44.60    6.90
 -11   5   5   47.60    8.10
 -10  -5   5    4.30    2.90
 -10  -5   5    1.40    5.80
 -10  -5   5    9.70    2.80
  10  -5  -5    9.70    3.70
  10   5  -5   11.10    5.40
 -10   5   5    6.20    2.50
 -10   5   5    5.40    4.40
  -9  -5   5   17.60    2.50
  -9  -5   5   20.80    6.20
   9  -5  -5   19.00    3.90
  -9  -5   5   15.40    3.30
  -9  -5   5    9.00    6.00
  -9   5   5   21.40    4.10
  -9   5   5   20.90    5.10
  -9   5   5   14.30    5.90
  -9   5   5   23.10    3.20
   9   5  -5   18.30    4.00
   9   5  -5   26.50    6.00
  -8  -5   5  105.69    7.20
  -8  -5   5  105.89   10.80
  -8  -5   5   94.19   11.50
   8  -5  -5  106.09    8.90
  -8  -5   5  109.19    8.00
   8   5  -5  102.59   10.30
  -8   5   5  109.99    7.60
  -8   5   5  113.89    9.70
  -8   5   5  103.29   10.80
   8   5  -5   94.89    9.30
   8   5  -5   94.49    8.20
  -8   5   5  105.19    7.40
   8   5  -5  102.89    8.90
  -7  -5   5   -0.10    4.30
   7  -5  -5    1.70    2.10
  -7  -5   5    4.00    4.90
  -7  -5   5    2.40    1.70
  -7  -5   5   -0.50    2.40
   7   5  -5    2.80    3.70
   7   5  -5    1.10    2.80
  -7   5   5    2.30    2.00
  -7   5   5    1.00    1.70
   7   5  -5    4.30    3.30
  -7   5   5   -0.20    3.20
  -7   5   5    1.80    4.00
   7   5  -5    4.10    2.50
  -6  -5   5  425.56   26.80
  -6  -5   5  407.46   27.20
  -6  -5   5  429.16   24.90
  -6  -5   5  443.06   24.60
   6  -5  -5  416.76   25.40
   6   5  -5  387.76   25.20
  -6   5   5  430.56   24.70
   6   5  -5  417.86   26.10
  -6   5   5  428.46   26.70
  -6   5   5  410.56   25.00
   6   5  -5  421.16   25.50
   6   5  -5  416.46   25.10
  -6   5   5  425.86   26.20
  -5  -5   5   50.29    5.90
  -5  -5   5   54.39    4.00
  -5  -5   5   43.20    4.50
  -5  -5   5   45.40    6.10
  -5   5   5   57.39    6.00
   5   5  -5   55.69    5.30
   5   5  -5   48.20    5.60
  -5   5   5   54.69    5.30
  -5   5   5   54.19    4.00
   5   5  -5   42.10    6.30
   5   5  -5   48.60    5.00
  -5   5   5   50.09    4.70
  -4  -5   5  341.87   19.20
  -4  -5   5  324.07   20.90
  -4  -5   5  318.37   20.50
  -4   5   5  335.47   20.80
   4   5  -5  321.17   20.40
  -4   5   5  297.87   19.20
   4   5  -5  316.47   19.90
  -4   5   5  338.07   19.70
   4   5  -5  339.27   19.60
   4   5  -5  329.47   19.60
  -4   5   5  326.77   19.60
  -4   5   5  338.47   20.40
  -3  -5   5   -0.90    2.00
  -3  -5   5    0.20    1.00
  -3  -5   5   -0.90    2.20
   3   5  -5    1.80    1.60
  -3   5   5    1.80    1.60
  -3   5   5   -0.10    1.70
   3   5  -5    1.10    2.40
   3   5  -5    2.40    1.80
  -3   5   5    3.00    1.40
  -3   5   5   -1.00    2.20
  -3   5   5    0.50    2.10
   3   5  -5    1.80    1.80
   3   5  -5    0.30    1.90
  -2  -5   5  259.17   16.60
  -2  -5   5  286.57   17.30
  -2  -5   5  269.37   17.40
   2   5  -5  275.57   17.10
   2   5  -5  263.07   17.30
  -2   5   5  280.17   17.10
  -2   5   5  273.17   17.10
  -2   5   5  295.57   17.00
  -2   5   5  291.97   17.90
   2   5  -5  279.57   16.70
  -2   5   5  289.17   17.50
   2   5  -5  295.97   16.70
   2   5  -5  298.37   16.90
  -1  -5   5  908.41   52.79
  -1  -5   5  807.72   52.49
   1   5  -5  882.01   52.99
   1   5  -5  928.01   52.59
  -1   5   5  907.61   52.89
   1   5  -5  957.00   52.49
  -1   5   5  922.31   53.69
  -1   5   5  899.01   52.89
   1   5  -5  925.61   52.89
  -1   5   5  962.60   52.99
   1   5  -5  906.41   52.69
  -1   5   5  919.51   53.39
   0   5   5  692.33   41.00
   0   5   5  697.13   41.60
   0   5   5  672.63   40.90
   0   5  -5  749.33   40.50
   0   5  -5  689.73   40.80
   0   5  -5  700.03   40.60
   0   5  -5  693.03   40.70
   0   5   5  685.03   40.90
   0   5   5  717.03   40.80
   0   5   5  690.03   41.30
   1  -5   5   27.00    3.10
   1   5   5   29.70    4.60
  -1   5  -5   32.50    3.50
   1   5   5   33.00    4.00
   1   5   5   34.30    4.30
  -1   5  -5   35.00    3.10
  -1   5  -5   22.40    3.40
   1   5   5   32.80    3.70
  -1   5  -5   37.20    3.40
   1   5   5   35.20    3.50
   1   5   5   31.30    4.40
  -2  -5  -5  236.98   12.90
  -2   5  -5  201.18   13.30
   2   5   5  214.48   13.90
  -2   5  -5  212.18   13.30
  -2   5  -5  219.78   13.10
   2   5   5  201.58   13.60
   2   5   5  222.48   13.90
   2   5   5  217.78   14.00
  -2   5  -5  222.58   13.40
   2   5   5  230.28   14.00
  -3  -5  -5  149.69    8.50
   3  -5   5  127.49    8.80
  -3  -5  -5  146.49    8.90
  -3  -5  -5  141.79   12.50
   3   5   5  134.09    9.90
  -3   5  -5  134.29    9.00
   3   5   5  139.99    9.60
   3   5   5  137.89    9.90
  -3   5  -5  131.89    8.80
  -3   5  -5  141.29    8.60
   3   5   5  127.49    9.40
   3   5   5  131.59    9.50
  -4  -5  -5   49.90    8.30
  -4  -5  -5   55.49    4.60
  -4  -5  -5   62.39    5.30
   4  -5   5   57.89    5.10
  -4  -5  -5   73.39    9.00
  -4   5  -5   59.89    5.10
   4   5   5   64.99    5.90
   4   5   5   55.59    6.70
   4   5   5   59.39    5.90
  -4   5  -5   68.39    4.50
   4   5   5   66.09    7.00
  -4   5  -5   58.89    5.10
  -5  -5  -5  122.39   13.40
  -5  -5  -5  138.79   12.70
   5  -5   5  121.59    8.90
  -5  -5  -5  133.19    8.60
  -5  -5  -5  134.49    9.20
  -5   5  -5  127.29    8.70
   5   5   5  133.09    9.60
  -5   5  -5  128.59    8.70
   5   5   5  142.09   10.30
  -5   5  -5  132.29    8.40
   5   5   5  134.79   10.20
   5   5   5  125.59    9.80
  -6  -5  -5  182.48   12.70
  -6  -5  -5  228.08   18.10
  -6  -5  -5  190.98   12.20
  -6  -5  -5  206.78   16.80
   6  -5   5  194.78   12.50
  -6   5  -5  187.28   11.80
   6   5   5  191.48   13.30
  -6   5  -5  192.08   12.20
   6   5   5  192.58   13.60
   6   5   5  195.98   13.10
  -6   5  -5  186.98   12.10
   7  -5   5  102.29    8.90
   7  -5   5  126.09   10.00
  -7  -5  -5  123.59    9.60
  -7  -5  -5  134.29   13.40
  -7  -5  -5  108.19   14.40
  -7   5  -5  130.69    8.80
  -7   5  -5  130.39    8.50
  -7   5  -5  104.29    8.20
   7   5   5  137.89   10.60
   7   5   5  135.79   10.50
   7   5   5  132.59    9.80
  -8  -5  -5  255.57   16.90
  -8  -5  -5  261.87   17.40
  -8  -5  -5  239.48   22.80
  -8  -5  -5  253.87   21.10
   8  -5   5  283.67   17.20
   8   5   5  298.47   17.70
   8   5   5  283.07   18.50
   8   5   5  261.27   17.80
  -8   5  -5  256.17   16.70
  -8   5  -5  274.97   16.40
  -9  -5  -5    5.20    3.60
  -9  -5  -5    0.30    2.90
   9  -5   5    4.40    3.10
  -9  -5  -5    4.50    7.30
   9  -5   5    2.60    4.20
  -9  -5  -5    3.30    3.20
   9   5   5    4.90    4.70
  -9   5  -5    5.70    2.50
  -9   5  -5    6.30    2.80
  10  -5   5   59.39    6.20
  10  -5   5   60.99    7.50
 -10  -5  -5   43.20    6.30
 -10  -5  -5   41.30    9.10
 -10  -5  -5   43.50    6.00
 -10   5  -5   52.59    5.50
  10   5   5   72.99    8.40
 -10   5  -5   46.30    4.90
 -11  -5  -5    5.50    2.80
  11  -5   5    2.70    2.50
 -11  -5  -5   -0.10    2.40
  11  -5   5    9.20    4.10
  11   5   5    7.00    4.70
 -11   5  -5    6.10    2.30
 -11   5  -5    3.30    2.10
 -12  -5  -5    8.30    2.40
 -12   5  -5   16.00    2.40
  12   5   5   12.60    4.10
  13  -6  -5   10.10    4.80
  13  -6  -5   13.90    3.10
 -13  -6   5    8.00    2.10
 -13   6   5    8.90    2.40
  13   6  -5    9.30    3.70
  12  -6  -5  115.19    9.70
  12  -6  -5  112.89   11.50
  12   6  -5  117.99   10.30
 -12   6   5  118.69    8.40
  11  -6  -5   41.10    7.00
 -11  -6   5   37.70    5.40
 -11  -6   5   38.20    7.50
  11  -6  -5   40.60    7.20
 -11  -6   5   34.50    5.90
  11   6  -5   54.99    9.00
 -11   6   5   39.30    5.10
 -10  -6   5   46.20    8.10
 -10  -6   5   53.99    6.20
  10  -6  -5   52.59    7.80
 -10  -6   5   49.70    6.20
 -10  -6   5   59.49    5.40
 -10   6   5   54.99    5.80
 -10   6   5   59.39    8.30
  10   6  -5   81.39   10.10
  10   6  -5   69.19    7.60
  -9  -6   5    1.50    3.10
   9  -6  -5    4.10    3.30
  -9  -6   5    7.60    6.80
  -9  -6   5    8.00    2.30
  -9  -6   5    9.30    6.20
   9   6  -5    6.00    4.00
   9   6  -5   -0.20    5.00
  -9   6   5    6.60    2.50
  -9   6   5    9.00    2.90
  -9   6   5    1.20    6.00
  -9   6   5   10.40    4.50
  -8  -6   5   71.49    9.60
  -8  -6   5   32.20    7.60
   8  -6  -5   33.60    6.50
  -8  -6   5   40.40    5.80
  -8  -6   5   49.20    4.70
   8   6  -5   38.50    6.50
  -8   6   5   49.40    7.10
  -8   6   5   51.49    7.60
  -8   6   5   49.20    5.00
   8   6  -5   48.70    7.30
   8   6  -5   48.30    9.10
  -8   6   5   49.30    5.00
  -7  -6   5    4.80    1.90
  -7  -6   5    0.40    2.60
  -7  -6   5    1.40    5.00
   7  -6  -5    4.70    2.30
  -7  -6   5    1.60    4.80
   7   6  -5    2.90    3.80
  -7   6   5    2.70    3.50
   7   6  -5   -3.90    4.10
  -7   6   5    2.00    2.10
   7   6  -5    3.80    3.60
  -7   6   5    5.60    4.50
  -7   6   5    4.60    2.20
   7   6  -5    0.40    2.90
  -6  -6   5    6.50    2.50
  -6  -6   5    5.40    1.60
  -6  -6   5    9.20    5.00
   6  -6  -5    7.80    2.10
  -6  -6   5   12.50    4.50
   6  -6  -5   -0.50    2.40
   6   6  -5    2.30    3.20
  -6   6   5    9.90    3.50
   6   6  -5    6.60    3.50
  -6   6   5    5.10    3.70
   6   6  -5    8.10    2.90
  -6   6   5    9.20    2.20
   6   6  -5    6.50    4.20
  -6   6   5    9.00    2.00
  -5  -6   5   55.89    4.30
  -5  -6   5   53.49    5.00
  -5  -6   5   58.39    6.80
  -5  -6   5   45.90    7.20
  -5   6   5   56.59    6.50
  -5   6   5   53.79    5.60
  -5   6   5   50.79    5.00
   5   6  -5   52.29    6.00
  -5   6   5   50.89    4.20
   5   6  -5   60.49    5.70
   5   6  -5   51.19    7.30
  -5   6   5   42.50    4.30
   5   6  -5   49.50    6.20
  -4  -6   5   -0.30    1.30
  -4  -6   5    0.70    3.20
  -4  -6   5    1.50    2.80
  -4   6   5   -1.90    2.60
   4   6  -5    3.60    3.10
  -4   6   5   -0.50    2.20
   4   6  -5   -5.70    2.10
   4   6  -5    0.90    2.10
  -4   6   5    1.90    1.60
  -4   6   5    3.90    1.40
  -4   6   5    0.50    1.70
   4   6  -5    1.20    2.70
  -3  -6   5   33.30    5.20
  -3  -6   5   37.20    4.70
  -3  -6   5   28.60    3.10
  -3   6   5   32.00    4.20
   3   6  -5   31.90    4.40
  -3   6   5   31.00    3.20
   3   6  -5   33.30    4.00
   3   6  -5   30.70    4.90
   3   6  -5   27.50    5.40
  -3   6   5   32.30    4.00
  -3   6   5   41.60    5.20
  -3   6   5   28.20    4.30
   3   6  -5   28.40    4.10
  -2  -6   5  265.87   16.80
  -2  -6   5  276.77   17.10
  -2  -6   5  253.87   15.90
  -2   6   5  266.67   16.50
  -2   6   5  280.57   17.50
  -2   6   5  247.68   16.50
   2   6  -5  279.07   16.70
  -2   6   5  274.27   16.40
   2   6  -5  253.57   16.80
   2   6  -5  276.67   16.20
   2   6  -5  278.77   16.10
   2   6  -5  259.37   16.30
  -2   6   5  279.07   17.10
  -2   6   5  275.97   16.60
  -1   6   5  586.74   35.10
  -1   6   5  580.64   34.50
  -1   6   5  607.94   34.70
  -1   6   5  580.24   34.70
   1   6  -5  595.14   34.10
   1   6  -5  551.54   34.70
   1   6  -5  611.04   34.70
  -1   6   5  581.24   34.60
   1   6  -5  594.94   34.40
  -1   6   5  574.04   35.40
   1   6  -5  593.14   34.30
   0  -6   5   39.00    3.80
   0   6  -5   39.50    4.90
   0   6  -5   49.80    4.50
   0   6   5   49.00    4.20
   0   6  -5   52.89    3.90
   0   6   5   54.09    5.30
   0   6   5   52.39    4.90
   0   6   5   40.10    6.30
   0   6  -5   49.20    4.60
   0   6   5   54.09    5.60
   0   6  -5   47.20    4.80
   0   6   5   50.39    4.90
   0   6   5   53.09    5.80
   1  -6   5   12.60    1.90
   1   6   5   15.00    3.00
   1   6   5   14.30    2.90
  -1   6  -5   11.30    2.30
  -1   6  -5   12.50    2.20
  -1   6  -5   16.10    3.20
   1   6   5   12.30    2.80
   1   6   5   14.40    3.10
   1   6   5   10.50    2.30
  -1   6  -5   11.50    2.10
   1   6   5   12.10    3.10
  -2  -6  -5  295.27   21.60
   2  -6   5  264.07   18.10
  -2  -6  -5  322.77   17.70
   2   6   5  335.27   19.20
  -2   6  -5  295.47   18.40
  -2   6  -5  305.97   18.30
   2   6   5  314.57   18.90
   2   6   5  334.77   19.00
   2   6   5  302.77   18.90
  -2   6  -5  303.67   18.30
   2   6   5  277.07   18.60
  -3  -6  -5    1.00    1.30
   3  -6   5    1.40    1.60
  -3  -6  -5   -6.60    5.00
   3   6   5    0.30    2.70
   3   6   5    3.10    2.90
  -3   6  -5    0.90    1.70
  -3   6  -5    0.40    1.70
   3   6   5    0.60    2.20
   3   6   5    1.60    3.30
  -3   6  -5    1.70    1.70
  -4  -6  -5  274.17   15.60
  -4  -6  -5  265.67   16.00
  -4  -6  -5  259.97   19.50
   4  -6   5  230.78   15.90
  -4  -6  -5  251.27   20.10
   4   6   5  253.17   16.60
   4   6   5  249.18   17.00
   4   6   5  273.57   17.10
  -4   6  -5  257.27   16.00
   4   6   5  265.97   16.80
  -4   6  -5  269.67   16.10
  -4   6  -5  267.67   15.70
  -5  -6  -5   -0.30    7.20
  -5  -6  -5    5.90    2.00
  -5  -6  -5    3.10    6.80
  -5  -6  -5    3.00    2.80
   5  -6   5    4.20    2.30
  -5   6  -5    7.50    2.30
   5   6   5    7.40    3.90
  -5   6  -5    6.30    2.30
  -5   6  -5    6.20    2.40
   5   6   5   11.50    3.90
   5   6   5    3.50    3.20
   5   6   5    8.40    3.30
   6  -6   5  179.38   12.10
  -6  -6  -5  146.39   17.80
  -6  -6  -5  167.28   16.80
  -6  -6  -5  181.88   12.50
  -6  -6  -5  193.68   11.90
   6   6   5  184.78   13.30
  -6   6  -5  187.68   12.10
  -6   6  -5  185.68   11.50
   6   6   5  178.38   13.10
   6   6   5  167.58   13.00
  -6   6  -5  189.68   11.90
   7  -6   5  105.79    8.20
  -7  -6  -5   93.19    8.80
  -7  -6  -5  106.59   14.30
  -7  -6  -5   98.09   13.60
  -7  -6  -5   96.29    8.10
   7   6   5  108.69    9.70
   7   6   5  112.19    9.50
  -7   6  -5  105.59    7.50
  -7   6  -5  101.79    7.40
  -7   6  -5  110.09    8.20
   7   6   5  105.49    9.70
  -8  -6  -5   31.80    6.20
  -8  -6  -5   41.70    7.20
   8  -6   5   35.90    5.70
  -8  -6  -5   37.30    6.70
  -8  -6  -5   31.30    9.10
   8   6   5   35.10    5.10
  -8   6  -5   43.50    5.50
  -8   6  -5   34.30    4.50
   8   6   5   60.49    7.90
  -9  -6  -5    9.40    3.90
  -9  -6  -5   -0.30    3.00
   9  -6   5    3.10    3.10
  -9  -6  -5   -7.50    6.70
  -9  -6  -5    1.00    3.10
   9   6   5   12.80    4.10
  -9   6  -5    9.40    3.00
  -9   6  -5    5.10    2.60
   9   6   5    6.50    4.60
   9   6   5    7.60    3.20
  10  -6   5   34.30    5.20
 -10  -6  -5   33.00    5.40
 -10  -6  -5   17.10    3.70
 -10   6  -5   26.50    4.60
  10   6   5   40.70    7.20
 -10   6  -5   29.00    4.00
 -11  -6  -5   12.80    3.10
  11  -6   5   15.90    2.90
 -11  -6  -5    6.90    2.60
 -11   6  -5    9.30    2.30
 -11   6  -5   10.20    2.10
  11   6   5    6.20    3.70
 -12  -6  -5   12.50    2.40
  12   6   5   21.20    3.80
  13  -7  -5    1.50    4.10
  13  -7  -5    0.80    2.40
 -13   7   5    0.90    1.70
 -12  -7   5    4.40    3.00
 -12  -7   5    1.70    2.20
  12  -7  -5    8.00    3.20
  12  -7  -5    0.60    4.80
  12   7  -5    7.50    4.20
 -12   7   5    6.60    2.40
 -11  -7   5   73.19    7.40
  11  -7  -5   94.59    8.70
 -11  -7   5   77.89    7.10
  11  -7  -5   98.89   10.70
  11   7  -5   81.79    9.50
 -11   7   5   90.49    6.90
 -10  -7   5    5.30    3.00
 -10  -7   5    3.80    2.30
  10  -7  -5    6.10    3.50
 -10  -7   5    9.20    6.10
 -10  -7   5    3.50    3.00
  10   7  -5    6.00    4.10
 -10   7   5    5.10    2.70
 -10   7   5    1.40    4.90
  10   7  -5    4.90    5.00
  -9  -7   5    1.60    2.30
  -9  -7   5    8.90    3.40
   9  -7  -5    4.50    3.30
  -9  -7   5    4.10    6.20
   9   7  -5    1.50    3.90
   9   7  -5    3.90    5.10
   9   7  -5   -1.20    4.10
  -9   7   5    1.10    2.70
  -9   7   5   -2.70    3.90
  -9   7   5    2.30    2.50
   8  -7  -5  119.79    9.40
  -8  -7   5  115.79   12.50
  -8  -7   5  110.69   13.60
  -8  -7   5  113.59    7.90
  -8  -7   5  104.09    8.50
   8   7  -5   94.39    9.50
  -8   7   5  113.69    8.20
   8   7  -5  117.49   10.60
  -8   7   5  109.09    8.10
  -8   7   5  107.89   12.20
   8   7  -5  120.59   11.80
  -8   7   5  128.89   10.30
   8   7  -5   90.99   10.60
  -7  -7   5   51.89    9.40
  -7  -7   5   66.39   10.50
  -7  -7   5   57.79    6.30
  -7  -7   5   63.79    5.50
   7   7  -5   59.09    8.00
   7   7  -5   48.10    7.10
   7   7  -5   54.99    9.30
   7   7  -5   71.19    8.10
  -6  -7   5  260.67   16.40
  -6  -7   5  266.37   16.00
  -6  -7   5  253.27   18.70
  -6   7   5  281.57   17.90
  -6   7   5  267.87   16.50
  -6   7   5  264.47   16.10
   6   7  -5  259.37   17.00
   6   7  -5  267.67   18.50
   6   7  -5  270.27   17.80
  -6   7   5  265.97   18.70
   6   7  -5  254.57   17.20
  -5  -7   5   53.99    8.30
  -5  -7   5   54.89    5.50
  -5  -7   5   57.19    4.70
  -5  -7   5   58.39    7.60
  -5   7   5   62.99    7.20
   5   7  -5   52.09    6.40
  -5   7   5   48.40    5.20
   5   7  -5   57.29    8.30
   5   7  -5   48.00    7.50
   5   7  -5   48.70    6.80
  -5   7   5   48.90    4.60
  -5   7   5   51.19    4.70
  -5   7   5   57.79    6.20
  -4  -7   5  420.66   24.10
  -4  -7   5  401.76   25.80
  -4  -7   5  383.46   26.20
  -4   7   5  397.16   24.50
  -4   7   5  408.26   24.60
   4   7  -5  415.06   25.20
   4   7  -5  415.26   25.70
   4   7  -5  423.26   24.70
  -4   7   5  419.56   25.50
  -4   7   5  402.36   24.00
  -4   7   5  416.66   26.10
   4   7  -5  403.06   24.70
  -3  -7   5   33.00    3.50
  -3   7   5   35.30    5.10
  -3   7   5   27.90    4.30
   3   7  -5   33.20    6.00
  -3   7   5   35.10    4.90
   3   7  -5   31.30    4.30
   3   7  -5   33.40    5.20
  -3   7   5   33.20    3.70
   3   7  -5   39.70    5.00
   3   7  -5   29.70    6.00
  -3   7   5   35.90    4.90
  -2  -7   5  387.46   23.40
  -2   7   5  398.76   24.10
   2   7  -5  392.86   23.60
   2   7  -5  402.26   23.90
   2   7  -5  427.16   24.40
  -2   7   5  393.86   24.10
  -2   7   5  398.36   23.80
   2   7  -5  417.76   23.70
  -2   7   5  378.96   23.80
  -2   7   5  402.46   25.10
   2   7  -5  354.56   24.30
  -2   7   5  431.06   24.70
  -1  -7   5    4.00    1.50
   1   7  -5   12.50    3.10
  -1   7   5    6.80    2.70
  -1   7   5    5.20    2.60
   1   7  -5    5.80    2.60
  -1   7   5    6.50    2.60
  -1   7   5    1.50    2.70
  -1   7   5    5.90    3.10
   1   7  -5    5.70    2.10
   1   7  -5    5.80    2.20
   1   7  -5    6.40    2.50
  -1   7   5    5.90    2.10
   0   7   5  231.08   15.00
   0   7   5  226.78   14.50
   0   7   5  248.48   14.90
   0   7  -5  236.08   14.20
   0   7  -5  230.58   14.00
   0   7   5  232.48   14.40
   0   7  -5  187.28   14.80
   0   7   5  238.18   15.20
   0   7   5  234.98   15.70
   0   7  -5  233.58   14.40
   0   7   5  234.28   14.80
   1  -7   5    2.10    1.50
   1   7   5    2.80    3.10
   1   7   5    9.60    3.10
   1   7   5    6.00    2.20
  -1   7  -5    2.50    2.00
  -1   7  -5    5.60    2.30
   1   7   5    6.40    2.80
  -1   7  -5    3.40    2.30
   1   7   5    4.20    3.10
   1   7   5    5.80    2.90
  -1   7  -5    3.00    2.20
   2  -7   5   28.70    3.70
  -2  -7  -5   31.90    8.20
  -2  -7  -5   36.10    3.00
  -2   7  -5   39.40    4.40
   2   7   5   38.50    5.20
  -2   7  -5   36.70    4.80
   2   7   5   25.00    4.20
   2   7   5   43.70    6.50
  -2   7  -5   41.00    4.00
   2   7   5   35.00    5.40
  -2   7  -5   36.70    4.80
   2   7   5   31.40    4.40
   3  -7   5   18.30    3.50
  -3  -7  -5   30.10    8.10
  -3  -7  -5   25.70    3.00
   3   7   5   20.20    4.20
   3   7   5   15.40    3.80
  -3   7  -5   18.20    3.00
  -3   7  -5   21.10    4.20
  -3   7  -5   19.40    3.60
   3   7   5   26.20    4.80
   3   7   5   20.70    3.80
  -4  -7  -5   65.79    6.40
  -4  -7  -5   66.29    5.20
  -4  -7  -5   71.19   11.40
   4  -7   5   53.99    5.50
  -4  -7  -5   54.39   10.30
   4   7   5   63.99    8.10
  -4   7  -5   64.79    5.90
   4   7   5   58.19    8.10
  -4   7  -5   62.59    5.30
   4   7   5   62.29    6.30
  -4   7  -5   58.89    5.90
   4   7   5   65.89    7.10
  -5  -7  -5    4.10    2.10
  -5  -7  -5    8.60    7.90
  -5  -7  -5    2.20    7.10
   5  -7   5    2.70    2.30
  -5  -7  -5    8.40    3.20
   5   7   5   -3.70    4.20
   5   7   5    2.00    3.60
  -5   7  -5    5.50    2.40
  -5   7  -5    0.80    2.30
   5   7   5   -4.40    3.10
   5   7   5    5.90    4.10
  -6  -7  -5    8.90    2.70
   6  -7   5   11.50    2.80
  -6  -7  -5    9.80    3.60
  -6  -7  -5    9.70    8.10
  -6  -7  -5    3.60    8.50
   6   7   5    6.20    4.40
  -6   7  -5   12.60    2.50
   6   7   5    9.80    5.10
   6   7   5   14.10    4.20
   6   7   5   12.20    4.30
  -6   7  -5    9.00    2.60
  -6   7  -5   12.00    3.10
  -7  -7  -5  194.98   12.80
   7  -7   5  185.68   12.80
  -7  -7  -5  180.28   13.30
  -7  -7  -5  188.68   18.70
   7   7   5  205.38   14.70
  -7   7  -5  187.28   12.10
  -7   7  -5  186.88   12.70
   7   7   5  199.08   14.10
   7   7   5  197.98   14.00
  -8  -7  -5   48.20    6.60
  -8  -7  -5   34.80    9.20
  -8  -7  -5   49.99    7.60
  -8  -7  -5   42.70    7.10
   8  -7   5   52.49    6.30
   8   7   5   51.89    7.60
  -8   7  -5   50.39    5.90
   8   7   5   47.70    7.10
  -8   7  -5   42.50    5.00
   8   7   5   49.50    8.40
   9  -7   5   21.10    3.60
  -9  -7  -5    6.20    3.40
  -9  -7  -5    9.90    3.80
  -9  -7  -5    9.80    3.60
  -9   7  -5   15.20    2.90
   9   7   5   11.60    3.40
   9   7   5   20.90    4.40
  -9   7  -5   11.50    3.10
   9   7   5   13.70    4.50
 -10  -7  -5   67.19    7.10
  10  -7   5   91.69    6.80
 -10  -7  -5   72.49    7.10
 -10  -7  -5   54.19    6.50
 -10   7  -5   74.99    6.20
 -10   7  -5   71.19    5.50
 -11  -7  -5    4.10    2.60
 -11  -7  -5    2.20    2.40
  11  -7   5    3.70    2.10
  11   7   5    1.90    3.10
 -11   7  -5   -0.30    1.90
 -11   7  -5    0.90    1.70
  12  -8  -5  100.09    7.90
  12  -8  -5   98.69    9.30
  12   8  -5   97.29    8.50
 -12   8   5   92.59    6.70
  11  -8  -5    1.60    5.10
 -11  -8   5    2.00    2.90
 -11  -8   5    3.40    2.40
  11  -8  -5    4.90    3.20
 -11   8   5    7.90    2.40
  11   8  -5    1.80    4.20
 -10  -8   5   38.60    5.70
 -10  -8   5   36.80    4.80
 -10  -8   5   34.30    5.40
  10  -8  -5   44.00    6.70
 -10   8   5   49.40    5.00
  10   8  -5   37.30    6.40
  10   8  -5   38.90    7.50
   9  -8  -5   34.40    4.60
  -9  -8   5   24.20    3.90
  -9  -8   5   21.90    7.00
  -9  -8   5   27.30    4.80
  -9   8   5   33.30    5.00
   9   8  -5   38.90    7.10
   9   8  -5   33.70    5.40
  -9   8   5   38.70    4.70
   9   8  -5   35.50    5.50
  -9   8   5   32.00    6.90
  -8  -8   5   39.30    5.90
  -8  -8   5   41.20    7.90
   8  -8  -5   32.20    6.00
  -8  -8   5   37.20    4.90
   8   8  -5   45.10    8.90
   8   8  -5   24.80    4.80
  -8   8   5   37.00    5.00
   8   8  -5   38.10    6.40
   8   8  -5   47.10    7.30
  -8   8   5   35.00    4.60
  -8   8   5   39.80    6.20
  -7  -8   5   41.50    4.60
  -7  -8   5   28.30    6.50
  -7  -8   5   30.60    5.60
   7  -8  -5   27.10    4.90
  -7  -8   5   42.90    8.40
   7   8  -5   23.80    5.00
   7   8  -5   41.30    6.90
  -7   8   5   33.90    4.50
  -7   8   5   22.40    7.00
   7   8  -5   26.00    5.30
   7   8  -5   28.60    4.80
  -7   8   5   39.00    6.70
  -7   8   5   31.40    4.30
  -6  -8   5    3.50    6.50
  -6  -8   5    7.80    2.10
  -6  -8   5    9.60    3.40
  -6  -8   5   11.50    5.50
   6   8  -5    7.70    5.00
  -6   8   5   12.30    2.80
  -6   8   5   18.70    4.60
  -6   8   5    9.90    2.40
  -6   8   5   14.70    5.70
   6   8  -5   12.30    3.80
   6   8  -5    5.70    4.30
   6   8  -5    8.60    4.20
  -5  -8   5   20.30    3.40
  -5  -8   5   32.70    5.80
  -5  -8   5   29.40    4.00
  -5   8   5   33.90    5.00
   5   8  -5   21.50    5.00
  -5   8   5   29.10    3.70
  -5   8   5   28.50    4.50
   5   8  -5   18.90    5.30
   5   8  -5   19.00    4.00
  -5   8   5   20.70    5.30
  -5   8   5   22.60    3.70
   5   8  -5   12.30    4.40
  -4  -8   5    8.90    2.00
  -4  -8   5    4.70    4.10
  -4   8   5    7.30    3.50
   4   8  -5    9.00    4.40
   4   8  -5    7.20    3.40
  -4   8   5    8.00    2.30
   4   8  -5    5.70    3.20
   4   8  -5    9.50    4.20
  -4   8   5    7.30    2.40
  -4   8   5    3.10    4.10
  -3  -8   5  102.29    7.30
  -3   8   5  112.29    8.10
   3   8  -5  108.09    8.20
  -3   8   5  114.19    9.00
   3   8  -5  102.99    9.40
  -3   8   5  106.09    7.70
   3   8  -5  111.19    8.60
   3   8  -5  120.29    9.90
  -3   8   5   94.29    9.60
   3   8  -5  113.19    8.80
  -3   8   5  102.29    8.20
  -2  -8   5  103.99    7.00
   2   8  -5  100.79    8.20
   2   8  -5  106.79    8.00
   2   8  -5  110.29    7.70
  -2   8   5  108.19    8.40
   2   8  -5   89.69    8.70
  -2   8   5   96.99    8.00
  -2   8   5  104.99    8.50
   2   8  -5   99.69    9.00
  -2   8   5  101.19    9.00
  -2   8   5   82.39    9.00
  -2   8   5  105.49    7.40
  -1  -8   5  129.09    8.70
   1   8  -5  138.49   10.50
  -1   8   5  137.69    9.10
  -1   8   5  132.69    9.90
  -1   8   5  127.39    9.80
   1   8  -5  146.69    9.70
   1   8  -5  123.79    9.80
  -1   8   5  137.49   10.00
  -1   8   5  122.99   10.50
   1   8  -5  142.39    9.40
   1   8  -5  130.89    8.90
  -1   8   5  133.19   10.30
   0  -8   5  459.45   30.00
   0   8   5  529.35   31.40
   0   8   5  514.55   31.00
   0   8  -5  516.05   30.10
   0   8   5  537.55   30.80
   0   8   5  525.05   31.00
   0   8   5  527.35   30.60
   0   8   5  471.35   30.70
   0   8  -5  520.05   30.60
   0   8  -5  514.65   30.40
   0   8  -5  537.55   31.00
   1  -8   5   16.10    3.30
  -1  -8  -5    8.50    7.60
  -1   8  -5   27.90    5.30
   1   8   5   19.80    3.80
   1   8   5   10.50    3.70
   1   8   5   18.50    4.00
  -1   8  -5   17.40    3.00
   1   8   5   23.90    4.10
   1   8   5   17.40    4.10
  -1   8  -5   18.90    3.60
   1   8   5   17.00    3.70
  -1   8  -5   15.50    2.80
  -2  -8  -5  485.25   28.50
  -2  -8  -5  439.86   33.20
   2   8   5  484.95   29.50
  -2   8  -5  480.65   28.50
  -2   8  -5  490.35   28.80
  -2   8  -5  472.45   29.00
   2   8   5  488.75   29.20
   2   8   5  494.75   29.80
   2   8   5  476.45   29.60
  -2   8  -5  497.15   29.00
   3  -8   5   19.00    3.70
  -3  -8  -5   27.10    3.40
  -3  -8  -5   28.50    9.00
  -3  -8  -5   17.60    8.60
   3   8   5   22.90    4.60
   3   8   5   19.80    4.50
  -3   8  -5   18.20    3.20
  -3   8  -5   16.00    2.90
   3   8   5   31.00    5.90
   3   8   5   26.20    4.90
  -3   8  -5   26.40    5.30
   4  -8   5   77.99    6.60
  -4  -8  -5   96.39    6.40
  -4  -8  -5   66.79   12.10
  -4  -8  -5   58.39   12.30
  -4   8  -5   80.69    6.50
   4   8   5   68.39    9.60
   4   8   5   84.99    8.40
   4   8   5   91.09    9.60
   4   8   5   85.89    7.80
  -4   8  -5   86.39    7.30
  -4   8  -5   88.39    7.30
  -5  -8  -5   55.59    5.40
   5  -8   5   46.40    5.30
  -5  -8  -5   40.90   10.00
  -5  -8  -5   33.90   10.60
  -5  -8  -5   51.89    6.90
  -5   8  -5   42.40    5.90
   5   8   5   44.90    6.20
  -5   8  -5   45.10    5.50
  -5   8  -5   46.90    5.00
   5   8   5   48.00    7.40
   5   8   5   60.59    6.50
   5   8   5   38.70    5.80
  -6  -8  -5    9.10    8.40
  -6  -8  -5    5.90    2.80
   6  -8   5    4.80    2.80
  -6  -8  -5    6.60    3.70
  -6   8  -5    9.30    3.00
   6   8   5    3.10    3.70
   6   8   5    7.90    4.30
  -6   8  -5    6.10    2.40
   6   8   5    6.90    5.30
   6   8   5    6.80    4.60
  -6   8  -5    7.40    2.80
  -7  -8  -5    1.80    8.20
  -7  -8  -5    6.40    3.10
   7  -8   5    1.50    2.90
  -7  -8  -5    7.90    4.10
  -7   8  -5    2.30    2.60
   7   8   5    6.40    3.80
   7   8   5    4.90    3.90
  -7   8  -5    5.50    3.00
   7   8   5   14.00    4.80
  -8  -8  -5   41.70    9.60
   8  -8   5   46.60    6.00
  -8  -8  -5   44.90    6.40
  -8  -8  -5   41.60    7.50
  -8  -8  -5   39.50    7.20
   8   8   5   55.99    7.30
  -8   8  -5   41.90    4.90
   8   8   5   44.00    8.20
  -8   8  -5   43.80    5.60
   8   8   5   39.00    7.00
  -9  -8  -5   36.20    6.20
   9  -8   5   61.49    5.80
  -9  -8  -5   34.10    6.70
  -9  -8  -5   39.30    6.50
   9   8   5   39.20    6.90
  -9   8  -5   47.00    5.30
  -9   8  -5   49.50    4.70
   9   8   5   52.29    6.90
   9   8   5   38.80    5.90
  10  -8   5    7.50    2.60
 -10  -8  -5    3.50    3.00
 -10  -8  -5    5.90    2.80
 -10  -8  -5    6.80    3.00
 -10   8  -5    7.80    2.10
  10   8   5    9.40    3.40
 -10   8  -5    8.10    2.30
 -11  -8  -5    0.30    2.10
  11  -8   5   -1.10    1.90
  12  -9  -5    3.40    2.30
  11  -9  -5    2.00    2.60
 -11  -9   5    0.30    2.60
  11  -9  -5    3.40    4.00
  11   9  -5    2.20    3.70
 -11   9   5   -0.80    1.80
  10  -9  -5   13.10    3.30
  10  -9  -5    6.10    4.40
 -10  -9   5    9.30    2.80
 -10  -9   5    9.50    2.40
 -10  -9   5    9.80    3.00
  10   9  -5   16.00    5.00
  10   9  -5   18.80    4.50
 -10   9   5   15.70    2.70
  -9  -9   5    4.20    2.40
  -9  -9   5    3.80    2.80
   9  -9  -5    5.80    3.00
  -9   9   5    5.50    2.50
   9   9  -5    1.60    4.10
   9   9  -5    5.20    5.30
   9   9  -5    6.80    4.50
  -8  -9   5   74.09    8.00
   8  -9  -5   92.09    8.10
  -8  -9   5   84.09   12.60
  -8  -9   5  103.19    7.30
  -8   9   5   90.89    7.10
   8   9  -5   92.29    9.30
   8   9  -5   96.39   11.00
   8   9  -5   82.89   10.40
  -8   9   5  102.39    7.30
   8   9  -5  102.59   10.40
  -7  -9   5   -2.10    3.20
  -7  -9   5    0.90    2.30
  -7   9   5   -2.60    4.00
   7   9  -5    3.30    5.20
   7   9  -5    1.10    4.80
   7   9  -5    2.90    4.10
  -7   9   5    1.30    2.30
   7   9  -5   -0.30    4.90
  -7   9   5    0.70    2.30
  -6  -9   5  253.27   16.40
  -6  -9   5  271.37   15.90
  -6   9   5  243.08   19.60
   6   9  -5  276.97   18.40
   6   9  -5  263.27   18.80
   6   9  -5  235.58   17.40
   6   9  -5  240.48   17.20
  -6   9   5  277.17   17.80
  -6   9   5  253.77   15.70
  -6   9   5  259.57   16.20
  -5  -9   5    3.20    2.10
  -5  -9   5    0.50    3.10
   5   9  -5    2.10    4.40
   5   9  -5    1.10    3.70
  -5   9   5    2.00    4.80
  -5   9   5    4.20    2.60
   5   9  -5    8.40    5.20
   5   9  -5    2.20    4.50
  -5   9   5    2.40    3.50
  -5   9   5    3.10    2.40
  -4  -9   5   28.40    4.10
   4   9  -5   28.90    4.70
  -4   9   5   33.10    6.20
   4   9  -5   29.70    5.60
   4   9  -5   26.90    5.10
  -4   9   5   29.60    4.00
   4   9  -5   20.20    4.50
  -4   9   5   27.50    4.80
  -4   9   5   26.30    4.60
  -3  -9   5   77.39    6.10
  -3   9   5   76.99    7.80
   3   9  -5   72.99    7.70
   3   9  -5   79.29    8.20
  -3   9   5   76.19    9.20
   3   9  -5   84.79    9.30
  -3   9   5   80.59    7.00
   3   9  -5   80.29    7.30
  -3   9   5   80.69    6.30
   3   9  -5   72.49    8.60
  -3   9   5   72.69    7.50
  -2  -9   5  325.37   19.60
   2   9  -5  309.87   19.90
   2   9  -5  289.87   21.00
  -2   9   5  329.07   20.60
  -2   9   5  344.07   20.10
   2   9  -5  335.37   20.40
  -2   9   5  355.76   22.20
  -2   9   5  301.87   20.80
  -2   9   5  353.56   21.30
   2   9  -5  307.57   20.80
   2   9  -5  352.96   20.70
  -2   9   5  332.07   20.60
  -1  -9   5   16.70    2.30
  -1   9   5    8.00    3.50
   1   9  -5   -1.70    2.70
   1   9  -5   12.20    3.30
   1   9  -5    8.00    3.80
  -1   9   5    7.90    3.60
  -1   9   5   15.30    2.80
  -1   9   5    9.90    3.10
   1   9  -5    6.40    3.30
   1   9  -5    9.40    3.40
  -1   9   5    8.80    3.80
   0  -9   5   70.29    6.00
   0  -9  -5   96.39   14.30
   0   9   5   91.89    8.90
   0   9   5   83.69    7.80
   0   9  -5   62.49    7.70
   0   9  -5   84.09    7.30
   0   9  -5   78.29    8.20
   0   9   5   76.89    7.70
   0   9  -5   72.49    6.70
   0   9   5   80.79    8.40
   0   9   5   91.49    6.70
  -1  -9  -5    8.90    8.00
   1  -9   5   10.60    2.20
  -1   9  -5   10.10    3.50
   1   9   5   15.00    4.20
  -1   9  -5    9.20    3.10
   1   9   5    5.90    4.00
  -1   9  -5    5.90    3.00
   1   9   5    5.60    2.80
   1   9   5   13.70    4.50
   1   9   5    8.40    3.40
   1   9   5   10.20    3.60
  -1   9  -5   12.00    3.10
  -2  -9  -5    6.30    8.50
  -2  -9  -5    3.40    1.80
   2  -9   5    2.20    2.00
  -2   9  -5    1.40    2.90
  -2   9  -5    6.60    3.00
   2   9   5    1.90    3.50
   2   9   5   -1.00    4.20
  -2   9  -5    3.40    2.90
   2   9   5    1.50    4.20
   2   9   5    5.10    2.80
  -2   9  -5    4.30    3.20
  -3  -9  -5   14.30    8.70
  -3  -9  -5   21.50    3.40
   3  -9   5   15.00    2.80
  -3  -9  -5    6.10    8.40
   3   9   5   14.70    4.90
   3   9   5   12.60    4.60
  -3   9  -5   12.80    3.20
   3   9   5    9.50    4.60
  -3   9  -5   12.30    3.00
  -3   9  -5   17.10    3.70
   3   9   5   13.40    3.40
  -4  -9  -5   49.80   11.70
   4  -9   5   37.50    5.00
  -4  -9  -5   47.00   10.80
  -4  -9  -5   43.50    6.40
  -4  -9  -5   44.20    4.70
   4   9   5   41.70    6.00
   4   9   5   47.20    6.70
  -4   9  -5   44.20    6.30
   4   9   5   40.80    6.00
  -4   9  -5   36.40    5.20
  -4   9  -5   42.20    5.80
   4   9   5   36.60    5.90
   5  -9   5   10.00    2.80
  -5  -9  -5    9.10    2.70
  -5  -9  -5    9.70    3.80
  -5  -9  -5    3.50    8.70
   5   9   5   16.00    5.50
  -5   9  -5   17.50    3.40
   5   9   5    8.00    3.60
  -5   9  -5   24.70    4.80
   5   9   5   15.70    4.60
  -5   9  -5   17.80    3.30
   5   9   5    9.20    5.10
  -6  -9  -5  -10.10    7.80
  -6  -9  -5    4.70    2.70
  -6  -9  -5   -1.80    3.70
   6  -9   5    2.10    2.70
   6   9   5   -0.90    4.90
  -6   9  -5    3.80    2.90
   6   9   5    2.30    4.50
   6   9   5    0.00    3.60
   6   9   5    5.70    3.50
  -6   9  -5    2.90    3.00
  -7  -9  -5   -2.60    8.10
  -7  -9  -5    2.80    3.90
   7  -9   5   -0.90    2.70
  -7  -9  -5    4.00    3.00
  -7   9  -5   -0.60    3.00
  -7   9  -5    0.90    2.50
   7   9   5   -2.20    3.60
   7   9   5    0.40    4.50
   7   9   5    3.60    3.60
  -8  -9  -5  110.19    9.80
   8  -9   5  138.69    9.00
  -8  -9  -5  106.59    9.90
  -8  -9  -5  116.39    9.30
   8   9   5  115.79    9.60
   8   9   5  125.79   10.80
  -8   9  -5  112.39    8.20
  -8   9  -5  126.59    8.80
  -9  -9  -5    1.90    3.10
  -9  -9  -5    5.30    3.10
  -9  -9  -5    3.50    2.90
   9  -9   5    5.90    2.60
   9   9   5    3.10    3.00
  -9   9  -5    0.30    2.00
  -9   9  -5    4.80    2.50
   9   9   5    3.00    2.80
   9   9   5    8.00    3.30
 -10  -9  -5   29.30    4.30
 -10  -9  -5   20.90    4.40
 -10   9  -5   28.50    3.10
  11 -10  -5    2.10    2.10
  11  10  -5   -2.00    3.00
  10 -10  -5  110.59    9.60
  10 -10  -5  117.99    8.50
 -10 -10   5   95.39    8.00
 -10 -10   5  118.99    7.60
  10  10  -5  122.29    9.80
  10  10  -5  114.39    9.00
 -10  10   5  103.09    7.30
   9 -10  -5    8.10    2.80
  -9 -10   5    4.40    2.50
  -9 -10   5   12.40    2.40
   9  10  -5   12.60    5.00
  -9  10   5   13.10    2.30
   9  10  -5   12.40    4.40
   9  10  -5   10.90    4.10
  -8 -10   5   23.00    3.70
   8 -10  -5   24.90    4.80
  -8 -10   5   30.10    4.50
  -8  10   5   27.60    3.90
  -8  10   5   27.10    4.00
   8  10  -5   25.20    5.30
   8  10  -5   23.30    4.70
   8  10  -5   26.50    5.80
   8  10  -5   19.70    5.70
  -7 -10   5    1.00    2.20
  -7 -10   5   -0.90    3.00
   7  10  -5    1.90    3.90
  -7  10   5    5.20    2.90
   7  10  -5   -0.10    4.80
   7  10  -5    3.10    4.80
   7  10  -5    1.80    5.00
  -7  10   5    2.10    2.30
  -6 -10   5    9.80    2.40
  -6 -10   5    6.70    3.20
   6  10  -5    6.30    5.40
  -6  10   5    7.90    2.40
  -6  10   5   12.20    4.80
   6  10  -5    3.60    5.00
   6  10  -5    1.70    4.70
   6  10  -5    3.90    4.30
  -5 -10   5    3.90    3.10
  -5 -10   5   -0.60    2.10
   5  10  -5   -3.60    4.90
   5  10  -5    0.30    3.90
  -5  10   5   -0.80    2.30
  -5  10   5   -2.40    3.80
   5  10  -5    0.60    4.90
   5  10  -5   -1.60    4.60
  -4 -10   5  191.28   11.50
  -4 -10   5  172.68   12.10
  -4  10   5  177.68   11.70
   4  10  -5  159.48   12.90
  -4  10   5  166.38   12.00
   4  10  -5  186.38   14.00
   4  10  -5  175.88   13.20
   4  10  -5  184.38   14.60
  -4  10   5  187.28   13.40
  -3 -10   5    2.50    2.00
   3  10  -5    1.90    3.90
  -3  10   5    2.10    3.50
  -3  10   5    4.60    2.30
   3  10  -5    2.90    3.90
   3  10  -5    2.00    4.80
   3  10  -5   -1.70    3.90
   2 -10  -5   48.40   12.40
  -2 -10   5   54.69    5.20
  -2  10   5   59.79    5.40
   2  10  -5   53.79    7.00
   2  10  -5   49.50    6.50
   2  10  -5   57.49    7.00
  -2  10   5   54.49    6.50
   2  10  -5   50.99    9.00
  -2  10   5   64.29    7.50
   2  10  -5   60.89    7.60
  -2  10   5   51.69    7.30
  -1 -10   5    3.80    2.00
   1 -10  -5   20.70   10.30
  -1  10   5    0.50    3.20
   1  10  -5    1.70    3.90
   1  10  -5    6.60    3.60
  -1  10   5    3.80    3.90
  -1  10   5    4.10    3.90
   1  10  -5    0.80    3.60
  -1  10   5   -2.00    3.10
   1  10  -5    3.70    3.70
  -1  10   5    5.90    2.60
   0 -10   5  223.58   14.80
   0 -10  -5  164.68   22.00
   0  10   5  246.98   16.50
   0  10  -5  233.78   15.20
   0  10   5  249.97   16.10
   0  10  -5  240.18   16.10
   0  10   5  237.98   16.30
   0  10  -5  236.28   16.40
   0  10   5  258.37   15.40
   0  10   5  239.78   16.50
   0  10  -5  245.38   15.80
   1 -10   5    7.00    2.20
  -1 -10  -5   -2.10    8.90
  -1  10  -5   10.40    3.90
  -1  10  -5    7.30    3.60
  -1  10  -5    5.50    3.00
   1  10   5    8.50    4.30
   1  10   5    4.40    3.50
   1  10   5    6.10    4.20
   1  10   5    4.60    2.80
  -1  10  -5    6.70    3.70
   2 -10   5  409.36   25.80
  -2 -10  -5  450.15   25.40
  -2 -10  -5  414.76   31.10
   2  10   5  403.16   27.10
   2  10   5  433.76   27.40
  -2  10  -5  435.76   26.50
   2  10   5  413.86   27.00
  -2  10  -5  439.26   25.90
  -2  10  -5  449.36   26.40
   2  10   5  462.95   26.50
  -3 -10  -5    9.70    8.40
  -3 -10  -5    7.60    3.20
   3 -10   5   11.70    2.60
  -3 -10  -5    6.80    2.10
  -3  10  -5   12.20    3.70
   3  10   5    7.40    4.00
  -3  10  -5    7.20    3.30
   3  10   5   -0.60    4.30
   3  10   5    7.60    5.00
  -3  10  -5    7.30    3.40
   3  10   5    6.60    3.00
  -4 -10  -5  103.99    9.00
  -4 -10  -5   83.99   13.90
  -4 -10  -5  105.99    7.70
   4 -10   5   96.49    7.90
   4  10   5  118.29   11.50
   4  10   5   93.49   10.90
   4  10   5  113.89   10.20
  -4  10  -5  100.79    8.80
   4  10   5  119.49    8.80
  -4  10  -5  108.39    8.10
  -4  10  -5  103.99    8.90
  -5 -10  -5    2.80    2.50
  -5 -10  -5    3.10    8.00
  -5 -10  -5    6.50    3.60
   5 -10   5    3.00    2.60
   5  10   5    1.30    3.20
  -5  10  -5   -1.20    3.30
   5  10   5    0.00    3.80
  -5  10  -5   -0.40    2.70
  -5  10  -5    0.70    2.90
   5  10   5    2.40    4.70
   5  10   5   -4.60    5.10
  -6 -10  -5   46.60    7.10
  -6 -10  -5   54.39    6.10
   6 -10   5   50.49    5.80
  -6  10  -5   43.50    5.50
  -6  10  -5   56.49    6.40
   6  10   5   43.70    6.30
   6  10   5   65.69    6.40
   6  10   5   56.59    7.50
   6  10   5   48.30    9.10
  -7 -10  -5   -0.60    2.80
  -7 -10  -5    1.20    3.60
   7 -10   5    1.40    2.50
   7  10   5   -1.00    4.20
  -7  10  -5    1.10    2.90
   7  10   5    1.60    3.40
  -7  10  -5    1.70    2.60
   7  10   5    0.90    3.00
  -8 -10  -5   14.90    3.60
  -8 -10  -5   19.90    3.30
  -8 -10  -5   19.60    3.80
   8 -10   5   24.80    4.20
  -8  10  -5   22.60    3.30
   8  10   5   13.70    4.20
   8  10   5   21.50    3.90
  -8  10  -5   11.50    2.50
   8  10   5   17.70    3.40
   9 -10   5    2.80    2.10
  -9 -10  -5    2.30    2.60
  -9 -10  -5    1.00    2.50
  -9 -10  -5    0.50    2.50
  -9  10  -5    3.30    1.80
   9  10   5    3.10    3.70
   9  10   5    0.70    2.60
  10  11  -5   23.00    5.70
   9 -11  -5   15.30    2.70
   9 -11  -5    7.40    3.60
  -9 -11   5   11.70    2.70
  -9 -11   5   12.70    2.20
   9  11  -5   18.00    3.90
   9  11  -5   10.30    4.10
   9  11  -5   21.10    4.20
   8 -11  -5   19.70    4.20
  -8 -11   5   16.10    2.90
  -8 -11   5   27.80    3.80
   8  11  -5   17.20    4.30
   8  11  -5   23.70    5.10
   8  11  -5   20.20    4.60
   8  11  -5   24.50    5.10
  -7 -11   5    0.20    2.00
  -7 -11   5   -2.10    2.60
   7  11  -5    0.00    3.80
  -7  11   5    0.30    1.90
   7  11  -5   -2.40    4.50
   7  11  -5    5.00    4.60
   7  11  -5    2.80    4.20
  -6 -11   5   38.40    5.40
  -6 -11   5   49.70    4.90
   6  11  -5   39.20    7.90
   6  11  -5   42.90    8.00
   6  11  -5   42.40    7.30
   6  11  -5   47.60    9.40
  -6  11   5   46.50    4.60
  -5 -11   5   57.09    5.30
  -5 -11   5   44.10    6.20
   5  11  -5   45.00    7.90
   5  11  -5   61.49    8.60
   5  11  -5   60.39    9.60
  -5  11   5   61.89    5.20
   5  11  -5   39.50    8.10
  -4 -11   5   43.70    6.10
  -4 -11   5   44.00    4.80
  -4  11   5   44.20    7.70
   4  11  -5   39.40    5.80
   4  11  -5   33.40    5.80
   4  11  -5   50.89    7.80
   4  11  -5   42.60    6.60
  -4  11   5   45.00    4.80
  -3 -11   5   27.50    4.20
   3  11  -5   36.00    5.10
  -3  11   5   24.10    4.00
   3  11  -5   10.90    4.50
  -3  11   5   20.70    4.70
   3  11  -5   25.10    5.00
   3  11  -5   15.50    5.50
  -3  11   5   25.00    4.60
  -2 -11   5   72.49    6.00
  -2  11   5   67.09    8.10
   2  11  -5   69.99    8.50
  -2  11   5   71.39    8.40
   2  11  -5   78.39    8.00
   2  11  -5   70.69    8.30
  -2  11   5   74.69    6.20
   2  11  -5   75.19   10.10
   2  11  -5   62.49    7.40
  -2  11   5   77.19    7.00
  -1 -11   5   11.70    2.40
  -1  11   5   10.90    2.70
   1  11  -5    8.20    4.70
   1  11  -5   10.70    4.20
  -1  11   5   14.40    3.70
   1  11  -5    9.10    3.90
   1  11  -5    8.30    3.70
  -1  11   5   10.40    4.50
  -1  11   5   12.60    4.20
   0 -11   5   23.90    4.20
   0  11  -5   26.40    4.70
   0  11   5   29.50    4.50
   0  11   5   29.70    5.00
   0  11  -5   38.60    6.60
   0  11   5   30.10    5.10
   0  11  -5   26.70    4.20
   0  11  -5   23.80    5.00
   0  11   5   36.70    6.20
  -1 -11  -5   92.19   13.70
   1 -11   5   90.69    6.90
  -1  11  -5   77.59    8.80
  -1  11  -5   93.69    8.60
   1  11   5   95.89    7.40
   1  11   5   95.49    9.70
  -1  11  -5   83.99    7.70
   1  11   5   98.99   10.10
  -1  11  -5   95.09    8.90
   1  11   5  101.99    9.10
  -2 -11  -5   -1.10    1.80
   2 -11   5   -2.30    1.90
  -2 -11  -5    4.20    8.40
  -2  11  -5   10.20    3.00
   2  11   5    0.90    4.50
   2  11   5    1.60    3.60
   2  11   5    2.10    2.60
   2  11   5   -3.20    4.10
  -2  11  -5    5.90    3.30
  -2  11  -5    0.00    3.60
   3 -11   5   12.30    2.70
  -3 -11  -5   14.50    2.40
  -3 -11  -5   -1.60    8.20
  -3 -11  -5   16.50    3.40
   3  11   5   11.40    4.40
  -3  11  -5   12.30    3.70
  -3  11  -5   11.80    3.60
   3  11   5    7.00    4.50
   3  11   5   12.60    4.80
   3  11   5   15.00    3.20
  -3  11  -5   11.80    3.20
  -4 -11  -5   -0.20    3.10
   4 -11   5    1.10    2.30
  -4 -11  -5    2.30    2.30
  -4  11  -5   -1.60    3.10
   4  11   5    6.60    4.00
   4  11   5    5.00    4.30
   4  11   5    2.60    4.60
  -4  11  -5   -2.00    3.40
   4  11   5    0.20    2.80
  -4  11  -5    1.70    3.00
  -5 -11  -5   -0.60    3.20
  -5 -11  -5    1.70    2.40
   5 -11   5   -1.70    2.10
  -5  11  -5    1.50    3.20
   5  11   5   -1.50    2.60
   5  11   5   -2.00    3.80
  -5  11  -5   -1.70    2.70
   5  11   5   -2.00    4.30
   5  11   5    0.40    4.70
  -6 -11  -5   45.30    5.60
   6 -11   5   50.69    5.20
  -6 -11  -5   34.00    6.50
  -6  11  -5   44.30    5.00
   6  11   5   57.59    5.50
  -6  11  -5   51.19    5.90
   6  11   5   58.79    8.00
   6  11   5   53.19    6.90
  -7 -11  -5   -0.50    3.00
  -7 -11  -5    3.80    3.30
   7 -11   5    8.40    2.40
  -7 -11  -5    4.10    2.60
   7  11   5    4.40    3.30
  -7  11  -5    2.20    2.50
   7  11   5    3.70    3.70
   7  11   5    3.80    2.50
  -7  11  -5    4.50    2.20
   8 -11   5   51.29    4.30
  -8 -11  -5   39.80    5.00
  -8 -11  -5   30.90    5.10
  -8 -11  -5   34.40    5.10
  -8  11  -5   35.40    3.70
   8  11   5   47.10    5.70
   8  11   5   39.30    5.10
  -8 -12   5   24.60    3.30
   8  12  -5   26.00    4.10
   8  12  -5   22.50    4.20
   8  12  -5   22.10    4.30
  -7 -12   5    2.90    1.90
   7  12  -5    6.90    3.40
   7  12  -5    1.10    3.40
   7  12  -5   -0.60    4.00
   7  12  -5    3.00    4.20
  -6 -12   5   28.60    4.00
  -6 -12   5   22.40    3.80
   6  12  -5   37.90    6.80
   6  12  -5   33.20    5.00
   6  12  -5   32.50    5.30
   6  12  -5   36.70    6.80
  -6  12   5   30.00    3.60
  -5 -12   5   22.70    3.80
  -5 -12   5   15.30    3.00
   5  12  -5   34.10    5.70
   5  12  -5   16.50    4.40
   5  12  -5   15.90    4.20
  -5  12   5   19.60    3.30
   5  12  -5    8.00    4.30
  -4 -12   5    9.90    2.30
  -4 -12   5    8.30    3.00
   4  12  -5    8.80    3.90
   4  12  -5   11.00    4.20
  -4  12   5    9.10    2.20
   4  12  -5    8.80    4.20
   4  12  -5   14.00    5.20
  -3 -12   5    8.70    3.20
  -3 -12   5   18.80    2.60
   3  12  -5   11.50    3.90
   3  12  -5   18.80    5.30
   3  12  -5   13.00    4.30
   3  12  -5   15.10    4.70
  -3  12   5   21.80    3.50
  -2 -12   5   20.30    3.80
   2  12  -5   21.80    4.80
   2  12  -5   26.20    4.90
  -2  12   5   23.20    4.70
  -2  12   5   17.40    3.70
   2  12  -5   17.30    5.30
  -1 -12   5   30.90    4.20
   1  12  -5   26.90    4.50
  -1  12   5   34.30    5.10
   1  12  -5   34.00    5.60
  -1  12   5   37.60    7.00
  -1  12   5   31.60    4.20
   1  12  -5   40.00    7.30
   1  12  -5   33.30    5.20
   0 -12   5   25.40    3.90
   0  12  -5   33.30    4.90
   0  12  -5   32.40    6.50
   0  12   5   28.00    4.00
   0  12   5   40.80    5.30
   0  12  -5   21.70    3.90
   0  12  -5   27.10    4.90
   0  12   5   24.70    4.80
   0  12   5   28.80    5.80
   1 -12   5    5.20    2.00
   1  12   5   10.70    3.80
   1  12   5    3.70    2.30
  -1  12  -5    7.50    3.60
   1  12   5    4.10    4.10
  -1  12  -5    5.80    3.30
   1  12   5    2.40    4.20
  -2 -12  -5   59.89    5.00
   2 -12   5   58.69    5.20
   2  12   5   67.79    5.60
   2  12   5   67.69    8.50
   2  12   5   47.00    8.50
  -2  12  -5   60.69    6.90
  -2  12  -5   55.59    6.90
   2  12   5   50.99    7.40
  -2  12  -5   53.49    6.20
   3 -12   5    7.10    2.20
  -3 -12  -5    5.90    2.20
  -3  12  -5    4.70    3.00
   3  12   5    9.40    4.60
   3  12   5    4.40    2.50
   3  12   5    2.60    3.90
   3  12   5    5.90    3.60
  -3  12  -5    9.00    3.30
  -3  12  -5    8.50    3.60
  -4 -12  -5   24.80    4.80
  -4 -12  -5   17.80    2.80
   4 -12   5   23.30    3.70
  -4  12  -5   18.50    3.60
   4  12   5   20.70    4.50
   4  12   5   24.30    5.10
   4  12   5   31.00    5.90
   4  12   5   14.80    3.30
  -4  12  -5   15.30    3.20
  -5 -12  -5    5.70    2.40
   5 -12   5    7.10    2.20
  -5 -12  -5    1.90    3.00
  -5  12  -5    1.60    2.30
   5  12   5   13.90    3.70
  -5  12  -5    4.60    2.90
   5  12   5    9.80    4.10
  -6 -12  -5    9.00    2.80
   6 -12   5    2.80    1.90
  -6 -12  -5    2.00    2.30
   6  12   5    4.10    3.10
  -6  12  -5    4.50    2.60
  -6  12  -5    6.40    2.20
   6  12   5    2.10    3.30
  -7 -12  -5   26.20    4.10
   7 -12   5   32.80    3.40
  -7 -12  -5   22.70    4.20
   7  12   5   27.70    4.70
  -7  12  -5   24.70    3.10
   7  12   5   32.90    5.90
  -7 -13   5    2.30    1.70
  -6 -13   5   23.80    3.10
   6  13  -5   21.80    4.30
   6  13  -5   17.30    3.90
   6  13  -5   28.60    4.00
  -5 -13   5    1.40    1.60
   5  13  -5    1.80    3.00
   5  13  -5    4.80    4.00
   5  13  -5    3.40    3.70
  -4 -13   5   21.90    3.90
  -4 -13   5   24.20    3.30
   4  13  -5   18.80    3.80
   4  13  -5   28.10    5.00
   4  13  -5   17.50    4.10
  -3 -13   5    7.80    2.50
  -3 -13   5   13.40    2.20
   3  13  -5   14.10    4.10
   3  13  -5    8.60    4.60
   3  13  -5    9.40    3.90
  -2 -13   5    9.70    2.70
  -2 -13   5   14.20    2.20
   2  13  -5   21.50    4.80
   2  13  -5   14.00    4.00
   2  13  -5   13.30    4.00
  -1 -13   5    6.20    1.90
   1  13  -5    6.60    4.10
   1  13  -5    5.40    3.60
  -1  13   5    4.60    2.50
  -1  13   5   15.00    5.80
   1  13  -5   12.60    4.00
   0 -13   5   10.00    2.00
   0  13  -5   11.80    3.80
   0  13  -5    9.10    3.00
   0  13   5    7.10    2.80
   0  13   5   15.50    3.70
   0  13  -5   10.50    3.80
   1 -13   5    9.50    2.00
   1  13   5    9.20    3.00
   1  13   5   10.10    3.70
  -1  13  -5    9.80    3.30
  -1  13  -5    7.50    3.50
  -1  13  -5    7.10    2.80
  -2 -13  -5    9.40    2.10
   2 -13   5    8.40    2.00
   2  13   5   11.80    3.60
   2  13   5   11.50    3.90
  -2  13  -5   10.10    2.90
  -2  13  -5   13.10    3.30
  -2  13  -5   11.60    3.20
   3 -13   5    1.80    1.60
  -3 -13  -5   -0.80    1.80
  -3  13  -5   -2.60    2.90
   3  13   5    2.20    3.00
   3  13   5    5.80    3.50
  -3  13  -5    0.30    2.50
  -4 -13  -5    1.80    1.90
   4 -13   5   -0.20    1.40
  -4  13  -5    1.20    2.60
   4  13   5    0.50    2.60
  -4  13  -5    0.50    2.10
   4  13   5    1.40    3.10
   5 -13   5    1.60    2.50
  -5 -13  -5    1.20    2.60
  -5 -13  -5   -0.30    1.90
  -5  13  -5    4.70    1.90
   5  13   5    3.60    2.50
   5  13   5    3.60    3.20
  -3 -14   5   12.50    2.40
   3  14  -5   13.30    3.10
   3  14  -5    9.00    3.30
  -2 -14   5    4.60    1.50
   2  14  -5   10.10    3.20
   2  14  -5    8.10    3.00
  -1 -14   5    8.10    1.60
   1  14  -5    5.90    3.00
   1  14  -5    2.20    2.90
   0 -14   5    1.80    1.30
   0  14  -5    5.70    2.90
  -1  14  -5    1.80    2.90
 -15   0   6    4.80    1.70
  14   0  -6   42.40    7.30
 -14   0   6   39.80    4.50
  13   0  -6    6.50    4.90
 -13   0   6   -1.70    2.30
 -12   0   6    2.30    2.50
 -12   0   6    0.30    4.70
  12   0  -6    3.60    5.50
  11   0  -6   -0.20    4.00
  11   0  -6    3.20    5.20
 -11   0   6    6.50    5.00
 -11   0   6   -1.40    2.60
 -10   0   6   89.89   10.50
 -10   0   6   88.79    9.30
  10   0  -6   76.59    8.80
  10   0  -6   83.69    7.90
 -10   0   6   90.39    7.20
  10   0  -6   88.79    9.70
   9   0  -6    0.90    4.20
  -9   0   6   -0.70    3.90
   9   0  -6   -0.10    2.60
  -9   0   6   -2.00    2.40
  -9   0   6    0.70    4.30
   9   0  -6    1.50    3.40
  -8   0   6   92.39    6.80
   8   0  -6  106.89    8.50
   8   0  -6   89.59    7.60
  -8   0   6  104.29    8.80
  -8   0   6   80.69    9.20
   7   0  -6    1.60    2.50
  -7   0   6    1.50    3.00
   7   0  -6    3.10    2.20
  -7   0   6   -5.20    1.40
  -7   0   6   -0.40    1.10
  -7   0   6   -0.80    3.30
  -6   0   6   14.80    3.40
   6   0  -6   15.00    2.50
  -6   0   6   10.90    1.80
  -6   0   6   16.40    3.80
   6   0  -6   16.80    3.00
  -6   0   6   11.10    1.80
  -5   0   6    0.60    1.10
  -5   0   6    0.90    2.10
   5   0  -6    0.70    2.00
  -5   0   6    1.20    0.90
  -5   0   6   -0.30    2.40
  -4   0   6  165.18   11.50
  -4   0   6  171.68   10.40
   4   0  -6  165.38   10.90
  -4   0   6  180.28   11.30
  -3   0   6    1.40    1.80
  -3   0   6    3.90    1.70
   3   0  -6    1.30    1.40
  -2   0   6   41.30    3.80
  -2   0   6   40.20    3.60
  -1   0   6    1.00    1.30
  -1   0   6    0.10    1.00
   0   0   6 1429.96   81.89
   0   0   6 1403.96   81.79
   1   0   6   -0.90    0.80
   1   0   6   -1.70    0.90
   2   0   6  233.18   15.30
  -2   0  -6  283.57   15.40
  -2   0  -6  256.77   16.20
  -3   0  -6    2.20    2.40
  -3   0  -6   -2.10    2.00
  -3   0  -6    0.30    1.20
  -3   0  -6    1.90    1.50
   3   0   6   -1.60    1.50
  -3   0  -6    0.80    1.60
  -4   0  -6 1013.60   59.59
  -4   0  -6 1054.59   58.49
   4   0   6  947.11   59.09
  -4   0  -6 1027.50   59.39
  -4   0  -6 1067.49   58.59
  -4   0  -6  966.20   58.59
   5   0   6   -1.10    2.30
  -5   0  -6   -0.20    1.50
   5   0   6    0.50    1.40
  -5   0  -6   -1.70    3.10
  -5   0  -6   -1.10    1.70
  -5   0  -6    0.10    2.60
  -5   0  -6   -0.30    1.70
  -6   0  -6   27.40    4.90
  -6   0  -6   24.70    4.30
  -6   0  -6   37.30    4.10
   6   0   6   27.10    5.10
  -6   0  -6   35.90    5.80
  -7   0  -6   -1.40    3.80
   7   0   6   -0.60    3.50
  -7   0  -6   -0.60    2.00
  -7   0  -6   -4.70    7.00
  -7   0  -6    1.90    2.10
   8   0   6  143.79   10.70
  -8   0  -6  113.69    8.40
  -8   0  -6  101.59    8.10
  -9   0  -6    1.80    2.40
   9   0   6   -0.40    4.40
  -9   0  -6    0.40    2.10
 -10   0  -6   23.20    3.50
 -10   0  -6   20.10    3.00
  10   0   6   36.60    6.50
 -11   0  -6    1.90    2.30
  11   0   6   -1.20    4.60
 -12   0  -6   35.90    4.50
  12   0   6   40.10    6.70
 -13   0  -6    0.40    1.70
  13   0   6    0.40    3.00
 -15  -1   6    1.10    2.60
 -15   1   6    0.80    1.60
  14  -1  -6    1.40    4.40
 -14  -1   6   -3.30    2.20
  14   1  -6    2.80    3.70
 -14   1   6    0.70    1.90
  13  -1  -6   13.60    5.70
 -13  -1   6   10.30    2.90
  13   1  -6   14.40    5.00
 -13   1   6    8.30    2.70
 -12  -1   6   18.30    3.60
  12  -1  -6   19.40    5.90
 -12  -1   6   15.70    5.40
  12   1  -6   18.30    5.00
 -12   1   6    5.30    4.80
 -12   1   6   20.00    3.30
  12   1  -6   25.90    5.80
 -11  -1   6   24.80    6.20
  11  -1  -6   32.10    7.00
 -11  -1   6   28.90    4.00
  11   1  -6   25.80    5.90
 -11   1   6   25.70    6.10
 -11   1   6   30.20    5.00
  11   1  -6   31.40    5.30
 -10  -1   6  316.47   24.90
  10  -1  -6  393.16   23.10
 -10  -1   6  350.86   24.30
  10  -1  -6  336.37   22.60
  10  -1  -6  366.06   24.10
 -10  -1   6  356.16   21.90
  10   1  -6  362.06   23.60
  10   1  -6  413.16   23.60
 -10   1   6  364.06   25.20
 -10   1   6  368.46   22.00
 -10   1   6  350.06   24.10
   9  -1  -6  183.08   13.00
   9  -1  -6  211.88   13.60
  -9  -1   6  191.48   15.50
  -9  -1   6  207.48   12.30
  -9  -1   6  199.68   14.70
   9   1  -6  176.78   13.70
  -9   1   6  197.88   12.20
   9   1  -6  165.18   12.60
   9   1  -6  202.98   13.70
  -9   1   6  189.98   14.40
  -9   1   6  186.88   15.10
  -8  -1   6  147.89   11.40
   8  -1  -6  132.29   10.00
  -8  -1   6  124.49   11.50
   8  -1  -6  150.18   10.30
  -8  -1   6  146.09    9.10
   8   1  -6  154.58   10.80
  -8   1   6  155.58   11.90
  -8   1   6  145.59    9.10
   8   1  -6  116.79    9.60
   8   1  -6  126.09   10.50
  -8   1   6  129.29   11.00
  -8   1   6  135.89    8.90
   7  -1  -6    1.50    2.20
  -7  -1   6    0.60    1.70
  -7  -1   6   -0.70    3.10
   7  -1  -6   -1.00    2.40
  -7  -1   6   -0.20    3.50
   7   1  -6    0.40    2.10
  -7   1   6   -2.80    2.80
   7   1  -6    1.40    1.80
  -7   1   6   -0.60    1.20
  -7   1   6   -0.50    2.90
   7   1  -6   -1.20    2.60
  -7   1   6   -1.40    1.50
   6  -1  -6  367.26   21.30
  -6  -1   6  375.56   20.60
  -6  -1   6  358.66   22.40
  -6  -1   6  359.86   22.10
   6   1  -6  302.77   20.90
  -6   1   6  334.27   20.60
  -6   1   6  359.26   20.50
   6   1  -6  325.67   20.70
  -6   1   6  365.86   22.10
  -6   1   6  336.77   22.30
   6   1  -6  363.86   21.40
   5  -1  -6  303.87   18.30
  -5  -1   6  309.87   19.30
  -5  -1   6  292.87   18.80
  -5   1   6  308.07   17.60
  -5   1   6  305.57   19.20
   5   1  -6  302.57   18.40
  -5   1   6  292.47   17.80
   5   1  -6  268.27   18.10
  -5   1   6  322.47   19.00
   5   1  -6  305.07   17.90
   4  -1  -6   72.39    5.40
  -4  -1   6   85.99    5.10
  -4  -1   6   79.79    6.30
   4  -1  -6   85.29    6.00
  -4  -1   6   84.79    6.70
  -4   1   6   82.39    6.30
  -4   1   6   80.99    6.50
   4   1  -6   70.79    5.90
   4   1  -6   70.59    5.40
  -3  -1   6    2.30    1.60
  -3  -1   6    1.20    1.80
  -3   1   6    2.50    1.90
  -3   1   6    1.70    1.60
   3   1  -6    0.80    1.60
  -2  -1   6   45.50    4.00
  -2  -1   6   48.80    4.00
  -2   1   6   49.80    4.00
  -2   1   6   43.80    4.20
  -1  -1   6  212.58   13.20
  -1  -1   6  207.58   13.00
  -1   1   6  227.88   13.50
  -1   1   6  215.88   13.20
   0  -1   6  739.73   43.60
   0  -1   6  743.33   43.70
   0   1   6  743.63   43.80
   0   1   6  783.32   44.00
   1  -1   6   64.89    3.90
   1  -1   6   59.49    4.00
   1   1   6   54.39    4.50
  -1   1  -6   53.99    4.10
   1   1   6   49.90    4.20
  -2  -1  -6  171.88    9.50
  -2  -1  -6  157.48    9.20
   2   1   6  140.39    9.50
   2   1   6  140.39    9.80
  -2   1  -6  146.99    9.80
   2   1   6  144.29    9.90
  -2   1  -6  147.99    9.20
  -2   1  -6  157.38    9.40
  -3  -1  -6  198.08   12.60
  -3  -1  -6  199.78   12.60
   3  -1   6  195.98   12.70
  -3  -1  -6  231.98   13.00
  -3  -1  -6  233.28   14.40
   3   1   6  197.48   13.20
  -3   1  -6  210.28   13.20
   3   1   6  203.08   13.20
  -3   1  -6  226.78   12.80
  -3   1  -6  214.88   13.40
  -3   1  -6  220.08   12.70
  -3   1  -6  215.68   12.80
  -4  -1  -6  121.69    7.70
  -4  -1  -6  120.19    8.10
  -4  -1  -6  133.39    7.70
   4  -1   6  104.89    8.10
  -4  -1  -6  112.39    9.90
  -4  -1  -6  116.39    9.40
   4  -1   6  116.69    7.70
  -4   1  -6  109.79    8.60
  -4   1  -6  109.09    8.50
  -4   1  -6  126.59    7.90
  -4   1  -6  108.99    7.70
  -4   1  -6  128.59    7.70
   4   1   6  119.79    8.50
  -5  -1  -6  192.68   15.50
  -5  -1  -6  223.48   13.60
  -5  -1  -6  238.78   13.40
   5  -1   6  226.28   14.10
  -5  -1  -6  216.28   15.10
  -5  -1  -6  208.28   13.20
   5  -1   6  220.88   13.40
   5   1   6  218.98   14.10
  -5   1  -6  217.28   14.50
  -5   1  -6  195.48   13.30
  -5   1  -6  236.98   13.50
  -5   1  -6  203.68   14.40
  -5   1  -6  218.58   13.90
  -6  -1  -6  264.17   16.40
  -6  -1  -6  262.37   18.10
   6  -1   6  262.97   17.20
  -6  -1  -6  254.77   16.20
  -6  -1  -6  258.07   16.20
   6  -1   6  284.47   16.30
  -6  -1  -6  257.97   18.70
  -6   1  -6  279.37   16.30
  -6   1  -6  274.77   16.30
   6   1   6  268.57   17.30
   7  -1   6   30.20    6.00
  -7  -1  -6   25.30    4.50
  -7  -1  -6   31.20    4.90
  -7  -1  -6   26.30    6.90
   7  -1   6   30.20    4.00
  -7  -1  -6   33.40    5.90
  -7   1  -6   29.00    4.10
   7   1   6   28.90    6.00
  -7   1  -6   29.50    4.20
   8  -1   6   32.90    6.60
  -8  -1  -6   22.00    5.80
  -8  -1  -6   17.10    3.10
  -8  -1  -6   38.80    5.00
   8  -1   6   31.40    6.20
  -8   1  -6   23.60    4.10
   8   1   6   39.60    6.00
  -8   1  -6   26.70    4.60
   9  -1   6    6.60    4.70
  -9  -1  -6    3.40    2.80
  -9  -1  -6   -3.30    2.10
  -9   1  -6    2.20    2.10
  -9   1  -6    3.50    2.60
   9   1   6    5.70    4.60
 -10  -1  -6   -0.80    2.20
  10  -1   6   -1.10    4.80
 -10  -1  -6    0.50    2.60
 -10   1  -6    1.30    2.60
  10   1   6   -0.40    4.90
  11  -1   6    5.00    4.40
 -11  -1  -6    5.40    2.60
  11   1   6    4.60    5.10
 -11   1  -6    8.60    2.80
  12  -1   6    1.10    3.70
 -12  -1  -6    4.50    2.30
 -12   1  -6    4.40    2.40
  12   1   6    2.40    4.00
  13  -1   6    0.80    3.00
 -13  -1  -6   -0.60    1.80
 -13   1  -6   -0.50    1.60
  13   1   6    2.80    2.80
 -15   2   6    1.50    1.90
  14  -2  -6   51.79    7.80
 -14  -2   6   37.20    4.50
  14   2  -6   26.30    6.90
 -14   2   6   41.60    4.30
 -13  -2   6    1.00    2.40
  13  -2  -6    1.60    5.40
  13   2  -6    4.20    4.10
 -13   2   6    2.60    2.20
 -12  -2   6   70.79    9.50
  12  -2  -6   61.59    7.50
  12  -2  -6   72.89   10.40
 -12  -2   6   71.99    6.60
 -12   2   6   52.99    8.70
  12   2  -6   79.09    9.10
  12   2  -6   59.39    8.40
 -12   2   6   60.89    6.20
  11  -2  -6   32.10    6.80
 -11  -2   6   32.20    7.00
  11  -2  -6   30.50    4.80
 -11  -2   6   31.40    5.50
  11   2  -6   40.30    5.80
  11   2  -6   21.20    5.50
 -11   2   6   30.60    6.20
 -11   2   6   33.10    5.00
  10  -2  -6   24.40    6.20
 -10  -2   6   11.80    3.00
  10  -2  -6   24.20    4.60
 -10  -2   6   10.40    5.70
  10  -2  -6   18.90    4.00
 -10  -2   6   12.70    6.40
 -10   2   6   14.50    2.80
 -10   2   6   25.10    6.40
  10   2  -6   15.60    5.00
  10   2  -6   22.70    4.90
 -10   2   6   21.50    5.30
  -9  -2   6  199.48   15.90
   9  -2  -6  192.48   13.70
   9  -2  -6  212.08   13.70
  -9  -2   6  201.98   15.10
  -9  -2   6  203.18   12.70
   9   2  -6  185.48   14.00
  -9   2   6  198.98   12.60
  -9   2   6  194.98   15.50
  -9   2   6  193.08   12.60
   9   2  -6  208.68   14.60
  -9   2   6  201.58   14.70
  -8  -2   6    2.20    3.80
  -8  -2   6    2.90    2.10
   8  -2  -6    3.80    2.70
   8  -2  -6   -2.00    2.70
  -8  -2   6   -1.40    3.60
  -8   2   6   -0.50    3.40
   8   2  -6   -1.10    2.60
  -8   2   6    5.20    4.00
   8   2  -6    0.50    3.10
   8   2  -6    2.00    3.30
  -8   2   6    0.00    1.60
  -8   2   6    0.70    2.00
   7  -2  -6   35.50    5.20
   7  -2  -6   34.40    5.20
  -7  -2   6   33.10    4.00
  -7  -2   6   29.10    5.00
  -7  -2   6   26.70    5.10
   7   2  -6   30.70    4.10
  -7   2   6   29.30    5.20
   7   2  -6   29.90    5.60
  -7   2   6   32.90    3.30
  -7   2   6   37.20    3.50
   7   2  -6   27.00    5.00
  -7   2   6   34.30    5.20
  -6  -2   6  193.98   13.20
  -6  -2   6  194.08   13.70
  -6  -2   6  199.68   11.70
   6  -2  -6  168.98   12.00
   6  -2  -6  201.68   12.40
   6   2  -6  193.78   12.80
  -6   2   6  205.18   11.90
  -6   2   6  201.38   13.60
  -6   2   6  197.88   13.20
   6   2  -6  184.58   12.00
   6   2  -6  165.88   12.50
  -6   2   6  203.08   11.70
  -5  -2   6  806.02   44.80
   5  -2  -6  779.42   45.60
  -5  -2   6  763.02   46.50
  -5  -2   6  812.32   45.00
   5  -2  -6  699.43   45.10
  -5  -2   6  716.93   46.10
   5   2  -6  790.12   45.30
  -5   2   6  769.02   44.90
   5   2  -6  807.42   45.70
  -5   2   6  756.22   45.20
  -5   2   6  814.92   46.20
  -5   2   6  821.12   46.60
  -4  -2   6  941.71   54.29
  -4  -2   6  939.71   53.99
   4  -2  -6  845.42   53.09
  -4  -2   6 1001.60   53.09
  -4  -2   6  967.70   52.89
  -4   2   6  899.31   53.19
  -4   2   6  913.71   54.29
   4   2  -6  861.11   53.19
  -4   2   6  950.00   53.99
   4   2  -6  875.01   53.59
  -3  -2   6   51.59    3.40
  -3  -2   6   45.40    4.30
  -3  -2   6   47.10    4.50
  -3   2   6   48.10    4.20
   3   2  -6   43.50    3.80
  -3   2   6   47.20    4.60
   3   2  -6   46.50    4.30
  -3   2   6   44.20    3.90
  -3   2   6   43.60    3.50
  -2  -2   6   18.30    2.60
  -2  -2   6   13.80    2.10
  -2   2   6   13.90    2.50
  -2   2   6   15.70    2.60
  -2   2   6   18.90    2.40
   2   2  -6   14.70    2.50
  -1  -2   6  236.98   14.50
  -1  -2   6  240.18   14.60
  -1   2   6  243.38   14.90
  -1   2   6  237.88   15.10
   1   2  -6  254.87   15.30
   0  -2   6  363.86   21.40
   0   2   6  346.87   21.80
   0   2  -6  377.56   21.50
   0   2   6  372.26   21.90
   0   2   6  369.16   22.10
  -1  -2  -6   13.20    2.10
  -1  -2  -6   14.20    2.60
   1  -2   6   10.50    2.00
   1   2   6    8.90    2.00
   1   2   6    8.30    1.80
   1   2   6    9.60    1.80
  -1   2  -6   10.60    1.40
  -1   2  -6   11.60    2.30
  -2  -2  -6  186.58   10.40
   2  -2   6  160.18   10.20
  -2  -2  -6  173.78   10.10
   2   2   6  168.28   10.50
   2   2   6  157.58   10.50
  -2   2  -6  169.18   10.30
   2   2   6  143.19   10.60
  -2   2  -6  168.68   10.10
   2   2   6  170.28   10.60
  -3  -2  -6   24.70    3.00
  -3  -2  -6   21.50    3.70
  -3  -2  -6   26.60    3.10
  -3  -2  -6   22.90    4.60
   3  -2   6   21.30    2.90
  -3   2  -6   21.30    2.70
  -3   2  -6   22.00    2.90
  -3   2  -6   18.80    2.70
   3   2   6   20.90    3.00
  -3   2  -6   18.00    3.00
   3   2   6   20.50    3.20
   3   2   6   25.20    2.80
   3   2   6   24.10    3.90
  -4  -2  -6   17.60    3.30
   4  -2   6   11.80    2.60
  -4  -2  -6   18.70    3.10
  -4  -2  -6   17.30    4.70
  -4  -2  -6    8.70    3.80
   4  -2   6   16.00    3.00
  -4  -2  -6   16.80    2.70
  -4   2  -6   17.30    2.80
  -4   2  -6   12.60    1.70
   4   2   6   13.70    2.90
  -4   2  -6   11.90    1.90
   4   2   6   10.60    2.10
  -4   2  -6   19.80    2.80
   4   2   6   16.90    2.70
   5  -2   6   44.90    4.30
  -5  -2  -6   52.19    8.10
  -5  -2  -6   51.19    4.90
   5  -2   6   41.90    4.90
  -5  -2  -6   44.50    4.40
  -5  -2  -6   42.20    7.20
  -5  -2  -6   37.60    4.30
  -5   2  -6   43.50    3.50
  -5   2  -6   44.50    4.10
   5   2   6   39.50    4.20
  -5   2  -6   47.90    4.20
   5   2   6   46.60    5.40
   5   2   6   41.50    5.10
  -6  -2  -6  106.29    7.40
  -6  -2  -6  100.09    7.70
  -6  -2  -6  101.19   11.20
  -6  -2  -6   75.79    9.90
   6  -2   6  103.89    7.30
  -6  -2  -6  108.19    7.50
   6  -2   6  103.79    8.20
  -6   2  -6  100.29    7.20
  -6   2  -6  106.29    7.30
   6   2   6   90.39    7.90
  -6   2  -6   99.89    6.70
   6   2   6  104.79    8.40
  -7  -2  -6   10.70    2.80
  -7  -2  -6   10.90    6.20
  -7  -2  -6    7.00    2.70
   7  -2   6   11.60    4.00
  -7  -2  -6    4.70    4.70
   7  -2   6   12.00    2.60
  -7  -2  -6    7.20    2.60
  -7   2  -6   10.90    2.20
  -7   2  -6   13.20    2.10
  -7   2  -6    8.00    2.30
   7   2   6    9.80    4.10
  -8  -2  -6    9.30    2.80
  -8  -2  -6    9.40    7.70
   8  -2   6    8.00    4.20
   8  -2   6   10.30    2.70
  -8  -2  -6    7.10    2.70
  -8  -2  -6   15.30    6.00
  -8   2  -6    6.30    2.20
  -8   2  -6   12.20    2.10
  -8   2  -6    8.90    2.70
   8   2   6    4.00    4.40
  -9  -2  -6   33.00    5.30
  -9  -2  -6   26.40    5.10
   9  -2   6   35.40    5.70
   9  -2   6   25.70    5.40
  -9  -2  -6   23.00    7.10
  -9   2  -6   27.20    4.20
   9   2   6   36.50    7.80
  -9   2  -6   34.80    5.00
  10  -2   6   71.09    8.50
 -10  -2  -6   47.30    6.00
 -10  -2  -6   57.69    5.80
  10   2   6   62.89    8.80
 -10   2  -6   67.59    6.00
 -11  -2  -6    7.10    2.50
 -11  -2  -6    7.10    2.60
  11  -2   6   10.70    4.40
  11   2   6    8.20    5.10
 -11   2  -6    6.00    2.50
 -12  -2  -6   45.00    5.30
  12  -2   6   62.99    6.90
  12   2   6   54.49    7.10
 -12   2  -6   51.29    5.00
 -13  -2  -6    0.10    1.70
  13   2   6   -0.40    2.90
  14  -3  -6    0.50    4.50
 -14  -3   6    5.50    2.20
 -14   3   6    3.30    2.00
 -13  -3   6    1.70    2.40
  13  -3  -6    8.60    5.40
  13  -3  -6    2.30    3.00
  13   3  -6   10.70    4.20
 -13   3   6    3.90    2.20
 -12  -3   6   87.19   11.50
  12  -3  -6  111.79   11.40
 -12  -3   6   95.19    8.00
  12  -3  -6  106.79    9.20
  12   3  -6   94.89    9.40
 -12   3   6  102.29   10.30
  12   3  -6   95.49   10.10
 -12   3   6   95.79    7.50
 -11  -3   6   63.09    9.50
 -11  -3   6   44.40    6.20
 -11   3   6   55.99    8.10
 -11   3   6   45.90    5.40
  11   3  -6   51.29    8.70
  11   3  -6   46.80    7.60
 -10  -3   6   79.09   11.70
  10  -3  -6   82.39    8.50
 -10  -3   6   86.29   10.40
 -10  -3   6   80.79    7.00
 -10   3   6   87.59    9.20
 -10   3   6   88.29    6.70
 -10   3   6   76.89   10.80
  10   3  -6   73.39    8.60
  10   3  -6   80.29    9.60
  -9  -3   6   15.20    5.70
  -9  -3   6    4.40    4.70
   9  -3  -6    6.60    3.40
  -9  -3   6   -4.30    2.60
   9  -3  -6    6.90    3.30
   9   3  -6    7.10    4.50
  -9   3   6    4.80    2.30
  -9   3   6    3.70    2.30
   9   3  -6    3.70    3.90
  -9   3   6    4.30    4.60
  -9   3   6    5.70    3.90
   8  -3  -6  161.28   10.40
  -8  -3   6  143.89   11.60
  -8  -3   6  133.59   11.90
   8  -3  -6  137.79   10.40
  -8  -3   6  142.39    9.20
  -8  -3   6  127.49    8.60
  -8   3   6  140.89    9.10
   8   3  -6  137.29   11.10
  -8   3   6  143.19   11.10
  -8   3   6  129.29   11.80
   8   3  -6  124.69   10.40
  -8   3   6  131.79    9.20
   8   3  -6  146.39    9.80
  -7  -3   6   51.39    4.10
   7  -3  -6   59.29    5.90
  -7  -3   6   60.49    5.10
  -7  -3   6   60.59    7.10
  -7  -3   6   56.79    7.90
  -7   3   6   48.00    6.40
  -7   3   6   66.19    7.50
   7   3  -6   61.39    5.60
  -7   3   6   51.89    4.60
   7   3  -6   60.39    6.70
  -7   3   6   58.19    4.70
  -6  -3   6   88.89    5.60
   6  -3  -6   77.79    6.30
   6  -3  -6   90.99    7.00
  -6  -3   6   81.09    7.40
  -6  -3   6   79.89    7.90
  -6  -3   6   72.49    6.00
   6   3  -6   85.59    6.40
  -6   3   6   89.49    7.40
  -6   3   6   89.29    8.00
   6   3  -6   88.09    6.70
  -6   3   6   86.39    6.00
  -6   3   6   91.19    5.80
   6   3  -6   69.09    7.40
  -5  -3   6   24.90    2.60
  -5  -3   6   24.10    4.20
  -5  -3   6   25.50    4.40
  -5  -3   6   26.40    2.90
   5  -3  -6   30.80    3.20
  -5   3   6   25.80    2.60
  -5   3   6   24.30    2.70
  -5   3   6   21.40    4.00
   5   3  -6   23.70    3.00
   5   3  -6   27.50    4.80
  -5   3   6   27.70    4.10
   5   3  -6   29.00    3.80
  -4  -3   6 1540.55   84.29
  -4  -3   6 1469.25   85.39
  -4  -3   6 1499.55   84.39
  -4  -3   6 1461.95   85.59
   4  -3  -6 1380.96   84.39
   4   3  -6 1453.35   84.39
  -4   3   6 1551.44   84.79
  -4   3   6 1451.55   85.29
  -4   3   6 1481.45   84.69
   4   3  -6 1400.56   84.99
  -4   3   6 1488.15   85.69
   4   3  -6 1410.36   84.69
  -3  -3   6  382.26   24.80
  -3  -3   6  441.86   25.70
  -3  -3   6  440.96   25.90
  -3   3   6  433.36   26.00
  -3   3   6  457.55   25.80
  -3   3   6  436.66   25.20
   3   3  -6  419.96   25.00
  -3   3   6  434.16   25.30
   3   3  -6  414.16   25.20
  -2  -3   6  139.49    8.60
  -2  -3   6  145.79    9.40
  -2  -3   6  138.59    9.20
   2   3  -6  132.09    9.00
  -2   3   6  140.19    9.30
   2   3  -6  131.49    9.40
   2   3  -6  154.38    8.80
  -2   3   6  151.68    9.50
   2   3  -6  137.69    8.80
  -2   3   6  148.99    9.20
  -2   3   6  147.19    9.80
  -2   3   6  147.49    9.00
  -1  -3   6  186.58   11.80
  -1  -3   6  191.38   11.70
  -1  -3   6  189.68   11.90
   1   3  -6  181.68   12.00
   1   3  -6  210.78   11.70
  -1   3   6  203.48   12.80
  -1   3   6  209.98   12.50
   1   3  -6  191.28   11.90
  -1   3   6  201.98   12.10
  -1   3   6  193.38   12.40
  -1   3   6  205.68   12.20
   0  -3   6  381.96   23.10
   0   3  -6  368.46   23.40
   0   3   6  430.76   23.70
   0   3  -6  386.96   23.10
   0   3   6  410.06   24.10
   0   3   6  398.46   23.80
   0   3   6  398.16   23.50
   0   3  -6  413.06   23.00
   0   3  -6  399.66   23.20
   0   3   6  380.16   23.50
   1  -3   6  267.07   17.80
  -1  -3  -6  265.67   17.70
   1   3   6  310.97   18.50
   1   3   6  324.77   18.30
   1   3   6  305.57   18.70
  -1   3  -6  321.67   18.00
   1   3   6  298.77   18.20
  -1   3  -6  308.97   17.70
   1   3   6  333.57   18.40
  -1   3  -6  296.97   18.10
  -1   3  -6  306.27   17.80
  -2  -3  -6   49.50    3.70
  -2  -3  -6   44.00    3.50
   2  -3   6   41.30    3.70
   2   3   6   41.00    4.20
  -2   3  -6   46.10    3.40
   2   3   6   46.90    4.80
  -2   3  -6   50.99    3.90
  -2   3  -6   48.40    3.70
  -2   3  -6   41.90    4.00
   2   3   6   40.90    4.00
   2   3   6   44.40    4.20
  -3  -3  -6   60.69    7.90
  -3  -3  -6   62.09    4.40
   3  -3   6   46.20    4.40
  -3  -3  -6   61.69    4.60
  -3   3  -6   54.49    4.40
   3   3   6   51.99    5.10
   3   3   6   53.59    4.80
  -3   3  -6   54.99    4.50
   3   3   6   57.09    4.90
   3   3   6   55.09    5.40
  -3   3  -6   56.09    4.40
  -3   3  -6   57.99    4.00
  -4  -3  -6  443.26   28.00
  -4  -3  -6  437.66   27.40
  -4  -3  -6  448.06   25.20
   4  -3   6  408.86   25.30
  -4  -3  -6  406.66   25.50
  -4  -3  -6  467.75   25.30
   4   3   6  439.66   25.80
  -4   3  -6  430.86   25.30
  -4   3  -6  417.16   25.00
   4   3   6  429.56   25.60
  -4   3  -6  431.26   25.20
   4   3   6  392.36   25.90
  -5  -3  -6   26.70    3.90
  -5  -3  -6   18.60    6.20
  -5  -3  -6   20.80    4.10
  -5  -3  -6   31.40    6.20
   5  -3   6   25.40    4.20
   5  -3   6   25.40    3.90
  -5  -3  -6   23.40    4.50
   5   3   6   24.50    4.50
   5   3   6   21.20    3.70
  -5   3  -6   30.20    3.50
  -5   3  -6   30.30    3.10
   5   3   6   28.50    4.00
  -5   3  -6   24.80    3.60
  -6  -3  -6  317.27   24.00
   6  -3   6  355.56   20.60
  -6  -3  -6  332.67   23.30
  -6  -3  -6  321.37   20.60
   6  -3   6  367.46   21.30
  -6  -3  -6  311.97   20.20
  -6  -3  -6  326.57   20.50
  -6   3  -6  333.07   20.30
  -6   3  -6  359.76   20.00
   6   3   6  331.67   20.70
  -6   3  -6  353.86   20.30
   6   3   6  346.07   21.60
   6   3   6  333.27   21.00
  -7  -3  -6   11.10    3.10
  -7  -3  -6   12.50    2.90
   7  -3   6    6.90    2.60
  -7  -3  -6    8.00    6.80
  -7  -3  -6    6.10    3.00
  -7  -3  -6    1.90    5.50
  -7   3  -6    9.10    2.20
  -7   3  -6   14.30    2.60
   7   3   6   18.30    4.30
  -7   3  -6   10.60    2.20
   7   3   6   13.60    3.20
  -8  -3  -6   30.40    5.60
  -8  -3  -6   28.50    5.70
  -8  -3  -6   13.90    8.40
  -8  -3  -6   24.80    6.80
  -8  -3  -6   34.20    3.90
   8  -3   6   30.20    5.30
   8  -3   6   27.10    5.00
  -8   3  -6   35.10    4.90
  -8   3  -6   31.40    4.20
  -8   3  -6   30.90    4.00
   8   3   6   37.30    7.50
  -9  -3  -6   54.99    9.20
   9  -3   6   48.50    7.60
  -9  -3  -6   49.99    6.40
   9  -3   6   50.99    5.80
  -9  -3  -6   49.00    6.00
   9   3   6   48.10    8.20
  -9   3  -6   48.10    5.70
  -9   3  -6   53.19    4.90
 -10  -3  -6   -2.20    2.80
  10  -3   6   -0.60    4.40
 -10  -3  -6    0.30    2.50
  10   3   6    7.20    5.20
 -10   3  -6    1.30    2.50
  11  -3   6    6.50    4.40
 -11  -3  -6    6.40    2.70
 -11  -3  -6   10.00    2.60
  11   3   6    9.00    4.50
 -11   3  -6    4.40    2.60
  12  -3   6    2.20    3.30
 -12  -3  -6   -2.80    2.00
 -12   3  -6    0.70    2.00
  12   3   6    0.60    3.80
 -14  -4   6   28.50    3.90
  14  -4  -6   45.50    7.10
 -14   4   6   39.30    3.90
  13  -4  -6   34.50    6.60
  13  -4  -6   39.40    5.90
 -13  -4   6   29.90    4.80
 -13   4   6   29.20    4.20
  13   4  -6   46.10    6.70
 -12  -4   6   33.30    5.50
  12  -4  -6   46.90    7.50
  12  -4  -6   62.69    9.80
  12   4  -6   51.09    8.20
 -12   4   6   41.20    5.20
 -11  -4   6   12.00    6.00
  11  -4  -6   22.70    6.90
 -11  -4   6   16.30    3.50
  11  -4  -6   19.60    4.20
 -11   4   6   24.30    5.80
 -11   4   6   14.70    3.00
  11   4  -6   17.60    5.60
 -10  -4   6    4.50    5.80
 -10  -4   6   18.00    3.60
 -10  -4   6   21.70    7.80
  10  -4  -6   16.00    4.20
 -10   4   6   21.40    5.50
  10   4  -6   18.00    5.70
 -10   4   6    8.30    6.30
 -10   4   6   21.40    3.30
  -9  -4   6   52.29    8.30
  -9  -4   6   52.09    5.50
  -9  -4   6   59.49    6.10
   9  -4  -6   61.49    7.50
  -9  -4   6   57.99    9.00
  -9  -4   6   57.59    4.90
  -9   4   6   62.79    8.50
   9   4  -6   57.09    6.80
  -9   4   6   58.39    7.70
  -9   4   6   59.59    5.40
  -9   4   6   56.59    5.50
   9   4  -6   47.70    8.40
  -8  -4   6   -0.30    2.50
  -8  -4   6    0.50    4.40
  -8  -4   6   -0.10    4.60
  -8  -4   6    2.60    1.60
   8  -4  -6    1.60    2.90
   8  -4  -6    0.80    3.10
   8   4  -6    0.00    3.90
   8   4  -6    0.00    3.20
  -8   4   6    0.70    1.90
   8   4  -6    2.20    2.80
  -8   4   6    2.80    2.10
  -8   4   6    5.80    3.80
  -8   4   6   -0.20    4.10
  -7  -4   6  342.27   19.90
  -7  -4   6  322.07   22.40
  -7  -4   6  335.17   19.60
  -7  -4   6  325.17   21.90
   7  -4  -6  346.47   20.60
   7  -4  -6  302.97   20.20
   7   4  -6  337.67   21.40
   7   4  -6  317.07   20.50
  -7   4   6  339.27   19.90
  -7   4   6  337.07   20.20
   7   4  -6  306.37   20.20
  -7   4   6  373.76   22.50
  -7   4   6  363.06   21.70
  -6  -4   6  243.18   13.70
  -6  -4   6  218.18   16.10
  -6  -4   6  214.28   15.60
   6  -4  -6  209.48   14.00
   6  -4  -6  250.27   14.80
  -6  -4   6  227.78   13.90
   6   4  -6  226.78   15.30
   6   4  -6  228.18   14.60
  -6   4   6  231.78   14.10
  -6   4   6  245.18   16.00
   6   4  -6  217.28   14.20
  -6   4   6  224.68   13.80
  -6   4   6  244.38   15.40
   6   4  -6  221.98   14.00
  -5  -4   6   19.20    3.30
  -5  -4   6   20.40    4.10
  -5  -4   6   17.30    3.70
  -5  -4   6   24.90    2.80
   5  -4  -6   22.20    3.10
  -5   4   6   21.70    2.60
  -5   4   6   24.70    4.00
  -5   4   6   22.60    4.10
  -5   4   6   23.50    2.90
   5   4  -6   24.40    3.90
   5   4  -6   19.00    3.70
   5   4  -6   25.80    4.30
   5   4  -6   19.60    3.30
  -4  -4   6  465.05   25.80
   4  -4  -6  405.66   25.80
  -4  -4   6  449.86   27.30
  -4  -4   6  455.15   27.00
   4   4  -6  435.76   26.00
   4   4  -6  438.36   26.00
   4   4  -6  422.56   26.70
  -4   4   6  468.85   26.40
  -4   4   6  446.46   26.20
  -4   4   6  440.96   27.30
  -4   4   6  443.66   26.90
   4   4  -6  442.86   26.40
  -3  -4   6  119.39    7.60
  -3  -4   6  126.79    8.60
  -3  -4   6  118.69    8.80
   3   4  -6  114.89    7.90
  -3   4   6  132.59    8.30
  -3   4   6  128.69    8.80
   3   4  -6  124.69    8.00
  -3   4   6  127.89    8.00
  -3   4   6  129.89    9.10
   3   4  -6  114.09    8.80
   3   4  -6  110.19    8.30
   3   4  -6  135.99    8.00
  -2  -4   6  322.17   19.80
  -2  -4   6  335.97   19.20
  -2  -4   6  317.27   19.60
   2   4  -6  323.17   19.60
   2   4  -6  320.77   19.30
  -2   4   6  336.97   19.50
  -2   4   6  334.07   20.00
  -2   4   6  334.07   19.70
   2   4  -6  310.97   19.20
   2   4  -6  309.67   19.80
  -2   4   6  338.57   20.40
   2   4  -6  333.97   19.20
  -1  -4   6  363.16   22.90
  -1  -4   6  373.06   22.90
   1   4  -6  357.76   23.20
  -1   4   6  391.06   23.70
  -1   4   6  427.06   23.50
   1   4  -6  402.86   23.10
   1   4  -6  404.16   22.90
  -1   4   6  423.96   23.50
  -1   4   6  391.26   24.00
  -1   4   6  409.96   23.30
   1   4  -6  368.06   22.90
   0  -4   6  369.16   23.40
   0   4   6  406.66   23.90
   0   4   6  422.86   23.90
   0   4  -6  384.86   23.70
   0   4   6  375.56   23.70
   0   4   6  427.86   24.20
   0   4  -6  405.26   23.30
   0   4   6  428.36   24.60
   0   4  -6  410.36   23.50
   0   4  -6  381.46   23.40
   1  -4   6   10.20    1.70
  -1  -4  -6   13.80    2.00
   1   4   6   11.90    2.80
  -1   4  -6   11.50    2.10
  -1   4  -6   13.70    2.60
   1   4   6   11.40    2.20
   1   4   6   11.30    2.40
  -1   4  -6   12.40    2.10
   1   4   6    9.90    2.40
  -1   4  -6   13.70    2.00
   1   4   6   12.40    2.60
   1   4   6   13.90    2.90
  -2  -4  -6  215.98   14.40
   2  -4   6  223.08   14.50
  -2  -4  -6  255.77   14.30
  -2   4  -6  222.58   14.70
   2   4   6  242.58   15.30
   2   4   6  255.47   15.30
  -2   4  -6  256.77   14.30
   2   4   6  228.68   15.00
  -2   4  -6  254.27   14.60
   2   4   6  249.88   15.30
   2   4   6  259.07   15.10
  -2   4  -6  239.68   14.60
  -3  -4  -6   81.59    5.20
  -3  -4  -6   74.69    5.40
   3  -4   6   63.59    5.40
  -3  -4  -6   70.19    8.90
   3   4   6   70.79    6.00
   3   4   6   82.49    6.70
  -3   4  -6   71.89    5.40
   3   4   6   70.79    6.00
   3   4   6   74.29    6.10
  -3   4  -6   70.39    4.90
  -3   4  -6   56.99    5.40
  -3   4  -6   72.79    5.50
  -4  -4  -6   51.89    8.40
  -4  -4  -6   53.49    8.20
   4  -4   6   49.30    4.60
  -4  -4  -6   49.99    4.90
  -4  -4  -6   48.30    4.30
   4   4   6   46.20    5.30
  -4   4  -6   51.39    4.50
   4   4   6   47.70    5.90
   4   4   6   45.60    5.20
  -4   4  -6   37.60    4.50
  -4   4  -6   51.39    4.00
   5  -4   6  130.89    8.70
  -5  -4  -6  116.29   13.40
  -5  -4  -6  112.19    8.40
  -5  -4  -6  111.19   12.20
  -5  -4  -6  133.59    8.80
  -5   4  -6  126.39    8.40
   5   4   6  135.99    9.30
  -5   4  -6  130.99    8.10
   5   4   6  126.49    9.40
   5   4   6  123.89    9.60
  -5   4  -6  118.29    8.40
  -6  -4  -6   18.20    3.00
  -6  -4  -6   25.50    3.60
  -6  -4  -6   14.80    7.30
  -6  -4  -6   17.50    6.70
   6  -4   6   21.80    4.50
  -6  -4  -6   23.10    3.70
   6   4   6   18.60    3.90
  -6   4  -6   25.30    4.00
  -6   4  -6   20.20    3.40
  -6   4  -6   17.90    2.70
   6   4   6   19.40    4.40
   6   4   6   17.10    3.20
  -7  -4  -6    3.00    3.00
  -7  -4  -6   11.60    3.40
   7  -4   6    2.90    2.70
  -7  -4  -6   12.20    8.00
  -7  -4  -6    5.60    2.70
  -7  -4  -6   -0.30    6.20
   7  -4   6    2.00    3.40
   7   4   6    8.90    3.00
  -7   4  -6    7.30    2.50
   7   4   6    9.00    4.30
  -7   4  -6    6.20    2.20
  -7   4  -6    7.50    2.20
   7   4   6    8.40    3.40
   8  -4   6  106.39    8.70
  -8  -4  -6   82.69    8.30
  -8  -4  -6   77.59   11.90
  -8  -4  -6   70.59    7.90
  -8  -4  -6   66.49   12.20
  -8  -4  -6   90.79    8.20
   8  -4   6  108.69    7.90
  -8   4  -6   91.29    6.90
  -8   4  -6   87.79    6.60
  -8   4  -6   91.39    7.40
   8   4   6   96.79    8.70
   8   4   6  110.79    9.30
  -9  -4  -6    3.10    3.00
  -9  -4  -6    2.60    3.00
   9  -4   6    1.90    4.10
   9  -4   6    5.80    2.90
  -9  -4  -6    6.10    6.90
  -9   4  -6   -1.50    2.20
   9   4   6    1.80    4.50
  -9   4  -6    3.90    2.70
 -10  -4  -6   64.49    7.10
 -10  -4  -6   76.69    7.60
  10  -4   6   85.29    8.60
  10  -4   6   98.49    7.20
  10   4   6   88.19    9.60
 -10   4  -6   91.99    7.10
 -10   4  -6   83.69    6.30
 -11  -4  -6    0.20    2.20
  11  -4   6    2.70    3.70
 -11  -4  -6   -0.30    2.50
 -11   4  -6    3.70    2.40
  11   4   6   -0.40    4.60
 -12  -4  -6   28.60    4.50
 -12   4  -6   37.50    3.80
  12   4   6   46.20    6.00
  14  -5  -6    2.00    4.10
 -14   5   6   -0.80    1.60
 -13  -5   6    8.50    2.40
  13  -5  -6   15.90    3.30
  13  -5  -6   20.20    6.10
  13   5  -6   15.00    4.10
 -13   5   6    9.10    2.20
  12  -5  -6   95.19   10.90
 -12  -5   6   63.89    6.80
  12  -5  -6   82.59    8.30
  12   5  -6   75.09    8.90
 -12   5   6   72.99    6.30
  11  -5  -6    8.80    3.90
  11  -5  -6    3.20    6.40
 -11  -5   6    8.50    3.20
 -11  -5   6    2.40    5.50
 -11   5   6    4.40    2.40
  11   5  -6   14.10    5.80
 -11   5   6    6.50    5.10
 -10  -5   6   34.20    7.10
 -10  -5   6   27.50    3.50
  10  -5  -6   26.70    4.70
 -10  -5   6   25.40    3.90
 -10   5   6   19.50    3.20
  10   5  -6   23.10    6.00
 -10   5   6   36.70    6.40
  -9  -5   6   11.50    2.10
  -9  -5   6    4.50    5.50
  -9  -5   6   13.50    3.30
  -9  -5   6    9.10    6.30
   9  -5  -6   10.80    3.60
   9   5  -6   12.80    5.40
  -9   5   6   10.70    2.90
   9   5  -6    1.80    3.50
  -9   5   6    6.30    4.50
  -9   5   6    9.60    2.50
  -9   5   6   12.70    5.90
  -8  -5   6    5.90    4.80
  -8  -5   6    0.90    4.90
  -8  -5   6    5.10    3.00
  -8  -5   6    7.20    1.90
  -8   5   6    9.90    2.40
   8   5  -6    8.50    4.00
   8   5  -6    3.40    4.50
   8   5  -6   13.90    3.70
  -8   5   6    8.00    4.20
  -8   5   6    5.20    2.30
  -7  -5   6   62.59    7.60
   7  -5  -6   57.19    6.10
  -7  -5   6   58.09    8.40
  -7  -5   6   60.99    6.00
  -7  -5   6   64.49    5.10
   7  -5  -6   72.49    6.50
  -7   5   6   71.59    8.40
  -7   5   6   61.19    5.30
   7   5  -6   65.69    6.10
   7   5  -6   61.39    6.70
  -7   5   6   70.69    5.60
  -7   5   6   69.69    7.30
   7   5  -6   63.39    8.40
   7   5  -6   69.39    7.30
   6  -5  -6  101.29    6.80
  -6  -5   6   71.39    8.90
  -6  -5   6   92.29    6.30
   6  -5  -6   94.09    7.90
  -6  -5   6   69.89    8.30
  -6  -5   6   83.59    6.90
   6   5  -6   93.69    7.80
   6   5  -6   90.59    9.00
  -6   5   6   99.59    8.40
   6   5  -6   96.29    7.10
   6   5  -6   90.19    7.50
  -6   5   6  100.89    6.60
  -6   5   6  101.29    9.20
  -6   5   6   85.19    6.30
  -5  -5   6  680.03   39.00
  -5  -5   6  606.14   40.20
   5  -5  -6  617.64   38.90
  -5  -5   6  725.53   38.80
  -5  -5   6  656.03   40.80
   5   5  -6  699.43   39.20
   5   5  -6  656.63   39.60
  -5   5   6  669.53   39.40
   5   5  -6  676.03   39.10
  -5   5   6  665.33   38.90
  -5   5   6  696.63   40.30
   5   5  -6  679.03   40.10
  -5   5   6  677.53   40.80
  -5   5   6  652.03   39.30
  -4  -5   6    3.70    2.70
  -4  -5   6    4.30    2.90
  -4  -5   6    7.40    1.50
   4   5  -6    6.80    2.00
   4   5  -6    7.90    2.30
   4   5  -6    7.60    2.70
  -4   5   6    8.90    2.20
  -4   5   6    6.90    2.70
  -4   5   6    8.60    1.50
  -4   5   6   11.00    3.30
   4   5  -6    5.30    3.20
  -4   5   6    5.20    1.70
  -3  -5   6  851.81   51.79
  -3  -5   6  874.71   52.09
  -3  -5   6  900.01   50.99
  -3   5   6  883.61   51.99
   3   5  -6  918.41   51.09
  -3   5   6  893.31   52.39
  -3   5   6  861.31   51.29
  -3   5   6  857.61   51.39
   3   5  -6  916.61   51.09
  -3   5   6  916.31   51.49
   3   5  -6  858.81   51.49
   3   5  -6  886.71   51.19
   3   5  -6  837.82   51.79
  -2  -5   6  215.08   13.10
  -2  -5   6  191.18   12.70
  -2  -5   6  209.88   12.30
   2   5  -6  208.38   12.70
  -2   5   6  205.68   12.70
  -2   5   6  210.48   13.00
   2   5  -6  205.98   13.00
   2   5  -6  187.78   13.10
   2   5  -6  208.38   12.50
  -2   5   6  212.18   13.80
  -2   5   6  189.88   12.90
  -2   5   6  200.18   13.30
   2   5  -6  206.98   12.40
  -1  -5   6 1075.29   63.89
   1   5  -6 1111.69   64.29
  -1   5   6 1136.79   64.39
  -1   5   6 1092.09   64.29
  -1   5   6 1093.49   64.29
   1   5  -6 1174.08   63.99
   1   5  -6 1119.69   64.09
   1   5  -6 1160.88   63.89
  -1   5   6 1061.79   64.19
   1   5  -6 1035.30   64.29
  -1   5   6 1095.59   65.09
  -1   5   6 1124.29   64.79
   0  -5   6   15.00    2.60
   0   5   6   10.10    2.60
   0   5  -6   13.50    2.50
   0   5   6   15.00    2.70
   0   5   6   10.10    2.80
   0   5  -6   10.10    1.90
   0   5  -6   15.20    2.70
   0   5  -6   14.00    2.80
   0   5   6   13.10    2.50
   0   5   6    8.60    2.90
   0   5   6   10.00    2.20
   1  -5   6  128.49    9.10
  -1  -5  -6  145.49    8.70
   1   5   6  142.09    9.80
  -1   5  -6  141.89    9.60
   1   5   6  158.88   10.10
  -1   5  -6  150.08    9.00
   1   5   6  143.99   10.00
   1   5   6  143.49    9.60
  -1   5  -6  140.99    9.40
   1   5   6  155.58   10.60
  -1   5  -6  145.69    9.30
   1   5   6  146.89   10.00
  -2  -5  -6  169.18   10.90
  -2  -5  -6  186.18   10.70
   2  -5   6  162.18   11.00
  -2   5  -6  183.78   10.80
   2   5   6  179.38   11.90
   2   5   6  182.88   11.70
   2   5   6  171.08   11.50
   2   5   6  183.38   12.10
  -2   5  -6  183.48   11.10
  -2   5  -6  169.98   11.20
  -2   5  -6  163.88   11.20
   2   5   6  189.88   12.00
  -3  -5  -6  197.68   15.40
  -3  -5  -6  184.68   11.50
  -3  -5  -6  199.98   11.20
   3   5   6  187.18   12.20
   3   5   6  191.48   12.50
  -3   5  -6  179.08   11.10
  -3   5  -6  172.98   11.50
   3   5   6  187.08   12.30
  -3   5  -6  169.18   11.60
   3   5   6  176.18   12.50
  -3   5  -6  180.78   11.60
   3   5   6  175.98   12.10
  -4  -5  -6  324.17   21.50
  -4  -5  -6  297.17   18.20
  -4  -5  -6  273.87   21.80
  -4  -5  -6  319.17   18.00
   4  -5   6  286.87   18.20
  -4   5  -6  304.97   18.30
   4   5   6  276.57   19.10
   4   5   6  278.67   18.80
  -4   5  -6  307.27   17.80
   4   5   6  288.77   18.70
   4   5   6  326.87   19.10
  -4   5  -6  304.47   18.10
  -5  -5  -6   14.50    2.70
  -5  -5  -6   19.90    3.40
   5  -5   6   13.70    2.80
  -5  -5  -6   14.80    7.40
  -5  -5  -6   21.10    7.00
  -5   5  -6   15.00    2.70
  -5   5  -6   18.20    2.70
   5   5   6   15.80    4.10
   5   5   6   11.60    3.80
  -5   5  -6   18.00    3.40
   5   5   6   17.20    3.50
  -6  -5  -6  117.69    9.50
  -6  -5  -6   94.99   15.10
  -6  -5  -6   99.59   13.80
   6  -5   6  134.39    9.10
  -6  -5  -6  118.39    8.90
   6   5   6  135.89   10.40
   6   5   6  132.39    9.80
  -6   5  -6  128.59    8.80
  -6   5  -6  124.09    8.70
   6   5   6  118.99   10.20
  -6   5  -6  123.29    8.30
  -7  -5  -6  172.38   13.30
  -7  -5  -6  179.28   12.90
   7  -5   6  205.78   12.90
  -7  -5  -6  180.68   18.90
  -7  -5  -6  176.08   12.60
  -7  -5  -6  214.48   17.50
   7   5   6  172.98   13.60
   7   5   6  213.58   13.40
  -7   5  -6  184.98   12.00
  -7   5  -6  207.68   12.40
   7   5   6  198.48   14.10
  -7   5  -6  202.78   12.60
  -8  -5  -6   30.80    4.30
  -8  -5  -6   19.60    4.10
   8  -5   6   26.40    5.30
  -8  -5  -6   24.90    8.10
  -8  -5  -6   20.90    3.80
  -8   5  -6   31.70    5.30
   8   5   6   27.30    4.70
  -8   5  -6   16.60    3.20
   8   5   6   33.20    6.80
  -8   5  -6   21.50    4.00
   8   5   6   31.50    4.30
  -9  -5  -6  114.69    9.90
  -9  -5  -6  122.79   10.00
   9  -5   6  155.28   10.00
  -9  -5  -6  129.59   10.20
  -9  -5  -6  162.38   15.70
  -9   5  -6  140.29    9.00
  -9   5  -6  138.39    9.60
  10  -5   6   13.70    3.10
 -10  -5  -6    9.80    3.10
 -10  -5  -6   10.50    3.20
  10   5   6   17.70    5.40
 -10   5  -6   11.00    2.40
 -10   5  -6   13.30    2.90
 -11  -5  -6   30.80    4.80
 -11  -5  -6   32.40    4.60
  11   5   6   47.80    6.70
 -11   5  -6   41.50    4.30
 -11   5  -6   32.80    3.90
 -12  -5  -6    3.40    2.20
  12   5   6    3.20    3.00
  13  -6  -6   73.99    8.90
  13  -6  -6   81.39    7.00
 -13   6   6   73.69    5.70
  13   6  -6   66.09    7.30
  12  -6  -6   20.90    4.00
  12  -6  -6   18.60    6.30
 -12  -6   6    8.30    2.80
  12   6  -6   12.60    4.40
 -12   6   6   13.10    2.60
  11  -6  -6   26.70    4.50
 -11  -6   6   16.60    3.40
  11  -6  -6   21.50    6.50
  11   6  -6   24.80    5.50
 -11   6   6   17.70    3.00
 -10  -6   6   -1.20    2.40
 -10  -6   6    3.30    3.10
  10  -6  -6    1.00    3.40
 -10  -6   6    1.60    5.30
 -10  -6   6   -1.10    2.40
  10   6  -6   -1.10    3.60
 -10   6   6   -2.50    3.90
 -10   6   6   -0.30    2.40
  10   6  -6    4.30    5.40
   9  -6  -6  120.39   10.40
  -9  -6   6  115.69    9.50
  -9  -6   6  126.79   18.70
  -9  -6   6  119.89   12.50
  -9  -6   6  119.39    8.50
  -9   6   6  132.39   11.10
  -9   6   6  137.79    9.20
  -9   6   6  131.29    8.90
   9   6  -6  136.39   12.70
  -9   6   6  118.69   14.30
   9   6  -6  119.19   10.60
  -8  -6   6   -1.40    4.50
  -8  -6   6    4.20    5.60
  -8  -6   6   -0.10    3.10
  -8  -6   6   -0.70    1.90
   8   6  -6   -1.00    3.70
   8   6  -6    4.20    4.10
  -8   6   6    0.80    2.30
   8   6  -6    5.50    3.10
  -8   6   6   -0.80    3.60
   8   6  -6   -1.30    5.10
  -8   6   6    2.50    2.40
  -8   6   6    3.00    4.70
   7  -6  -6   77.99    7.00
  -7  -6   6   78.89    7.10
   7  -6  -6   82.19    7.40
  -7  -6   6   79.29    9.20
  -7  -6   6   78.09   10.10
  -7  -6   6   86.79    6.10
   7   6  -6   69.69    9.50
   7   6  -6   85.49    8.30
  -7   6   6   87.69    9.30
  -7   6   6   71.19    6.40
   7   6  -6   83.29    8.00
  -7   6   6   78.39    6.30
  -7   6   6  111.39    8.60
   7   6  -6   85.19    7.60
  -6  -6   6    2.20    2.50
   6  -6  -6    2.70    2.10
   6  -6  -6   10.30    3.20
  -6  -6   6    3.40    1.60
  -6  -6   6   -3.20    3.50
  -6  -6   6    1.50    4.10
  -6   6   6    5.40    4.00
   6   6  -6    4.50    3.70
   6   6  -6    2.60    3.20
   6   6  -6    0.40    2.50
  -6   6   6    2.70    1.80
  -6   6   6    1.50    1.90
   6   6  -6    4.20    4.10
  -6   6   6    6.30    3.40
  -5  -6   6   44.10    6.50
  -5  -6   6   45.10    7.30
  -5  -6   6   52.59    5.00
   5  -6  -6   50.39    4.60
  -5  -6   6   50.49    4.30
   5   6  -6   55.69    6.80
  -5   6   6   44.30    6.90
  -5   6   6   56.59    6.20
   5   6  -6   52.29    6.00
  -5   6   6   48.60    4.10
   5   6  -6   49.90    7.40
  -5   6   6   46.90    4.40
  -5   6   6   49.70    5.20
   5   6  -6   54.69    5.40
  -4  -6   6   38.70    6.20
  -4  -6   6   44.70    5.80
  -4  -6   6   46.70    4.00
   4   6  -6   43.40    6.60
   4   6  -6   47.60    4.90
  -4   6   6   48.80    6.00
  -4   6   6   46.70    4.70
   4   6  -6   36.40    5.10
  -4   6   6   45.70    4.30
   4   6  -6   44.00    6.30
  -4   6   6   48.00    5.50
  -3  -6   6    4.60    1.50
   3   6  -6    7.90    2.20
  -3   6   6    3.70    2.60
   3   6  -6    8.00    2.40
  -3   6   6    6.00    2.00
   3   6  -6    7.10    2.50
   3   6  -6    9.30    3.30
  -3   6   6    7.40    2.20
  -3   6   6    6.30    2.40
   3   6  -6    7.70    2.90
  -3   6   6    3.60    3.00
  -2  -6   6  318.77   19.70
  -2   6   6  339.27   21.30
   2   6  -6  345.07   20.10
   2   6  -6  312.77   20.60
  -2   6   6  332.87   20.10
   2   6  -6  337.77   20.00
   2   6  -6  342.17   19.90
   2   6  -6  312.87   20.40
  -2   6   6  334.57   20.90
  -2   6   6  361.76   20.50
  -1  -6   6   28.40    3.20
  -1   6   6   31.80    4.40
  -1   6   6   30.10    3.60
   1   6  -6   28.60    4.50
  -1   6   6   33.90    4.90
  -1   6   6   19.20    3.10
  -1   6   6   25.40    3.50
   1   6  -6   25.10    3.40
   1   6  -6   29.10    4.00
   1   6  -6   31.50    4.00
   1   6  -6   29.00    4.70
  -1   6   6   30.80    4.40
   0  -6   6   87.29    6.40
   0   6  -6   93.49    6.70
   0   6  -6   92.69    7.20
   0   6   6   90.29    7.70
   0   6   6   91.19    6.80
   0   6   6  102.89    7.30
   0   6  -6  106.19    6.60
   0   6   6   91.29    7.40
   0   6  -6   81.19    7.30
   0   6  -6   98.49    7.00
   0   6   6  105.09    8.10
   1  -6   6  250.37   16.60
  -1  -6  -6  288.87   16.30
  -1  -6  -6  288.07   16.60
  -1   6  -6  275.57   17.00
   1   6   6  289.57   17.60
  -1   6  -6  272.07   17.10
   1   6   6  281.47   17.70
  -1   6  -6  281.77   16.60
   1   6   6  289.17   17.70
   1   6   6  274.77   17.40
   1   6   6  270.37   17.10
  -1   6  -6  272.27   16.80
  -2  -6  -6   28.40    4.00
  -2  -6  -6   16.20    6.40
   2  -6   6   27.60    3.70
  -2  -6  -6   33.40    3.20
  -2   6  -6   33.80    4.20
   2   6   6   25.00    5.00
   2   6   6   31.10    6.30
   2   6   6   33.80    4.80
   2   6   6   33.30    4.30
  -2   6  -6   25.90    4.40
  -2   6  -6   32.10    3.60
  -2   6  -6   31.20    4.20
  -3  -6  -6  327.27   18.50
  -3  -6  -6  300.37   23.30
   3  -6   6  291.37   18.80
  -3  -6  -6  312.97   18.80
   3   6   6  326.17   19.60
  -3   6  -6  308.27   19.00
  -3   6  -6  324.27   18.90
  -3   6  -6  291.77   19.00
   3   6   6  311.87   19.40
   3   6   6  325.97   20.00
   3   6   6  287.17   19.70
  -3   6  -6  317.07   18.60
  -4  -6  -6   19.20    7.30
  -4  -6  -6   24.80    8.10
  -4  -6  -6   16.20    3.00
   4  -6   6   15.30    2.80
  -4  -6  -6   20.50    3.80
   4   6   6   15.40    3.60
   4   6   6   17.40    3.80
  -4   6  -6   21.10    3.00
  -4   6  -6   13.50    2.50
   4   6   6   14.70    4.20
  -4   6  -6   20.70    3.10
   4   6   6   12.10    4.30
   5  -6   6  159.58   11.40
  -5  -6  -6  172.88   11.70
  -5  -6  -6  161.18   16.60
  -5  -6  -6  152.08   17.60
  -5  -6  -6  171.88   11.20
  -5   6  -6  166.08   11.40
   5   6   6  185.18   12.40
   5   6   6  184.78   12.50
  -5   6  -6  164.58   10.80
   5   6   6  180.38   13.10
  -5   6  -6  170.08   11.50
  -6  -6  -6  132.29    9.90
   6  -6   6  150.08   10.10
  -6  -6  -6  115.19   17.10
  -6  -6  -6  130.69   10.80
  -6  -6  -6  126.29   15.70
  -6   6  -6  159.18   10.10
   6   6   6  142.69   12.00
  -6   6  -6  138.79    9.90
   6   6   6  149.79   11.30
   6   6   6  144.59   11.10
  -6   6  -6  142.19    9.40
  -7  -6  -6  139.39   10.30
  -7  -6  -6  139.99   11.30
  -7  -6  -6  135.49   11.00
  -7  -6  -6  153.88   18.50
   7  -6   6  158.68   10.50
  -7  -6  -6  117.09   15.80
   7   6   6  142.19   11.10
   7   6   6  137.39   11.90
  -7   6  -6  155.98   10.30
  -7   6  -6  143.39    9.90
   7   6   6  144.29   11.80
  -7   6  -6  144.79    9.60
  -8  -6  -6   12.70    7.60
   8  -6   6   15.90    3.50
  -8  -6  -6   20.00    4.20
  -8  -6  -6   20.90    3.80
  -8  -6  -6   12.80    3.90
   8   6   6   26.60    4.80
   8   6   6   28.00    5.70
  -8   6  -6   19.60    3.10
   8   6   6   17.00    3.70
  -8   6  -6   15.50    3.20
   9  -6   6    5.40    2.90
  -9  -6  -6    2.10    3.10
  -9  -6  -6    5.30    8.40
  -9  -6  -6    6.00    3.30
  -9  -6  -6    5.10    3.40
  -9   6  -6    6.20    2.90
   9   6   6    0.20    3.60
  -9   6  -6    3.70    2.30
   9   6   6    2.40    4.30
 -10  -6  -6    7.00    2.70
  10  -6   6    8.60    2.80
 -10  -6  -6   11.30    3.30
 -10   6  -6    7.50    2.50
 -10   6  -6    3.90    2.10
  10   6   6    7.20    4.00
  11  -6   6    0.00    2.10
 -11  -6  -6    0.40    2.50
 -11  -6  -6   -0.10    2.20
 -11   6  -6   -0.10    2.00
  11   6   6   -0.50    3.40
 -11   6  -6    1.60    1.80
  13  -7  -6   18.80    3.10
  13  -7  -6   19.10    4.50
 -13   7   6   20.40    3.80
  12  -7  -6   12.70    5.00
  12  -7  -6   18.80    3.70
 -12  -7   6   11.30    2.60
  12   7  -6   21.90    4.80
 -12   7   6   23.00    3.60
  11  -7  -6    8.40    5.40
 -11  -7   6    6.90    4.50
  11  -7  -6    9.10    3.70
 -11  -7   6   12.80    3.10
  11   7  -6   10.80    4.90
 -11   7   6   10.00    2.60
 -10  -7   6    0.10    3.10
  10  -7  -6    4.50    3.50
 -10  -7   6    3.40    2.70
 -10  -7   6    4.40    5.90
 -10  -7   6    2.70    2.20
 -10   7   6    8.20    6.40
 -10   7   6    4.80    2.60
  10   7  -6    8.70    3.90
  10   7  -6    6.30    5.50
  -9  -7   6   10.30    5.60
   9  -7  -6    6.70    3.50
  -9  -7   6    5.80    2.40
  -9  -7   6    1.80    3.40
  -9   7   6    6.10    2.80
  -9   7   6   -1.90    3.80
   9   7  -6   10.30    5.90
  -9   7   6    4.30    2.60
   9   7  -6    2.20    4.10
   9   7  -6    7.80    4.40
  -8  -7   6    4.10    5.30
  -8  -7   6    4.90    2.20
  -8  -7   6   -3.30    6.60
  -8  -7   6    3.00    3.20
   8   7  -6    2.20    4.20
   8   7  -6    1.30    5.30
  -8   7   6    2.20    2.40
  -8   7   6   -2.10    3.80
  -8   7   6    1.80    5.40
   8   7  -6    1.20    4.60
   8   7  -6    2.60    3.40
  -8   7   6    1.30    2.30
  -7  -7   6  282.37   18.00
  -7  -7   6  299.57   20.60
   7  -7  -6  255.97   17.90
  -7  -7   6  256.27   21.40
  -7  -7   6  309.97   17.60
   7   7  -6  297.07   19.30
   7   7  -6  279.57   18.70
   7   7  -6  296.07   18.60
  -7   7   6  321.77   21.10
  -7   7   6  304.97   19.80
   7   7  -6  297.17   20.30
  -7   7   6  290.87   18.10
  -7   7   6  293.07   17.70
  -6  -7   6    7.50    2.00
   6  -7  -6   13.20    2.60
  -6  -7   6    7.90    4.60
  -6  -7   6    1.10    4.80
  -6  -7   6    8.70    3.20
  -6   7   6   10.50    4.80
   6   7  -6   13.00    4.10
   6   7  -6   11.10    4.30
   6   7  -6   11.60    3.40
  -6   7   6   11.80    2.30
   6   7  -6   10.20    4.90
  -6   7   6   12.10    4.20
  -6   7   6   15.70    2.80
  -5  -7   6  332.67   20.80
  -5  -7   6  350.56   20.40
  -5  -7   6  314.17   22.30
  -5   7   6  328.57   20.30
   5   7  -6  393.56   21.30
   5   7  -6  334.47   21.80
   5   7  -6  357.46   22.60
  -5   7   6  336.57   20.80
  -5   7   6  333.57   22.10
  -5   7   6  335.67   21.00
   5   7  -6  343.37   21.20
  -5   7   6  345.37   23.00
  -4  -7   6   35.10    3.90
  -4  -7   6   23.40    5.00
  -4   7   6   40.20    5.40
  -4   7   6   42.00    6.30
   4   7  -6   36.60    5.60
   4   7  -6   34.30    6.50
  -4   7   6   36.10    4.10
   4   7  -6   27.80    5.50
  -4   7   6   37.70    4.60
   4   7  -6   36.40    5.50
  -3  -7   6  768.42   44.20
   3   7  -6  741.03   44.30
  -3   7   6  794.02   45.60
  -3   7   6  741.13   44.70
   3   7  -6  733.43   45.30
  -3   7   6  752.72   44.60
   3   7  -6  786.02   44.50
  -3   7   6  736.93   44.80
   3   7  -6  788.82   45.10
   3   7  -6  753.92   44.60
  -3   7   6  774.82   46.10
  -2  -7   6    2.30    1.60
  -2   7   6    3.10    2.60
  -2   7   6    6.20    2.70
  -2   7   6    3.50    2.10
   2   7  -6    3.80    2.60
   2   7  -6    4.30    2.50
  -2   7   6    0.60    2.90
  -2   7   6    1.20    2.70
   2   7  -6    0.10    2.90
   2   7  -6    1.90    3.30
  -2   7   6    4.10    2.80
   2   7  -6    1.80    2.40
  -1  -7   6  337.67   21.00
   1   7  -6  374.06   21.40
  -1   7   6  370.26   23.00
   1   7  -6  365.06   22.00
  -1   7   6  374.36   22.10
   1   7  -6  345.67   21.10
  -1   7   6  334.47   21.60
  -1   7   6  363.66   21.60
   1   7  -6  308.67   21.80
  -1   7   6  370.86   22.40
   1   7  -6  375.06   21.70
  -1   7   6  356.86   21.80
   0  -7   6    6.10    1.80
   0   7  -6    6.60    2.50
   0   7   6    8.70    3.10
   0   7  -6    3.10    2.90
   0   7   6    6.90    2.90
   0   7   6   11.20    3.60
   0   7  -6    7.60    2.50
   0   7   6    5.70    2.20
   0   7   6    7.80    3.20
   0   7   6    9.80    3.30
   1  -7   6  210.78   14.10
  -1  -7  -6  238.68   13.70
   1   7   6  231.88   14.60
  -1   7  -6  231.08   14.90
  -1   7  -6  237.48   14.70
   1   7   6  218.28   15.30
  -1   7  -6  239.88   14.50
  -1   7  -6  229.28   14.10
   1   7   6  232.88   15.40
   1   7   6  233.88   15.10
  -2  -7  -6   16.40    7.40
  -2  -7  -6   20.00    2.80
  -2  -7  -6   17.30    3.00
   2  -7   6   19.30    3.70
  -2   7  -6   21.00    3.00
   2   7   6   13.60    3.80
   2   7   6   22.10    3.90
  -2   7  -6   17.30    3.20
   2   7   6   21.70    4.50
  -2   7  -6   18.60    3.00
  -2   7  -6   15.00    3.10
   2   7   6   16.80    3.80
   2   7   6   20.10    3.80
  -3  -7  -6   18.50    8.00
  -3  -7  -6   17.60    3.60
   3  -7   6   24.00    3.90
  -3  -7  -6   16.10    2.90
   3   7   6   17.80    4.60
   3   7   6   16.00    3.60
  -3   7  -6   15.30    3.00
  -3   7  -6   13.00    2.60
  -3   7  -6   11.80    2.60
   3   7   6   17.90    4.10
   3   7   6   19.70    4.30
  -4  -7  -6  118.39    7.70
  -4  -7  -6  101.89   13.60
  -4  -7  -6  116.29   14.70
  -4  -7  -6  101.99    8.50
   4  -7   6  104.09    7.90
   4   7   6  110.19    9.20
  -4   7  -6  105.29    7.50
  -4   7  -6  119.79    8.30
   4   7   6   75.29   10.00
   4   7   6  106.49    8.70
   4   7   6   85.29   10.30
  -5  -7  -6   -0.50    2.60
  -5  -7  -6   -8.60    8.00
  -5  -7  -6   -2.70    7.70
  -5  -7  -6   -0.10    3.20
   5  -7   6    1.50    2.50
   5   7   6    3.00    3.60
   5   7   6   -3.50    3.20
  -5   7  -6   -1.40    2.40
   5   7   6   -1.80    4.60
   5   7   6    4.70    4.40
  -5   7  -6    2.80    2.40
  -5   7  -6    0.00    2.60
  -6  -7  -6  108.99   18.70
  -6  -7  -6  159.78   11.40
   6  -7   6  178.28   11.40
  -6  -7  -6  145.29   17.40
  -6  -7  -6  156.68   12.10
  -6   7  -6  166.38   11.40
   6   7   6  162.98   12.30
  -6   7  -6  156.08   11.10
   6   7   6  177.98   12.40
   6   7   6  169.08   13.00
  -6   7  -6  161.88   10.70
  -7  -7  -6    5.80    4.00
  -7  -7  -6   12.90    3.40
  -7  -7  -6   19.00    9.00
  -7  -7  -6    7.30    3.90
   7  -7   6    8.40    3.10
   7   7   6    9.50    4.40
  -7   7  -6    8.60    2.60
   7   7   6   11.50    4.50
  -7   7  -6    7.60    2.60
   7   7   6    7.00    3.90
  -7   7  -6    7.60    3.00
  -8  -7  -6   47.80    7.50
  -8  -7  -6   55.79   10.90
  -8  -7  -6   65.99    7.20
   8  -7   6   77.29    6.70
  -8  -7  -6   54.09    7.40
  -8   7  -6   65.69    6.50
   8   7   6   66.09    7.20
   8   7   6   75.19    8.40
  -8   7  -6   60.49    5.60
   8   7   6   60.49    8.30
  -9  -7  -6   94.29    8.40
  -9  -7  -6   92.39    8.50
   9  -7   6  112.89    8.10
  -9  -7  -6   98.99    8.30
   9   7   6  113.59    9.50
   9   7   6  105.19    9.10
  -9   7  -6  106.09    7.90
   9   7   6  102.99    8.50
  -9   7  -6   87.99    7.10
 -10  -7  -6    9.30    2.90
  10  -7   6   14.90    2.90
 -10  -7  -6   13.50    3.30
  10   7   6   11.90    3.70
 -10   7  -6   10.80    2.20
 -10   7  -6   11.90    2.70
 -11  -7  -6   25.20    4.40
  11   7   6   38.00    4.80
  12  -8  -6   -0.60    3.80
  12  -8  -6    1.50    2.50
 -12   8   6   -0.20    1.60
  12   8  -6    1.50    3.40
 -11  -8   6   43.60    5.60
  11  -8  -6   61.99    8.60
  11  -8  -6   48.20    6.40
 -11  -8   6   46.90    5.30
 -11   8   6   51.79    4.80
  11   8  -6   62.89    7.80
 -10  -8   6   -0.20    2.10
  10  -8  -6    1.80    3.20
 -10  -8   6    3.90    3.00
 -10  -8   6    4.20    2.70
  10   8  -6    1.40    4.60
  10   8  -6    0.90    3.80
 -10   8   6    0.70    2.30
   9  -8  -6   84.69    8.60
  -9  -8   6   80.49   11.30
  -9  -8   6   92.09    7.20
  -9  -8   6   93.99    8.20
  -9   8   6  101.69    7.60
   9   8  -6  120.79   11.60
  -9   8   6   84.79   10.30
   9   8  -6  108.89   10.30
  -9   8   6   95.09    7.30
   9   8  -6   96.19    9.20
  -8  -8   6   24.40    4.10
  -8  -8   6   24.90    4.20
  -8  -8   6   28.70    6.30
   8  -8  -6   33.90    6.20
  -8   8   6   23.00    4.30
   8   8  -6   20.70    5.20
  -8   8   6   21.70    4.20
   8   8  -6   32.80    6.80
   8   8  -6   22.60    5.20
  -8   8   6   29.20    5.50
   8   8  -6   10.90    4.00
   7  -8  -6  120.69    9.80
  -7  -8   6  135.49   10.20
  -7  -8   6  149.59    9.40
  -7  -8   6  122.49   12.80
   7   8  -6  115.29   11.40
  -7   8   6  137.39    9.30
   7   8  -6  153.58   12.20
   7   8  -6  131.79   11.00
  -7   8   6  144.99   12.00
  -7   8   6  148.09   15.60
   7   8  -6  149.59   13.10
  -7   8   6  147.99    9.70
  -6  -8   6   93.29    8.20
   6  -8  -6   94.69    7.70
  -6  -8   6  103.89    7.30
   6   8  -6   89.69    9.60
   6   8  -6  109.99   10.70
  -6   8   6  100.09   11.70
  -6   8   6  107.29    9.70
  -6   8   6   93.49    7.20
   6   8  -6  102.59    9.00
   6   8  -6  111.49   11.30
  -6   8   6  110.59    7.80
  -5  -8   6  261.97   16.60
  -5  -8   6  265.77   16.10
   5   8  -6  241.18   17.20
  -5   8   6  270.27   16.80
   5   8  -6  252.97   17.20
  -5   8   6  266.97   16.50
   5   8  -6  272.17   18.80
   5   8  -6  275.67   18.00
  -5   8   6  277.87   19.20
  -4  -8   6   21.30    3.60
  -4   8   6   21.70    4.30
   4   8  -6   25.00    4.90
  -4   8   6   10.90    4.80
   4   8  -6   10.70    4.70
  -4   8   6   17.00    4.10
   4   8  -6   25.10    4.20
   4   8  -6   17.80    3.90
  -4   8   6   12.70    2.60
  -3  -8   6   37.50    4.20
   3   8  -6   36.00    5.40
   3   8  -6   37.90    5.70
   3   8  -6   29.80    4.80
  -3   8   6   35.40    4.40
  -3   8   6   46.20    7.20
   3   8  -6   43.90    6.00
  -3   8   6   42.30    5.90
  -3   8   6   42.50    5.90
  -3   8   6   34.00    5.00
   3   8  -6   38.40    5.80
  -2  -8   6   31.10    3.90
   2   8  -6   25.10    3.70
   2   8  -6   30.30    6.10
   2   8  -6   28.60    5.30
  -2   8   6   27.60    5.00
  -2   8   6   49.60    6.10
   2   8  -6   28.60    5.10
   2   8  -6   35.00    5.70
  -2   8   6   35.10    5.50
  -2   8   6   28.20    4.10
  -1  -8   6    4.70    1.70
  -1   8   6    4.60    3.20
  -1   8   6    4.30    2.80
   1   8  -6    4.40    3.00
  -1   8   6    2.80    3.30
   1   8  -6    1.70    2.80
  -1   8   6    2.80    2.40
  -1   8   6    4.30    3.10
   1   8  -6    3.60    2.50
   1   8  -6    1.90    2.70
   1   8  -6    1.90    3.50
  -1   8   6   -1.80    3.40
   0  -8   6   19.70    3.50
   0   8   6   21.70    4.40
   0   8  -6   18.50    3.20
   0   8   6   19.50    4.10
   0   8   6   15.80    3.20
   0   8   6   18.70    4.10
   0   8  -6   15.20    3.20
   0   8  -6   16.10    3.70
   0   8  -6   15.50    3.00
   0   8   6   17.90    3.70
   1  -8   6  220.38   14.70
  -1  -8  -6  281.37   20.70
   1   8   6  254.97   15.40
  -1   8  -6  251.37   15.60
   1   8   6  234.58   15.90
  -1   8  -6  234.78   15.10
  -1   8  -6  236.88   15.70
   1   8   6  244.88   16.50
   1   8   6  254.47   16.20
  -1   8  -6  231.68   14.80
   1   8   6  237.38   16.30
  -2  -8  -6   14.40    2.80
  -2  -8  -6   25.60    8.50
   2  -8   6    9.70    2.40
  -2  -8  -6   16.10    3.30
   2   8   6    3.00    3.90
   2   8   6   10.40    4.10
   2   8   6   14.40    3.90
  -2   8  -6    5.70    2.60
  -2   8  -6   14.60    3.20
   2   8   6    7.00    3.40
   2   8   6   15.40    3.40
  -2   8  -6    7.70    2.90
  -2   8  -6    9.50    3.10
  -3  -8  -6  175.48   20.00
  -3  -8  -6  230.28   14.80
  -3  -8  -6  255.57   20.10
  -3  -8  -6  248.38   14.20
  -3   8  -6  223.38   14.40
   3   8   6  221.28   15.60
   3   8   6  236.48   16.30
  -3   8  -6  238.98   14.90
   3   8   6  237.48   15.30
  -3   8  -6  222.48   15.00
   3   8   6  206.48   16.00
  -4  -8  -6    6.10    8.70
   4  -8   6    2.00    2.40
  -4  -8  -6    8.50    3.30
  -4  -8  -6   10.90    9.10
  -4  -8  -6    6.20    2.50
  -4   8  -6    2.30    2.60
  -4   8  -6    3.30    2.60
   4   8   6    8.70    3.50
  -4   8  -6    4.40    2.90
   4   8   6    4.70    4.70
   4   8   6    3.70    4.60
   4   8   6    4.10    3.80
  -5  -8  -6   91.99    9.20
   5  -8   6  109.19    8.20
  -5  -8  -6  106.79    8.20
  -5  -8  -6   48.30   13.90
  -5  -8  -6   91.39   13.70
   5   8   6  108.19    9.10
  -5   8  -6  112.99    8.50
   5   8   6   88.39   10.90
   5   8   6  120.49   11.40
  -5   8  -6  109.89    7.70
   5   8   6  100.99    9.60
  -5   8  -6   96.09    8.30
  -6  -8  -6    1.40    8.00
  -6  -8  -6   12.10    4.00
  -6  -8  -6    1.00    3.00
   6  -8   6    1.30    2.80
   6   8   6    1.20    3.80
  -6   8  -6    0.20    2.30
  -6   8  -6    3.90    3.00
   6   8   6    2.90    4.70
  -6   8  -6    1.00    2.50
   6   8   6    5.50    3.90
  -7  -8  -6    8.90    4.20
   7  -8   6   13.40    3.20
  -7  -8  -6    8.50    4.10
  -7  -8  -6    9.70    3.30
  -7  -8  -6    3.50    8.10
   7   8   6   13.60    4.70
   7   8   6   12.20    4.50
  -7   8  -6   11.00    3.20
  -7   8  -6    5.40    2.50
   7   8   6   13.70    3.90
  -8  -8  -6   17.00    4.20
  -8  -8  -6   22.50    3.80
  -8  -8  -6   20.40    4.20
   8  -8   6   17.80    3.40
   8   8   6   15.20    4.50
   8   8   6   22.60    4.80
  -8   8  -6   26.20    5.00
   8   8   6   10.60    3.70
  -8   8  -6   22.30    4.00
  -9  -8  -6   15.60    3.50
  -9  -8  -6   10.60    3.30
   9  -8   6   20.90    3.30
  -9  -8  -6   20.40    3.50
  -9   8  -6   17.30    3.00
  -9   8  -6   12.00    2.40
   9   8   6   16.50    3.50
   9   8   6   18.90    4.30
   9   8   6   33.90    6.00
 -10  -8  -6    2.70    2.60
 -10  -8  -6    4.40    2.40
  10  -8   6    3.70    2.20
  10   8   6    3.10    2.70
 -10   8  -6    2.00    1.70
 -10   8  -6    6.30    2.20
  11  -9  -6   16.30    4.60
 -11  -9   6   20.40    3.70
  11  -9  -6   14.10    3.10
  11   9  -6   10.80    4.10
 -11   9   6   10.60    2.10
 -10  -9   6   -0.70    2.40
 -10  -9   6    0.40    1.90
  10  -9  -6   -3.10    2.70
 -10  -9   6   -0.30    2.60
  10   9  -6   -3.00    4.40
  10   9  -6   -1.10    3.60
 -10   9   6   -0.40    1.90
   9  -9  -6    4.70    3.00
  -9  -9   6    5.20    3.20
  -9  -9   6    7.10    2.40
  -9   9   6   13.40    2.40
   9   9  -6   10.40    5.50
   9   9  -6    4.20    4.30
   9   9  -6    3.00    3.90
  -9   9   6    7.30    2.50
  -8  -9   6   -1.90    2.20
   8  -9  -6    1.00    2.70
  -8  -9   6   -0.90    3.20
   8   9  -6   -1.10    5.10
  -8   9   6    2.40    2.50
   8   9  -6    0.70    3.90
  -8   9   6   -0.80    2.10
   8   9  -6    2.20    4.60
   8   9  -6   -2.10    4.70
  -7  -9   6   65.99    5.50
   7  -9  -6   53.09    5.90
  -7  -9   6   51.79    6.70
   7   9  -6   53.19    7.70
   7   9  -6   54.19    9.60
   7   9  -6   40.70    8.50
  -7   9   6   51.49    6.70
  -7   9   6   59.49    5.60
   7   9  -6   61.49   10.30
  -7   9   6   58.69    8.00
  -6  -9   6   25.50    4.30
  -6  -9   6   27.10    4.30
  -6   9   6   25.00    5.40
   6   9  -6   18.90    4.90
  -6   9   6   29.10    4.30
   6   9  -6   30.70    6.50
   6   9  -6   20.40    5.20
   6   9  -6   17.50    4.50
  -5  -9   6  156.68   11.30
  -5  -9   6  163.28   10.50
   5   9  -6  153.58   13.50
   5   9  -6  162.98   12.40
   5   9  -6  166.28   13.50
  -5   9   6  180.98   12.70
   5   9  -6  151.28   12.00
  -5   9   6  151.48   11.00
  -5   9   6  181.08   14.70
  -5   9   6  153.28   10.70
  -4  -9   6  430.46   24.60
   4   9  -6  442.56   26.50
   4   9  -6  395.36   25.40
  -4   9   6  414.06   27.50
  -4   9   6  399.66   25.00
   4   9  -6  382.56   26.50
  -4   9   6  417.66   25.20
   4   9  -6  429.36   25.70
  -3  -9   6   10.90    2.40
  -3   9   6    6.00    3.30
   3   9  -6    7.30    4.40
   3   9  -6   10.60    3.80
   3   9  -6   13.60    3.90
  -3   9   6   16.00    5.60
   3   9  -6   15.00    3.90
  -3   9   6    9.00    3.00
   3   9  -6   11.00    4.80
  -3   9   6    8.20    2.50
  -3   9   6    6.40    3.90
  -2  -9   6   70.89    5.60
   2   9  -6   67.39    7.40
  -2   9   6   62.99    7.40
  -2   9   6   77.99    9.20
   2   9  -6   70.99    8.70
   2   9  -6   56.09    7.40
  -2   9   6   70.99    5.90
  -2   9   6   57.89    7.00
  -2   9   6   66.89    7.50
   2   9  -6   68.69    7.40
   2   9  -6   67.89    6.90
  -1  -9   6  212.48   15.10
  -1   9   6  259.57   16.90
   1   9  -6  264.17   16.40
  -1   9   6  253.87   16.50
  -1   9   6  251.27   16.40
   1   9  -6  211.98   16.10
  -1   9   6  262.67   15.80
   1   9  -6  268.67   17.10
   1   9  -6  247.68   15.50
  -1   9   6  240.08   16.30
   1   9  -6  260.07   15.90
   0  -9  -6   37.20   10.70
   0  -9   6   40.80    5.00
   0   9  -6   57.09    6.80
   0   9   6   58.69    8.20
   0   9  -6   56.09    5.70
   0   9   6   57.79    7.00
   0   9  -6   57.49    6.60
   0   9   6   61.19    6.90
   0   9   6   60.39    5.70
   0   9  -6   60.59    7.70
   0   9   6   43.70    7.90
   1  -9   6  116.09    8.50
  -1  -9  -6  108.99   15.20
   1   9   6  122.49   10.10
   1   9   6  108.69   10.80
   1   9   6  141.59   10.40
   1   9   6  128.69    9.20
   1   9   6  121.59   11.30
  -1   9  -6  130.59    9.00
  -1   9  -6  124.19   10.00
  -1   9  -6  117.69    9.30
  -1   9  -6  124.29    9.90
  -2  -9  -6   46.30    5.50
  -2  -9  -6   22.40    9.70
   2  -9   6   41.40    5.00
  -2  -9  -6   49.40    4.40
  -2   9  -6   42.20    6.40
  -2   9  -6   51.39    7.00
   2   9   6   43.40    5.70
   2   9   6   45.30    7.10
  -2   9  -6   41.00    5.60
  -2   9  -6   49.40    6.10
   2   9   6   44.00    8.20
   2   9   6   28.70    5.40
  -3  -9  -6   -1.50    8.90
  -3  -9  -6    5.30    2.30
   3  -9   6    3.30    2.30
  -3  -9  -6    7.70    9.00
  -3  -9  -6    2.30    3.10
   3   9   6    5.20    4.90
  -3   9  -6    4.50    3.10
   3   9   6    5.10    3.20
   3   9   6    3.80    5.00
  -3   9  -6    4.50    3.20
  -3   9  -6    3.70    3.10
   3   9   6    4.20    4.20
  -4  -9  -6   -5.20    9.00
  -4  -9  -6    5.60    3.60
  -4  -9  -6   11.60    2.70
   4  -9   6    8.80    2.80
   4   9   6   12.60    5.60
  -4   9  -6    9.00    2.90
  -4   9  -6    6.60    2.90
  -4   9  -6    6.80    3.30
   4   9   6   14.90    5.40
   4   9   6   10.60    4.20
   4   9   6   11.00    3.70
  -5  -9  -6    7.20    3.00
   5  -9   6    0.80    2.60
  -5  -9  -6    4.50    3.80
  -5  -9  -6   18.30    9.70
  -5   9  -6    5.10    3.20
  -5   9  -6    6.30    3.00
  -5   9  -6    5.90    2.80
   5   9   6    3.50    3.80
   5   9   6   10.30    4.80
   5   9   6   10.00    3.80
  -6  -9  -6    7.40    3.90
   6  -9   6    2.70    2.70
  -6  -9  -6   -0.70    8.60
  -6  -9  -6    5.10    3.10
  -6   9  -6   13.30    3.50
  -6   9  -6    3.90    3.30
   6   9   6    5.20    4.00
   6   9   6    5.20    3.40
   6   9   6    4.90    4.70
  -6   9  -6    9.90    3.00
  -7  -9  -6   18.40    3.70
  -7  -9  -6   18.10    4.50
  -7  -9  -6   13.70    4.10
   7  -9   6   23.90    4.90
   7   9   6   24.10    4.70
   7   9   6   24.50    5.10
  -7   9  -6   23.60    3.80
  -7   9  -6   21.80    3.30
   7   9   6   27.00    4.60
  -8  -9  -6    4.30    3.10
   8  -9   6    5.00    2.60
  -8  -9  -6    4.30    3.20
  -8  -9  -6    2.70    3.60
   8   9   6    7.50    3.80
  -8   9  -6    2.00    2.60
  -8   9  -6    1.60    2.20
   8   9   6    8.00    3.30
   8   9   6    7.80    3.20
  -9  -9  -6   17.80    3.20
   9  -9   6   27.60    4.10
  -9  -9  -6   21.90    4.50
  -9  -9  -6   21.10    3.50
   9   9   6   22.70    4.50
   9   9   6   21.80    3.80
   9   9   6   16.80    3.30
  -9   9  -6   22.70    3.10
  -9   9  -6   20.70    3.20
  11 -10  -6   36.60    6.20
 -10 -10   6   -0.90    2.50
 -10 -10   6   -0.20    2.20
  10 -10  -6    1.30    2.30
  10 -10  -6    2.00    3.70
  10  10  -6   -1.70    3.20
  10  10  -6   -0.90    3.60
  -9 -10   6   49.50    5.30
   9 -10  -6   50.59    6.00
  -9 -10   6   64.39    5.10
   9  10  -6   49.60    6.60
   9  10  -6   58.89    7.60
   9  10  -6   63.29    8.20
   8 -10  -6   35.50    5.20
  -8 -10   6   33.80    4.50
  -8 -10   6   29.70    5.10
   8  10  -6   35.80    6.20
   8  10  -6   22.30    4.70
   8  10  -6   26.40    5.50
   8  10  -6   33.60    5.60
  -8  10   6   33.40    4.20
  -7 -10   6  147.39    8.90
  -7 -10   6  103.19    9.30
   7  10  -6  125.89   11.70
  -7  10   6  133.99    8.90
   7  10  -6  110.69   11.00
   7  10  -6  122.09   10.40
   7  10  -6  132.19   12.20
  -6 -10   6   -0.80    3.10
  -6 -10   6    2.40    2.30
   6  10  -6    3.70    4.00
  -6  10   6    3.20    2.30
   6  10  -6    4.50    4.90
   6  10  -6    1.80    4.50
  -6  10   6    0.80    4.20
   6  10  -6    2.40    5.00
  -5 -10   6   23.10    4.40
  -5 -10   6   15.10    3.70
   5  10  -6   24.40    5.10
   5  10  -6   19.40    5.20
  -5  10   6   30.80    5.60
   5  10  -6   18.00    5.30
   5  10  -6   14.60    4.30
  -5  10   6   24.90    4.20
  -4 -10   6    3.00    3.40
  -4 -10   6    4.60    2.30
  -4  10   6   -1.00    3.90
   4  10  -6    8.70    4.60
   4  10  -6   10.50    5.10
   4  10  -6    0.50    4.30
   4  10  -6    3.40    4.00
  -4  10   6    4.20    2.60
  -4  10   6    1.40    2.50
  -3 -10   6   87.79    6.90
   3  10  -6   80.09    9.20
   3  10  -6   92.19    9.20
  -3  10   6   94.39    7.30
   3  10  -6  112.09   10.80
   3  10  -6   85.19    8.50
  -3  10   6   97.99    9.10
  -3  10   6   81.79    7.70
  -2 -10   6    3.80    2.10
   2  10  -6    2.70    3.60
   2  10  -6    5.30    3.80
   2  10  -6    4.60    3.40
   2  10  -6    2.80    3.70
   2  10  -6   -0.80    4.30
  -2  10   6    2.00    3.90
  -2  10   6    3.00    3.00
  -2  10   6    8.00    3.60
  -2  10   6    5.10    2.40
  -1 -10   6   14.50    2.50
   1  10  -6   12.20    4.80
  -1  10   6   11.10    4.00
   1  10  -6   22.50    4.20
  -1  10   6   11.20    4.20
  -1  10   6    9.50    4.00
   1  10  -6   20.00    4.10
  -1  10   6   16.90    3.30
   1  10  -6   14.40    3.80
  -1  10   6   10.20    4.20
   0 -10   6    7.10    2.30
   0  10   6    8.80    4.20
   0  10  -6   10.30    3.70
   0  10  -6    3.60    3.60
   0  10  -6   10.50    4.20
   0  10  -6    9.80    3.80
   0  10   6    4.70    4.20
   0  10   6   13.90    4.10
   0  10   6   13.50    3.30
   0  10   6   10.50    4.10
   1 -10   6   62.19    6.10
  -1  10  -6   81.89    8.20
   1  10   6   71.99    9.50
  -1  10  -6   73.19    7.60
   1  10   6   77.69    8.00
  -1  10  -6   71.19    8.00
   1  10   6   82.59    7.00
   1  10   6   69.39    9.30
  -1  10  -6   73.19    6.90
  -2 -10  -6   13.40    9.60
   2 -10   6    2.00    2.20
  -2 -10  -6   -1.30    1.90
  -2  10  -6    1.30    3.30
   2  10   6    3.20    2.90
   2  10   6    0.20    3.50
   2  10   6    0.20    4.40
  -2  10  -6    2.50    3.50
  -2  10  -6   -1.50    3.00
   2  10   6   -0.10    4.60
  -3 -10  -6  298.37   17.30
  -3 -10  -6  285.57   18.00
  -3 -10  -6  230.88   23.80
   3 -10   6  258.77   17.50
  -3  10  -6  276.77   17.50
   3  10   6  272.07   19.40
   3  10   6  296.47   19.40
   3  10   6  299.87   18.20
  -3  10  -6  291.17   18.10
   3  10   6  287.07   18.80
  -3  10  -6  277.77   18.10
   4 -10   6   41.00    5.10
  -4 -10  -6   32.90    5.40
  -4 -10  -6   32.10    6.60
  -4 -10  -6   34.00   10.00
   4  10   6   47.00    8.70
   4  10   6   36.70    5.70
  -4  10  -6   46.40    6.50
   4  10   6   35.10    6.10
   4  10   6   40.80    5.80
  -4  10  -6   44.10    5.50
  -4  10  -6   30.80    5.80
  -5 -10  -6   85.69    9.00
  -5 -10  -6   75.29   14.30
   5 -10   6  106.59    8.00
  -5 -10  -6  106.69    8.40
  -5  10  -6  100.89    8.40
  -5  10  -6  101.89    8.70
   5  10   6  133.29   10.10
   5  10   6  114.59    8.80
  -5  10  -6   99.09    7.80
   5  10   6  107.79   11.20
   6 -10   6    0.10    2.40
  -6 -10  -6    5.10    2.90
  -6 -10  -6    1.40    3.50
  -6  10  -6    5.40    2.90
   6  10   6    2.80    4.20
   6  10   6    0.70    3.10
   6  10   6    1.50    3.60
  -6  10  -6    0.00    3.00
  -7 -10  -6   71.39    6.90
   7 -10   6   76.19    6.40
  -7 -10  -6   64.19    7.20
   7  10   6   75.99    7.70
  -7  10  -6   75.69    6.60
   7  10   6   92.39    6.90
   7  10   6   82.49    8.50
  -7  10  -6   58.09    5.80
  -8 -10  -6    6.60    2.80
  -8 -10  -6    4.10    2.70
  -8 -10  -6    6.90    2.80
   8 -10   6    9.00    2.40
   8  10   6    5.20    3.50
   8  10   6    7.30    2.60
   8  10   6   16.70    3.20
  -8  10  -6    4.80    2.20
  -8  10  -6    9.90    2.70
   9 -10   6   36.20    4.00
  -9 -10  -6   30.50    6.00
   9 -11  -6    1.20    3.20
   9 -11  -6    1.90    2.10
  -9 -11   6   -0.90    1.60
   9  11  -6   -1.30    3.20
   9  11  -6    1.20    3.30
  -8 -11   6    2.60    2.40
   8 -11  -6    1.00    2.10
  -8 -11   6    2.10    2.00
   8  11  -6    2.70    3.90
   8  11  -6    0.60    4.30
   8  11  -6    0.80    3.80
   8  11  -6    3.10    3.60
  -8  11   6    4.80    1.90
  -7 -11   6    4.70    2.70
   7 -11  -6    3.30    2.50
  -7 -11   6    2.20    1.90
  -7  11   6    0.60    1.90
   7  11  -6   -2.50    3.90
   7  11  -6   -0.40    4.30
   7  11  -6    0.50    3.50
   7  11  -6   -1.20    4.20
  -6 -11   6    2.80    2.80
  -6 -11   6    1.50    2.20
   6  11  -6    2.10    4.30
   6  11  -6    3.90    4.90
   6  11  -6    0.80    4.30
  -6  11   6    2.20    2.20
   6  11  -6    1.20    3.80
  -5 -11   6    3.60    2.20
  -5 -11   6    6.50    3.30
   5  11  -6    2.90    4.20
   5  11  -6    6.10    4.00
   5  11  -6    2.50    5.00
   5  11  -6    7.40    4.30
  -5  11   6    7.50    2.60
  -4 -11   6    2.60    2.20
  -4 -11   6    4.80    3.20
   4  11  -6   -0.60    5.00
  -4  11   6    0.80    2.30
  -4  11   6    1.70    2.50
   4  11  -6    6.20    4.50
   4  11  -6    0.00    3.60
  -4  11   6    1.20    6.40
   4  11  -6    9.70    4.20
  -3 -11   6  115.59    7.60
  -3  11   6  100.09    8.10
   3  11  -6  106.29    9.50
  -3  11   6   84.29    9.30
   3  11  -6  114.59   11.40
   3  11  -6   92.69    9.40
  -3  11   6  103.19    7.70
   3  11  -6   79.89    9.00
  -2 -11   6    0.10    2.10
  -2  11   6    1.70    2.40
   2  11  -6   -1.80    4.00
  -2  11   6    8.20    3.50
   2  11  -6    4.80    3.80
   2  11  -6    5.50    3.90
  -2  11   6    0.80    3.60
  -2  11   6    1.80    2.80
   2  11  -6    5.50    4.80
  -1 -11   6   43.20    5.10
  -1  11   6   50.39    6.70
  -1  11   6   62.79    5.70
   1  11  -6   45.40    6.50
  -1  11   6   62.09    7.80
   1  11  -6   56.59    7.20
   1  11  -6   58.99    7.70
   1  11  -6   59.19    8.90
   0 -11   6   13.20    2.60
   0  11   6   20.40    4.40
   0  11  -6   15.90    4.00
   0  11   6   13.30    4.50
   0  11   6   13.50    4.40
   0  11  -6   23.30    4.40
   0  11   6   16.00    4.00
   0  11  -6   11.90    3.90
   0  11  -6   20.30    4.70
  -1 -11  -6   20.30    9.20
   1 -11   6   35.30    4.50
  -1  11  -6   32.00    5.80
   1  11   6   34.40    7.00
   1  11   6   44.50    5.20
   1  11   6   37.70    5.60
  -1  11  -6   37.30    6.60
  -1  11  -6   38.70    6.60
   1  11   6   38.20    5.70
  -1  11  -6   39.70    7.40
  -2 -11  -6   -0.90    8.80
  -2 -11  -6    2.80    2.20
   2 -11   6    2.70    2.20
   2  11   6    4.40    3.90
   2  11   6    2.50    2.70
   2  11   6    4.60    4.60
  -2  11  -6    1.40    3.30
   2  11   6   -0.70    4.30
  -2  11  -6    5.20    3.70
  -2  11  -6    6.00    3.40
  -3 -11  -6    1.20    2.40
   3 -11   6    2.40    2.20
  -3  11  -6    1.00    3.60
  -3  11  -6    4.00    3.00
   3  11   6   -0.10    3.50
   3  11   6   -3.70    4.50
   3  11   6    4.30    2.90
  -3  11  -6   -0.30    2.90
   4 -11   6   12.60    2.70
  -4 -11  -6   14.10    3.00
  -4 -11  -6   10.20    3.90
   4  11   6   18.20    3.50
  -4  11  -6   12.90    3.30
  -4  11  -6    9.50    3.50
   4  11   6   16.50    4.30
  -4  11  -6    9.60    3.10
   4  11   6   14.20    4.80
   5 -11   6    1.10    2.20
  -5 -11  -6   -3.10    3.10
  -5 -11  -6    0.90    2.60
  -5  11  -6    5.40    2.80
   5  11   6    3.30    4.00
   5  11   6    0.90    2.60
   5  11   6   -1.40    3.40
  -5  11  -6    2.20    3.10
   6 -11   6    2.20    2.20
  -6 -11  -6    4.00    3.20
  -6 -11  -6    3.40    2.70
  -6 -11  -6    0.20    2.90
  -6  11  -6    2.00    2.30
   6  11   6    4.50    2.70
  -6  11  -6    2.10    3.00
   6  11   6    4.00    3.40
   6  11   6    2.90    3.80
   7 -11   6   10.70    2.30
  -7 -11  -6    9.20    2.80
  -7 -11  -6   10.70    2.70
  -7 -11  -6    6.10    3.00
  -7  11  -6    7.50    2.50
   7  11   6    9.30    3.30
  -7  11  -6    5.60    2.20
   7  11   6    9.30    3.50
   8 -11   6    4.60    1.80
  -8 -12   6    6.00    1.70
   8  12  -6    5.20    3.40
  -7 -12   6   86.69    6.00
   7  12  -6   67.19    8.20
  -7  12   6   86.29    6.00
   7  12  -6   81.19    8.50
   7  12  -6   82.89    7.80
   7  12  -6   78.19    7.60
  -6 -12   6    1.30    2.30
  -6 -12   6    2.00    1.90
   6  12  -6    0.80    3.70
  -6  12   6    0.80    1.60
   6  12  -6   -2.00    3.00
   6  12  -6   -1.00    3.50
   6  12  -6    0.20    4.10
  -5 -12   6   80.39    5.70
  -5 -12   6   61.69    6.10
   5  12  -6   68.59    7.80
   5  12  -6   66.39    7.50
   5  12  -6   49.60    7.70
  -5  12   6   78.79    5.70
   5  12  -6   67.59    9.00
  -4 -12   6   -2.60    2.80
  -4 -12   6    3.00    2.10
   4  12  -6   -3.50    4.40
   4  12  -6    0.60    3.90
  -4  12   6    0.50    1.90
   4  12  -6    1.60    3.60
   4  12  -6    5.40    3.70
  -3 -12   6   13.30    2.50
  -3 -12   6   11.20    3.30
   3  12  -6   13.60    4.30
   3  12  -6   15.00    4.90
  -3  12   6   16.00    2.80
   3  12  -6    6.20    4.20
  -3  12   6    9.70    2.60
  -2 -12   6   19.80    3.90
   2  12  -6   20.70    4.60
   2  12  -6   27.20    4.80
   2  12  -6   20.20    5.20
  -2  12   6   21.60    4.40
  -2  12   6   27.40    3.90
  -1 -12   6   41.60    4.70
   1  12  -6   40.70    6.70
  -1  12   6   49.60    6.60
   1  12  -6   40.60    6.30
   1  12  -6   55.09    8.00
  -1  12   6   46.40    5.80
  -1  12   6   51.59    4.90
   1  12  -6   37.90    7.10
   0 -12   6   19.90    3.70
   0  12  -6   26.00    4.60
   0  12   6   25.00    4.00
   0  12  -6   24.10    4.00
   0  12   6   23.10    4.40
   0  12  -6   14.10    4.00
   0  12   6   25.90    5.10
   0  12  -6   21.60    4.50
   1 -12   6   34.40    4.00
   1  12   6   28.80    4.90
  -1  12  -6   22.50    3.90
  -1  12  -6   26.40    4.30
   1  12   6   35.60    5.90
   1  12   6   29.00    4.20
  -1  12  -6   19.40    4.10
   2 -12   6    3.60    2.00
  -2 -12  -6    3.60    2.10
  -2  12  -6    3.90    3.50
  -2  12  -6    5.40    3.20
   2  12   6    2.50    2.40
  -2  12  -6    1.40    3.10
   2  12   6    3.10    3.40
   2  12   6    4.30    4.10
   3 -12   6   28.70    4.10
  -3 -12  -6   37.30    4.50
   3  12   6   42.70    4.70
  -3  12  -6   35.70    4.80
   3  12   6   37.40    7.20
   3  12   6   35.00    6.10
  -3  12  -6   23.80    4.00
  -3  12  -6   42.90    5.80
   4 -12   6   -1.30    1.80
  -4 -12  -6   -0.20    2.20
   4  12   6   -1.50    3.20
   4  12   6    4.00    3.70
   4  12   6   -1.60    2.20
  -4  12  -6    1.70    2.80
  -4  12  -6    1.70    2.60
  -5 -12  -6   31.60    4.40
  -5 -12  -6   30.00    5.00
   5 -12   6   32.60    3.80
   5  12   6   41.20    5.30
  -5  12  -6   22.90    4.00
  -5  12  -6   28.30    4.70
   5  12   6   41.50    6.40
  -6 -12  -6   10.50    2.80
  -6 -12  -6   12.30    2.50
   6 -12   6    9.20    2.00
   6  12   6   12.60    3.00
  -6  12  -6    7.40    2.10
   6  12   6   10.90    3.50
  -6 -13   6   20.90    2.90
   6  13  -6   20.00    3.40
   6  13  -6   16.80    3.90
   6  13  -6   23.60    4.00
  -5 -13   6   45.80    3.90
   5  13  -6   32.90    5.90
   5  13  -6   41.10    5.80
   5  13  -6   39.70    6.60
  -4 -13   6   -1.10    1.60
  -4 -13   6   -1.30    2.10
   4  13  -6    0.80    3.80
   4  13  -6   -1.00    3.00
   4  13  -6   -0.20    3.40
  -3 -13   6   14.50    2.70
  -3 -13   6   14.50    2.20
   3  13  -6   12.30    3.60
   3  13  -6    8.40    3.40
  -3  13   6   17.20    3.10
   3  13  -6   14.40    4.40
  -2 -13   6    2.00    1.80
  -2 -13   6    0.90    2.40
  -2  13   6    0.40    2.50
   2  13  -6    3.30    4.00
  -2  13   6    2.10    2.30
   2  13  -6    0.30    3.40
   2  13  -6    3.20    3.50
  -1 -13   6   25.20    3.40
  -1  13   6   29.00    4.10
   1  13  -6   28.60    4.30
   1  13  -6   14.90    3.80
   1  13  -6   25.00    4.60
   0 -13   6    9.20    2.00
   0  13   6    8.90    2.70
   0  13   6    5.30    3.00
   0  13  -6   16.90    3.70
   0  13  -6   10.80    3.40
   1 -13   6    3.20    1.80
  -1  13  -6    5.80    3.20
  -1  13  -6    2.60    3.20
   1  13   6    7.60    3.30
  -1  13  -6    3.20    2.70
   1  13   6    3.30    2.60
  -2 -13  -6    2.50    1.80
   2 -13   6    0.90    1.50
  -2  13  -6    4.20    2.40
   2  13   6    1.50    3.00
   2  13   6    3.40    2.80
  -2  13  -6    2.50    2.80
  -2  13  -6    3.30    2.90
  -3 -13  -6    6.00    1.90
  -3 -13  -6    4.50    2.40
   3 -13   6    8.80    1.80
  -3  13  -6    5.60    2.80
   3  13   6    6.90    3.20
  -3  13  -6    6.30    2.40
   3  13   6    7.20    2.80
  -4 -13  -6    4.40    1.90
   4 -13   6    1.90    1.50
  -4  13  -6    0.80    2.00
   4  13   6    2.40    2.50
   4  13   6    3.40    2.80
   2  14  -6   14.00    4.40
   1  14  -6    2.00    2.90
 -14   0   7   -0.30    2.10
  14   0  -7   -0.30    3.50
  13   0  -7  163.98   12.90
 -13   0   7  155.08   10.60
 -12   0   7    0.90    4.40
  12   0  -7   -4.50    4.60
 -12   0   7    0.10    2.70
  11   0  -7    3.60    5.30
 -11   0   7    3.30    2.70
  11   0  -7    5.90    4.20
 -11   0   7    4.50    5.00
 -10   0   7    7.90    5.50
  10   0  -7    1.30    3.90
  10   0  -7   -5.90    2.80
 -10   0   7   -0.30    2.70
  10   0  -7    3.10    4.70
 -10   0   7    0.70    4.10
  -9   0   7   -2.70    4.10
  -9   0   7    4.60    2.70
  -9   0   7    2.00    4.00
   9   0  -7   -2.80    3.90
   9   0  -7    2.40    3.00
   9   0  -7   -2.10    3.80
   8   0  -7    3.20    3.50
   8   0  -7   -0.30    2.50
  -8   0   7    1.20    2.10
  -8   0   7   -0.90    3.50
  -8   0   7   -3.20    3.30
   7   0  -7   98.19    8.20
  -7   0   7   98.29    6.50
  -7   0   7   88.79    6.20
  -7   0   7   83.69    8.00
  -7   0   7   86.89    8.60
  -6   0   7   -0.80    2.80
   6   0  -7    1.90    2.60
  -6   0   7    0.10    2.60
   6   0  -7   -1.10    2.10
  -6   0   7   -0.40    1.00
  -6   0   7   -0.30    1.50
   6   0  -7   -0.40    1.60
  -5   0   7  526.65   33.20
   5   0  -7  517.95   31.80
  -5   0   7  551.34   32.90
  -5   0   7  501.85   31.70
  -5   0   7  575.14   31.60
   5   0  -7  589.44   32.40
  -4   0   7    1.00    1.00
   4   0  -7   -0.90    1.50
   4   0  -7   -1.30    1.80
   4   0  -7   -2.60    1.40
  -4   0   7   -1.50    2.20
  -4   0   7    1.30    2.00
  -3   0   7  352.86   19.90
   3   0  -7  322.57   19.30
  -3   0   7  331.87   20.10
   3   0  -7  344.57   19.70
   3   0  -7  284.77   19.20
   2   0  -7    0.60    1.30
   2   0  -7    2.50    1.70
  -2   0   7   -0.90    1.30
   2   0  -7    1.80    1.80
  -2   0   7    0.60    1.70
  -1   0   7  337.37   20.70
  -1   0   7  361.86   20.60
   1   0  -7  330.97   20.20
   1   0  -7  343.57   20.40
   0   0   7    1.80    1.40
   0   0  -7    2.60    1.20
   0   0  -7    0.60    1.30
   0   0  -7   -1.00    1.60
   0   0   7    0.40    1.10
   1   0   7  892.11   53.59
  -1   0  -7  992.80   53.39
  -1   0  -7  955.70   53.39
   1   0   7  852.61   53.69
  -1   0  -7  916.41   53.49
  -2   0  -7    1.80    1.20
   2   0   7    0.10    1.00
  -2   0  -7   -0.30    1.20
  -2   0  -7    1.50    1.40
   2   0   7    0.60    1.40
  -2   0  -7   -0.40    1.60
  -2   0  -7   -6.60    2.20
  -3   0  -7  137.29    9.90
  -3   0  -7  136.29    8.20
  -3   0  -7  133.99    8.60
  -3   0  -7  123.99    9.50
  -3   0  -7  126.79    8.60
   3   0   7  123.69    8.70
  -4   0  -7   -1.00    1.60
  -4   0  -7    0.90    1.80
  -4   0  -7    3.60    1.90
  -4   0  -7   -0.80    3.00
  -4   0  -7   -0.10    1.60
   4   0   7    2.70    2.30
  -4   0  -7    3.20    3.50
  -5   0  -7  103.09    7.60
   5   0   7  120.09    8.30
  -5   0  -7  108.29    7.70
  -5   0  -7   92.89    9.00
  -5   0  -7  109.19    7.40
  -5   0  -7   96.69   10.00
  -7   0  -7   -4.80    2.10
   7   0   7    1.60    3.80
  -7   0  -7    8.30    2.50
   8   0   7   -2.80    4.20
  -8   0  -7    0.90    2.30
  -8   0  -7    0.00    2.30
  -9   0  -7   32.30    4.60
   9   0   7   34.70    7.40
  -9   0  -7   35.50    5.40
 -10   0  -7   -0.60    2.00
 -10   0  -7   -0.10    2.50
  10   0   7    0.60    4.70
 -11   0  -7   26.20    4.60
  11   0   7   31.80    6.70
  12   0   7   -3.30    3.10
 -12   0  -7    0.00    2.10
  14  -1  -7    5.90    4.20
 -14  -1   7    7.40    2.40
  14   1  -7    3.70    4.90
 -14   1   7    2.70    1.80
  13  -1  -7    4.80    4.80
 -13  -1   7    1.70    2.50
  13   1  -7    5.40    4.30
 -13   1   7    2.90    2.30
 -12  -1   7   14.20    5.90
  12  -1  -7   20.40    5.90
 -12  -1   7   14.10    3.40
 -12   1   7   13.80    3.20
 -12   1   7    7.10    4.80
  12   1  -7   14.80    5.20
  11  -1  -7    4.90    3.40
 -11  -1   7   11.90    5.50
  11  -1  -7    7.50    4.30
  11  -1  -7   -2.00    5.40
 -11  -1   7    5.30    2.90
 -11   1   7    3.00    4.60
  11   1  -7   13.70    4.80
 -11   1   7    7.00    2.90
  11   1  -7    3.70    4.90
 -10  -1   7  148.19   10.10
  10  -1  -7  140.99   11.10
 -10  -1   7  151.38   13.80
  10  -1  -7  149.19   12.70
 -10  -1   7  149.09   12.60
 -10   1   7  132.99   13.60
  10   1  -7  140.79   11.90
 -10   1   7  130.49   12.30
 -10   1   7  137.29    9.90
  10   1  -7  157.28   12.20
  -9  -1   7  141.99   10.00
  -9  -1   7  130.79   13.20
   9  -1  -7  171.88   11.10
  -9  -1   7  152.58   12.50
   9   1  -7  131.69   11.60
   9   1  -7  147.79   11.60
  -8  -1   7  127.69   10.90
   8  -1  -7  144.59   10.40
  -8  -1   7  128.89   11.80
   8  -1  -7  124.79    9.80
  -8  -1   7  134.49    8.80
  -8   1   7  124.49   10.50
   8   1  -7  139.79   10.60
   8   1  -7  119.69   10.20
  -8   1   7  123.59    8.60
  -8   1   7  133.79    8.70
  -8   1   7  126.89   11.10
   7  -1  -7  424.16   24.50
   7  -1  -7  384.26   24.10
  -7  -1   7  383.86   25.70
  -7  -1   7  400.26   25.20
  -7  -1   7  408.96   23.50
   7   1  -7  406.16   24.50
   7   1  -7  378.86   23.70
  -7   1   7  379.96   23.50
  -7   1   7  407.66   23.40
  -7   1   7  396.96   25.10
  -7   1   7  383.96   25.50
  -6  -1   7  193.88   11.10
   6  -1  -7  175.38   11.20
  -6  -1   7  166.48   12.90
  -6  -1   7  174.38   12.50
   6  -1  -7  187.08   12.10
  -6   1   7  176.28   12.80
   6   1  -7  195.28   12.30
  -6   1   7  181.68   12.60
  -6   1   7  190.08   11.00
   6   1  -7  175.18   11.40
  -6   1   7  178.08   11.10
   6   1  -7  150.58   11.50
  -5  -1   7  289.77   16.00
   5  -1  -7  230.18   16.20
  -5  -1   7  263.67   17.60
  -5  -1   7  268.47   17.20
   5  -1  -7  278.37   16.80
  -5   1   7  275.67   17.30
   5   1  -7  250.67   16.40
  -5   1   7  260.47   17.60
   5   1  -7  281.27   16.90
  -5   1   7  278.37   15.90
  -5   1   7  273.97   16.10
   5   1  -7  269.37   16.30
  -4  -1   7   77.09    4.90
   4  -1  -7   72.39    5.40
  -4  -1   7   68.79    6.00
   4  -1  -7   76.09    6.00
  -4  -1   7   69.79    6.30
   4  -1  -7   68.59    5.30
   4   1  -7   68.39    5.30
  -4   1   7   74.39    6.60
  -4   1   7   87.89    6.30
   4   1  -7   76.39    6.20
  -4   1   7   74.09    5.00
  -4   1   7   76.89    4.80
   4   1  -7   63.39    5.60
  -3  -1   7  118.49    8.20
  -3  -1   7  122.09    8.50
   3  -1  -7  109.99    7.60
  -3  -1   7  126.69    7.30
   3  -1  -7  111.29    7.70
  -3   1   7  126.29    8.30
   3   1  -7  119.69    7.80
  -3   1   7  120.79    8.50
   3   1  -7  112.79    8.10
   2  -1  -7   43.30    3.80
  -2  -1   7   36.40    3.40
  -2  -1   7   37.20    3.70
   2  -1  -7   38.60    3.30
  -2   1   7   38.60    3.60
   2   1  -7   25.70    3.70
  -2   1   7   39.00    3.90
   2   1  -7   37.90    3.90
  -2   1   7   30.00    3.50
  -1  -1   7   37.40    3.10
  -1  -1   7   37.90    3.40
   1  -1  -7   44.80    4.10
   1  -1  -7   32.70    3.10
   1   1  -7   30.80    3.90
  -1   1   7   34.00    3.50
  -1   1   7   29.90    3.30
  -1   1   7   41.20    3.90
   1   1  -7   36.70    3.10
   1   1  -7   32.20    3.70
   0  -1   7  380.66   22.00
   0  -1  -7  419.56   21.90
   0  -1  -7  356.36   22.10
   0  -1  -7  351.46   21.80
   0  -1   7  372.06   22.10
   0   1   7  332.77   22.00
   0   1  -7  355.46   22.00
   0   1  -7  404.06   21.90
   0   1   7  372.26   22.50
   0   1   7  374.16   22.30
   1  -1   7   53.49    4.30
   1  -1   7   57.49    4.10
  -1  -1  -7   67.19    4.70
   1  -1   7   68.69    5.10
   1   1   7   58.19    4.60
  -1   1  -7   65.69    4.50
   1   1   7   61.59    4.60
  -1   1  -7   60.09    4.20
   1   1   7   57.29    4.90
   1   1   7   55.69    4.50
  -1   1  -7   61.49    4.90
  -2  -1  -7   63.89    4.40
  -2  -1  -7   68.39    4.90
   2  -1   7   63.79    4.40
  -2  -1  -7   58.29    4.60
  -2   1  -7   59.29    5.50
  -2   1  -7   59.29    4.90
   2   1   7   61.09    4.60
   2   1   7   55.39    4.90
   2   1   7   53.39    4.60
  -2   1  -7   58.49    4.40
  -2   1  -7   64.09    4.70
  -3  -1  -7  144.79    9.30
  -3  -1  -7  159.88    9.20
  -3  -1  -7  153.58    9.50
  -3  -1  -7  145.09   11.30
   3  -1   7  142.19    9.60
   3  -1   7  145.59    9.10
  -3   1  -7  124.49   10.10
  -3   1  -7  156.08    9.50
  -3   1  -7  150.48    9.20
  -3   1  -7  142.19    9.50
   3   1   7  142.69    9.80
   3   1   7  145.89    9.60
  -4  -1  -7    0.70    3.60
  -4  -1  -7   -3.80    3.80
  -4  -1  -7    0.20    1.70
   4  -1   7    1.80    2.00
  -4  -1  -7    0.50    1.50
   4  -1   7    0.40    1.40
  -4  -1  -7   -2.70    1.80
   4   1   7    1.30    2.30
  -4   1  -7   15.60    5.50
  -5  -1  -7  647.44   37.10
   5  -1   7  603.64   36.90
  -5  -1  -7  686.23   39.20
  -5  -1  -7  688.03   36.90
  -5  -1  -7  648.84   37.10
   5  -1   7  580.54   37.50
  -5  -1  -7  638.04   38.60
  -5  -1  -7  642.84   36.90
  -5   1  -7  613.64   37.00
  -5   1  -7  625.84   36.90
   5   1   7  601.44   37.70
  -6  -1  -7   18.70    6.10
   6  -1   7   19.40    3.60
  -6  -1  -7   22.30    5.20
  -6  -1  -7   16.80    2.70
   6  -1   7   14.90    3.70
  -6  -1  -7   17.30    3.00
  -6  -1  -7   18.20    3.00
  -6   1  -7   12.90    2.50
   6   1   7   16.50    4.00
  -6   1  -7   19.60    2.80
  -7  -1  -7    6.00    7.20
  -7  -1  -7   13.10    2.80
   7  -1   7   11.10    4.10
  -7   1  -7    5.00    2.40
  -7   1  -7    9.10    2.50
   7   1   7   14.20    4.60
  -8  -1  -7   -0.10    2.60
   8  -1   7    0.30    4.00
  -8  -1  -7    0.30    2.50
  -8   1  -7    0.80    2.10
   8   1   7   -1.30    4.00
  -8   1  -7    0.20    2.20
   9  -1   7    5.00    4.50
  -9  -1  -7    7.50    2.60
  -9  -1  -7    7.50    2.90
  -9   1  -7    8.70    2.40
   9   1   7    8.00    5.00
  -9   1  -7    9.00    2.80
 -10  -1  -7   -0.60    2.20
  10  -1   7    2.30    4.40
 -10  -1  -7   -1.40    2.50
 -10   1  -7   -0.10    2.10
 -10   1  -7   -0.40    2.30
  10   1   7    0.40    4.60
 -11  -1  -7   26.80    4.60
  11  -1   7   19.70    4.70
 -11   1  -7   28.40    4.30
  11   1   7   33.30    6.70
  12  -1   7    6.60    3.50
 -12  -1  -7    8.80    2.20
  12   1   7    6.40    3.50
 -12   1  -7    3.40    2.00
 -14  -2   7    0.50    2.00
  14  -2  -7    0.20    4.00
 -14   2   7    2.70    1.90
  13  -2  -7  103.59   10.50
 -13  -2   7   82.99    7.40
 -13   2   7  101.09    7.30
  12  -2  -7    9.60    6.20
 -12  -2   7    7.50    3.20
  12  -2  -7    4.70    3.30
 -12  -2   7    8.30    5.70
 -12   2   7    9.00    4.90
  12   2  -7    0.00    4.30
  12   2  -7    3.80    4.60
 -12   2   7    6.30    2.80
 -11  -2   7   49.70    7.80
 -11  -2   7   46.20    6.00
  11  -2  -7   44.10    8.90
  11  -2  -7   37.40    7.30
  11   2  -7   50.59    8.40
 -11   2   7   67.39    8.40
 -11   2   7   41.50    5.40
  11   2  -7   35.50    7.60
 -10  -2   7   34.80    5.40
  10  -2  -7   54.79    7.10
 -10  -2   7   27.00    6.10
  10  -2  -7   38.50    6.90
 -10  -2   7   15.60    6.50
  10   2  -7   36.60    6.00
 -10   2   7   37.80    7.40
 -10   2   7   29.70    4.90
 -10   2   7   24.70    5.60
  10   2  -7   27.40    5.70
  -9  -2   7   14.10    5.00
   9  -2  -7   21.80    4.40
  -9  -2   7   13.50    5.60
  -9  -2   7   18.70    3.20
   9  -2  -7   18.30    4.00
  -9   2   7   16.30    2.80
   9   2  -7   17.70    4.50
  -9   2   7   24.20    5.10
  -9   2   7   22.40    5.70
   9   2  -7   12.80    4.40
  -9   2   7   16.20    3.10
  -8  -2   7   91.29    9.20
   8  -2  -7   89.39    8.40
  -8  -2   7   98.69    7.20
  -8  -2   7   90.29   10.10
   8  -2  -7   97.89    8.50
   8   2  -7   88.19    8.30
   8   2  -7   94.79    8.90
   8   2  -7   91.59    7.40
  -8   2   7   87.99    9.30
  -8   2   7  100.69    8.90
  -8   2   7   92.89    6.90
  -8   2   7   92.39    6.70
  -7  -2   7    2.60    2.20
   7  -2  -7    3.30    3.10
  -7  -2   7    0.20    3.60
  -7  -2   7    1.90    3.20
  -7   2   7    0.50    3.00
   7   2  -7   -0.30    3.60
  -7   2   7   -3.40    3.00
   7   2  -7    4.30    2.20
   7   2  -7    1.10    2.90
  -7   2   7   -0.90    1.80
  -7   2   7    0.30    1.60
   6  -2  -7  130.39    9.30
  -6  -2   7  123.39    9.70
  -6  -2   7  117.99   10.20
  -6  -2   7  112.69    7.60
   6  -2  -7  107.89    8.60
  -6  -2   7  128.89    8.10
  -6   2   7  132.29    8.20
  -6   2   7  134.69    9.80
   6   2  -7  131.79    8.60
   6   2  -7  135.99    9.70
  -6   2   7  147.29   10.50
  -6   2   7  125.29    8.00
   5  -2  -7  213.48   13.10
   5  -2  -7  186.08   12.50
  -5  -2   7  186.58   11.90
  -5  -2   7  212.18   14.00
  -5  -2   7  213.08   12.20
  -5  -2   7  203.68   13.50
   5  -2  -7  181.98   12.30
  -5   2   7  197.78   12.10
   5   2  -7  202.48   12.60
  -5   2   7  210.88   12.40
   5   2  -7  209.68   13.40
  -5   2   7  214.88   13.60
  -5   2   7  211.48   14.10
  -4  -2   7   21.60    3.60
   4  -2  -7   19.10    3.10
  -4  -2   7   21.20    2.70
   4  -2  -7   19.10    3.10
  -4  -2   7   23.00    2.10
  -4  -2   7   29.80    3.70
  -4   2   7   19.90    3.50
  -4   2   7   18.70    3.50
  -4   2   7   20.50    2.40
   4   2  -7   19.90    4.00
  -4   2   7   15.40    2.10
   4   2  -7   19.10    3.30
  -3  -2   7  729.43   43.50
   3  -2  -7  708.53   42.60
   3  -2  -7  711.73   42.70
  -3  -2   7  739.73   43.20
  -3  -2   7  807.52   42.40
  -3  -2   7  762.12   42.50
  -3   2   7  701.43   42.70
   3   2  -7  739.53   42.50
   3   2  -7  721.33   42.80
  -3   2   7  718.43   43.60
   3   2  -7  715.03   43.10
  -3   2   7  748.23   43.00
   2  -2  -7   92.49    6.40
  -2  -2   7  103.39    6.20
  -2  -2   7   96.49    6.90
  -2  -2   7   91.49    6.70
   2   2  -7   96.99    6.30
   2   2  -7  102.99    6.80
  -2   2   7  101.89    7.30
  -2   2   7   98.19    6.50
  -2   2   7   99.99    7.00
   2   2  -7   93.39    7.00
   2   2  -7  101.69    6.30
  -2   2   7   93.59    6.70
   1  -2  -7  428.76   27.10
  -1  -2   7  476.75   27.10
  -1  -2   7  470.35   27.40
  -1  -2   7  463.45   27.50
   1   2  -7  461.05   27.50
  -1   2   7  462.45   27.60
  -1   2   7  477.95   27.50
   1   2  -7  450.75   27.60
   1   2  -7  474.55   27.20
  -1   2   7  503.85   28.20
  -1   2   7  470.35   27.80
   0  -2   7  548.85   31.10
   0  -2  -7  514.95   31.10
   0  -2   7  519.25   31.20
   0   2  -7  539.35   31.20
   0   2   7  518.65   31.40
   0   2   7  557.54   31.80
   0   2  -7  536.35   31.40
   0   2   7  515.35   31.50
   0   2  -7  534.65   31.10
   0   2   7  583.94   32.10
  -1  -2  -7  316.77   17.50
   1  -2   7  313.67   17.50
  -1   2  -7  282.67   17.80
   1   2   7  288.37   17.80
   1   2   7  316.07   18.20
  -1   2  -7  279.77   17.40
   1   2   7  307.37   18.30
   1   2   7  286.57   17.80
  -1   2  -7  263.57   17.40
  -1   2  -7  306.97   17.60
   1   2   7  289.97   18.00
   2  -2   7   80.19    5.70
  -2  -2  -7   90.09    5.60
  -2  -2  -7   89.69    6.20
  -2  -2  -7   79.89    5.80
  -2   2  -7   85.19    5.80
   2   2   7   86.39    6.70
   2   2   7   80.99    6.20
  -2   2  -7   95.39    5.70
  -2   2  -7   73.19    6.10
   2   2   7   79.19    6.10
   2   2   7   82.29    6.10
  -3  -2  -7  357.56   19.20
  -3  -2  -7  301.07   21.20
   3  -2   7  339.57   19.20
  -3  -2  -7  320.47   19.30
  -3  -2  -7  340.47   19.10
   3   2   7  315.57   19.80
   3   2   7  318.77   19.60
  -3   2  -7  314.07   19.10
   3   2   7  298.47   19.40
  -3   2  -7  312.37   19.20
  -3   2  -7  318.27   18.80
  -3   2  -7  323.07   19.30
   3   2   7  311.57   19.70
   4  -2   7    8.00    2.40
  -4  -2  -7    7.20    1.80
  -4  -2  -7    5.50    2.30
  -4  -2  -7    7.10    1.90
  -4  -2  -7    2.40    4.80
   4  -2   7    7.30    1.90
  -4  -2  -7    3.30    4.00
  -4   2  -7   13.10    2.20
  -4   2  -7    5.10    2.00
  -4   2  -7    9.20    1.80
   4   2   7    4.50    2.70
  -4   2  -7    7.10    1.80
   4   2   7    7.80    2.80
   4   2   7    6.70    2.00
  -5  -2  -7   -0.10    2.40
  -5  -2  -7    0.50    2.10
  -5  -2  -7    0.40    4.60
  -5  -2  -7   -5.90    4.90
   5  -2   7    3.30    2.50
   5  -2   7    0.60    1.80
  -5  -2  -7   -0.10    1.90
  -5   2  -7    0.90    1.50
   5   2   7   -0.10    2.90
  -5   2  -7    3.00    1.90
  -6  -2  -7   17.90    3.20
   6  -2   7   21.20    4.00
  -6  -2  -7   25.90    5.90
  -6  -2  -7    8.90    6.50
  -6  -2  -7   24.70    4.30
   6  -2   7   23.80    4.80
  -6  -2  -7   30.50    4.50
  -6   2  -7   27.30    4.00
   6   2   7   27.40    5.70
  -6   2  -7   27.60    4.00
   7  -2   7    3.10    2.20
  -7  -2  -7    9.30    5.30
  -7  -2  -7    4.90    2.60
   7  -2   7   -1.20    3.20
  -7  -2  -7    5.20    2.60
  -7  -2  -7    5.30    7.30
  -7  -2  -7    0.30    2.70
  -7  -2  -7    4.90    2.70
  -7   2  -7    0.30    2.10
  -7   2  -7    1.10    2.10
   7   2   7    3.60    3.90
  -8  -2  -7    2.50    2.70
  -8  -2  -7    1.30    2.70
   8  -2   7    1.30    3.70
  -8  -2  -7    4.50    6.60
   8  -2   7    0.50    2.50
   8   2   7    3.60    4.60
  -8   2  -7    2.90    2.20
  -8   2  -7    3.50    2.40
  -9  -2  -7    8.50    2.90
   9  -2   7    5.70    4.10
  -9  -2  -7   11.30    3.00
   9   2   7   14.50    5.40
  -9   2  -7    6.90    2.50
  -9   2  -7    7.20    2.40
 -10  -2  -7   28.80    5.20
  10  -2   7   33.50    6.70
 -10  -2  -7   26.30    4.60
  10   2   7   37.70    7.50
 -10   2  -7   29.10    4.90
  11  -2   7   54.09    6.50
 -11  -2  -7   36.20    4.60
 -11  -2  -7   36.80    4.90
 -11   2  -7   45.50    4.80
  11   2   7   49.10    7.30
  12  -2   7   -2.90    2.60
 -12  -2  -7   -1.30    2.00
  12   2   7    1.00    3.50
 -12   2  -7   -0.20    1.90
  14  -3  -7   21.90    5.10
 -14  -3   7   18.80    2.80
 -14   3   7   21.60    3.30
  13  -3  -7   17.40    3.70
 -13  -3   7   14.00    2.90
  13  -3  -7    6.00    5.00
 -13   3   7   23.60    3.00
  13   3  -7   16.60    4.30
  12  -3  -7  160.78   13.90
  12  -3  -7  164.98   12.00
 -12  -3   7  143.59   10.80
 -12   3   7  162.18   10.70
  12   3  -7  168.18   12.70
 -11  -3   7   76.79   10.30
 -11  -3   7   72.99    7.40
  11  -3  -7   78.49    8.70
  11  -3  -7   90.29   10.60
 -11   3   7   87.79    9.30
 -11   3   7   85.99    7.00
  11   3  -7   79.59    9.70
  10  -3  -7    0.20    3.50
  10  -3  -7   -1.40    4.60
 -10  -3   7    2.70    2.90
 -10  -3   7    3.10    6.30
 -10  -3   7    3.00    4.90
  10   3  -7   -1.90    4.70
 -10   3   7   -2.00    4.10
 -10   3   7    1.20    5.10
 -10   3   7    2.00    2.50
   9  -3  -7   42.60    7.00
   9  -3  -7   43.90    6.80
  -9  -3   7   42.90    5.30
  -9  -3   7   39.40    6.70
  -9  -3   7   34.90    6.80
   9   3  -7   41.60    5.80
  -9   3   7   35.80    6.00
  -9   3   7   42.80    4.70
  -9   3   7   38.70    4.80
   9   3  -7   44.90    8.40
  -9   3   7   36.70    6.90
  -8  -3   7    6.10    4.20
  -8  -3   7   10.20    2.90
   8  -3  -7   14.60    3.50
  -8  -3   7    6.30    4.80
   8  -3  -7    6.10    3.30
  -8   3   7    4.70    3.70
  -8   3   7    8.70    2.20
  -8   3   7    8.10    2.30
   8   3  -7    5.20    3.90
   8   3  -7    3.70    3.00
  -8   3   7    1.40    4.00
   7  -3  -7  213.08   15.10
  -7  -3   7  226.18   14.20
  -7  -3   7  238.58   17.00
   7  -3  -7  257.57   15.60
  -7  -3   7  230.88   16.40
  -7  -3   7  240.68   14.70
   7   3  -7  245.78   16.10
   7   3  -7  246.68   15.20
  -7   3   7  240.78   16.90
  -7   3   7  238.08   14.50
  -7   3   7  253.77   14.80
  -6  -3   7   18.60    4.30
  -6  -3   7   15.70    2.50
   6  -3  -7   13.70    2.60
  -6  -3   7   13.80    3.70
  -6  -3   7   13.00    2.30
   6  -3  -7   24.20    3.60
   6   3  -7    4.30    2.40
  -6   3   7   11.20    3.40
  -6   3   7   13.80    2.40
  -6   3   7    9.00    1.80
   6   3  -7   11.30    3.70
  -6   3   7   11.10    3.90
   5  -3  -7  417.56   26.00
  -5  -3   7  449.26   27.20
  -5  -3   7  403.96   27.30
  -5  -3   7  466.35   25.90
  -5  -3   7  453.35   25.70
   5  -3  -7  462.75   26.80
   5  -3  -7  415.46   25.90
   5   3  -7  440.66   26.80
  -5   3   7  454.55   26.10
   5   3  -7  461.45   26.30
  -5   3   7  451.95   27.10
  -5   3   7  434.96   27.50
  -5   3   7  431.46   25.70
   5   3  -7  417.96   25.90
  -4  -3   7  432.76   26.80
  -4  -3   7  446.26   25.50
  -4  -3   7  458.05   25.40
   4  -3  -7  417.86   25.70
  -4  -3   7  408.26   26.40
   4  -3  -7  409.76   25.60
   4   3  -7  415.46   25.90
  -4   3   7  465.25   27.10
   4   3  -7  423.76   25.50
  -4   3   7  464.45   25.80
  -4   3   7  449.56   26.60
   4   3  -7  413.06   26.30
  -4   3   7  460.45   26.10
  -3  -3   7  110.99    6.70
   3  -3  -7  109.39    7.40
   3  -3  -7   96.79    6.80
  -3  -3   7   97.59    7.40
  -3  -3   7   98.39    7.70
  -3   3   7  110.49    7.00
   3   3  -7  106.49    7.40
   3   3  -7   97.99    6.80
  -3   3   7  104.79    8.10
  -3   3   7  109.39    7.40
   3   3  -7  108.99    7.80
  -3   3   7  105.29    7.80
  -2  -3   7   50.69    3.70
  -2  -3   7   43.40    4.00
   2  -3  -7   39.90    3.70
  -2  -3   7   54.09    4.30
   2   3  -7   46.10    4.40
  -2   3   7   46.40    3.80
  -2   3   7   50.59    4.70
   2   3  -7   48.80    3.80
   2   3  -7   57.39    3.90
   2   3  -7   49.70    3.90
   2   3  -7   45.80    4.70
  -2   3   7   54.19    5.30
  -2   3   7   51.69    4.40
   1  -3  -7  208.28   11.50
  -1  -3   7  194.48   11.30
  -1  -3   7  183.58   11.40
  -1   3   7  189.58   12.10
  -1   3   7  192.18   11.80
  -1   3   7  194.28   12.50
   1   3  -7  169.78   11.80
   1   3  -7  190.68   11.20
  -1   3   7  174.48   11.50
   1   3  -7  190.48   11.30
  -1   3   7  175.98   12.00
   1   3  -7  174.28   11.70
   1   3  -7  183.68   11.40
   0  -3   7 1407.66   80.39
   0  -3  -7 1249.57   80.29
   0   3   7 1527.05   80.99
   0   3  -7 1439.26   80.49
   0   3  -7 1338.07   80.69
   0   3   7 1420.66   81.39
   0   3   7 1419.16   80.79
   0   3   7 1267.37   80.69
   0   3  -7 1509.75   80.29
   0   3  -7 1401.56   80.39
   0   3   7 1380.66   81.09
   1  -3   7   89.89    6.00
  -1  -3  -7   89.59    6.40
  -1  -3  -7   87.69    6.00
  -1   3  -7   95.79    6.00
   1   3   7   88.99    7.10
   1   3   7   91.59    6.60
  -1   3  -7   88.09    6.20
  -1   3  -7   92.39    5.70
  -1   3  -7   79.09    6.40
   1   3   7   85.69    7.10
   1   3   7   84.49    6.60
   1   3   7   83.39    6.40
  -2  -3  -7  975.00   54.39
  -2  -3  -7 1023.50   54.39
   2  -3   7  876.31   54.49
  -2  -3  -7 1011.10   54.69
   2   3   7  888.51   54.89
   2   3   7  991.50   55.09
  -2   3  -7  926.81   54.59
   2   3   7  918.71   55.09
  -2   3  -7  905.31   54.29
  -2   3  -7  957.10   54.49
  -2   3  -7  877.51   54.59
   2   3   7  947.01   54.89
  -3  -3  -7  572.74   33.10
  -3  -3  -7  584.54   32.80
  -3  -3  -7  606.54   32.80
   3  -3   7  535.45   32.90
  -3  -3  -7  529.55   35.20
  -3   3  -7  536.65   33.00
   3   3   7  547.85   33.50
   3   3   7  551.84   33.20
   3   3   7  567.34   33.50
  -3   3  -7  571.64   32.60
  -3   3  -7  579.64   32.80
  -3   3  -7  557.74   32.90
   3   3   7  545.85   33.40
  -4  -3  -7  117.29    8.10
   4  -3   7  123.39    8.20
  -4  -3  -7  119.49    8.70
  -4  -3  -7  125.59    8.20
  -4  -3  -7  114.79   12.00
  -4  -3  -7  112.59   11.10
   4   3   7  126.29    9.30
  -4   3  -7  121.99    8.20
  -4   3  -7  118.79    8.20
   4   3   7  125.89    9.10
  -4   3  -7  115.49    8.00
   4   3   7  119.49    8.40
  -4   3  -7  119.69    7.70
  -5  -3  -7  433.06   26.50
  -5  -3  -7  422.56   29.60
   5  -3   7  480.55   26.30
  -5  -3  -7  451.05   26.20
  -5  -3  -7  425.16   26.10
  -5  -3  -7  424.66   28.80
  -5   3  -7  432.36   26.20
  -5   3  -7  429.66   26.10
   5   3   7  438.46   26.50
   5   3   7  441.86   27.10
  -5   3  -7  459.45   25.90
   5   3   7  447.26   27.00
   6  -3   7   21.80    4.30
  -6  -3  -7   14.80    2.90
  -6  -3  -7   35.00    5.30
   6  -3   7   12.70    3.30
   6   3   7   22.30    4.20
  -6   3  -7   19.00    3.80
  -6   3  -7   19.20    2.60
  -6   3  -7   26.30    4.10
   6   3   7   30.70    5.80
  -7  -3  -7  132.49    8.70
   7  -3   7  120.79    8.60
   7  -3   7  115.19    9.50
  -7  -3  -7  126.49   15.80
  -7  -3  -7  106.49    9.20
  -7   3  -7  118.09    8.40
  -7   3  -7  110.59    7.80
  -7   3  -7  100.69    8.30
   7   3   7  136.59   10.30
  -8  -3  -7    6.60    2.90
   8  -3   7    4.30    2.70
  -8  -3  -7    0.20    2.80
   8  -3   7    2.70    3.80
  -8  -3  -7    9.40   11.10
  -8  -3  -7    9.60    6.60
  -8   3  -7    1.60    2.30
   8   3   7    0.30    4.10
  -8   3  -7    0.40    2.50
  -8   3  -7    4.00    2.20
   9  -3   7   12.60    4.50
  -9  -3  -7   25.40    5.00
  -9  -3  -7   11.40    3.10
   9  -3   7   14.90    3.20
   9   3   7   11.80    5.00
  -9   3  -7   12.10    3.00
 -10  -3  -7   14.10    2.80
 -10  -3  -7   20.00    3.40
  10  -3   7   18.80    4.40
  10   3   7   10.80    5.10
 -10   3  -7   18.30    3.10
 -11  -3  -7   16.50    2.70
 -11  -3  -7   14.60    3.00
  11  -3   7   14.00    3.70
  11   3   7   13.30    4.30
 -11   3  -7   12.60    2.60
 -12  -3  -7    2.20    2.00
  12   3   7    7.60    3.40
 -12   3  -7    2.30    1.80
 -14  -4   7   25.50    3.30
  14  -4  -7    9.60    4.50
 -14   4   7   15.60    2.30
  13  -4  -7   41.30    6.80
  13  -4  -7   33.60    5.60
 -13  -4   7   30.20    4.60
  13   4  -7   47.30    6.60
 -13   4   7   31.20    4.00
  12  -4  -7   -0.20    5.70
  12  -4  -7   -0.10    3.40
 -12  -4   7   -0.30    2.70
  12   4  -7    6.60    4.80
 -12   4   7    1.20    2.40
 -11  -4   7   71.59    7.10
 -11  -4   7   69.49    9.90
  11  -4  -7   80.59   10.70
 -11   4   7   72.69    6.50
  11   4  -7   92.59   10.00
 -11   4   7   64.49    8.80
  10  -4  -7   64.09    8.00
 -10  -4   7   45.90    6.30
 -10  -4   7   53.29    9.40
 -10   4   7   52.49    7.90
  10   4  -7   60.59    9.40
 -10   4   7   59.19    5.70
  -9  -4   7    0.50    2.90
   9  -4  -7    7.20    3.40
   9  -4  -7    3.30    3.30
  -9  -4   7    3.50    4.70
  -9  -4   7    4.20    5.80
   9   4  -7    0.90    4.60
   9   4  -7    6.50    3.40
  -9   4   7    2.00    4.10
  -9   4   7    2.20    2.40
  -9   4   7   -1.70    5.00
  -9   4   7    2.00    2.40
   8  -4  -7   49.40    6.80
  -8  -4   7   55.19    8.00
  -8  -4   7   47.70    7.70
  -8  -4   7   50.09    4.20
   8  -4  -7   51.39    7.30
  -8   4   7   71.29    9.10
  -8   4   7   45.70    4.90
  -8   4   7   51.69    7.10
  -8   4   7   47.30    4.80
   8   4  -7   50.19    6.40
   8   4  -7   38.90    7.90
  -7  -4   7   86.29   10.00
  -7  -4   7   95.89    7.00
  -7  -4   7   83.69    9.00
  -7  -4   7   91.89    6.30
   7  -4  -7   97.39    7.90
   7  -4  -7   86.19    7.60
   7   4  -7   88.89    8.20
  -7   4   7   96.99    6.80
  -7   4   7  116.19    9.10
  -7   4   7   92.29    9.70
  -7   4   7   91.59    6.70
  -6  -4   7   98.29    9.00
  -6  -4   7  103.69    9.80
  -6  -4   7   98.19    7.20
   6  -4  -7   96.19    7.60
  -6  -4   7  105.89    6.90
   6  -4  -7  114.19    8.70
  -6   4   7  109.29    7.30
   6   4  -7  103.59    7.50
   6   4  -7   96.79    7.60
   6   4  -7  104.29    9.10
   6   4  -7  112.79    8.30
  -6   4   7  102.29    8.80
  -6   4   7  119.99    9.80
  -5  -4   7  410.56   26.10
   5  -4  -7  396.16   24.40
  -5  -4   7  401.76   25.60
  -5  -4   7  421.06   24.40
   5   4  -7  425.16   24.90
   5   4  -7  425.76   24.50
  -5   4   7  428.16   25.70
   5   4  -7  412.46   25.50
  -5   4   7  411.86   24.20
  -5   4   7  416.96   24.60
   5   4  -7  392.66   24.30
  -5   4   7  411.66   26.10
   4  -4  -7  238.78   15.10
   4  -4  -7  256.47   15.40
  -4  -4   7  276.37   15.00
  -4  -4   7  243.18   15.10
  -4  -4   7  230.38   16.00
  -4  -4   7  248.18   16.40
   4   4  -7  247.98   16.30
  -4   4   7  250.27   15.30
   4   4  -7  248.38   15.20
  -4   4   7  262.27   15.70
  -4   4   7  255.67   16.30
   4   4  -7  240.98   15.20
  -4   4   7  268.27   16.90
   4   4  -7  249.88   15.70
  -3  -4   7  260.67   14.70
  -3  -4   7  222.38   15.40
   3  -4  -7  232.68   14.70
  -3  -4   7  240.18   15.70
   3   4  -7  256.07   15.40
   3   4  -7  246.78   15.00
   3   4  -7  233.78   15.80
  -3   4   7  248.28   16.30
   3   4  -7  244.18   14.80
  -3   4   7  249.78   15.90
  -3   4   7  253.37   15.40
  -3   4   7  257.47   15.20
   3   4  -7  260.47   15.00
  -2  -4   7   22.60    3.10
  -2  -4   7   25.10    2.70
  -2  -4   7   20.90    3.20
   2  -4  -7   18.70    2.60
   2   4  -7   22.90    3.00
   2   4  -7   26.80    3.90
   2   4  -7   23.30    4.30
  -2   4   7   21.20    4.10
   2   4  -7   26.10    3.00
  -2   4   7   14.10    3.00
  -2   4   7   22.10    3.60
   2   4  -7   21.00    3.00
  -2   4   7   25.40    2.90
  -2   4   7   18.50    3.50
   1  -4  -7  302.87   18.20
  -1  -4   7  312.97   18.00
   1  -4  -7  304.97   17.90
   1   4  -7  276.37   18.50
   1   4  -7  265.57   18.50
   1   4  -7  311.57   18.00
  -1   4   7  338.57   18.90
  -1   4   7  312.37   18.60
   1   4  -7  298.37   18.10
  -1   4   7  306.37   19.30
   1   4  -7  317.87   18.20
  -1   4   7  309.07   18.90
  -1   4   7  303.87   18.40
   0  -4   7    1.90    1.30
   0  -4  -7    0.80    1.20
   0  -4  -7    1.30    1.80
   0   4   7    0.60    1.50
   0   4   7    3.40    2.40
   0   4   7    2.60    2.40
   0   4  -7    2.60    1.60
   0   4  -7    4.70    2.00
   0   4   7    2.00    2.00
   0   4  -7    1.20    1.50
   0   4   7    1.70    2.00
   0   4  -7    4.00    1.60
  -1  -4  -7   61.39    4.80
   1  -4   7   63.39    4.90
  -1  -4  -7   64.99    5.60
  -1   4  -7   63.49    5.40
   1   4   7   65.29    6.10
   1   4   7   70.29    5.60
   1   4   7   61.89    5.20
  -1   4  -7   61.79    5.10
   1   4   7   70.29    5.80
   1   4   7   71.39    6.20
  -1   4  -7   68.29    5.30
  -1   4  -7   70.99    4.80
  -2  -4  -7   63.89    5.80
  -2  -4  -7   68.69    5.10
  -2  -4  -7   58.99    4.90
   2  -4   7   58.59    5.00
  -2   4  -7   68.59    5.50
   2   4   7   64.79    5.90
   2   4   7   63.99    5.40
  -2   4  -7   68.59    5.20
  -2   4  -7   68.89    5.30
   2   4   7   66.39    6.30
  -2   4  -7   66.69    4.70
   2   4   7   64.39    5.80
  -3  -4  -7   62.69   10.40
   3  -4   7   66.69    5.60
  -3  -4  -7   75.49    5.70
  -3  -4  -7   74.29    5.80
  -3  -4  -7   73.79    6.60
  -3   4  -7   76.49    5.60
  -3   4  -7   76.79    5.90
   3   4   7   69.39    6.30
   3   4   7   68.99    6.30
   3   4   7   61.09    7.00
  -3   4  -7   87.19    5.30
  -3   4  -7   72.19    5.90
  -4  -4  -7    2.40    5.10
  -4  -4  -7    5.80    2.80
  -4  -4  -7    4.10    2.20
   4  -4   7    5.90    2.20
  -4  -4  -7    6.40    6.00
  -4  -4  -7    5.90    2.40
  -4   4  -7    5.30    2.10
  -4   4  -7    5.20    2.10
   4   4   7    4.90    2.40
   4   4   7    3.80    2.90
  -4   4  -7    2.50    1.80
   4   4   7    4.80    2.90
   5  -4   7   45.10    4.90
  -5  -4  -7   41.30    5.20
  -5  -4  -7   31.90    8.50
  -5  -4  -7   53.59    6.30
  -5  -4  -7   45.40    8.20
  -5  -4  -7   42.80    5.50
  -5   4  -7   43.20    4.50
   5   4   7   40.40    6.80
  -5   4  -7   47.30    4.90
   5   4   7   42.60    6.10
  -5   4  -7   38.00    4.00
   5   4   7   33.80    5.10
  -6  -4  -7   44.20    5.70
  -6  -4  -7   45.30    5.40
   6  -4   7   50.69    5.10
  -6  -4  -7   22.10    8.40
  -6  -4  -7   33.70    7.60
   6   4   7   39.60    7.00
  -6   4  -7   40.30    4.80
  -6   4  -7   34.30    4.10
   6   4   7   32.70    5.10
   6   4   7   29.10    6.30
  -6   4  -7   27.70    4.70
  -7  -4  -7   40.20    6.10
  -7  -4  -7   47.40    6.80
  -7  -4  -7   53.49    6.50
  -7  -4  -7   53.69   10.50
   7  -4   7   66.99    6.20
  -7  -4  -7   53.39    9.30
  -7   4  -7   53.99    5.60
   7   4   7   60.49    7.70
  -7   4  -7   60.49    5.70
   7   4   7   61.49    7.60
  -7   4  -7   65.89    5.10
  -8  -4  -7    7.00    2.90
  -8  -4  -7    3.40    3.00
   8  -4   7    3.70    2.70
  -8  -4  -7    2.90    7.10
  -8   4  -7    5.80    2.30
  -8   4  -7    3.70    2.30
   8   4   7    5.30    4.70
  -8   4  -7    4.40    2.70
   9  -4   7  102.49    7.30
  -9  -4  -7   81.49   13.80
  -9  -4  -7   75.49    7.60
  -9  -4  -7   62.49    7.40
  -9   4  -7   83.29    7.00
  -9   4  -7   84.69    6.30
   9   4   7   97.89    9.60
 -10  -4  -7    8.50    3.00
 -10  -4  -7    8.90    2.80
 -10   4  -7   10.50    2.70
  10   4   7   13.70    4.90
 -11  -4  -7   31.90    4.50
 -11  -4  -7   33.80    4.70
  11   4   7   51.29    6.60
 -11   4  -7   38.70    4.30
 -12  -4  -7    7.20    2.20
  12   4   7    7.60    3.10
 -12   4  -7    6.80    2.10
  13  -5  -7    3.80    4.90
  13  -5  -7    2.00    2.90
 -13   5   7    0.00    1.80
 -12  -5   7   37.20    5.60
  12  -5  -7   52.69    7.00
  12  -5  -7   45.00    7.40
  12   5  -7   41.10    8.00
 -12   5   7   44.20    4.80
  11  -5  -7  145.19   13.10
  11  -5  -7  145.29   11.30
 -11  -5   7  132.59   13.00
 -11  -5   7  128.69    9.70
  11   5  -7  145.89   12.70
 -11   5   7  123.89    9.30
 -11   5   7  128.79   11.80
 -10  -5   7   47.00    6.00
  10  -5  -7   40.60    7.40
 -10  -5   7   52.39    8.10
 -10   5   7   56.99    8.20
 -10   5   7   46.00    5.40
  10   5  -7   62.79    9.80
  10   5  -7   41.80    8.40
 -10   5   7   53.19    5.40
  -9  -5   7   18.90    5.90
  -9  -5   7   18.90    3.80
  -9  -5   7   17.20    7.10
   9  -5  -7   33.70    7.10
  -9  -5   7   21.90    3.50
   9   5  -7   35.90    6.60
  -9   5   7   32.40    5.70
  -9   5   7   27.50    6.90
   9   5  -7   34.90    6.50
  -9   5   7   29.00    4.30
  -9   5   7   27.40    4.40
   8  -5  -7    2.40    3.10
  -8  -5   7    5.00    3.20
  -8  -5   7    2.00    4.30
  -8  -5   7    4.00    1.80
  -8  -5   7   -0.30    5.10
   8   5  -7    0.50    3.60
  -8   5   7    6.70    2.40
  -8   5   7    6.80    2.40
  -8   5   7   -0.10    3.60
  -8   5   7    8.40    4.90
   8   5  -7    1.40    3.30
   8   5  -7    2.70    5.00
  -7  -5   7   89.49    9.30
  -7  -5   7   76.69    9.80
  -7  -5   7   94.09    6.50
  -7  -5   7   91.99    7.30
   7   5  -7   95.49    8.70
   7   5  -7   84.79    7.40
  -7   5   7   97.39    7.00
  -7   5   7   98.99    8.70
   7   5  -7   91.39   10.00
   7   5  -7   73.79    7.60
  -7   5   7  109.99    9.90
   6  -5  -7   15.80    2.70
  -6  -5   7    8.70    1.80
   6  -5  -7   15.80    3.60
  -6  -5   7   15.80    2.70
  -6  -5   7   15.00    4.20
  -6  -5   7   14.90    4.60
  -6   5   7   21.30    4.20
   6   5  -7   13.90    4.30
   6   5  -7   16.30    3.60
  -6   5   7   11.80    2.10
  -6   5   7   10.70    2.30
   6   5  -7   16.10    3.30
  -6   5   7   15.50    4.50
   6   5  -7   13.40    2.70
  -5  -5   7   54.69    4.30
   5  -5  -7   44.10    4.80
  -5  -5   7   46.50    6.10
  -5  -5   7   48.90    4.80
  -5  -5   7   49.90    6.90
  -5   5   7   53.59    6.50
   5   5  -7   44.80    5.30
   5   5  -7   55.79    7.10
  -5   5   7   54.39    4.60
   5   5  -7   52.99    5.20
  -5   5   7   53.09    5.90
   5   5  -7   55.39    6.30
  -5   5   7   53.29    4.20
   4  -5  -7  465.25   28.70
  -4  -5   7  472.05   29.90
  -4  -5   7  474.65   29.50
   4  -5  -7  467.25   28.40
  -4  -5   7  500.85   28.40
   4   5  -7  483.55   28.70
  -4   5   7  490.35   29.10
   4   5  -7  484.75   28.60
  -4   5   7  485.75   30.20
  -4   5   7  502.75   28.90
  -4   5   7  505.05   29.90
   4   5  -7  493.75   29.20
   4   5  -7  492.15   29.70
   3  -5  -7    0.80    1.30
  -3   5   7    2.60    2.90
   3   5  -7    2.90    1.90
  -3   5   7    4.50    1.90
   3   5  -7    5.60    2.10
   3   5  -7    5.30    2.40
   3   5  -7    3.00    2.40
  -3   5   7    1.90    1.80
   3   5  -7    0.00    2.80
  -3   5   7    4.30    2.70
  -2  -5   7 1722.53   93.89
   2  -5  -7 1483.85   93.69
  -2   5   7 1638.14   94.89
   2   5  -7 1693.03   93.89
  -2   5   7 1669.33   95.39
   2   5  -7 1681.93   93.89
   2   5  -7 1543.15   94.49
  -2   5   7 1680.73   94.39
   2   5  -7 1538.25   94.29
  -2   5   7 1644.24   94.39
   2   5  -7 1642.14   94.09
   1  -5  -7   31.60    3.00
   1  -5  -7   32.80    3.90
  -1  -5   7   31.60    3.40
  -1   5   7   29.60    3.90
   1   5  -7   28.20    3.60
  -1   5   7   29.00    4.30
   1   5  -7   33.80    3.80
  -1   5   7   35.90    4.30
   1   5  -7   32.10    4.60
  -1   5   7   33.80    3.50
   1   5  -7   28.10    4.50
   1   5  -7   33.60    3.80
  -1   5   7   30.80    4.80
   0  -5  -7  190.48   12.00
   0  -5   7  207.18   12.30
   0   5   7  201.48   13.70
   0   5   7  212.48   13.10
   0   5  -7  221.38   12.20
   0   5  -7  179.18   12.80
   0   5  -7  215.18   12.90
   0   5   7  215.18   13.30
   0   5   7  171.78   12.80
   0   5   7  170.48   12.50
   0   5  -7  220.38   12.40
  -1  -5  -7    1.50    1.50
   1  -5   7   -0.40    1.50
  -1   5  -7    3.30    2.20
  -1   5  -7    3.20    1.90
   1   5   7    2.50    2.40
  -1   5  -7    2.70    1.80
   1   5   7    1.10    2.80
  -1   5  -7    3.00    1.80
   1   5   7    3.00    2.00
   1   5   7    1.50    2.20
   1   5   7    3.40    2.70
  -2  -5  -7   51.09    4.60
   2  -5   7   49.99    4.60
  -2  -5  -7   49.60    8.60
  -2  -5  -7   46.20    4.70
   2   5   7   47.90    5.50
  -2   5  -7   64.79    4.50
   2   5   7   59.19    5.70
   2   5   7   55.19    6.60
  -2   5  -7   53.19    4.90
   2   5   7   51.29    5.10
  -2   5  -7   46.00    5.30
  -2   5  -7   53.49    5.00
   3  -5   7  266.27   17.00
  -3  -5  -7  278.67   17.10
  -3  -5  -7  291.57   16.90
  -3  -5  -7  282.57   21.40
  -3   5  -7  267.97   17.20
   3   5   7  283.97   17.70
   3   5   7  291.67   18.10
  -3   5  -7  275.87   17.20
   3   5   7  277.67   18.10
   3   5   7  273.37   17.60
  -3   5  -7  287.17   16.80
  -3   5  -7  290.77   17.10
   4  -5   7  103.69    7.30
  -4  -5  -7  100.79   12.20
  -4  -5  -7  100.89   13.60
  -4  -5  -7   98.79    7.30
  -4  -5  -7   92.19    7.60
   4   5   7   85.69    7.80
  -4   5  -7   91.99    7.40
   4   5   7   96.89    8.10
  -4   5  -7  102.59    7.30
   4   5   7   97.39    9.10
  -4   5  -7   97.99    6.80
  -5  -5  -7  265.17   16.70
  -5  -5  -7  257.47   17.40
  -5  -5  -7  264.07   17.00
  -5  -5  -7  225.68   22.10
  -5  -5  -7  263.77   21.20
   5  -5   7  286.67   16.90
  -5   5  -7  278.37   16.80
  -5   5  -7  279.07   16.90
  -5   5  -7  276.27   16.30
   5   5   7  271.87   18.00
   5   5   7  274.07   17.40
   5   5   7  260.57   17.60
   6  -5   7   11.90    3.00
  -6  -5  -7    7.80    3.30
  -6  -5  -7   -6.90    7.50
  -6  -5  -7    9.70    3.10
  -6  -5  -7   11.90    7.10
  -6  -5  -7    9.50    3.70
   6   5   7    4.60    3.80
   6   5   7    7.90    4.20
  -6   5  -7   12.40    2.70
   6   5   7    6.00    3.00
  -6   5  -7    9.90    2.50
  -6   5  -7   11.20    2.90
   7  -5   7   63.99    6.50
  -7  -5  -7   61.49    7.10
  -7  -5  -7   68.29   12.00
  -7  -5  -7   29.40   10.70
  -7  -5  -7   53.59    7.60
   7   5   7   62.39    6.70
  -7   5  -7   65.29    6.50
  -7   5  -7   64.29    6.10
   7   5   7   71.79    8.40
  -7   5  -7   76.69    5.60
   8  -5   7   50.09    6.10
  -8  -5  -7   82.99   12.30
  -8   5  -7   56.39    6.10
   8   5   7   72.89    8.00
  -8   5  -7   47.50    5.00
  -8   5  -7   48.10    5.60
  -9  -5  -7   43.30    6.00
   9  -5   7   45.10    5.40
  -9  -5  -7   35.50    5.70
  -9   5  -7   35.50    4.30
   9   5   7   41.20    7.10
  -9   5  -7   32.30    5.10
 -10  -5  -7   62.69    6.40
  10  -5   7   80.89    6.10
 -10  -5  -7   53.79    6.00
 -10   5  -7   57.39    5.60
  10   5   7   82.59    8.10
 -11  -5  -7    3.10    2.10
 -11  -5  -7    3.40    2.10
 -11   5  -7    2.20    2.00
  11   5   7    0.10    3.40
  13  -6  -7    3.60    4.30
  13  -6  -7    0.40    2.60
 -13  -6   7   -0.10    1.80
  13   6  -7    1.60    3.40
 -13   6   7    3.40    1.80
  12  -6  -7   30.70    6.10
 -12  -6   7   30.40    4.90
  12  -6  -7   32.90    6.30
 -12   6   7   34.20    4.20
  12   6  -7   38.20    7.20
  11  -6  -7   32.90    6.90
 -11  -6   7   15.50    3.30
  11   6  -7   19.60    5.20
 -11   6   7   14.10    2.70
  10  -6  -7   34.90    7.60
 -10  -6   7   46.50    6.10
 -10  -6   7   31.50    6.80
  10   6  -7   52.29    7.40
 -10   6   7   44.70    5.20
 -10   6   7   47.40    7.90
 -10   6   7   49.20    5.10
  -9  -6   7    1.00    3.30
  -9  -6   7    0.50    5.20
  -9  -6   7    4.50    2.00
   9  -6  -7    4.60    3.70
  -9   6   7    6.60    4.40
  -9   6   7    2.40    2.50
  -9   6   7    4.80    2.60
   9   6  -7    1.60    5.10
   9   6  -7    4.90    4.00
  -8  -6   7   85.39    7.30
  -8  -6   7   74.59    6.10
  -8  -6   7   70.09   10.10
  -8  -6   7   76.99    9.60
   8   6  -7   77.49    7.30
   8   6  -7   74.99    8.30
  -8   6   7   80.79    6.40
   8   6  -7   60.49    8.10
   8   6  -7   80.89   10.30
  -8   6   7   91.89   10.40
  -8   6   7   86.29    8.70
  -8   6   7   79.49    6.50
  -7  -6   7    2.20    1.90
  -7  -6   7    1.30    5.10
   7  -6  -7    1.60    2.90
   7  -6  -7   -3.90    2.50
  -7  -6   7    2.10    3.00
  -7  -6   7   -0.60    4.50
  -7   6   7    2.10    3.60
   7   6  -7    2.20    2.90
  -7   6   7    0.50    2.00
  -7   6   7    9.00    4.60
   7   6  -7    3.60    5.00
   7   6  -7    0.70    3.30
  -7   6   7    1.90    2.20
   7   6  -7    1.90    3.60
   6  -6  -7  209.68   14.50
  -6  -6   7  207.68   12.90
   6  -6  -7  194.98   13.40
  -6  -6   7  203.48   16.00
  -6  -6   7  219.58   13.60
  -6  -6   7  208.68   15.20
   6   6  -7  204.88   13.70
   6   6  -7  202.78   13.90
  -6   6   7  219.38   13.50
  -6   6   7  213.58   15.00
  -6   6   7  219.88   13.00
   6   6  -7  225.78   15.80
  -6   6   7  225.48   16.10
   6   6  -7  205.78   14.50
  -5  -6   7    6.50    4.20
  -5  -6   7   11.20    3.90
   5  -6  -7   13.00    2.40
  -5  -6   7    9.60    2.70
  -5  -6   7    9.40    2.00
  -5   6   7    5.40    3.70
  -5   6   7   13.00    2.90
   5   6  -7   13.60    2.90
  -5   6   7    7.70    2.20
   5   6  -7   12.40    3.10
   5   6  -7   12.40    3.70
  -5   6   7   14.60    4.50
   5   6  -7   16.20    4.60
   4  -6  -7   10.60    1.90
  -4  -6   7    8.20    1.80
   4   6  -7   12.60    3.50
   4   6  -7    8.60    2.40
  -4   6   7   13.40    2.50
  -4   6   7   13.70    3.60
   4   6  -7   13.10    4.20
   4   6  -7   13.20    3.00
  -4   6   7   17.50    4.20
  -4   6   7   11.80    2.50
  -3  -6   7  226.68   13.70
  -3   6   7  235.98   15.90
  -3   6   7  230.58   14.50
  -3   6   7  226.88   14.20
   3   6  -7  232.58   14.30
  -3   6   7  233.48   15.30
   3   6  -7  225.88   14.10
   3   6  -7  222.08   15.30
   3   6  -7  212.18   14.70
  -3   6   7  209.48   14.50
   3   6  -7  231.28   14.10
  -2  -6   7  339.37   19.60
  -2   6   7  321.37   20.40
   2   6  -7  315.67   20.40
  -2   6   7  343.57   21.50
   2   6  -7  331.77   19.80
   2   6  -7  310.57   20.50
  -2   6   7  334.97   20.30
  -2   6   7  330.37   20.90
  -2   6   7  327.47   20.00
   2   6  -7  335.07   20.00
   2   6  -7  331.47   19.80
   1  -6  -7    7.50    1.60
  -1  -6   7   13.80    2.00
   1   6  -7    7.20    3.00
  -1   6   7   10.40    3.00
   1   6  -7    8.60    2.80
  -1   6   7    8.30    2.20
  -1   6   7   10.60    3.20
  -1   6   7   12.60    2.90
   1   6  -7   10.50    2.50
   1   6  -7    6.30    2.20
  -1   6   7   13.00    3.70
   1   6  -7   10.80    2.60
   0  -6   7  154.58   10.00
   0  -6  -7  150.88    9.70
   0   6   7  152.68   10.50
   0   6  -7  158.58   10.10
   0   6  -7  159.98   11.00
   0   6   7  154.68   11.70
   0   6  -7  163.58   10.40
   0   6  -7  158.08   10.50
   0   6   7  165.88   11.40
   0   6   7  160.68   11.20
   0   6   7  169.88   10.90
  -1  -6  -7  185.08   12.10
   1  -6   7  192.78   12.40
   1   6   7  201.98   13.20
   1   6   7  202.38   13.50
  -1   6  -7  204.38   12.70
  -1   6  -7  216.48   12.60
  -1   6  -7  187.58   13.00
   1   6   7  210.28   13.90
  -1   6  -7  200.58   12.30
   1   6   7  199.38   12.90
  -2  -6  -7   80.49    6.00
  -2  -6  -7   69.59    6.20
  -2  -6  -7   88.19   11.40
   2   6   7   75.29    6.50
   2   6   7   89.69    7.30
   2   6   7   82.19    7.20
   2   6   7   85.59    8.10
  -3  -6  -7   28.40    4.50
   3  -6   7   31.70    4.30
  -3  -6  -7   35.60    4.90
  -3  -6  -7   40.20    8.60
  -3   6  -7   32.00    4.70
  -3   6  -7   26.70    4.80
   3   6   7   35.70    5.40
  -3   6  -7   29.90    4.00
   3   6   7   25.20    4.80
  -3   6  -7   32.30    4.90
   3   6   7   32.20    5.70
  -4  -6  -7  251.47   16.40
  -4  -6  -7  222.98   21.90
  -4  -6  -7  253.87   16.10
   4  -6   7  261.57   16.30
  -4  -6  -7  251.17   21.10
  -4   6  -7  269.57   16.50
   4   6   7  265.47   17.20
  -4   6  -7  261.97   15.90
  -4   6  -7  272.77   16.30
   4   6   7  265.57   17.60
   4   6   7  275.47   17.10
  -5  -6  -7   20.50    3.80
  -5  -6  -7   29.60    4.60
  -5  -6  -7   22.00    8.60
   5  -6   7   24.60    4.70
  -5  -6  -7   23.20    3.50
  -5  -6  -7   17.90    9.10
  -5   6  -7   23.20    4.20
  -5   6  -7   18.00    3.20
  -5   6  -7   26.10    5.20
   5   6   7   35.20    5.30
   5   6   7   30.40    4.60
   5   6   7   21.90    4.30
  -6  -6  -7    1.60    7.10
   6  -6   7    7.10    2.90
  -6  -6  -7   -0.10    8.50
  -6  -6  -7    9.50    3.20
  -6  -6  -7   -1.20    3.40
  -6  -6  -7    8.80    4.10
  -6   6  -7    6.60    2.70
   6   6   7    2.90    4.10
  -6   6  -7    4.60    2.50
   6   6   7    4.80    4.10
  -6   6  -7    7.60    3.00
   6   6   7   10.90    3.50
  -7  -6  -7   16.10    8.70
   7  -6   7   27.80    5.10
  -7   6  -7   24.00    4.60
  -7   6  -7   26.20    3.80
  -7   6  -7   15.10    2.90
   7   6   7   14.30    3.70
   7   6   7   30.20    6.40
   8  -6   7  113.39    8.10
  -8  -6  -7   84.29    8.20
  -8  -6  -7   94.09    8.50
  -8  -6  -7   76.09   11.70
  -8   6  -7  100.09    7.90
   8   6   7   98.19    8.40
   8   6   7  104.39    9.50
  -8   6  -7   95.89    7.10
  -9  -6  -7   17.70    3.50
  -9  -6  -7   21.70    3.70
  -9  -6  -7   16.70    3.70
   9  -6   7   28.40    4.80
  -9   6  -7   25.10    4.50
   9   6   7   20.10    4.60
  -9   6  -7   16.60    2.70
  10  -6   7   25.00    4.10
 -10  -6  -7   25.70    4.70
 -10  -6  -7   20.00    3.40
 -10   6  -7   22.10    4.00
 -10   6  -7   17.10    3.20
  10   6   7   20.40    4.20
 -11  -6  -7    5.90    2.30
 -11   6  -7    5.50    2.00
  11   6   7    4.30    3.00
  13  -7  -7   -1.70    4.50
  12  -7  -7   53.29    8.20
  12  -7  -7   59.59    6.50
 -12  -7   7   49.99    5.10
 -12   7   7   58.79    4.90
  12   7  -7   63.19    7.30
  11  -7  -7   11.30    5.90
 -11  -7   7   10.00    3.10
  11  -7  -7    7.90    3.60
  11   7  -7   12.00    4.90
 -11   7   7    9.50    2.60
 -10  -7   7   20.20    3.20
  10  -7  -7   25.10    4.40
 -10  -7   7   11.60    3.40
  10   7  -7   14.90    4.40
  10   7  -7   23.50    6.10
 -10   7   7   22.40    3.20
 -10   7   7   22.20    3.60
  -9  -7   7   -1.40    2.10
  -9  -7   7   -1.30    4.90
   9  -7  -7    5.90    3.50
  -9  -7   7    0.30    3.40
  -9   7   7    3.20    2.40
  -9   7   7    3.20    4.20
   9   7  -7   -0.60    5.30
  -9   7   7    2.80    2.60
   9   7  -7    2.50    4.00
  -8  -7   7    0.40    2.00
  -8  -7   7   -1.30    3.30
  -8  -7   7    2.70    4.90
   8   7  -7    0.50    4.20
  -8   7   7   -0.40    2.20
  -8   7   7   -6.60    3.70
  -8   7   7    0.90    2.40
   8   7  -7    3.90    5.70
   8   7  -7   -1.20    3.30
   8   7  -7    1.60    4.20
   7  -7  -7   -0.20    2.80
  -7  -7   7    3.00    4.50
   7  -7  -7    1.30    2.70
  -7  -7   7   -3.80    5.80
  -7  -7   7    3.80    3.10
  -7  -7   7    2.30    2.10
  -7   7   7    3.10    5.10
  -7   7   7    1.10    2.30
   7   7  -7    4.60    3.30
  -7   7   7    2.30    2.20
   7   7  -7    5.90    4.30
   7   7  -7    2.80    3.70
   7   7  -7    0.60    5.10
  -7   7   7    5.40    4.00
   6  -7  -7  123.29   11.10
   6  -7  -7  147.29   10.10
  -6  -7   7  142.99   10.30
  -6  -7   7  133.39   12.20
  -6  -7   7  146.29    9.50
  -6   7   7  154.58   10.10
  -6   7   7  156.18   13.50
  -6   7   7  174.98   12.20
   6   7  -7  155.98   13.30
   6   7  -7  167.58   12.10
   6   7  -7  134.29   11.00
   6   7  -7  139.59   10.70
   5  -7  -7  161.38   10.90
  -5  -7   7  183.88   10.80
   5   7  -7  154.18   11.80
  -5   7   7  155.08   11.10
  -5   7   7  166.98   13.80
  -5   7   7  178.38   12.80
   5   7  -7  167.58   13.70
  -5   7   7  172.78   11.60
   5   7  -7  185.38   11.90
  -4  -7   7  128.49    8.80
   4   7  -7  137.99    9.80
   4   7  -7  135.39    9.80
  -4   7   7  143.59   11.90
   4   7  -7  121.99   11.30
  -4   7   7  125.39    9.50
  -4   7   7  152.18   11.00
  -4   7   7  136.09    9.30
   4   7  -7  142.59   10.90
  -3  -7   7   92.49    6.60
   3   7  -7   89.69    9.20
   3   7  -7   95.29    9.30
  -3   7   7   86.59    7.90
  -3   7   7   90.19    8.40
   3   7  -7   87.89    7.40
   3   7  -7   95.99    7.70
  -3   7   7   96.99    7.00
   3   7  -7   96.19    7.50
  -3   7   7   81.59    7.40
  -3   7   7   98.99    9.50
  -2  -7   7  504.85   28.60
   2   7  -7  481.85   28.80
  -2   7   7  480.85   29.00
   2   7  -7  466.05   29.60
  -2   7   7  485.35   29.40
   2   7  -7  482.35   28.70
   2   7  -7  498.45   29.10
  -2   7   7  503.95   29.30
   2   7  -7  476.45   29.70
  -2   7   7  508.15   30.00
  -2   7   7  435.46   30.30
  -1  -7   7    2.20    1.70
  -1   7   7    1.20    3.00
  -1   7   7    2.00    2.90
  -1   7   7    2.20    3.60
  -1   7   7    4.80    2.40
   1   7  -7    3.50    2.50
  -1   7   7    7.10    3.10
   1   7  -7    0.60    2.80
   1   7  -7    2.20    2.50
   1   7  -7    1.90    2.40
   1   7  -7    1.60    3.20
   0  -7  -7  296.17   17.60
   0  -7   7  278.77   17.90
   0   7   7  291.77   19.10
   0   7  -7  286.07   18.70
   0   7  -7  305.87   18.40
   0   7   7  311.47   19.30
   0   7   7  285.07   19.70
   0   7  -7  292.27   17.90
   0   7   7  292.97   18.40
   0   7  -7  313.67   18.20
   0   7   7  309.47   18.80
  -1  -7  -7    4.40    1.80
   1  -7   7    4.40    2.00
   1   7   7    3.60    3.20
  -1   7  -7    7.30    2.90
   1   7   7    7.70    4.00
   1   7   7    7.40    3.90
  -1   7  -7    3.70    2.40
  -1   7  -7    5.00    2.50
   1   7   7    6.50    2.70
  -1   7  -7    6.40    2.70
   1   7   7    5.00    3.00
   2  -7   7  196.98   12.60
  -2  -7  -7  173.28   13.20
  -2  -7  -7  177.18   17.60
  -2  -7  -7  200.58   12.40
  -2   7  -7  188.08   13.20
  -2   7  -7  201.58   12.80
  -2   7  -7  203.98   13.20
   2   7   7  204.58   13.70
   2   7   7  222.08   14.40
   2   7   7  194.28   13.80
   2   7   7  199.68   13.30
  -2   7  -7  203.18   12.50
  -3  -7  -7   22.60    3.50
  -3  -7  -7   21.90    3.10
  -3  -7  -7    6.30    8.50
   3  -7   7   34.40    4.40
   3   7   7   17.20    3.70
  -3   7  -7   25.60    3.50
  -3   7  -7   18.80    3.20
   3   7   7   19.10    4.30
   3   7   7   13.40    4.40
  -3   7  -7   14.30    3.10
  -4  -7  -7   29.50    5.10
  -4  -7  -7   33.10    5.90
  -4  -7  -7   17.30    8.60
  -4  -7  -7   24.20    9.30
   4  -7   7   28.60    4.60
   4   7   7   23.70    4.40
  -4   7  -7   25.70    4.50
   4   7   7   25.30    5.00
  -4   7  -7   32.60    5.50
  -4   7  -7   29.00    5.20
   4   7   7   21.10    4.20
  -5  -7  -7   18.10    4.00
  -5  -7  -7   18.80    3.50
  -5  -7  -7    2.80    8.10
   5  -7   7   20.60    3.40
  -5  -7  -7   16.30    9.50
   5   7   7   18.80    4.60
  -5   7  -7   27.10    3.70
   5   7   7   23.10    5.10
   5   7   7   18.00    4.00
  -5   7  -7   24.50    3.70
  -5   7  -7   16.20    3.10
  -6  -7  -7   77.29    8.60
   6  -7   7   87.39    7.10
  -6  -7  -7   75.39    8.30
  -6  -7  -7   59.69   11.00
  -6  -7  -7   78.39    7.50
   6   7   7   82.49    9.40
   6   7   7   83.29    8.10
  -6   7  -7   77.49    6.40
   6   7   7   70.69    8.20
  -6   7  -7   73.19    7.10
  -6   7  -7   87.89    7.50
  -7  -7  -7    3.00    3.60
   7  -7   7    1.10    2.80
  -7  -7  -7   -0.30    3.30
  -7  -7  -7   -3.10    7.50
  -7  -7  -7    1.40    3.60
   7   7   7    2.50    4.00
  -7   7  -7    1.90    2.40
  -7   7  -7    2.60    2.50
  -7   7  -7    5.50    3.00
   7   7   7    1.30    3.30
   7   7   7    3.30    4.20
  -8  -7  -7   59.99    7.10
  -8  -7  -7   68.59    7.30
  -8  -7  -7   66.39    7.00
   8   7   7   72.79    8.40
  -8   7  -7   70.89    6.60
   8   7   7   70.59    7.10
   8   7   7   72.19    8.30
  -8   7  -7   59.39    5.60
  -9  -7  -7   24.40    3.80
  -9  -7  -7   31.10    5.10
  -9  -7  -7   29.70    5.50
   9   7   7   16.20    4.70
  10  -7   7   11.70    2.40
 -10  -7  -7    7.60    2.50
 -10  -7  -7   12.60    2.80
  10   7   7   11.30    3.60
 -10   7  -7   12.10    2.00
 -10   7  -7   10.40    2.40
  12  -8  -7   14.70    3.00
  12  -8  -7   19.30    4.70
  12   8  -7   18.60    3.90
 -11  -8   7    6.40    2.60
  11  -8  -7   10.10    4.80
  11  -8  -7    9.80    3.10
  11   8  -7    5.00    4.20
 -11   8   7    7.10    2.00
 -10  -8   7   87.99    7.00
 -10  -8   7   93.99    7.70
  10  -8  -7   99.99    8.60
 -10  -8   7   93.39    7.40
  10   8  -7  100.19    9.10
  10   8  -7  118.09   10.70
 -10   8   7   89.79    6.90
  -9  -8   7    2.50    3.50
   9  -8  -7    4.80    3.30
  -9  -8   7    7.20    2.30
  -9   8   7    8.00    2.40
  -9   8   7    5.10    2.50
   9   8  -7    4.40    5.50
   9   8  -7    4.30    4.30
   9   8  -7    2.40    4.20
  -8  -8   7  285.37   17.40
  -8  -8   7  286.27   18.10
   8   8  -7  269.07   18.50
  -8   8   7  309.37   20.10
   8   8  -7  279.97   20.40
  -8   8   7  308.47   18.00
   8   8  -7  281.17   19.30
  -8   8   7  283.67   17.50
   7  -8  -7    3.40    2.80
  -7  -8   7    0.20    3.40
  -7  -8   7    4.30    2.20
  -7   8   7    1.80    2.40
   7   8  -7   -4.00    4.50
   7   8  -7    0.60    4.00
   7   8  -7   12.60    6.10
   7   8  -7    2.40    3.70
  -7   8   7    1.90    4.30
  -6  -8   7  101.29    8.50
   6  -8  -7  102.59    7.80
   6  -8  -7   94.59    9.00
  -6  -8   7  100.89    7.40
  -6   8   7  105.79   12.10
  -6   8   7  114.09   10.00
   6   8  -7   94.09   10.20
   6   8  -7  110.99    9.10
  -6   8   7  100.89    7.70
   6   8  -7   96.39   11.70
   6   8  -7   86.89    9.40
   5  -8  -7   -0.90    2.30
  -5  -8   7    4.70    2.10
  -5  -8   7   -1.30    2.80
   5   8  -7    3.80    4.90
  -5   8   7   -2.20    4.80
  -5   8   7    2.10    2.30
   5   8  -7    2.00    4.30
   5   8  -7    3.20    3.90
  -5   8   7    0.40    3.70
  -5   8   7    2.30    2.60
   5   8  -7    2.00    3.40
  -4  -8   7  107.29    7.40
  -4   8   7  115.39   10.50
   4   8  -7  108.99   10.50
  -4   8   7   94.19    8.10
   4   8  -7   99.09    8.80
   4   8  -7   96.79   10.30
  -4   8   7  102.59    9.20
  -4   8   7  101.09    7.70
   4   8  -7  101.99    8.80
  -3  -8   7    5.80    2.10
   3   8  -7   14.00    3.50
   3   8  -7   10.10    3.30
  -3   8   7    9.00    2.60
   3   8  -7   13.50    4.60
  -3   8   7   16.10    3.50
   3   8  -7    6.70    3.50
  -3   8   7   12.80    3.20
  -3   8   7   12.50    4.80
   3   8  -7   11.20    4.20
  -3   8   7   16.50    4.30
  -2  -8   7  303.37   18.10
   2   8  -7  248.38   19.60
  -2   8   7  306.67   19.00
   2   8  -7  297.37   19.40
   2   8  -7  314.47   18.90
  -2   8   7  314.87   19.70
  -2   8   7  313.97   20.50
  -2   8   7  313.47   19.30
   2   8  -7  297.57   18.50
  -2   8   7  288.37   18.60
  -1  -8   7   58.79    5.00
  -1   8   7   52.19    5.40
  -1   8   7   43.70    6.40
   1   8  -7   36.30    6.10
  -1   8   7   54.79    7.20
   1   8  -7   31.30    6.40
  -1   8   7   54.09    7.40
   1   8  -7   59.59    7.50
  -1   8   7   58.89    6.70
   1   8  -7   53.59    6.50
   0  -8  -7    8.30    2.00
   0  -8   7    5.80    2.10
   0   8   7    5.80    3.50
   0   8   7    5.90    2.70
   0   8  -7   13.30    4.00
   0   8  -7   10.30    3.40
   0   8  -7    3.30    2.70
   0   8  -7    6.70    2.80
   0   8   7    1.80    3.80
   0   8   7    5.10    3.40
  -1  -8  -7   30.70    4.10
  -1  -8  -7   31.20    9.80
   1  -8   7   19.30    4.00
  -1   8  -7   26.70    3.90
   1   8   7   25.20    5.00
   1   8   7   27.60    4.80
  -1   8  -7   23.10    4.20
   1   8   7   38.60    7.40
  -1   8  -7   26.50    4.80
   1   8   7   28.80    4.80
  -1   8  -7   36.20    6.20
   1   8   7   29.80    5.90
  -2  -8  -7  240.78   24.00
   2  -8   7  285.87   18.10
   2   8   7  306.17   18.80
  -2   8  -7  304.37   18.10
   2   8   7  293.17   19.90
  -2   8  -7  311.37   18.50
  -2   8  -7  294.97   18.70
   2   8   7  281.07   19.10
  -2   8  -7  304.07   18.80
  -3  -8  -7   35.80    6.20
  -3  -8  -7   44.40   11.20
  -3  -8  -7   41.40    5.50
  -3  -8  -7   47.50   10.80
   3  -8   7   43.30    5.20
   3   8   7   44.20    6.00
   3   8   7   35.50    5.90
   3   8   7   38.50    6.80
  -3   8  -7   50.99    6.40
  -3   8  -7   60.39    5.40
  -3   8  -7   40.10    6.20
  -4  -8  -7   54.99   11.50
  -4  -8  -7   39.30   12.30
   4  -8   7   63.19    6.10
  -4  -8  -7   62.29    6.60
  -4  -8  -7   55.39    7.20
   4   8   7   53.49    9.80
   4   8   7   64.89    8.00
  -4   8  -7   62.59    5.90
  -4   8  -7   58.79    6.80
  -4   8  -7   62.89    6.70
   4   8   7   75.19    7.20
  -5  -8  -7   19.90    4.10
  -5  -8  -7   19.00    9.20
  -5  -8  -7   22.00    3.80
   5  -8   7   22.40    3.50
  -5   8  -7   25.50    3.90
   5   8   7   25.10    4.70
  -5   8  -7   22.60    3.40
   5   8   7   18.60    4.40
  -5   8  -7   21.10    3.60
   5   8   7   19.90    4.90
  -6  -8  -7   70.79   12.80
  -6  -8  -7   90.99    9.50
   6  -8   7   99.29    8.20
  -6  -8  -7   97.29    9.00
  -6  -8  -7   77.89    8.60
   6   8   7  111.89    9.30
  -6   8  -7  117.09    8.40
  -6   8  -7   99.79    7.60
  -6   8  -7  106.89    8.00
   6   8   7  105.09   10.40
   6   8   7  116.79    9.20
   7  -8   7    5.20    2.90
  -7  -8  -7    6.90    3.40
  -7  -8  -7    2.60    3.70
  -7  -8  -7    1.40    3.40
   7   8   7    4.00    4.20
  -7   8  -7    8.40    3.00
   7   8   7    9.60    3.70
  -7   8  -7    1.50    2.40
   7   8   7    6.20    4.10
   8  -8   7   89.29    6.70
  -8  -8  -7   62.89    7.00
  -8  -8  -7   67.39    7.20
  -8  -8  -7   64.79    7.40
  -8   8  -7   75.99    6.60
   8   8   7   80.99    8.50
   8   8   7   90.19    8.00
   8   8   7   75.19    7.40
   9  -8   7   10.90    2.50
  -9  -8  -7    5.90    2.70
  -9  -8  -7    2.90    2.80
  -9  -8  -7    4.20    2.90
  -9   8  -7    6.90    2.60
  -9   8  -7    3.30    1.80
   9   8   7    3.10    2.90
 -10  -8  -7   12.20    2.90
 -10  -8  -7   17.10    2.80
  10   8   7   19.50    3.40
 -11  -9   7    1.60    2.80
  11  -9  -7    1.20    2.40
  11  -9  -7   -2.20    3.20
  11   9  -7    0.90    3.30
 -10  -9   7   37.50    5.60
 -10  -9   7   42.40    5.00
 -10  -9   7   47.20    5.10
  10  -9  -7   47.80    6.10
  10   9  -7   40.10    7.60
  10   9  -7   42.40    7.10
  -9  -9   7    0.00    2.90
  -9  -9   7   -0.40    2.00
   9  -9  -7    1.20    2.80
   9   9  -7    1.20    4.70
  -9   9   7   -0.90    2.30
   9   9  -7    0.20    3.60
   9   9  -7    1.90    4.10
  -8  -9   7    5.30    3.50
  -8  -9   7    2.90    2.20
   8  -9  -7    5.20    3.10
   8   9  -7    0.60    4.60
   8   9  -7    0.60    4.30
  -8   9   7    1.60    2.30
   8   9  -7    1.90    5.20
   8   9  -7    2.40    3.70
   7  -9  -7    4.60    2.70
  -7  -9   7    8.30    2.40
  -7  -9   7    4.80    3.70
   7   9  -7    5.60    4.90
   7   9  -7    6.10    4.60
   7   9  -7    7.60    3.90
  -7   9   7    6.40    4.30
  -7   9   7    6.90    2.90
   7   9  -7    2.00    5.60
  -6  -9   7   44.80    5.00
   6  -9  -7   43.40    5.20
  -6  -9   7   38.20    6.20
   6   9  -7   41.80    7.30
   6   9  -7   55.69    9.50
   6   9  -7   52.09    7.70
   6   9  -7   53.79    9.60
  -6   9   7   49.90    7.50
  -6   9   7   46.20    5.10
  -5  -9   7    1.80    2.20
  -5  -9   7    2.60    3.50
   5   9  -7    0.50    3.70
  -5   9   7    0.30    2.30
   5   9  -7    1.40    5.00
   5   9  -7    0.30    4.30
  -5   9   7    1.80    4.00
   5   9  -7    2.00    4.80
  -4  -9   7   37.20    4.60
  -4  -9   7   27.40    4.30
  -4   9   7   36.10    5.20
   4   9  -7   29.30    5.60
   4   9  -7   38.70    7.10
  -4   9   7   27.10    6.70
  -4   9   7   37.70    4.80
   4   9  -7   30.00    4.70
  -4   9   7   37.20    6.50
   4   9  -7   34.20    6.10
  -3  -9   7  185.38   11.70
  -3   9   7  198.78   12.30
   3   9  -7  178.48   13.80
   3   9  -7  181.48   12.80
  -3   9   7  168.78   12.90
   3   9  -7  183.48   12.90
  -3   9   7  165.78   13.30
   3   9  -7  190.68   14.30
  -3   9   7  179.68   12.60
  -3   9   7  174.28   15.00
  -2  -9   7   65.49    5.50
   2   9  -7   53.09    6.80
  -2   9   7   63.49    5.90
  -2   9   7   57.89    6.70
  -2   9   7   55.09    7.70
   2   9  -7   49.50    7.30
   2   9  -7   61.59    7.30
  -2   9   7   60.39    7.30
   2   9  -7   62.49    8.80
   2   9  -7   59.99    7.50
  -2   9   7   58.39    9.10
  -1  -9   7    9.70    2.40
   1   9  -7    9.70    3.40
  -1   9   7   13.80    4.10
   1   9  -7   11.40    3.70
   1   9  -7   10.40    3.70
   1   9  -7    9.80    4.20
  -1   9   7   10.60    3.60
  -1   9   7    8.60    3.80
  -1   9   7   10.70    3.10
   0  -9  -7  146.89   19.10
   0  -9   7  161.88   11.00
   0  -9  -7  173.98   11.30
   0   9  -7  169.18   12.30
   0   9   7  173.48   11.70
   0   9   7  168.38   12.50
   0   9  -7  170.58   11.80
   0   9   7  176.78   12.90
   0   9   7  166.98   12.80
   0   9  -7  160.58   11.40
   0   9  -7  164.28   12.70
  -1  -9  -7   37.50   11.20
  -1  -9  -7   70.69    6.20
   1  -9   7   75.29    6.40
   1   9   7   73.69    7.90
  -1   9  -7   85.99    8.30
  -1   9  -7   83.39    8.20
   1   9   7   79.19    7.20
  -1   9  -7   78.49    7.00
  -1   9  -7  101.69    7.60
   1   9   7   72.69    8.10
   1   9   7   64.79    9.60
  -2  -9  -7   46.70    5.50
   2  -9   7   42.60    5.10
   2   9   7   54.49    6.20
  -2   9  -7   48.20    5.70
   2   9   7   59.49    7.50
  -2   9  -7   42.10    6.70
  -2   9  -7   57.49    6.60
   2   9   7   52.69    9.20
  -2   9  -7   52.69    6.90
  -3  -9  -7   80.29   10.20
   3  -9   7   95.39    6.90
  -3  -9  -7   74.89    7.00
  -3  -9  -7   77.09   12.60
   3   9   7   68.29    8.50
   3   9   7   74.99    7.40
   3   9   7   68.39   10.30
  -3   9  -7   78.29    7.00
  -3   9  -7   98.09    7.70
  -3   9  -7   57.29    7.90
  -4  -9  -7   21.10    3.60
   4  -9   7   22.70    4.70
  -4  -9  -7   22.30    4.10
  -4  -9  -7   24.70   10.10
   4   9   7   18.50    5.10
  -4   9  -7   30.20    4.40
   4   9   7   27.70    5.70
  -4   9  -7   28.00    4.10
   4   9   7   16.80    4.10
  -4   9  -7   16.60    3.40
  -5  -9  -7   -7.50    7.60
  -5  -9  -7    5.30    3.20
  -5  -9  -7    1.20    3.60
   5  -9   7    3.20    2.60
   5   9   7    3.90    3.80
  -5   9  -7    2.50    2.70
  -5   9  -7    2.80    3.30
   5   9   7    2.90    4.40
  -5   9  -7    2.20    2.90
   5   9   7    7.50    3.80
  -6  -9  -7   -1.00    3.30
  -6  -9  -7   -1.00    3.40
   6  -9   7    1.00    2.60
  -6  -9  -7   -1.10    3.10
   6   9   7   -2.80    4.30
  -6   9  -7   -0.90    2.60
   6   9   7    0.00    3.40
   6   9   7   -0.20    3.50
  -6   9  -7    1.20    2.40
  -6   9  -7   -1.00    2.90
  -7  -9  -7   14.80    3.50
   7  -9   7   15.10    3.00
  -7  -9  -7    6.20    3.10
  -7  -9  -7   15.30    3.60
  -7   9  -7   17.70    3.40
   7   9   7   18.90    4.40
   7   9   7   11.20    3.50
  -7   9  -7   12.00    2.80
   7   9   7   12.50    3.70
   8  -9   7    0.40    2.20
  -8  -9  -7    2.60    3.00
  -8  -9  -7   -0.10    2.60
  -8  -9  -7    1.60    3.00
   8   9   7    2.40    2.70
  -8   9  -7   -0.20    2.10
   8   9   7    3.60    3.10
  -8   9  -7    1.90    2.50
   8   9   7    1.30    3.40
   9  -9   7    2.90    1.90
  -9  -9  -7   -0.90    2.20
  -9  -9  -7    3.40    2.30
  -9   9  -7    1.20    1.80
   9   9   7    5.20    2.60
  -9   9  -7    4.60    2.30
  10 -10  -7   47.40    5.10
  10 -10  -7   41.40    6.30
  10  10  -7   45.90    7.00
  10  10  -7   48.90    6.40
   9 -10  -7    1.90    2.50
  -9 -10   7    0.20    1.90
  -9 -10   7    1.70    2.40
   9  10  -7    0.40    3.70
   9  10  -7    1.60    4.20
   9  10  -7    1.60    3.70
  -8 -10   7  128.09    7.80
   8 -10  -7  100.29    8.50
  -8 -10   7   90.59    8.40
   8  10  -7  108.79    9.20
   8  10  -7   94.99    9.50
   8  10  -7  110.89   10.70
   8  10  -7  127.99   10.30
  -8  10   7  116.59    7.90
  -7 -10   7    0.80    2.10
  -7 -10   7    0.50    3.10
  -7  10   7    3.10    2.20
   7  10  -7    3.50    4.60
   7  10  -7   -1.90    3.60
   7  10  -7   -0.40    4.20
   7  10  -7    4.10    5.10
   6 -10  -7   70.59    6.60
  -6 -10   7   84.49    6.50
  -6 -10   7   81.99    7.50
   6  10  -7   79.69   10.00
  -6  10   7   85.99    6.70
   6  10  -7   76.09    8.40
   6  10  -7   78.19   10.00
   6  10  -7   72.09    8.60
  -5 -10   7    1.40    3.30
  -5 -10   7    4.30    2.20
   5  10  -7    1.90    4.30
   5  10  -7    3.40    4.90
   5  10  -7    2.90    4.70
   5  10  -7   -2.00    3.70
  -5  10   7   -0.10    2.50
  -5  10   7    0.80    4.20
  -4 -10   7   19.70    3.90
  -4 -10   7   20.30    4.30
  -4  10   7   21.00    3.50
  -4  10   7   22.30    5.00
   4  10  -7   18.90    5.50
   4  10  -7   14.50    4.30
   4  10  -7   12.80    4.60
   4  10  -7   19.60    4.80
  -4  10   7   10.40    3.10
  -3 -10   7    5.30    2.30
   3  10  -7    6.20    4.60
  -3  10   7    0.30    3.80
   3  10  -7    3.10    3.90
  -3  10   7    2.00    2.80
   3  10  -7    2.20    3.70
   3  10  -7    0.90    3.80
  -3  10   7    1.90    2.40
  -2 -10   7    2.10    2.20
   2  10  -7    4.00    4.00
   2  10  -7    3.30    3.60
   2  10  -7    2.70    4.60
  -2  10   7   -0.10    2.90
  -2  10   7    4.40    2.70
  -2  10   7    0.40    3.90
  -2  10   7    2.50    3.40
   2  10  -7    7.20    3.80
  -1 -10   7   -0.50    2.00
  -1  10   7   -0.70    3.50
   1  10  -7   -3.40    4.30
   1  10  -7    4.40    3.70
   1  10  -7    0.50    3.60
  -1  10   7    2.30    2.80
  -1  10   7    4.90    3.90
  -1  10   7    0.40    3.20
   1  10  -7    1.80    3.40
   0 -10   7   22.70    4.10
   0  10  -7   14.90    4.60
   0  10   7   14.60    4.60
   0  10   7   18.50    4.50
   0  10   7   16.30    3.70
   0  10   7    7.60    3.80
   0  10  -7   19.60    4.20
  -1 -10  -7   -0.10    2.20
   1 -10   7    1.10    2.20
  -1  10  -7    2.80    3.30
  -1  10  -7    3.60    3.60
   1  10   7   -3.20    4.00
  -1  10  -7    3.00    3.20
   1  10   7   -3.40    3.60
  -1  10  -7    0.50    3.50
   1  10   7   -1.60    3.00
   2 -10   7   67.19    5.70
  -2 -10  -7   70.49    6.00
  -2 -10  -7   62.89   12.10
   2  10   7   57.79    7.60
   2  10   7   48.00    9.00
  -2  10  -7   53.39    7.00
   2  10   7   54.89    6.50
  -2  10  -7   45.40    7.30
  -2  10  -7   57.69    6.30
  -3 -10  -7   12.80    3.00
  -3 -10  -7   11.60    8.90
   3 -10   7   11.60    2.70
  -3  10  -7    8.80    3.20
  -3  10  -7    7.20    3.60
  -3  10  -7    7.00    3.40
   3  10   7    9.00    4.10
   3  10   7   12.40    3.80
   3  10   7   12.70    4.70
   4 -10   7   43.40    4.90
  -4 -10  -7   24.70   10.70
  -4 -10  -7   38.90    5.80
  -4  10  -7   39.80    5.80
   4  10   7   35.20    5.60
  -4  10  -7   32.10    5.30
  -4  10  -7   42.40    6.20
   4  10   7   29.70    5.00
   4  10   7   42.60    5.70
  -5 -10  -7    0.50    3.70
   5 -10   7    1.20    2.40
  -5 -10  -7   -0.30    3.30
  -5 -10  -7    3.30    3.00
   5  10   7   -1.60    3.40
   5  10   7   -0.40    4.20
  -5  10  -7   -0.30    2.60
  -5  10  -7    4.30    3.50
  -5  10  -7    1.60    2.60
   5  10   7    1.80    3.20
  -6 -10  -7   73.49    7.50
  -6 -10  -7   73.09    7.10
   6 -10   7   74.39    6.10
  -6 -10  -7   62.79    6.80
   6  10   7   63.09    8.40
   6  10   7   88.59    7.00
  -6  10  -7   59.99    5.70
   6  10   7   61.89    7.30
  -6  10  -7   65.79    6.50
  -7 -10  -7    0.10    2.40
   7 -10   7    0.20    2.20
  -7 -10  -7    3.40    3.30
  -7 -10  -7    0.30    2.80
   7  10   7   -1.00    2.80
  -7  10  -7    0.10    2.00
  -7  10  -7   -0.10    2.60
   7  10   7    2.10    3.60
   7  10   7    1.40    2.60
  -8 -10  -7  134.09    9.30
  -8 -10  -7  123.59    9.10
  -8  10  -7  127.59    8.40
  -8  10  -7  156.88    9.10
   8  10   7  112.59   10.60
   9 -11  -7   31.00    4.30
   9  11  -7   40.00    6.00
   9  11  -7   36.30    5.70
  -8 -11   7   -0.90    2.30
   8 -11  -7   -1.20    2.00
  -8 -11   7   -0.60    1.80
  -8  11   7   -1.10    1.60
   8  11  -7    3.90    3.80
   8  11  -7    2.40    3.70
   8  11  -7   -0.70    3.00
   8  11  -7    1.70    3.70
  -7 -11   7   -0.10    2.60
  -7 -11   7    4.00    1.90
   7 -11  -7    0.80    2.20
  -7  11   7    1.80    2.00
   7  11  -7    5.10    4.10
   7  11  -7    2.70    4.10
   7  11  -7    1.60    4.00
   7  11  -7    2.90    3.40
  -6 -11   7    0.40    3.00
  -6 -11   7    2.30    2.00
   6  11  -7    3.50    4.10
   6  11  -7    7.80    3.90
  -6  11   7    0.30    2.10
   6  11  -7   -4.50    3.80
   6  11  -7    1.10    4.60
  -5 -11   7    1.80    2.10
  -5 -11   7   -0.60    3.10
   5  11  -7    1.60    3.90
   5  11  -7    2.00    4.70
  -5  11   7    1.10    2.20
   5  11  -7   -0.60    3.80
   5  11  -7    4.10    4.10
  -4 -11   7    3.90    2.30
  -4 -11   7    0.10    3.00
   4  11  -7    2.60    3.80
   4  11  -7    0.20    4.80
   4  11  -7    1.80    4.20
  -4  11   7    5.50    2.60
  -4  11   7    4.20    2.40
   4  11  -7    1.30    3.50
  -3 -11   7    3.80    3.40
  -3 -11   7    4.50    2.30
   3  11  -7    1.10    4.90
  -3  11   7    3.70    2.60
  -3  11   7    4.80    2.50
   3  11  -7    5.10    4.20
   3  11  -7    2.90    3.80
  -2 -11   7   76.49    6.30
  -2  11   7   71.99    7.10
   2  11  -7   73.39    8.50
  -2  11   7   85.39    8.70
   2  11  -7   78.09   10.00
  -2  11   7   74.59    7.60
  -2  11   7   87.49    6.70
   2  11  -7   75.59    8.10
  -1 -11   7    4.20    2.30
   1  11  -7   -0.30    4.40
   1  11  -7    4.00    3.80
   1  11  -7    2.30    3.70
  -1  11   7    1.70    3.00
   1  11  -7    6.10    3.90
  -1  11   7    4.60    2.60
  -1  11   7    7.90    3.60
   0 -11   7  180.18   11.30
   0  11  -7  166.08   12.70
   0  11   7  179.08   11.80
   0  11  -7  174.38   12.40
   0  11   7  173.78   12.60
   0  11  -7  196.38   13.30
   0  11   7  169.28   13.20
   0  11  -7  153.08   11.80
  -1 -11  -7    1.20    2.20
   1 -11   7    2.20    2.20
   1  11   7    2.50    2.70
   1  11   7   12.20    4.40
  -1  11  -7    4.00    3.60
  -1  11  -7    4.50    4.10
   1  11   7    0.80    3.40
  -1  11  -7    3.30    3.60
  -1  11  -7    1.90    3.30
  -2 -11  -7    3.20    2.40
   2 -11   7    4.10    2.30
   2  11   7    7.50    3.10
  -2  11  -7    4.20    3.60
  -2  11  -7    8.20    3.40
   2  11   7    6.40    3.70
  -2  11  -7    0.20    3.40
   2  11   7    3.30    4.10
   3 -11   7    1.50    2.20
  -3 -11  -7   -0.30    2.50
  -3  11  -7    1.10    2.80
  -3  11  -7   -1.00    3.00
   3  11   7    3.20    2.90
   3  11   7    3.00    4.20
  -3  11  -7    2.20    3.40
   3  11   7    3.80    3.90
   4 -11   7   10.90    2.50
  -4 -11  -7   10.90    3.70
  -4 -11  -7    9.50    2.80
   4  11   7    6.90    4.30
   4  11   7    8.30    3.80
  -4  11  -7    9.70    3.00
   4  11   7   10.90    3.20
  -4  11  -7    7.30    3.00
  -4  11  -7    9.80    3.50
  -5 -11  -7   13.10    3.00
   5 -11   7   12.90    2.50
  -5 -11  -7   13.20    3.30
   5  11   7   15.70    4.50
   5  11   7   15.70    3.20
   5  11   7   12.40    3.70
  -5  11  -7    7.30    3.10
  -5  11  -7    7.90    2.70
   6 -11   7    1.60    1.90
  -6 -11  -7    1.70    2.60
  -6 -11  -7   -0.80    2.80
   6  11   7    1.60    2.30
   6  11   7   -0.10    2.70
   6  11   7   -1.50    3.40
  -6  11  -7    1.50    2.50
  -6  11  -7    0.60    2.00
  -7 -11  -7   15.70    2.80
   7 -11   7   20.60    3.20
  -7 -11  -7   18.60    3.10
   7  11   7   15.80    3.50
   7  11   7   24.10    4.00
  -7  11  -7   12.70    2.10
  -7 -12   7    2.80    1.70
   7  12  -7    0.40    3.60
   7  12  -7    1.70    3.50
   7  12  -7    0.60    2.80
   7  12  -7    1.90    4.20
  -6 -12   7   73.59    5.10
  -6 -12   7   53.89    5.60
  -6  12   7   66.59    5.00
   6  12  -7   72.29    7.00
   6  12  -7   69.39    8.00
   6  12  -7   54.29    6.90
   6  12  -7   62.59    6.70
  -5 -12   7    2.10    1.90
  -5 -12   7   -0.40    2.50
  -5  12   7    2.10    1.90
   5  12  -7    2.00    4.10
   5  12  -7    5.90    3.40
   5  12  -7    0.70    3.40
   5  12  -7   -1.10    3.60
  -4 -12   7   88.79    6.50
  -4 -12   7   76.99    7.30
  -4  12   7  102.99    6.70
   4  12  -7   91.99    9.30
   4  12  -7   77.39    8.20
   4  12  -7   71.49    8.10
  -3 -12   7   12.50    2.40
  -3 -12   7    9.10    3.30
  -3  12   7   13.00    2.70
   3  12  -7    3.40    4.40
   3  12  -7    9.40    3.80
  -3  12   7   10.20    2.70
   3  12  -7    7.10    3.90
  -2 -12   7    4.20    2.10
   2  12  -7    8.70    4.30
   2  12  -7   11.90    3.80
  -2  12   7    5.00    2.50
   2  12  -7    8.80    4.00
  -2  12   7    3.20    2.30
  -1 -12   7   17.60    3.70
  -1  12   7   12.10    3.00
  -1  12   7   19.30    3.80
   1  12  -7   16.70    4.10
  -1  12   7   13.90    3.40
   0 -12   7   12.30    2.40
   0  12   7    7.20    2.50
   0  12  -7    9.80    3.40
   0  12  -7   11.10    3.70
   0  12  -7   11.60    4.20
   0  12  -7   11.70    3.90
   0  12   7   13.20    3.80
   0  12   7   10.80    3.20
  -1 -12  -7    9.50    2.30
   1 -12   7    7.40    2.10
  -1  12  -7    3.40    3.40
  -1  12  -7    5.30    3.00
   1  12   7    4.40    2.50
   1  12   7    4.50    3.40
  -1  12  -7    4.30    3.40
   1  12   7    3.70    3.00
   2 -12   7   26.20    3.70
  -2 -12  -7   21.20    3.50
  -2 -12  -7   24.70    4.10
   2  12   7   27.50    5.20
  -2  12  -7   25.30    4.10
   2  12   7   32.60    4.80
   2  12   7   28.10    4.00
  -2  12  -7   22.50    3.60
  -2  12  -7   21.00    4.10
  -3 -12  -7   -0.50    2.10
  -3 -12  -7    0.70    2.60
   3 -12   7    2.00    1.80
   3  12   7   -0.30    2.90
  -3  12  -7   -1.60    2.80
  -3  12  -7   -0.40    2.70
   3  12   7   -2.50    3.30
   3  12   7    2.00    2.30
  -3  12  -7   -1.00    2.60
  -4 -12  -7    8.30    2.80
   4 -12   7    4.30    1.90
  -4 -12  -7    6.00    2.40
   4  12   7   11.10    3.70
  -4  12  -7    1.90    2.30
   4  12   7    6.90    2.40
  -4  12  -7    2.70    2.60
   4  12   7    6.70    3.20
   5 -12   7    0.00    1.60
  -5 -12  -7    7.00    2.50
  -5 -12  -7    1.70    2.20
  -5  12  -7    1.40    2.30
   5  12   7    1.50    2.50
   5  12   7    2.40    3.00
  -5  12  -7   -0.30    2.00
  -5 -13   7   22.30    2.90
   5  13  -7   24.40    3.60
   5  13  -7   26.50    4.10
   5  13  -7   13.10    3.40
  -4 -13   7   29.80    4.10
  -4 -13   7   34.20    3.50
   4  13  -7   33.00    5.30
   4  13  -7   25.80    4.30
   4  13  -7   34.00    6.40
  -3 -13   7   10.70    1.90
  -3 -13   7    9.60    2.50
   3  13  -7    8.30    3.20
   3  13  -7    5.20    3.80
   3  13  -7    2.10    3.20
  -2 -13   7   12.70    2.80
  -2 -13   7   15.20    3.00
   2  13  -7   15.00    3.70
   2  13  -7    7.40    4.00
   2  13  -7   16.60    3.60
  -1 -13   7    5.30    1.70
  -1 -13   7    0.60    2.20
  -1  13   7    0.60    2.00
   1  13  -7    6.80    3.10
   0 -13   7   15.80    2.20
   0  13   7   17.70    2.90
   0  13  -7   15.50    3.50
   0  13  -7   15.10    3.50
   1 -13   7    1.90    1.60
  -1  13  -7    2.60    2.50
  -1  13  -7   -2.30    2.80
  -1  13  -7   -0.50    2.90
   1  13   7    3.10    2.40
   1  13   7    1.60    2.60
  -2 -13  -7   14.60    2.30
   2 -13   7   15.30    2.80
   2  13   7   17.00    3.20
  -2  13  -7   15.30    2.70
  -2  13  -7   11.50    3.00
   2  13   7   19.20    3.50
   3 -13   7    0.40    1.40
  -3  13  -7   -0.10    1.90
   3  13   7    2.60    3.80
  -3  13  -7   -0.20    2.90
   3  13   7    1.40    2.40
 -14   0   8    2.00    1.80
 -13   0   8    0.00    2.20
  13   0  -8   -0.80    4.50
 -12   0   8   36.70    6.50
  12   0  -8   49.50    7.30
 -12   0   8   29.10    4.90
  12   0  -8   32.70    6.10
  11   0  -8   -1.20    4.20
 -11   0   8   -0.10    4.20
  11   0  -8   -0.50    4.90
 -11   0   8    0.00    2.90
  10   0  -8  374.56   25.10
 -10   0   8  387.76   26.90
 -10   0   8  384.76   28.10
  10   0  -8  455.55   26.10
 -10   0   8  440.86   24.70
  10   0  -8  399.06   26.40
   9   0  -8   -2.00    3.00
   9   0  -8    1.00    4.10
  -9   0   8   -0.50    4.10
   9   0  -8   -3.60    3.70
  -9   0   8   -1.70    3.90
  -9   0   8    1.00    2.70
  -8   0   8  233.78   14.40
  -8   0   8  223.38   16.30
  -8   0   8  220.48   16.80
   8   0  -8  259.07   16.10
   8   0  -8  223.58   15.20
  -7   0   8    1.00    1.50
   7   0  -8    0.00    2.60
  -7   0   8    0.70    1.80
  -7   0   8   -0.40    3.50
   7   0  -8   -0.10    3.10
  -7   0   8   -0.60    3.20
   7   0  -8   -1.40    2.00
  -6   0   8  268.07   15.50
   6   0  -8  242.98   16.10
  -6   0   8  269.07   17.10
  -6   0   8  239.18   15.40
   6   0  -8  257.27   15.80
  -6   0   8  261.17   17.40
   6   0  -8  273.47   16.70
  -5   0   8    1.40    2.70
  -5   0   8   -1.70    1.30
   5   0  -8    0.60    2.50
  -5   0   8   -0.40    2.20
   5   0  -8   -2.20    1.70
  -4   0   8   73.49    6.30
   4   0  -8   74.59    5.90
   4   0  -8   63.09    5.80
  -4   0   8   76.19    5.00
   4   0  -8   80.79    6.50
  -4   0   8   83.79    6.90
  -3   0   8    0.70    1.60
   3   0  -8   -0.40    2.00
  -3   0   8   -1.30    1.90
   3   0  -8   -0.80    2.30
   3   0  -8   -0.60    1.70
  -3   0   8    0.60    1.00
  -2   0   8   25.80    3.60
  -2   0   8   28.90    3.30
   2   0  -8   24.30    4.10
   2   0  -8   27.10    3.90
   2   0  -8   20.00    3.20
   2   0  -8   29.30    2.80
   1   0  -8   -0.30    1.40
  -1   0   8    0.10    1.70
   1   0  -8    1.20    1.90
  -1   0   8   -1.80    1.30
   1   0  -8    0.70    1.20
   0   0  -8  598.34   38.30
   0   0  -8  710.13   38.40
   0   0   8  665.03   38.90
   0   0   8  652.83   38.70
   0   0  -8  675.83   38.60
  -1   0  -8    2.00    1.90
   1   0   8    1.10    1.40
  -1   0  -8    1.20    1.20
  -1   0  -8    1.90    1.60
   1   0   8    0.20    1.30
  -1   0  -8    1.30    1.50
   1   0   8    1.30    1.30
   1   0   8    0.60    1.50
  -2   0  -8  604.04   35.70
   2   0   8  546.55   35.80
   2   0   8  605.54   36.10
  -2   0  -8  682.23   35.90
  -2   0  -8  647.84   35.70
   2   0   8  576.74   35.90
  -2   0  -8  642.04   37.00
  -2   0  -8  608.04   36.00
  -3   0  -8    1.50    1.70
  -3   0  -8    0.60    1.90
  -3   0  -8    1.00    1.70
   3   0   8    3.20    2.10
  -3   0  -8    1.80    3.40
  -3   0  -8    2.20    1.60
  -3   0  -8   -6.00    3.50
  -4   0  -8    8.50    4.30
  -4   0  -8    3.30    2.30
  -4   0  -8    8.40    1.90
   4   0   8    2.60    2.50
  -4   0  -8    8.60    2.30
  -4   0  -8    7.20    4.70
  -5   0  -8   -1.30    2.20
  -5   0  -8    1.40    1.90
  -5   0  -8   -0.50    2.10
   5   0   8    5.00    2.80
  -6   0  -8   11.50    2.80
  -6   0  -8    9.50    2.60
   6   0   8    6.10    3.70
  -6   0  -8    4.90    2.50
  -7   0  -8    1.10    2.40
  -7   0  -8   -0.40    2.30
   7   0   8    1.50    3.70
   8   0   8    7.70    4.30
  -8   0  -8    7.80    2.70
  -8   0  -8    3.40    2.50
  -9   0  -8   -0.70    2.30
   9   0   8    2.10    4.00
  -9   0  -8    1.80    2.30
 -10   0  -8   18.60    2.80
 -10   0  -8   16.00    3.00
  10   0   8   25.20    5.10
  11   0   8    3.50    3.20
 -11   0  -8    1.90    2.30
 -12   0  -8   44.60    4.30
  14  -1  -8   33.90    5.90
 -14  -1   8   23.70    3.70
 -13  -1   8   12.00    2.80
  13  -1  -8    9.10    4.80
 -13   1   8    7.00    2.20
  13   1  -8   10.80    6.40
 -12  -1   8    5.20    6.30
  12  -1  -8    2.60    4.90
 -12  -1   8    1.50    2.80
 -12   1   8    3.10    5.00
  12   1  -8   -1.50    4.50
  12   1  -8    0.50    4.10
 -12   1   8   -2.00    2.60
 -11  -1   8   18.90    3.60
  11  -1  -8   29.20    6.50
  11  -1  -8   17.30    4.00
 -11  -1   8   15.70    5.50
  11  -1  -8   27.60    5.10
  11   1  -8   25.10    5.30
 -11   1   8   11.40    4.80
  11   1  -8   16.00    5.00
 -11   1   8   18.00    3.40
  10  -1  -8  282.77   17.70
 -10  -1   8  290.77   19.00
  10  -1  -8  259.57   18.50
  10  -1  -8  247.78   17.30
 -10  -1   8  236.78   19.90
 -10  -1   8  241.48   16.20
 -10   1   8  252.57   18.50
 -10   1   8  259.97   16.30
  10   1  -8  260.07   18.00
 -10   1   8  241.48   19.80
  10   1  -8  286.17   18.30
  -9  -1   8  255.77   21.00
   9  -1  -8  330.77   19.80
  -9  -1   8  284.57   18.20
  -9  -1   8  289.17   20.40
  -9   1   8  290.07   21.20
   9   1  -8  334.47   20.10
  -9   1   8  284.77   20.10
   9   1  -8  272.27   19.50
  -9   1   8  307.27   18.20
   8  -1  -8  219.58   15.20
  -8  -1   8  221.08   16.70
  -8  -1   8  231.48   14.20
  -8  -1   8  227.88   16.00
   8  -1  -8  264.27   15.90
  -8   1   8  236.08   14.20
  -8   1   8  240.68   16.30
   8   1  -8  211.38   15.30
  -8   1   8  222.78   16.80
  -8   1   8  225.18   14.10
   8   1  -8  243.38   16.00
   8   1  -8  198.68   14.70
   7  -1  -8   15.00    3.80
  -7  -1   8   12.60    4.00
   7  -1  -8   13.80    3.30
  -7  -1   8   12.00    3.80
  -7  -1   8    8.40    2.30
  -7   1   8    9.50    3.80
  -7   1   8   14.20    4.20
   7   1  -8   14.70    4.10
  -7   1   8   16.80    2.70
   7   1  -8   15.80    2.70
  -7   1   8   14.70    2.30
   7   1  -8   11.70    2.80
  -6  -1   8  147.89    9.30
   6  -1  -8  168.88   10.70
   6  -1  -8  143.19    9.50
  -6  -1   8  138.39   10.80
  -6  -1   8  142.69   11.40
  -6   1   8  127.89    9.10
   6   1  -8  153.58   10.80
   6   1  -8  126.29    9.90
  -6   1   8  141.89    9.20
  -6   1   8  152.38   10.80
  -6   1   8  154.08   11.40
   6   1  -8  157.88    9.90
   5  -1  -8    0.60    1.90
   5  -1  -8    2.80    2.60
  -5  -1   8    1.60    1.50
  -5  -1   8    2.90    2.90
   5  -1  -8    0.20    2.00
  -5  -1   8    1.90    2.40
  -5   1   8    2.40    2.90
   5   1  -8    3.40    2.00
   5   1  -8    2.00    2.10
  -5   1   8    1.40    1.30
  -5   1   8    1.10    1.20
  -5   1   8    1.20    2.40
   5   1  -8   -4.10    2.50
  -4  -1   8  681.23   38.40
   4  -1  -8  609.44   38.60
  -4  -1   8  657.23   39.70
   4  -1  -8  690.83   39.20
   4  -1  -8  672.53   38.70
  -4  -1   8  656.83   39.40
   4   1  -8  634.14   38.80
  -4   1   8  661.33   39.80
   4   1  -8  680.53   39.20
   4   1  -8  670.03   38.80
  -4   1   8  685.53   39.50
  -4   1   8  643.04   38.60
  -4   1   8  663.73   38.30
   3  -1  -8   43.40    4.20
  -3  -1   8   55.19    5.00
   3  -1  -8   48.30    5.30
  -3  -1   8   51.39    3.60
  -3  -1   8   48.20    4.50
   3  -1  -8   45.10    4.50
   3   1  -8   48.10    4.80
  -3   1   8   38.00    3.50
   3   1  -8   51.19    5.10
   3   1  -8   49.40    3.70
  -3   1   8   45.80    4.80
  -3   1   8   46.40    5.20
   3   1  -8   40.30    4.20
  -2  -1   8  184.28   12.10
   2  -1  -8  172.98   11.50
   2  -1  -8  196.38   11.90
   2  -1  -8  195.58   11.40
  -2  -1   8  198.18   11.30
  -2  -1   8  179.48   11.90
  -2   1   8  189.28   12.10
  -2   1   8  186.48   11.50
   2   1  -8  176.18   12.00
  -2   1   8  196.28   12.50
   2   1  -8  180.88   11.40
   2   1  -8  197.88   12.00
  -1  -1   8   32.80    3.60
   1  -1  -8   32.70    4.30
   1  -1  -8   30.20    3.40
  -1  -1   8   32.60    3.40
   1  -1  -8   37.10    3.30
  -1   1   8   30.40    4.00
  -1   1   8   34.20    3.60
  -1   1   8   33.70    3.60
   1   1  -8   34.30    4.30
   1   1  -8   33.60    3.30
  -1   1   8   37.90    3.10
   1   1  -8   29.00    4.00
   0  -1  -8   91.69    5.80
   0  -1   8   78.59    5.80
   0  -1   8   78.39    5.70
   0  -1  -8   78.89    5.80
   0  -1   8   85.89    5.40
   0  -1  -8   84.39    6.40
   0   1  -8   92.79    6.30
   0   1  -8   81.09    6.30
   0   1   8   76.99    6.00
   0   1   8   79.19    6.00
   0   1  -8   88.79    5.70
   0   1   8   79.39    6.40
   0   1   8   72.99    5.70
  -1  -1  -8   48.40    4.40
  -1  -1  -8   61.39    5.20
   1  -1   8   57.69    4.00
   1  -1   8   49.00    3.90
  -1  -1  -8   66.79    4.70
   1   1   8   50.69    4.40
   1   1   8   49.50    4.40
  -1   1  -8   57.99    4.40
  -1   1  -8   50.39    4.00
   1   1   8   53.89    4.50
  -1   1  -8   51.99    5.00
  -1   1  -8   49.00    4.70
   1   1   8   56.49    4.90
  -2  -1  -8  125.49    8.80
  -2  -1  -8  134.79    8.10
  -2  -1  -8  123.89    8.30
   2  -1   8  135.59    8.10
  -2  -1  -8  127.19   10.70
  -2  -1  -8  146.19    8.60
  -2   1  -8  115.99    8.90
  -2   1  -8  130.79    8.10
   2   1   8  112.79    8.40
  -2   1  -8  134.19    8.70
   2   1   8  125.69    8.50
  -2   1  -8  132.29    8.40
   2   1   8  127.39    8.60
  -2   1  -8  105.19    9.30
  -3  -1  -8   38.30    3.80
   3  -1   8   31.10    3.80
  -3  -1  -8   42.70    4.30
  -3  -1  -8   39.70    4.70
  -3  -1  -8   39.90    4.00
  -3  -1  -8   34.90    5.80
   3  -1   8   44.50    3.60
   3   1   8   32.10    3.60
   3   1   8   34.50    4.40
  -3   1  -8   37.60    4.60
  -3   1  -8   37.20    3.70
  -3   1  -8   38.00    4.20
  -4  -1  -8   99.69    6.90
   4  -1   8  101.49    7.40
   4  -1   8  108.89    6.70
  -4  -1  -8   92.09    9.40
  -4  -1  -8   95.59    7.40
  -4  -1  -8   90.59    7.00
  -4  -1  -8   86.59    7.40
  -4  -1  -8   98.99   10.70
  -4   1  -8   94.89    6.80
  -4   1  -8   95.89    7.20
  -4   1  -8  102.69    7.10
   4   1   8   99.99    7.70
  -5  -1  -8    8.00    4.80
   5  -1   8   16.20    3.40
  -5  -1  -8   15.10    6.10
  -5  -1  -8   13.40    2.80
  -5  -1  -8    9.60    2.40
  -5  -1  -8   15.00    2.60
   5  -1   8   17.70    3.20
  -5  -1  -8   20.40    3.10
  -5   1  -8   10.50    2.30
  -5   1  -8   15.40    2.50
  -5   1  -8   13.90    2.70
   5   1   8   16.90    3.60
  -6  -1  -8  344.37   21.60
  -6  -1  -8  365.36   21.40
  -6  -1  -8  327.57   21.50
   6  -1   8  381.56   22.40
  -6   1  -8  348.17   21.50
  -6   1  -8  371.76   21.40
   6   1   8  355.86   22.50
  -7  -1  -8    8.20    2.80
  -7  -1  -8   11.70    2.90
   7  -1   8   14.20    4.20
  -7   1  -8   10.20    2.40
   7   1   8    9.80    4.30
  -7   1  -8    7.00    2.40
  -8  -1  -8  153.88   11.20
  -8  -1  -8  164.08   11.30
   8  -1   8  171.78   12.80
   8   1   8  179.08   12.90
  -8   1  -8  166.88   11.10
  -8   1  -8  177.58   11.20
  -9  -1  -8    0.90    2.30
   9  -1   8   -3.90    3.60
  -9  -1  -8   -0.30    2.50
   9   1   8    5.40    4.50
  -9   1  -8   -1.60    2.20
  -9   1  -8    6.70    2.70
  10  -1   8   56.09    7.20
 -10  -1  -8   52.89    5.80
 -10  -1  -8   53.79    5.30
  10   1   8   78.69    8.00
 -10   1  -8   56.39    5.30
 -10   1  -8   62.49    5.70
 -11  -1  -8    1.10    2.20
  11  -1   8   12.50    3.30
 -11   1  -8    1.80    2.30
  11   1   8    0.40    3.50
 -12  -1  -8   -0.70    1.80
 -12   1  -8    3.10    1.70
  12   1   8    4.60    2.90
 -14  -2   8   76.59    6.10
  14  -2  -8   97.29    8.20
 -14   2   8   78.39    5.90
  13  -2  -8   -1.00    4.70
 -13  -2   8    4.30    2.70
 -13   2   8   -2.70    2.10
  13   2  -8    2.30    4.00
  12  -2  -8    7.00    3.50
 -12  -2   8    4.20    2.70
  12  -2  -8   13.00    5.80
 -12   2   8    5.80    2.60
  12   2  -8    3.60    4.60
  11  -2  -8   88.59    9.00
 -11  -2   8   83.59    7.70
  11  -2  -8   94.49    9.50
  11  -2  -8   87.49   10.70
 -11  -2   8  101.79   10.30
 -11   2   8   98.59    9.80
  11   2  -8  101.39    9.90
 -11   2   8   88.99    7.40
  10  -2  -8    8.60    3.80
 -10  -2   8    5.40    2.80
 -10  -2   8   11.00    5.10
  10  -2  -8    2.50    3.90
 -10  -2   8    1.80    8.40
 -10   2   8    3.40    2.70
 -10   2   8   11.90    7.80
  10   2  -8    9.40    5.00
 -10   2   8    2.50    4.30
  -9  -2   8   44.80    7.30
  -9  -2   8   44.00    5.50
   9  -2  -8   46.00    7.10
   9  -2  -8   47.30    7.50
  -9  -2   8   34.00    6.80
  -9   2   8   43.10    7.30
   9   2  -8   45.20    8.00
  -9   2   8   38.60    7.40
  -9   2   8   45.40    5.30
  -9   2   8   47.90    4.80
  -8  -2   8   85.49    7.00
   8  -2  -8   84.09    8.30
  -8  -2   8   83.79    9.90
  -8  -2   8   87.39    9.00
   8  -2  -8   85.99    8.70
  -8   2   8   88.39    8.60
   8   2  -8   85.19    9.20
  -8   2   8   89.09    6.60
  -8   2   8   82.49    6.40
   8   2  -8   82.19    7.40
  -8   2   8   87.89    9.70
  -7  -2   8   56.29    6.90
  -7  -2   8   47.50    5.10
  -7  -2   8   49.50    7.50
   7  -2  -8   53.49    7.10
  -7   2   8   56.09    4.70
  -7   2   8   47.60    6.50
  -7   2   8   57.59    7.50
  -7   2   8   55.29    4.60
   7   2  -8   49.50    5.50
   7   2  -8   51.69    7.60
   6  -2  -8   10.20    2.80
  -6  -2   8   11.30    2.20
   6  -2  -8   12.60    3.10
  -6  -2   8   11.80    3.60
   6  -2  -8   16.60    3.30
  -6  -2   8    9.50    3.80
  -6   2   8   12.30    2.60
   6   2  -8   16.00    2.80
   6   2  -8   12.30    3.80
  -6   2   8   10.80    3.90
  -6   2   8    7.00    1.80
  -6   2   8   12.50    3.50
  -5  -2   8    8.70    3.50
   5  -2  -8   13.90    3.40
  -5  -2   8   11.00    3.10
  -5  -2   8   11.50    2.00
  -5  -2   8    9.30    1.90
   5  -2  -8   10.00    2.20
   5   2  -8   13.10    3.30
   5   2  -8   12.50    2.70
  -5   2   8    9.10    1.70
  -5   2   8   11.60    3.20
  -5   2   8   10.20    1.90
  -5   2   8   11.80    3.50
  -4  -2   8  208.48   12.40
   4  -2  -8  209.68   12.80
  -4  -2   8  204.68   12.20
  -4  -2   8  203.38   13.40
   4  -2  -8  198.48   12.80
  -4  -2   8  195.18   13.70
   4  -2  -8  216.28   13.70
  -4   2   8  211.68   13.70
   4   2  -8  205.48   13.50
  -4   2   8  224.88   12.70
  -4   2   8  189.28   13.90
   4   2  -8  204.88   12.90
   4   2  -8  195.98   12.50
  -4   2   8  196.48   12.20
  -3  -2   8  156.78   11.10
  -3  -2   8  175.18   10.50
   3  -2  -8  171.88   10.80
  -3  -2   8  175.58   11.50
  -3  -2   8  174.38   10.30
   3  -2  -8  164.68   11.00
   3   2  -8  174.88   11.50
   3   2  -8  168.68   11.00
  -3   2   8  171.98   10.70
  -3   2   8  177.18   11.50
   3   2  -8  169.38   10.50
  -3   2   8  173.48   11.90
   2  -2  -8   58.39    4.60
  -2  -2   8   55.59    5.00
  -2  -2   8   61.19    4.10
  -2  -2   8   56.19    4.70
   2  -2  -8   62.49    5.50
   2   2  -8   58.69    4.50
  -2   2   8   59.49    5.70
  -2   2   8   60.69    5.10
  -2   2   8   56.69    4.50
   2   2  -8   57.09    5.50
   2   2  -8   63.09    5.30
  -2   2   8   59.19    5.30
  -1  -2   8   16.20    2.50
  -1  -2   8   16.90    2.40
   1  -2  -8   23.10    3.10
   1  -2  -8   14.90    2.90
   1  -2  -8   21.40    2.90
  -1  -2   8   17.60    2.70
   1   2  -8   17.70    2.80
   1   2  -8   14.50    2.60
   1   2  -8   13.00    2.50
  -1   2   8   20.90    2.60
   1   2  -8   19.30    3.00
  -1   2   8   24.00    3.50
   1   2  -8   24.10    3.10
  -1   2   8   18.10    3.10
  -1   2   8   23.70    3.30
   0  -2   8  205.88   11.50
   0  -2  -8  216.78   11.80
   0  -2  -8  181.68   11.60
   0   2   8  179.38   12.10
   0   2   8  179.78   11.80
   0   2  -8  176.08   12.00
   0   2   8  196.28   12.00
   0   2  -8  198.48   11.70
   0   2  -8  184.78   12.00
   0   2  -8  182.78   11.40
   0   2  -8  179.48   11.40
   0   2   8  185.68   12.50
  -1  -2  -8  171.28   11.00
   1  -2   8  188.38   10.90
  -1  -2  -8  197.88   11.30
  -1   2  -8  177.88   10.90
   1   2   8  178.18   11.30
   1   2   8  175.98   11.50
  -1   2  -8  167.48   11.30
  -1   2  -8  168.98   11.30
   1   2   8  184.28   12.00
  -1   2  -8  176.48   10.70
   1   2   8  169.28   11.30
  -1   2  -8  181.78   11.10
   2  -2   8 1836.52  101.29
  -2  -2  -8 1841.12  101.39
  -2  -2  -8 1842.42  101.49
  -2  -2  -8 1686.53  101.19
   2   2   8 1751.12  101.99
  -2   2  -8 1786.92  101.29
  -2   2  -8 1810.82  101.39
   2   2   8 1822.52  101.69
  -2   2  -8 1578.94  101.09
   2   2   8 1733.63  101.79
  -2   2  -8 1671.43  101.49
  -3  -2  -8    2.60    2.20
   3  -2   8    0.90    1.50
  -3  -2  -8    6.50    5.00
  -3  -2  -8    4.70    1.80
  -3  -2  -8   -0.80    1.90
   3   2   8    2.70    2.50
   3   2   8    3.20    1.90
  -3   2  -8    3.80    1.50
  -3   2  -8    1.80    2.10
  -3   2  -8    0.90    1.70
   4  -2   8    5.10    1.80
  -4  -2  -8    5.50    2.00
  -4  -2  -8    4.80    2.30
  -4  -2  -8    1.50    4.50
  -4  -2  -8    4.90    5.10
  -4  -2  -8    4.20    2.20
  -4   2  -8    5.10    1.80
  -4   2  -8    5.00    2.20
  -4   2  -8    3.40    1.70
   4   2   8    6.30    2.80
   4   2   8    4.40    2.00
   5  -2   8   97.89    7.80
  -5  -2  -8  105.39   10.80
   5  -2   8  113.29    7.20
  -5  -2  -8   99.19    7.30
  -5  -2  -8   93.39    7.40
  -5  -2  -8   96.49    7.60
  -5  -2  -8   87.69   12.60
  -5   2  -8   98.69    7.00
   5   2   8   96.39    8.30
  -5   2  -8   93.29    7.20
  -6  -2  -8   28.50    4.80
   6  -2   8   35.60    4.30
  -6  -2  -8   29.30    8.40
  -6  -2  -8   25.50    5.20
  -6  -2  -8   23.00    4.70
  -6  -2  -8   20.00    6.40
  -6  -2  -8   21.70    3.50
   6  -2   8   38.40    5.50
  -6   2  -8   25.30    4.10
  -6   2  -8   29.00    4.40
   6   2   8   27.10    5.80
  -7  -2  -8   70.09    6.50
  -7  -2  -8   65.29    6.80
  -7  -2  -8   65.89    6.90
   7  -2   8   79.29    7.70
   7  -2   8   79.49    6.50
   7   2   8   84.89    8.30
  -7   2  -8   64.49    6.00
  -7   2  -8   73.49    6.40
  -8  -2  -8    0.00    2.70
  -8  -2  -8   -0.50    2.60
   8  -2   8   -2.40    3.60
  -8   2  -8    0.00    2.30
   8   2   8    2.70    4.10
  -8   2  -8   -0.90    2.30
  -9  -2  -8   32.20    5.10
  -9  -2  -8   42.00    5.60
   9  -2   8   50.19    6.80
  -9   2  -8   40.70    4.80
   9   2   8   52.69    7.40
  -9   2  -8   43.00    5.30
  10  -2   8    3.90    3.40
 -10  -2  -8    5.70    2.30
 -10  -2  -8    2.60    2.30
 -10   2  -8    6.50    2.60
  10   2   8    3.30    4.20
  11  -2   8    3.90    2.80
 -11  -2  -8    3.00    2.40
 -11  -2  -8    4.10    1.90
  11   2   8    3.60    3.60
 -11   2  -8    4.70    2.30
 -12  -2  -8   14.50    2.30
  12   2   8   17.80    4.00
 -12   2  -8   13.20    2.10
 -14  -3   8   -0.40    1.60
  14  -3  -8    3.90    3.60
 -14   3   8    1.60    1.50
 -13  -3   8   24.70    4.40
  13  -3  -8   28.20    5.70
 -13   3   8   29.00    4.00
  13   3  -8   26.80    4.80
  12  -3  -8   34.50    7.20
 -12  -3   8   24.40    3.80
 -12   3   8   17.90    3.00
  12   3  -8   28.00    5.50
 -11  -3   8   79.09    7.50
  11  -3  -8   92.19   11.30
 -11  -3   8   76.59    9.90
  11  -3  -8   88.59    9.10
  11   3  -8   94.89   10.10
 -11   3   8   82.19    7.10
 -11   3   8  102.49    9.60
 -10  -3   8   15.80    3.40
 -10  -3   8   20.90    6.10
  10  -3  -8   21.00    4.40
  10  -3  -8   37.20    6.80
 -10   3   8   24.70    3.50
  10   3  -8   27.20    6.00
 -10   3   8   31.30    6.00
  -9  -3   8   31.10    6.00
   9  -3  -8   27.80    4.60
  -9  -3   8   24.00    3.70
   9  -3  -8   27.80    4.80
  -9  -3   8   38.20    7.50
  -9   3   8   29.50    4.50
   9   3  -8   41.40    8.20
  -9   3   8   39.50    7.00
  -9   3   8   30.40    5.60
  -9   3   8   28.60    4.40
   9   3  -8   21.00    3.80
  -8  -3   8   30.50    6.50
  -8  -3   8   31.00    5.70
  -8  -3   8   24.20    3.80
   8  -3  -8   35.60    7.00
   8  -3  -8   42.60    6.90
   8   3  -8   32.40    5.80
  -8   3   8   37.30    6.40
  -8   3   8   37.20    4.40
  -8   3   8   38.20    6.10
  -8   3   8   41.30    4.30
   8   3  -8   37.80    5.80
  -7  -3   8   32.90    6.00
   7  -3  -8   32.30    6.20
  -7  -3   8   24.50    3.50
  -7  -3   8   29.00    5.10
  -7  -3   8   32.00    4.60
   7  -3  -8   24.30    5.40
   7   3  -8   36.50    5.50
  -7   3   8   31.70    3.90
  -7   3   8   21.60    4.70
  -7   3   8   31.80    3.70
   7   3  -8   36.30    7.10
  -7   3   8   32.10    5.50
  -6  -3   8  258.67   18.60
   6  -3  -8  253.07   16.90
   6  -3  -8  290.17   17.70
  -6  -3   8  254.27   18.00
  -6  -3   8  266.07   16.10
  -6  -3   8  275.07   16.50
  -6   3   8  281.67   18.00
  -6   3   8  279.87   16.30
   6   3  -8  283.97   18.10
  -6   3   8  275.97   16.70
  -6   3   8  265.77   18.60
   6   3  -8  277.47   17.10
  -5  -3   8    6.50    2.80
  -5  -3   8    4.90    3.40
   5  -3  -8    7.10    2.00
  -5  -3   8    7.00    1.40
   5  -3  -8    8.50    2.30
  -5  -3   8    6.50    1.90
   5  -3  -8   10.70    3.40
  -5   3   8    8.00    3.10
   5   3  -8    6.30    3.60
   5   3  -8    8.70    2.60
  -5   3   8   12.60    3.70
  -5   3   8   11.30    2.10
  -5   3   8   10.30    1.70
   5   3  -8    8.30    2.00
  -4  -3   8  292.17   19.20
  -4  -3   8  302.77   17.70
   4  -3  -8  307.47   18.30
  -4  -3   8  286.47   18.80
  -4  -3   8  311.67   18.00
   4  -3  -8  293.17   18.10
  -4   3   8  307.27   18.20
   4   3  -8  301.17   18.00
   4   3  -8  291.37   19.00
  -4   3   8  309.47   19.60
  -4   3   8  301.57   19.10
  -3  -3   8    2.30    1.20
  -3  -3   8    2.90    1.80
   3  -3  -8    3.00    1.60
   3  -3  -8    4.80    2.40
  -3  -3   8    2.70    2.10
  -3   3   8    3.50    1.60
  -3   3   8    1.10    1.90
   3   3  -8    4.70    2.30
   3   3  -8   -0.50    1.40
  -3   3   8    6.20    2.50
   3   3  -8    2.80    1.50
   3   3  -8    3.30    2.50
  -3   3   8    1.40    2.50
  -2  -3   8   90.49    5.70
   2  -3  -8   84.29    6.00
   2  -3  -8   94.09    7.10
  -2  -3   8   82.89    6.40
  -2  -3   8   83.89    6.00
  -2   3   8   89.79    6.70
  -2   3   8   81.79    6.00
   2   3  -8   79.59    5.70
   2   3  -8   82.09    6.90
   2   3  -8   82.79    6.00
   2   3  -8   87.29    6.00
   2   3  -8   83.29    6.70
  -2   3   8   82.79    7.10
  -2   3   8   84.19    6.40
   1  -3  -8  103.49    7.00
   1  -3  -8  100.29    7.00
  -1  -3   8  110.79    6.80
   1   3  -8  111.99    6.90
   1   3  -8  105.79    7.70
   1   3  -8  103.19    7.10
  -1   3   8  110.79    7.60
  -1   3   8  108.79    7.10
  -1   3   8  105.39    8.20
  -1   3   8  105.19    7.70
   1   3  -8   91.99    7.60
   1   3  -8   97.99    6.90
   0  -3   8  164.88    9.80
   0  -3  -8  149.29    9.80
   0  -3  -8  174.88   10.20
   0   3   8  156.28   11.10
   0   3  -8  161.28    9.90
   0   3  -8  151.98   10.40
   0   3  -8  156.38    9.70
   0   3   8  158.08   10.40
   0   3   8  151.98   10.60
   0   3  -8  163.58   10.10
   0   3   8  148.49   10.10
   0   3  -8  148.59   10.30
   1  -3   8  897.11   50.69
  -1  -3  -8  896.51   50.69
  -1  -3  -8  968.40   50.89
  -1   3  -8  866.01   50.49
   1   3   8  840.92   51.79
   1   3   8  875.71   51.39
  -1   3  -8  848.12   50.59
   1   3   8  860.21   51.09
   1   3   8  840.62   51.09
  -1   3  -8  825.82   50.89
   1   3   8  909.51   51.29
  -1   3  -8  854.21   50.69
  -2  -3  -8   90.29    7.10
  -2  -3  -8  101.09    6.60
  -2  -3  -8   87.49    6.10
   2  -3   8   87.89    6.20
  -2   3  -8   90.99    5.90
   2   3   8   83.79    6.70
   2   3   8   78.69    6.70
   2   3   8   88.39    7.80
  -2   3  -8   86.69    6.70
   2   3   8   86.09    6.90
  -2   3  -8   87.49    6.30
  -2   3  -8   85.59    6.30
  -3  -3  -8  548.75   32.00
   3  -3   8  533.25   31.70
  -3  -3  -8  553.14   31.60
  -3  -3  -8  541.15   31.70
  -3  -3  -8  510.15   34.50
  -3   3  -8  523.15   31.80
  -3   3  -8  537.15   31.90
  -3   3  -8  539.75   31.60
   3   3   8  563.54   32.50
   3   3   8  525.75   32.10
  -3   3  -8  550.64   31.40
   3   3   8  559.84   32.50
   3   3   8  523.45   32.30
  -4  -3  -8  147.69    9.70
  -4  -3  -8  138.69   10.30
   4  -3   8  156.98    9.60
  -4  -3  -8  143.09   13.20
  -4  -3  -8  123.99   14.10
  -4  -3  -8  145.19    9.60
  -4   3  -8  146.49    9.10
  -4   3  -8  146.89    9.60
   4   3   8  149.88   11.00
   4   3   8  140.49   10.40
   4   3   8  138.59    9.90
  -4   3  -8  146.39    9.70
  -5  -3  -8   -4.50    6.50
   5  -3   8    0.50    2.00
  -5  -3  -8    0.30    2.20
  -5  -3  -8    3.90    5.50
  -5  -3  -8    0.40    2.70
  -5  -3  -8   -0.10    2.50
   5   3   8    0.90    2.10
  -5   3  -8    2.40    1.90
  -5   3  -8   -0.30    1.80
   5   3   8    2.00    3.20
  -5   3  -8    3.80    2.10
  -6  -3  -8  137.49    9.90
  -6  -3  -8  136.19    9.80
  -6  -3  -8  114.79   13.60
  -6  -3  -8  120.79   16.40
  -6  -3  -8  126.59   10.10
   6  -3   8  155.88    9.70
  -6   3  -8  146.59    9.70
  -6   3  -8  138.59    9.50
   6   3   8  162.48   11.30
  -6   3  -8  138.69    9.50
  -7  -3  -8   28.20    5.50
  -7  -3  -8   32.60    4.40
  -7  -3  -8   30.80    7.50
  -7  -3  -8   17.30   14.00
  -7  -3  -8   30.10    5.70
  -7  -3  -8   29.60    5.40
   7  -3   8   38.80    5.00
   7   3   8   35.00    6.60
  -7   3  -8   40.30    4.90
  -7   3  -8   35.50    4.90
   8  -3   8   74.39    6.30
  -8  -3  -8   54.79    6.80
  -8  -3  -8   63.49    6.60
   8   3   8   81.39    8.40
  -8   3  -8   71.39    6.20
  -8   3  -8   65.39    6.10
  -9  -3  -8    5.10    2.80
  -9  -3  -8    0.80    2.70
  -9   3  -8    1.40    2.20
   9   3   8    1.50    4.50
 -10  -3  -8   29.40    4.50
 -10  -3  -8   26.90    4.80
 -10   3  -8   27.10    4.50
  10   3   8   36.30    6.80
 -11  -3  -8    9.50    2.40
 -11  -3  -8   10.50    2.20
  11   3   8    6.00    3.50
  13  -4  -8    0.50    4.30
  13  -4  -8   -1.10    2.70
 -13  -4   8    0.40    2.00
 -13   4   8   -1.50    1.70
  13   4  -8   -3.40    3.30
 -12  -4   8  101.89    8.30
  12  -4  -8  101.79   11.60
  12  -4  -8  108.39    9.40
 -12   4   8  111.09    7.80
  12   4  -8  120.39   10.80
 -11  -4   8    9.10    5.20
  11  -4  -8   12.70    6.50
 -11  -4   8    5.70    3.00
  11  -4  -8    8.50    4.10
  11   4  -8   21.80    5.60
 -11   4   8   21.90    5.50
 -11   4   8    5.50    2.50
 -10  -4   8   16.60    5.60
  10  -4  -8   21.00    4.40
 -10  -4   8   24.40    3.90
  10   4  -8   18.00    5.60
 -10   4   8   24.20    3.30
 -10   4   8    8.80    4.70
 -10   4   8   22.00    4.40
   9  -4  -8   22.50    4.50
  -9  -4   8   17.50    3.60
  -9  -4   8   12.00    6.40
  -9  -4   8   12.80    5.10
   9  -4  -8   22.60    4.50
   9   4  -8   24.70    6.10
   9   4  -8   20.40    4.00
  -9   4   8   16.00    5.10
  -9   4   8   24.20    3.60
  -9   4   8   15.30    3.00
  -9   4   8   13.40    6.30
  -8  -4   8    6.90    3.00
   8  -4  -8    2.00    3.80
   8  -4  -8    9.30    3.80
  -8  -4   8    9.60    4.40
  -8  -4   8    9.60    5.70
  -8   4   8    5.30    4.80
   8   4  -8    1.50    3.30
  -8   4   8    7.80    2.50
  -8   4   8    9.80    2.50
  -8   4   8   25.10    4.90
   8   4  -8    3.10    4.50
  -7  -4   8  107.79    9.90
  -7  -4   8  105.49   11.10
  -7  -4   8  107.69    8.20
   7  -4  -8  120.09    9.30
   7  -4  -8   94.39    8.80
  -7  -4   8  109.39    7.20
   7   4  -8  120.79    9.10
  -7   4   8  108.19    7.90
  -7   4   8  104.19    9.60
  -7   4   8  119.19    7.80
  -7   4   8  114.49   10.40
   7   4  -8  137.09   10.70
   6  -4  -8   20.70    3.70
  -6  -4   8   16.20    2.80
  -6  -4   8   21.40    4.40
  -6  -4   8   16.90    4.80
  -6  -4   8   26.50    3.10
   6  -4  -8   17.30    3.10
  -6   4   8   18.60    4.30
  -6   4   8   19.30    3.40
   6   4  -8   23.90    4.00
  -6   4   8   15.90    4.60
   6   4  -8   22.00    4.40
  -6   4   8   23.30    3.10
   6   4  -8   25.10    3.90
   5  -4  -8   80.19    6.80
   5  -4  -8   80.99    6.50
  -5  -4   8   83.09    8.40
  -5  -4   8   83.59    7.50
  -5  -4   8   84.59    5.90
  -5  -4   8   82.19    6.40
   5   4  -8   94.39    7.50
  -5   4   8   89.59    5.90
   5   4  -8   78.79    6.30
  -5   4   8   91.99    7.60
  -5   4   8   89.79    8.30
  -5   4   8   88.09    6.30
   5   4  -8   85.39    6.40
   5   4  -8   87.99    8.50
   4  -4  -8  136.89    9.80
  -4  -4   8  148.79   10.60
  -4  -4   8  160.88    9.40
  -4  -4   8  143.79   11.00
  -4  -4   8  157.98    9.70
   4  -4  -8  148.59   10.20
  -4   4   8  155.38   11.40
  -4   4   8  153.08   10.90
   4   4  -8  158.78   10.50
  -4   4   8  154.48    9.80
   4   4  -8  155.88    9.90
   4   4  -8  149.69   11.20
  -4   4   8  154.38   10.40
   4   4  -8  140.99    9.60
   3  -4  -8  159.98   10.50
  -3  -4   8  153.98    9.60
   3  -4  -8  151.18    9.90
   3   4  -8  154.68   10.00
   3   4  -8  147.09   11.10
  -3   4   8  163.88   10.00
  -3   4   8  159.78   10.90
  -3   4   8  159.78   10.40
   3   4  -8  157.68   10.50
  -3   4   8  148.69   11.30
   3   4  -8  144.39    9.80
  -2  -4   8   13.10    2.70
   2  -4  -8   10.80    2.00
   2   4  -8   16.00    2.90
   2   4  -8   16.00    3.10
   2   4  -8    9.30    2.90
  -2   4   8   16.40    2.80
  -2   4   8   12.20    3.40
   2   4  -8   17.00    2.60
   2   4  -8   17.00    2.30
  -2   4   8   10.70    2.20
  -2   4   8   15.50    3.10
  -1  -4   8    1.80    1.40
   1  -4  -8    2.30    1.60
   1  -4  -8    1.30    1.90
   1   4  -8    2.70    1.70
   1   4  -8    1.10    2.20
   1   4  -8    1.00    1.90
  -1   4   8    1.40    1.70
   1   4  -8    4.00    1.70
  -1   4   8    0.80    2.60
  -1   4   8    1.60    2.10
   1   4  -8    0.80    2.20
  -1   4   8    0.50    2.40
  -1   4   8    0.50    1.90
   0  -4  -8  104.69    7.30
   0  -4   8  107.69    7.20
   0  -4  -8  118.39    7.80
   0   4   8  111.39    8.20
   0   4  -8  110.29    7.40
   0   4   8  106.39    8.70
   0   4  -8  106.79    7.30
   0   4   8   92.19    7.50
   0   4   8  108.39    7.80
   0   4  -8   96.29    7.80
   0   4  -8  103.49    7.90
   0   4   8  112.69    8.50
   0   4  -8  116.69    7.10
  -1  -4  -8   26.90    3.60
   1  -4   8   39.50    3.60
  -1  -4  -8   30.30    4.10
  -1   4  -8   33.50    4.10
  -1   4  -8   32.20    3.50
  -1   4  -8   25.30    3.90
  -1   4  -8   27.90    4.70
   1   4   8   35.00    5.30
   1   4   8   38.80    4.60
   1   4   8   31.60    3.80
   1   4   8   31.40    4.50
   1   4   8   32.40    5.50
   2  -4   8   61.69    5.00
  -2  -4  -8   68.19    5.40
  -2  -4  -8   60.39    6.20
  -2  -4  -8   52.99    4.90
  -2  -4  -8   70.59    9.80
  -2   4  -8   49.50    4.70
   2   4   8   65.49    5.80
  -2   4  -8   62.79    5.10
   2   4   8   63.69    7.10
  -2   4  -8   42.20    5.70
  -2   4  -8   69.79    5.60
   2   4   8   76.69    5.90
   2   4   8   58.79    5.60
  -3  -4  -8    4.50    2.10
  -3  -4  -8    3.20    2.30
   3  -4   8    4.10    2.00
  -3  -4  -8    4.10    2.90
  -3  -4  -8    5.50    6.20
  -3   4  -8    4.60    2.10
  -3   4  -8    3.90    2.40
  -3   4  -8    3.50    2.10
   3   4   8    5.10    3.20
  -3   4  -8    2.40    1.70
   3   4   8    2.60    2.30
   3   4   8    0.60    2.50
   3   4   8    3.10    2.60
   4  -4   8  298.97   17.40
  -4  -4  -8  264.07   17.90
  -4  -4  -8  291.97   17.60
  -4  -4  -8  250.57   21.90
  -4  -4  -8  273.17   17.40
  -4  -4  -8  294.87   21.10
  -4   4  -8  289.77   17.60
  -4   4  -8  282.07   17.30
   4   4   8  273.27   18.10
  -4   4  -8  288.17   17.10
  -4   4  -8  297.97   18.60
   4   4   8  287.27   17.90
   4   4   8  294.97   18.70
  -5  -4  -8   27.30    4.90
  -5  -4  -8    9.00    3.60
  -5  -4  -8   17.50    8.20
   5  -4   8   21.30    4.20
  -5  -4  -8   17.70    3.10
  -5  -4  -8   24.70    7.30
   5   4   8   15.50    4.30
  -5   4  -8   29.60    4.60
   5   4   8   25.40    4.80
  -5   4  -8   23.40    3.70
   5   4   8   21.80    4.10
  -5   4  -8   13.00    2.90
   6  -4   8   21.40    4.50
  -6  -4  -8   23.40    9.80
  -6  -4  -8   13.50    3.70
  -6  -4  -8   16.90    3.30
  -6  -4  -8    1.90    7.10
  -6  -4  -8   13.00    3.30
  -6   4  -8   15.80    2.80
  -6   4  -8   20.20    3.20
  -6   4  -8   19.60    3.70
   6   4   8    8.30    2.80
   6   4   8   14.80    4.20
  -7  -4  -8   19.20    7.80
  -7  -4  -8   30.10    5.80
   7  -4   8   35.20    5.10
  -7  -4  -8   17.30   12.80
  -7  -4  -8   27.40    4.30
  -7   4  -8   35.40    4.90
  -7   4  -8   25.70    5.10
   7   4   8   29.40    5.50
  -7   4  -8   31.00    4.10
  -8  -4  -8    2.80    3.20
  -8  -4  -8    4.50    8.00
  -8  -4  -8    3.50    3.00
   8  -4   8   13.20    2.90
  -8  -4  -8    4.10    3.30
  -8   4  -8    5.70    2.60
   8   4   8    4.80    4.20
  -8   4  -8    9.60    3.00
  -9  -4  -8   46.60    6.00
  -9  -4  -8   52.69    5.90
   9   4   8   57.89    7.40
  -9   4  -8   47.80    5.20
  -9   4  -8   48.70    5.50
 -10  -4  -8   69.99    6.40
 -10  -4  -8   71.89    6.50
  10   4   8   86.09    8.00
 -10   4  -8   86.09    6.30
 -11  -4  -8    7.30    2.30
 -11   4  -8    5.90    2.00
  11   4   8    6.30    3.00
  13  -5  -8   36.70    5.40
  13  -5  -8   42.30    7.20
 -13  -5   8   28.80    4.10
 -13   5   8   35.70    3.80
  13   5  -8   45.80    6.00
 -12  -5   8   25.00    4.90
  12  -5  -8   46.20    7.40
  12  -5  -8   32.20    4.40
 -12   5   8   25.40    4.10
  12   5  -8   41.00    5.80
 -11  -5   8  105.69    8.50
  11  -5  -8  111.79   10.10
 -11   5   8  108.89    7.90
  11   5  -8  114.29   11.00
 -10  -5   8    1.10    3.10
 -10  -5   8    6.60    5.20
  10  -5  -8   13.80    4.10
 -10   5   8    5.10    2.70
 -10   5   8    0.50    4.10
  10   5  -8    3.90    5.30
 -10   5   8    5.30    2.50
  10   5  -8    8.30    4.00
   9  -5  -8  130.09   10.90
   9  -5  -8  135.59   11.20
  -9  -5   8  145.59   10.00
  -9   5   8  127.79    9.60
  -9   5   8  139.29   11.80
  -9   5   8  129.79    9.20
  -8  -5   8   -3.90    5.70
  -8  -5   8    8.50    3.20
  -8  -5   8   13.20    2.10
  -8  -5   8    8.10    4.90
   8  -5  -8    7.60    3.70
  -8   5   8    7.30    2.30
  -8   5   8   12.00    4.50
  -8   5   8    4.50    5.00
   8   5  -8    2.50    4.80
  -8   5   8   12.10    2.90
   8   5  -8   10.70    4.10
  -7  -5   8   53.89    6.10
  -7  -5   8   56.19    4.70
   7  -5  -8   68.19    7.00
  -7  -5   8   39.50    7.30
   7  -5  -8   39.40    6.30
  -7  -5   8   54.49    7.60
  -7   5   8   64.19    7.30
  -7   5   8   65.09    5.50
   7   5  -8   56.59    5.90
   7   5  -8   51.19    8.60
   7   5  -8   64.99    8.90
  -7   5   8   54.39    8.40
  -7   5   8   61.59    5.10
   7   5  -8   44.90    7.00
  -6  -5   8   77.79    8.80
  -6  -5   8   95.09    7.60
  -6  -5   8  113.49   10.70
   6  -5  -8   97.19    8.00
  -6  -5   8  111.09    7.10
   6  -5  -8  113.89    9.10
   6   5  -8  107.69    9.40
  -6   5   8  102.79   10.00
  -6   5   8  106.49    9.20
   6   5  -8  114.69   10.30
   6   5  -8   95.09    8.10
  -6   5   8  111.09    7.60
  -6   5   8  106.59    7.20
   6   5  -8  108.39    8.00
  -5  -5   8   16.90    3.20
  -5  -5   8   15.60    3.80
   5  -5  -8   14.10    2.60
  -5  -5   8   14.40    2.80
  -5  -5   8   18.00    4.80
   5   5  -8   14.20    4.70
   5   5  -8   14.90    3.30
  -5   5   8   11.80    3.80
   5   5  -8   12.50    2.70
   5   5  -8   16.40    3.10
  -5   5   8   16.10    3.20
  -5   5   8   14.80    4.20
  -4  -5   8  106.29    7.90
   4  -5  -8  116.79    8.40
  -4  -5   8  114.19    7.60
   4  -5  -8  114.89    7.90
   4   5  -8  115.39    9.70
  -4   5   8  121.69   10.10
  -4   5   8  101.69    9.10
   4   5  -8  119.79    9.00
  -4   5   8  113.99    8.40
   4   5  -8  114.49    8.10
  -4   5   8  117.99    8.00
   4   5  -8  115.19    8.20
  -3  -5   8  419.56   24.10
   3  -5  -8  379.66   24.10
  -3   5   8  422.66   25.50
   3   5  -8  403.06   24.90
  -3   5   8  408.26   24.80
  -3   5   8  417.26   24.50
   3   5  -8  394.06   25.20
  -3   5   8  404.16   25.90
   3   5  -8  417.66   24.30
   3   5  -8  424.36   24.40
  -2  -5   8   73.39    5.60
   2  -5  -8   71.39    5.80
  -2   5   8   74.59    6.60
   2   5  -8  101.99    7.40
   2   5  -8   88.69    6.40
   2   5  -8   98.79    7.20
  -2   5   8   74.19    7.00
  -2   5   8   69.39    7.70
  -2   5   8   67.79    6.10
   2   5  -8   87.79    6.10
   1  -5  -8  287.37   17.60
   1  -5  -8  304.37   18.00
  -1  -5   8  296.87   17.60
  -1   5   8  294.87   18.50
  -1   5   8  287.47   19.20
   1   5  -8  291.37   17.70
  -1   5   8  291.37   18.10
  -1   5   8  307.67   18.80
   1   5  -8  295.77   17.90
  -1   5   8  306.47   18.30
   1   5  -8  298.87   17.70
   1   5  -8  271.07   18.30
   1   5  -8  291.77   18.30
   0  -5  -8  211.28   13.00
   0  -5   8  217.68   13.10
   0  -5  -8  183.38   13.50
   0   5   8  207.48   14.10
   0   5  -8  211.48   13.40
   0   5  -8  212.48   13.80
   0   5  -8  223.78   13.20
   0   5   8  232.78   13.90
   0   5   8  209.98   14.60
   0   5  -8  215.48   13.00
   0   5   8  209.78   14.20
   0   5   8  205.18   13.40
   1  -5   8   44.00    4.60
  -1  -5  -8   53.49    6.00
  -1  -5  -8   51.39    4.90
  -1   5  -8   53.99    4.60
  -1   5  -8   50.29    6.00
   1   5   8   45.20    5.10
  -1   5  -8   56.09    5.10
  -1   5  -8   54.49    5.20
   1   5   8   53.79    5.50
   1   5   8   58.99    6.90
   1   5   8   53.99    5.70
   1   5   8   56.39    6.40
  -2  -5  -8   10.90    3.80
  -2  -5  -8   12.60    3.30
   2  -5   8    7.80    2.00
  -2  -5  -8    6.60    2.40
  -2  -5  -8   10.20    6.60
  -2   5  -8    7.40    2.40
  -2   5  -8    9.20    2.50
   2   5   8    7.70    2.90
   2   5   8    6.90    3.00
  -2   5  -8   10.10    2.60
   2   5   8   11.10    3.60
  -2   5  -8    9.40    3.00
   2   5   8    9.20    3.00
  -3  -5  -8   21.60    4.50
   3  -5   8   19.20    3.80
  -3  -5  -8    6.10    7.20
  -3  -5  -8   13.90    2.80
  -3  -5  -8   23.40    3.90
   3   5   8   27.70    4.50
  -3   5  -8   19.00    2.80
  -3   5  -8   22.00    4.40
   3   5   8   16.80    3.20
   3   5   8   21.20    4.50
  -3   5  -8   19.40    3.10
  -3   5  -8   17.40    3.10
  -4  -5  -8  384.26   24.00
   4  -5   8  408.06   23.50
  -4  -5  -8  379.66   23.50
  -4  -5  -8  380.06   23.40
  -4  -5  -8  326.97   28.40
  -4  -5  -8  396.56   27.60
  -4   5  -8  392.26   23.70
   4   5   8  384.86   24.50
   4   5   8  381.76   24.20
   4   5   8  394.76   24.00
  -4   5  -8  408.96   23.50
  -4   5  -8  400.36   23.10
  -5  -5  -8   71.99   12.50
  -5  -5  -8   83.49   12.30
  -5  -5  -8   82.99    7.60
  -5  -5  -8   91.59    8.00
  -5  -5  -8   85.99    8.70
   5  -5   8   94.69    7.40
  -5   5  -8   87.59    7.40
  -5   5  -8   89.49    6.70
   5   5   8   88.29    7.90
  -5   5  -8   88.39    7.20
   5   5   8   91.19    8.30
   5   5   8  122.39    9.80
  -6  -5  -8   -2.20    2.80
   6  -5   8    4.10    2.60
  -6  -5  -8    1.60    3.50
  -6  -5  -8   -3.10    9.30
  -6  -5  -8    4.40    3.10
  -6  -5  -8    0.30    7.20
  -6   5  -8    5.10    2.60
   6   5   8    5.50    3.90
  -6   5  -8    4.10    2.40
   6   5   8    3.50    3.90
  -6   5  -8    3.40    2.60
   6   5   8    5.10    2.90
  -7  -5  -8   61.99    7.70
   7  -5   8   90.69    7.10
  -7  -5  -8   71.39    8.00
  -7  -5  -8   68.89    7.40
  -7  -5  -8   61.69   10.80
   7   5   8   91.29    8.30
   7   5   8   78.39    7.10
  -7   5  -8   71.89    6.70
  -7   5  -8   78.79    6.20
  -7   5  -8   77.29    7.00
  -8  -5  -8    0.40    3.00
  -8  -5  -8    4.30    3.40
  -8  -5  -8    5.10    7.80
  -8  -5  -8    6.10    3.30
   8   5   8    3.20    4.10
  -9  -5  -8   25.30    5.00
  -9  -5  -8   22.80    3.60
   9  -5   8   34.00    4.60
  -9   5  -8   17.90    3.10
   9   5   8   24.30    5.10
 -10  -5  -8    5.00    2.30
 -10  -5  -8    3.50    2.40
 -10   5  -8    7.50    2.30
  10   5   8   10.40    3.70
 -11  -5  -8   21.10    3.60
  11   5   8   22.70    3.80
 -11   5  -8   15.70    3.20
 -13  -6   8    8.90    2.20
  13  -6  -8   14.40    4.20
  12  -6  -8   44.00    6.10
 -12  -6   8   38.70    4.90
  12  -6  -8   53.49    8.40
  12   6  -8   43.80    7.40
 -12   6   8   43.90    4.30
 -11  -6   8   16.20    3.30
  11  -6  -8   17.20    4.10
  11   6  -8   16.40    5.20
 -11   6   8   23.30    4.10
 -10  -6   8   -1.10    3.00
  10  -6  -8    3.60    3.70
 -10   6   8    2.50    2.50
  10   6  -8    6.40    5.50
 -10   6   8    0.10    2.30
 -10   6   8    1.80    4.40
  10   6  -8    4.10    3.80
  -9  -6   8   26.90    6.00
   9  -6  -8   28.70    4.70
  -9  -6   8   22.70    4.10
  -9  -6   8   22.40    4.10
   9   6  -8   30.60    6.70
  -9   6   8   29.40    4.60
  -9   6   8   21.60    5.10
   9   6  -8   27.50    5.00
  -9   6   8   28.80    4.30
  -8  -6   8    4.30    3.40
  -8  -6   8    9.50    5.00
  -8  -6   8    4.20    1.90
   8  -6  -8    1.80    3.50
  -8   6   8    3.80    2.60
  -8   6   8    1.40    2.10
  -8   6   8   -0.50    3.90
   8   6  -8    4.50    3.90
   8   6  -8    2.70    4.90
  -7  -6   8   44.60    7.80
  -7  -6   8   51.09    6.10
   7  -6  -8   45.00    6.40
  -7  -6   8   51.59    4.80
   7  -6  -8   53.49    6.90
  -7   6   8   56.49    5.50
  -7   6   8   56.69    8.10
   7   6  -8   63.29    9.60
  -7   6   8   51.89    7.50
   7   6  -8   48.70    6.50
   7   6  -8   47.10    6.30
  -7   6   8   56.09    5.00
   7   6  -8   65.39    7.80
  -6  -6   8   10.80    3.10
   6  -6  -8    4.10    3.70
   6  -6  -8    9.50    2.70
  -6  -6   8    7.20    4.10
  -6  -6   8    3.60    1.90
   6   6  -8    9.20    3.00
  -6   6   8    6.60    3.90
   6   6  -8    6.50    3.40
  -6   6   8    6.70    4.50
  -6   6   8    7.80    2.50
   6   6  -8    6.10    4.90
   6   6  -8    7.20    3.90
   5  -6  -8  359.86   22.60
  -5  -6   8  376.56   22.20
  -5  -6   8  350.56   22.50
   5   6  -8  385.56   22.90
  -5   6   8  380.06   24.90
   5   6  -8  391.96   24.50
   5   6  -8  353.66   22.70
   5   6  -8  386.86   23.70
  -5   6   8  392.06   22.80
  -5   6   8  390.16   24.20
  -4  -6   8   75.99    5.90
   4  -6  -8   89.49    6.20
  -4   6   8   95.49    6.40
   4   6  -8   74.99    6.90
   4   6  -8   59.99    6.70
   4   6  -8   63.49    8.80
  -4   6   8   72.39    6.80
  -4   6   8   67.09    8.50
   4   6  -8   72.99    7.70
  -4   6   8   77.99    7.70
  -3  -6   8   47.90    4.50
   3  -6  -8   51.59    4.80
   3   6  -8   55.29    5.60
  -3   6   8   51.99    5.50
   3   6  -8   49.30    5.80
  -3   6   8   50.19    5.00
   3   6  -8   57.49    7.40
   3   6  -8   44.80    5.70
  -3   6   8   45.60    7.10
  -3   6   8   60.59    6.50
   3   6  -8   40.70    6.50
  -2  -6   8  242.48   14.80
   2  -6  -8  239.88   14.80
   2   6  -8  241.98   15.10
   2   6  -8  234.08   15.10
  -2   6   8  244.78   16.00
  -2   6   8  256.87   16.50
  -2   6   8  247.58   15.30
   2   6  -8  241.28   16.10
  -2   6   8  249.38   17.10
   2   6  -8  258.97   16.20
  -2   6   8  237.08   15.60
   2   6  -8  242.78   15.40
  -1  -6   8    3.00    1.70
   1  -6  -8    3.10    1.90
   1  -6  -8    6.40    2.60
  -1   6   8    3.00    2.50
  -1   6   8    1.00    2.20
  -1   6   8    3.40    3.40
   1   6  -8    3.70    2.50
   1   6  -8    3.10    3.10
   1   6  -8    5.50    2.30
  -1   6   8    4.80    3.50
  -1   6   8    3.30    2.90
   1   6  -8    1.20    2.60
   1   6  -8    0.90    2.80
   0  -6  -8   43.70    4.60
   0  -6   8   43.60    4.50
   0  -6  -8   44.70    5.80
   0   6   8   41.30    5.80
   0   6  -8   49.60    5.20
   0   6  -8   45.90    5.30
   0   6   8   53.79    6.90
   0   6   8   44.90    5.80
   0   6  -8   44.20    4.80
   0   6   8   40.70    4.90
   0   6  -8   51.29    6.30
   0   6   8   44.50    6.90
  -1  -6  -8    0.00    2.90
   1  -6   8    0.00    1.80
  -1  -6  -8    1.00    2.10
  -1   6  -8    1.30    2.80
  -1   6  -8    0.90    2.10
  -1   6  -8    1.30    2.40
   1   6   8    1.30    3.00
  -1   6  -8   -0.50    2.10
   1   6   8   -1.30    2.60
   1   6   8    5.90    3.50
   1   6   8    1.40    2.40
  -2  -6  -8  211.38   13.50
  -2  -6  -8  195.08   18.30
  -2  -6  -8  222.98   14.20
   2  -6   8  215.38   13.40
   2   6   8  215.58   14.80
  -2   6  -8  217.08   13.60
  -2   6  -8  208.48   13.80
  -2   6  -8  225.78   13.30
   2   6   8  203.18   14.00
   2   6   8  211.18   14.30
  -2   6  -8  199.98   13.90
   2   6   8  213.58   14.60
  -3  -6  -8    5.40    2.70
  -3  -6  -8    5.20    7.60
   3  -6   8    4.60    2.20
  -3  -6  -8    4.60    2.60
  -3  -6  -8    3.90    3.50
   3   6   8   -2.10    3.80
  -3   6  -8   -0.40    2.60
  -3   6  -8    1.90    2.40
  -3   6  -8    2.10    2.60
   3   6   8   -1.70    2.70
   3   6   8   10.10    3.20
  -3   6  -8    3.70    2.50
  -4  -6  -8   37.00    7.20
   4  -6   8   46.40    5.20
  -4  -6  -8   35.00   10.60
  -4  -6  -8   32.20    9.40
  -4  -6  -8   41.40    5.90
   4   6   8   39.30    6.00
   4   6   8   39.70    7.60
  -4   6  -8   36.20    4.60
  -4   6  -8   44.50    5.90
  -4   6  -8   39.40    5.50
   4   6   8   37.80    6.00
  -5  -6  -8    6.50    3.10
  -5  -6  -8   10.70    8.20
  -5  -6  -8    6.30    8.80
   5  -6   8    4.60    2.70
  -5  -6  -8    5.40    3.70
  -5  -6  -8    4.40    3.00
   5   6   8    3.50    3.90
  -5   6  -8    5.10    2.90
   5   6   8    3.70    4.50
   5   6   8   -0.90    3.10
  -5   6  -8    3.80    2.70
  -5   6  -8    1.50    2.40
  -6  -6  -8   14.40    8.50
  -6  -6  -8   14.30    3.60
  -6  -6  -8   12.60    3.70
  -6  -6  -8   14.00    3.90
   6  -6   8   18.60    3.30
  -6   6  -8   14.90    3.20
   6   6   8   16.20    4.50
   6   6   8   14.20    3.50
  -6   6  -8   12.90    2.80
   6   6   8   15.00    4.60
  -6   6  -8   15.90    3.30
  -7  -6  -8    7.10    7.80
  -7  -6  -8   31.60    4.30
  -7  -6  -8   28.30    4.50
  -7  -6  -8   15.80    3.90
   7  -6   8   16.50    3.40
  -7   6  -8   22.20    3.70
   7   6   8   28.50    4.80
  -7   6  -8   21.20    4.00
   7   6   8   32.50    6.50
  -7   6  -8   26.50    4.80
   7   6   8   30.90    4.30
  -8  -6  -8    8.70    3.30
  -8  -6  -8    5.60    3.10
  -8  -6  -8   11.10    3.40
   8  -6   8    8.80    2.80
  -8   6  -8   11.00    2.40
  -8   6  -8   11.50    3.10
   8   6   8    2.60    3.80
  -8   6  -8    4.30    2.70
  -9  -6  -8    5.60    2.90
   9  -6   8    7.70    2.50
  -9  -6  -8    5.30    2.80
  -9   6  -8    8.90    2.20
   9   6   8    3.40    3.50
  -9   6  -8   10.20    2.80
 -10  -6  -8    5.20    2.30
 -10  -6  -8    1.40    2.30
  10   6   8    6.20    3.00
 -10   6  -8    4.70    2.30
 -12  -7   8    1.00    2.10
  12  -7  -8    0.80    4.30
  12  -7  -8    0.40    2.60
  12   7  -8   -1.30    3.70
 -12   7   8   -0.40    2.50
 -11  -7   8   67.99    6.50
  11  -7  -8   71.59    7.90
 -11   7   8   76.99    5.80
  11   7  -8   83.69    9.40
  10  -7  -8    5.80    3.60
 -10  -7   8    4.00    3.10
 -10   7   8    9.20    2.80
 -10   7   8    7.90    2.40
  10   7  -8    8.60    4.00
  10   7  -8    6.50    5.10
  -9  -7   8    9.40    3.70
  -9  -7   8    9.70    2.20
   9  -7  -8    8.30    3.80
  -9   7   8    1.90    4.20
   9   7  -8   11.30    4.60
  -9   7   8   11.60    2.90
   9   7  -8   14.10    5.80
  -9   7   8    8.90    2.50
  -8  -7   8    5.40    2.10
  -8  -7   8    3.80    3.30
  -8   7   8    5.90    4.40
  -8   7   8    3.90    2.20
   8   7  -8    9.20    4.60
   8   7  -8    3.10    3.50
  -8   7   8    2.50    2.40
   8   7  -8   -1.40    3.90
   8   7  -8    4.00    5.40
   7  -7  -8    8.40    3.40
  -7  -7   8    3.80    2.10
  -7  -7   8    7.60    3.50
   7  -7  -8    3.10    2.90
  -7   7   8    5.50    4.20
   7   7  -8    6.50    3.80
   7   7  -8    7.80    3.50
  -7   7   8    6.70    2.80
   7   7  -8    8.60    4.40
   7   7  -8    4.30    5.60
  -6  -7   8  135.29    9.40
  -6  -7   8  138.79   10.20
   6  -7  -8  150.48   11.50
   6  -7  -8  126.29    9.90
  -6   7   8  151.28   10.00
  -6   7   8  144.59   13.90
   6   7  -8  157.48   10.80
   6   7  -8  142.49   12.90
   6   7  -8  126.79   10.80
  -6   7   8  155.58   12.20
   6   7  -8  160.88   12.20
  -5  -7   8   55.59    5.30
  -5  -7   8   56.19    6.10
   5  -7  -8   57.29    5.80
  -5   7   8   57.69    7.30
   5   7  -8   54.09    6.90
   5   7  -8   66.19    9.20
   5   7  -8   57.09    8.40
  -5   7   8   63.59    8.60
  -5   7   8   63.39    5.60
   5   7  -8   62.49    6.90
  -4  -7   8   -3.50    1.80
   4  -7  -8    0.50    2.80
   4  -7  -8    4.40    2.30
   4   7  -8    5.70    3.00
  -4   7   8    0.90    4.30
   4   7  -8   -3.20    2.60
  -4   7   8    0.40    3.40
   4   7  -8    2.90    4.00
   4   7  -8    3.70    4.30
  -4   7   8   -0.40    2.60
  -4   7   8    0.30    2.30
   3  -7  -8    8.10    2.30
  -3  -7   8    7.30    2.00
   3   7  -8   13.20    3.50
  -3   7   8    8.10    3.50
  -3   7   8    8.00    3.00
   3   7  -8   12.80    4.10
  -3   7   8    4.70    4.10
  -3   7   8    5.90    2.40
   3   7  -8   12.50    3.20
   3   7  -8    8.70    3.20
   3   7  -8    6.80    3.90
   2  -7  -8   -0.20    1.90
  -2  -7   8    1.60    1.80
  -2   7   8    4.40    3.70
   2   7  -8    2.40    2.80
   2   7  -8    5.00    3.70
  -2   7   8    1.70    3.20
   2   7  -8    2.60    2.90
  -2   7   8   -0.20    2.60
  -2   7   8    3.00    3.30
  -2   7   8    4.40    2.40
   1  -7  -8  505.85   30.00
   1  -7  -8  510.65   30.40
  -1  -7   8  520.65   30.10
  -1   7   8  524.75   31.60
  -1   7   8  504.05   30.60
   1   7  -8  507.75   30.20
   1   7  -8  500.65   30.30
  -1   7   8  499.65   30.90
  -1   7   8  512.55   31.00
  -1   7   8  510.65   32.20
   1   7  -8  511.45   31.10
   1   7  -8  521.35   30.60
   0  -7  -8   51.99    5.30
   0  -7  -8   53.69    6.80
   0  -7   8   59.19    5.20
   0   7   8   61.29    8.00
   0   7  -8   58.89    6.10
   0   7  -8   57.09    6.30
   0   7   8   55.89    5.60
   0   7  -8   57.89    7.30
   0   7   8   60.59    6.70
   0   7  -8   51.49    5.60
   0   7   8   59.69    6.80
  -1  -7  -8  296.97   16.80
   1  -7   8  296.47   16.80
  -1  -7  -8  264.17   22.70
  -1   7  -8  290.97   17.80
   1   7   8  292.47   18.40
  -1   7  -8  248.38   17.00
  -1   7  -8  264.27   16.70
   1   7   8  247.98   17.70
   1   7   8  254.47   17.30
  -2  -7  -8   -2.70    7.20
  -2  -7  -8   -2.90    2.40
   2  -7   8    0.00    2.00
  -2   7  -8   -1.20    2.50
   2   7   8    0.70    2.80
   2   7   8   -4.70    2.70
  -2   7  -8    1.10    2.70
  -2   7  -8   -1.10    2.80
   2   7   8   -0.60    3.30
   2   7   8   -2.60    3.70
  -2   7  -8   -0.90    2.80
   3  -7   8  203.38   12.30
  -3  -7  -8  182.48   13.60
  -3  -7  -8  184.48   12.40
  -3  -7  -8  117.99   19.40
  -3   7  -8  183.98   12.40
   3   7   8  188.08   13.30
   3   7   8  197.18   14.30
  -3   7  -8  184.88   12.90
   3   7   8  207.48   13.20
  -3   7  -8  174.08   12.10
  -4  -7  -8   13.70    8.90
  -4  -7  -8   11.20    4.10
  -4  -7  -8    9.10    3.30
  -4  -7  -8   12.20    3.30
  -4  -7  -8   10.00    8.40
   4  -7   8   12.60    2.90
  -4   7  -8   12.60    3.40
   4   7   8   14.90    4.00
   4   7   8    8.50    3.50
   4   7   8   11.10    4.50
  -4   7  -8   12.50    3.30
  -4   7  -8    5.60    2.80
  -5  -7  -8  137.29   17.40
   5  -7   8  177.88   11.40
  -5  -7  -8  162.08   11.90
  -5  -7  -8  156.38   12.80
  -5  -7  -8  159.78   11.60
   5   7   8  192.68   12.70
   5   7   8  169.38   13.40
   5   7   8  165.58   12.30
  -5   7  -8  167.68   11.70
  -5   7  -8  167.88   11.60
  -5   7  -8  158.58   10.90
   6  -7   8    2.60    2.70
  -6  -7  -8    9.40    3.60
  -6  -7  -8   -2.70    3.50
  -6  -7  -8   -2.30    3.00
  -6  -7  -8   -0.50    7.60
  -6   7  -8   -1.60    2.30
   6   7   8   -0.40    2.90
   6   7   8    0.80    4.30
  -6   7  -8    2.60    2.70
  -6   7  -8   -3.20    2.90
   6   7   8    1.20    3.80
   7  -7   8    4.50    2.70
  -7  -7  -8    5.40    3.50
  -7  -7  -8    0.70    3.60
  -7  -7  -8    3.00    3.10
  -7   7  -8    1.40    2.90
   7   7   8    0.60    3.00
  -7   7  -8    2.40    2.40
   7   7   8   -1.80    3.80
  -7   7  -8    1.70    2.40
   7   7   8    0.60    3.60
  -8  -7  -8   -2.00    2.90
  -8  -7  -8    0.70    2.80
  -8  -7  -8    1.90    3.10
   8  -7   8    2.70    2.50
   8   7   8   -0.10    3.40
   8   7   8    3.60    2.80
  -8   7  -8    0.90    2.10
  -8   7  -8   -0.40    2.50
   9  -7   8    1.40    2.20
  -9  -7  -8    4.70    2.50
  -9  -7  -8    0.10    2.50
  -9  -7  -8    1.40    3.10
   9   7   8    7.00    3.40
  -9   7  -8    0.50    2.20
  -9   7  -8    2.40    1.90
 -10  -7  -8   32.40    4.40
 -10  -7  -8   35.50    4.10
 -10   7  -8   33.00    4.00
  10   7   8   43.40    4.90
  12  -8  -8    6.00    2.50
  12  -8  -8    8.90    5.70
  11  -8  -8    1.10    4.40
 -11  -8   8    1.30    2.30
  11  -8  -8    7.70    2.90
  11   8  -8    4.00    4.00
  10  -8  -8    8.70    3.40
 -10  -8   8   10.80    3.10
  10   8  -8    5.60    3.80
  10   8  -8    6.70    4.80
  -9  -8   8   55.09    6.50
   9  -8  -8   43.90    7.00
  -9  -8   8   48.30    4.70
   9   8  -8   54.99    8.30
  -9   8   8   57.99    5.40
   9   8  -8   52.89    9.30
  -8  -8   8    3.20    2.10
  -8  -8   8    2.50    3.50
   8   8  -8    0.40    4.30
   8   8  -8    2.80    3.50
   8   8  -8    6.10    5.60
   8   8  -8   -0.80    4.40
  -8   8   8   -2.50    4.10
  -8   8   8    0.20    2.50
   7  -8  -8  150.18   11.70
  -7  -8   8  177.28   11.00
   7  -8  -8  159.08   12.20
  -7  -8   8  177.78   11.90
  -7   8   8  162.08   13.50
   7   8  -8  178.08   12.30
   7   8  -8  172.68   13.50
  -7   8   8  183.78   11.60
   7   8  -8  161.58   14.40
   6  -8  -8    1.00    3.60
  -6  -8   8   -2.00    3.30
  -6  -8   8    3.70    2.20
   6  -8  -8    4.20    2.60
  -6   8   8    1.50    4.20
   6   8  -8    6.10    4.90
  -6   8   8    1.90    2.40
   6   8  -8    1.50    3.90
   6   8  -8    5.70    5.00
   6   8  -8    4.80    3.50
  -5  -8   8   65.99    7.00
   5  -8  -8   56.99    6.20
  -5  -8   8   73.89    5.80
  -5   8   8   69.69    9.20
   5   8  -8   61.09    7.70
   5   8  -8   78.49    9.50
  -5   8   8   80.89    8.60
   5   8  -8   63.99    7.40
   5   8  -8   67.49    9.40
  -5   8   8   65.59    6.10
  -4  -8   8   18.20    3.70
  -4  -8   8   16.30    2.70
   4  -8  -8   15.50    2.90
  -4   8   8   13.80    3.00
  -4   8   8   23.50    5.10
  -4   8   8   17.00    3.20
  -4   8   8   14.80    5.60
   4   8  -8   19.60    5.30
   4   8  -8   15.40    4.70
   4   8  -8   10.20    3.60
   4   8  -8   24.90    4.20
  -3  -8   8  112.99    7.90
   3  -8  -8   94.69    7.90
  -3   8   8  114.39    9.00
   3   8  -8  129.39   11.30
  -3   8   8  116.79    8.30
  -3   8   8  121.49   11.00
   3   8  -8   96.69   10.30
   3   8  -8  116.89    9.40
   3   8  -8  115.79    9.20
  -3   8   8  121.99    9.80
  -2  -8   8   77.29    6.00
   2  -8  -8   77.29    6.20
  -2   8   8   81.69    6.60
   2   8  -8   85.89    9.10
   2   8  -8   81.89    7.60
  -2   8   8   76.59    7.80
   2   8  -8   74.29    7.10
  -2   8   8   74.39    8.20
   2   8  -8   76.99    7.50
  -2   8   8   61.69    8.80
  -2   8   8   65.89    7.50
   2   8  -8   63.29    7.90
  -1  -8   8  249.28   15.90
   1  -8  -8  249.97   17.00
   1  -8  -8  254.17   15.80
   1   8  -8  271.97   17.80
  -1   8   8  256.47   16.50
   1   8  -8  274.77   17.00
  -1   8   8  254.87   18.50
  -1   8   8  255.97   16.90
  -1   8   8  232.08   17.40
  -1   8   8  254.77   17.30
   1   8  -8  298.77   16.60
   1   8  -8  240.88   16.20
   0  -8  -8    3.00    3.20
   0  -8   8    2.30    2.20
   0  -8  -8    3.50    2.30
   0   8   8    1.50    2.90
   0   8   8    5.70    3.60
   0   8  -8    2.10    3.20
   0   8  -8    3.40    3.10
   0   8  -8    2.60    3.80
   0   8  -8    8.90    3.30
   0   8   8    9.10    3.30
   0   8   8    0.90    3.70
  -1  -8  -8  -11.60    7.80
  -1  -8  -8    3.30    2.40
   1  -8   8    3.00    2.20
  -1   8  -8    3.60    3.50
  -1   8  -8   -0.40    2.80
   1   8   8   -2.50    3.40
   1   8   8    4.20    2.90
   1   8   8   -0.30    3.40
  -1   8  -8   -4.00    3.00
  -1   8  -8    1.30    3.00
   1   8   8   -0.90    4.30
  -2  -8  -8   39.00    5.50
   2  -8   8   41.40    5.00
  -2  -8  -8   28.30   10.00
  -2   8  -8   36.80    5.30
   2   8   8   42.80    8.20
   2   8   8   52.09    7.00
   2   8   8   33.20    5.50
  -2   8  -8   28.30    4.60
  -2   8  -8   38.20    6.40
  -2   8  -8   43.00    6.00
  -3  -8  -8   80.59   13.10
  -3  -8  -8   99.19    8.30
   3  -8   8  107.39    7.70
  -3  -8  -8   86.89    9.70
  -3   8  -8   89.99    7.60
  -3   8  -8  106.79    8.90
   3   8   8   94.89    9.10
   3   8   8   98.59   10.60
  -3   8  -8  100.39    8.40
   3   8   8   98.29    8.60
  -4  -8  -8   -2.60    8.40
  -4  -8  -8    1.40    3.90
  -4  -8  -8    3.30    3.40
   4  -8   8    1.50    2.50
  -4  -8  -8    1.20    3.10
  -4   8  -8    2.70    3.20
   4   8   8   -0.60    3.30
  -4   8  -8    0.70    2.80
   4   8   8    3.70    4.40
  -4   8  -8   -0.50    3.00
   4   8   8    2.00    3.50
   5  -8   8   34.00    5.00
  -5  -8  -8   20.20    8.70
  -5  -8  -8   17.00    4.40
  -5  -8  -8   30.90    6.60
  -5  -8  -8   28.50    5.70
  -5   8  -8   29.30    4.10
  -5   8  -8   27.50    3.70
  -5   8  -8   37.30    5.70
   5   8   8   35.20    6.40
   5   8   8   31.70    6.00
   5   8   8   35.80    5.70
  -6  -8  -8   -1.10    3.40
  -6  -8  -8    0.70    3.40
   6  -8   8    4.20    2.70
  -6  -8  -8   -1.00    2.90
  -6  -8  -8   -3.90   12.50
   6   8   8    1.30    3.10
  -6   8  -8    0.40    2.70
  -6   8  -8    0.60    2.40
   6   8   8    1.10    4.40
   6   8   8   -0.10    3.40
  -6   8  -8    2.80    3.00
  -7  -8  -8   64.59    7.30
  -7  -8  -8   55.99    6.50
   7  -8   8   78.09    6.20
  -7  -8  -8   52.79    7.10
  -7   8  -8   66.99    6.30
   7   8   8   70.39    7.30
  -7   8  -8   53.29    6.00
   7   8   8   64.09    6.90
   7   8   8   68.59    8.40
  -7   8  -8   61.69    5.40
  -8  -8  -8    1.70    2.60
  -8  -8  -8    2.80    3.00
   8  -8   8    3.50    2.30
  -8  -8  -8    0.30    2.80
  -8   8  -8    3.70    2.40
  -8   8  -8    3.40    2.00
   8   8   8   -1.10    2.80
   8   8   8    3.40    2.70
   9  -8   8   15.80    3.30
  -9  -8  -8   13.30    2.60
  -9  -8  -8    9.80    2.60
   9   8   8   23.40    4.30
  -9   8  -8   15.50    2.70
  11  -9  -8   63.09    7.10
  11  -9  -8   66.39    6.00
  11   9  -8   70.39    7.00
 -10  -9   8    1.10    2.40
  10  -9  -8    0.10    2.60
  10   9  -8    3.60    3.40
  10   9  -8    4.80    4.20
  -9  -9   8   61.19    6.40
   9  -9  -8   63.79    6.60
  -9  -9   8   68.99    5.20
  -9   9   8   53.89    5.60
   9   9  -8   81.29    9.30
   9   9  -8   69.49    7.90
   8  -9  -8    2.00    3.00
  -8  -9   8    3.50    3.20
  -8  -9   8    3.80    2.10
   8   9  -8    1.40    5.20
   8   9  -8    4.30    4.40
   8   9  -8    6.10    4.30
   8   9  -8    2.80    3.50
  -8   9   8    3.40    2.30
   7  -9  -8    5.40    2.80
  -7  -9   8    8.40    3.60
  -7  -9   8    3.90    2.20
  -7   9   8    6.00    2.80
   7   9  -8    4.80    4.60
   7   9  -8    4.60    5.50
   7   9  -8    2.40    3.80
   7   9  -8    8.00    4.00
   6  -9  -8   19.70    3.20
  -6  -9   8   11.20    3.40
   6  -9  -8   19.80    4.00
  -6  -9   8   12.20    2.70
   6   9  -8   18.80    5.10
   6   9  -8   17.40    4.00
   6   9  -8   24.40    6.10
  -6   9   8   20.10    5.20
   6   9  -8   11.80    4.50
  -6   9   8   20.50    3.50
  -5  -9   8   37.70    4.70
  -5  -9   8   43.20    6.00
   5  -9  -8   34.20    5.00
  -5   9   8   42.60    5.00
  -5   9   8   28.80    5.60
   5   9  -8   28.10    5.70
   5   9  -8   45.00    7.00
   5   9  -8   38.50    6.30
   5   9  -8   34.50    6.90
  -4  -9   8   45.50    5.90
   4  -9  -8   39.60    5.10
  -4  -9   8   38.80    4.80
  -4   9   8   39.20    5.00
   4   9  -8   40.00    7.00
  -4   9   8   42.10    5.80
   4   9  -8   27.50    5.60
   4   9  -8   42.70    7.00
   4   9  -8   41.20    6.50
  -4   9   8   35.70    6.00
  -3  -9   8   49.50    5.00
   3  -9  -8   46.70    5.30
  -3   9   8   54.99    6.90
   3   9  -8   42.60    7.90
   3   9  -8   43.10    6.90
   3   9  -8   53.29    9.10
  -3   9   8   44.70    5.90
  -3   9   8   52.49    5.50
   3   9  -8   45.00    6.90
  -2  -9   8   15.50    2.70
   2  -9  -8   14.60    2.70
  -2   9   8   17.90    4.70
  -2   9   8   14.30    4.00
  -2   9   8   12.10    3.00
   2   9  -8   12.30    3.70
   2   9  -8    8.40    5.50
   2   9  -8   15.70    4.90
   2   9  -8   19.90    4.10
  -2   9   8   15.90    3.60
   2   9  -8   10.20    4.00
  -1  -9   8   29.70    4.50
   1  -9  -8   34.60    4.70
  -1   9   8   36.90    5.10
   1   9  -8   29.50    4.40
   1   9  -8   37.40    5.80
   1   9  -8   39.80    6.50
  -1   9   8   36.70    6.10
  -1   9   8   38.00    7.20
  -1   9   8   33.50    6.30
   1   9  -8   32.30    4.70
   0  -9   8  167.48   11.10
   0  -9  -8  157.28   11.00
   0  -9  -8  162.88   12.00
   0   9   8  159.48   13.20
   0   9   8  173.78   12.50
   0   9   8  189.78   11.80
   0   9  -8  159.08   11.40
   0   9  -8  170.18   11.90
   0   9   8  182.48   13.10
   0   9  -8  159.78   12.30
   0   9  -8  155.68   12.90
  -1  -9  -8  145.09   11.60
   1  -9   8  148.09   10.20
  -1  -9  -8  152.68   10.40
   1   9   8  156.78   12.00
   1   9   8  145.89   12.30
   1   9   8  161.58   11.00
   1   9   8  155.48   12.10
  -1   9  -8  138.09   10.50
  -1   9  -8  157.98   11.60
  -1   9  -8  155.98   11.10
  -1   9  -8  141.99   11.70
  -2  -9  -8   41.30    7.70
  -2  -9  -8   46.20    6.00
   2  -9   8   46.50    5.20
  -2   9  -8   47.10    6.30
   2   9   8   47.60    6.10
   2   9   8   47.40    8.40
  -2   9  -8   51.29    7.20
  -2   9  -8   44.40    7.30
  -2   9  -8   37.60    5.60
   2   9   8   55.09    7.50
  -3  -9  -8  110.69   10.60
  -3  -9  -8  124.29    9.30
   3  -9   8  130.29    8.70
  -3  -9  -8   95.29   16.00
   3   9   8  125.09   10.40
  -3   9  -8  116.79    9.40
  -3   9  -8  114.99    8.80
  -3   9  -8  103.49    9.60
   3   9   8  119.89    9.40
   3   9   8  122.69   11.50
  -4  -9  -8    1.20    4.00
  -4  -9  -8    3.10    8.20
  -4  -9  -8   -1.10    3.00
   4  -9   8    0.20    2.40
   4   9   8   -1.00    3.20
   4   9   8    2.20    3.70
   4   9   8   -1.20    4.30
  -4   9  -8   -0.30    2.80
  -4   9  -8    2.50    3.30
  -4   9  -8   -0.10    2.90
   5  -9   8   21.20    4.60
  -5  -9  -8   25.50    4.60
  -5  -9  -8   36.50    5.50
  -5  -9  -8   27.40    4.10
  -5   9  -8   24.10    3.70
  -5   9  -8   24.40    4.60
   5   9   8   28.20    5.30
   5   9   8   30.00    5.50
  -5   9  -8   27.00    4.10
   5   9   8   19.90    4.30
  -6  -9  -8    2.40    3.50
   6  -9   8    0.80    2.40
  -6  -9  -8    0.70    3.30
  -6  -9  -8    1.50    2.80
   6   9   8    3.40    4.20
  -6   9  -8    0.30    2.40
  -6   9  -8    2.40    2.90
   6   9   8    2.40    3.10
  -6   9  -8   -0.20    2.20
   6   9   8   -1.30    3.10
  -7  -9  -8   -0.90    3.00
   7  -9   8    1.10    2.20
  -7  -9  -8   -0.60    2.60
  -7  -9  -8    1.70    3.10
   7   9   8   -1.90    3.50
  -7   9  -8    0.10    2.10
   7   9   8    1.30    2.70
   7   9   8    0.30    2.60
  -7   9  -8    1.00    2.60
   8  -9   8    2.10    2.00
  -8  -9  -8   -2.10    2.50
  -8  -9  -8    0.50    2.30
  -8  -9  -8    0.50    2.50
   8   9   8    1.10    2.20
  -8   9  -8    0.60    2.30
  -8   9  -8   -0.50    1.70
  10 -10  -8    3.80    4.30
  10 -10  -8    2.90    2.20
  10  10  -8    4.70    3.40
  -9 -10   8   30.20    3.60
   9 -10  -8   33.30    4.90
  -9 -10   8   28.50    4.40
  -9  10   8   33.90    3.70
   9  10  -8   44.60    6.30
   9  10  -8   37.30    6.50
  -8 -10   8   -0.10    1.90
   8 -10  -8    0.00    2.40
  -8 -10   8   -1.80    2.70
  -8  10   8    2.40    2.30
   8  10  -8   -0.20    3.30
   8  10  -8    1.60    4.20
   8  10  -8    9.40    4.10
   8  10  -8    6.70    4.00
  -7 -10   8  131.89   10.10
  -7 -10   8  152.68    9.50
   7  10  -8  139.69   12.30
   7  10  -8  131.49   10.80
   7  10  -8  158.18   12.20
  -7  10   8  150.18    9.90
  -6 -10   8   19.50    3.90
   6 -10  -8   16.10    3.00
  -6 -10   8   11.60    3.30
   6  10  -8   17.50    5.00
  -6  10   8   14.60    2.80
   6  10  -8   19.90    5.30
   6  10  -8   16.20    4.40
   6  10  -8   16.60    4.20
  -5 -10   8  164.68   10.50
  -5 -10   8  162.98   11.50
   5 -10  -8  148.49   10.60
   5  10  -8  177.58   13.40
  -5  10   8  169.88   10.90
   5  10  -8  139.09   11.90
   5  10  -8  160.28   11.90
   5  10  -8  158.28   12.90
   4 -10  -8    6.80    2.90
  -4 -10   8    7.50    3.60
  -4 -10   8    6.30    2.30
  -4  10   8    8.80    2.90
   4  10  -8    5.60    4.80
   4  10  -8    2.50    3.80
  -4  10   8    7.80    4.70
   4  10  -8    3.20    4.10
  -4  10   8    8.10    2.80
   4  10  -8    6.30    4.20
   3  10  -8   72.09    8.00
   3  10  -8   65.09    8.10
   3  10  -8   86.99    9.90
  -3  10   8   58.09    8.20
  -3  10   8   67.89    6.30
  -3  10   8   67.39    6.80
   3  10  -8   66.69    7.70
  -2 -10   8   19.20    4.10
  -2  10   8   23.50    4.20
  -2  10   8   16.90    4.90
  -2  10   8   23.70    4.50
   2  10  -8   21.80    4.50
   2  10  -8   10.70    4.80
  -1 -10   8   78.89    6.00
   1 -10  -8   69.29    6.20
   1  10  -8   48.00    7.30
  -1  10   8   70.99    8.10
  -1  10   8   71.69    8.40
  -1  10   8   73.99    6.60
   1  10  -8   77.49    9.30
  -1  10   8   70.49    7.30
   1  10  -8   51.49    7.70
   0 -10   8   15.70    2.80
   0 -10  -8   23.40    4.10
   0 -10  -8    6.70    2.70
   0  10   8    9.70    3.60
   0  10  -8   10.40    3.80
   0  10   8   19.10    3.80
   0  10   8   11.80    4.40
   0  10  -8   16.40    4.10
   0  10   8   13.60    4.20
   0  10  -8   13.70    3.70
   0  10  -8   16.00    4.40
   1 -10   8    9.60    2.60
  -1 -10  -8   11.10    3.70
  -1 -10  -8   11.80    2.80
  -1  10  -8    6.50    3.70
   1  10   8   15.60    3.70
  -1  10  -8   13.30    3.80
  -1  10  -8   10.50    3.50
   1  10   8   11.00    4.00
  -1  10  -8   10.00    4.10
   1  10   8   20.80    4.80
  -2 -10  -8    2.20    3.40
   2 -10   8    0.10    2.20
  -2 -10  -8    2.20    2.60
  -2 -10  -8   -0.50    8.20
  -2  10  -8    1.30    3.20
  -2  10  -8    0.30    3.50
  -2  10  -8   -0.60    3.20
   2  10   8    2.70    3.90
   2  10   8   -1.50    4.40
   2  10   8    3.30    2.90
  -3 -10  -8    1.20    2.80
  -3 -10  -8   -0.50    3.60
   3 -10   8    2.50    2.30
   3  10   8    3.90    4.30
   3  10   8    2.10    3.10
  -3  10  -8    4.10    3.10
  -3  10  -8    1.20    3.10
  -3  10  -8    2.50    3.50
   3  10   8    4.80    3.90
  -4 -10  -8    4.40    3.00
   4 -10   8    2.70    2.30
  -4 -10  -8    3.00    3.70
   4  10   8    4.10    3.50
  -4  10  -8    0.00    2.80
  -4  10  -8   -1.70    3.10
  -4  10  -8   -0.70    2.60
   4  10   8    3.60    4.20
   4  10   8    1.70    2.80
   5 -10   8   50.79    4.90
  -5 -10  -8   46.90    6.60
  -5 -10  -8   50.89    6.30
  -5  10  -8   39.30    5.60
   5  10   8   39.50    7.50
   5  10   8   39.20    6.40
  -5  10  -8   36.60    5.10
   5  10   8   39.90    5.60
  -5  10  -8   33.20    4.70
  -6 -10  -8    5.20    3.20
  -6 -10  -8    5.30    3.00
   6 -10   8    3.90    2.20
   6  10   8    6.30    3.20
  -6  10  -8    7.10    3.00
  -6  10  -8    4.60    2.20
   6  10   8    2.40    2.60
   6  10   8    5.50    3.70
  -7 -10  -8   61.99    6.20
  -7 -10  -8   57.39    5.80
   7  10   8   68.49    5.70
  -7  10  -8   55.29    5.50
   7  10   8   73.89    5.90
  -7  10  -8   51.89    4.70
  -8 -11   8    3.70    1.80
  -8 -11   8    6.10    2.40
   8 -11  -8    4.80    2.10
   8  11  -8    3.40    3.50
   8  11  -8    2.00    4.70
   8  11  -8    6.60    5.40
   8  11  -8    3.00    3.50
  -8  11   8    4.40    1.70
   7 -11  -8    5.30    2.40
  -7 -11   8   13.00    2.10
  -7 -11   8   10.20    2.80
   7  11  -8    7.50    3.90
   7  11  -8    2.70    3.80
   7  11  -8    8.10    3.80
  -7  11   8    9.80    2.20
   7  11  -8    6.00    3.30
   6 -11  -8    3.40    2.20
  -6 -11   8    1.60    1.90
  -6 -11   8    4.30    2.80
   6  11  -8    5.40    4.40
  -6  11   8    4.90    2.30
   6  11  -8    0.60    3.60
   6  11  -8    5.00    3.70
   6  11  -8    3.70    3.40
  -5 -11   8    0.50    2.00
  -5 -11   8    2.40    2.80
   5 -11  -8    4.80    2.20
   5  11  -8    0.10    3.60
   5  11  -8   -0.60    4.40
   5  11  -8    2.50    3.60
   5  11  -8   -0.10    3.30
  -5  11   8    1.30    2.20
  -4 -11   8    5.40    3.50
  -4 -11   8   13.00    2.50
   4  11  -8   12.70    3.90
   4  11  -8    4.40    4.00
   4  11  -8    7.30    5.00
  -4  11   8    8.10    2.60
   4  11  -8   12.20    3.80
  -3 -11   8   15.60    3.50
  -3 -11   8   15.00    2.70
   3  11  -8   11.30    4.00
  -3  11   8   11.00    2.60
  -3  11   8    8.30    2.80
   3  11  -8    8.90    3.90
   3  11  -8   10.90    4.70
  -2 -11   8    1.50    2.10
   2  11  -8    3.60    3.70
   2  11  -8    9.60    4.60
   2  11  -8    1.90    3.60
  -2  11   8    0.80    2.30
  -2  11   8    2.80    2.60
  -1 -11   8   84.49    6.40
   1 -11  -8   80.49    6.60
  -1  11   8   82.79    6.90
   1  11  -8   63.69    7.60
   1  11  -8   78.09    9.30
   1  11  -8   79.09    8.20
   1  11  -8   64.89    7.50
  -1  11   8   80.89    7.50
   0 -11  -8   -0.20    2.30
   0 -11   8    1.30    2.10
   0  11  -8   -0.20    3.90
   0  11  -8    3.40    3.70
   0  11  -8    4.00    3.20
   0  11   8    3.10    2.70
   0  11   8    2.90    3.10
   0  11  -8   -1.50    3.30
   0  11   8    1.00    3.40
  -1 -11  -8   21.90    3.80
  -1 -11  -8   17.90    3.00
   1 -11   8   18.60    2.80
  -1  11  -8   16.60    3.80
  -1  11  -8   14.80    3.80
  -1  11  -8   21.10    3.90
   1  11   8   12.70    4.10
   1  11   8   20.20    3.60
   1  11   8   24.70    4.30
   2 -11   8    4.40    2.20
  -2 -11  -8    6.20    2.60
  -2 -11  -8    4.30    3.10
  -2  11  -8    2.20    3.30
   2  11   8    7.50    3.00
   2  11   8    3.40    3.90
  -2  11  -8    4.50    3.10
   2  11   8    4.30    3.60
  -2  11  -8    4.40    3.10
  -3 -11  -8   10.40    3.40
   3 -11   8    6.40    2.20
  -3 -11  -8    8.70    2.80
   3  11   8    3.40    2.60
   3  11   8    7.30    3.60
  -3  11  -8    5.70    3.00
   3  11   8   11.60    4.20
  -3  11  -8   12.60    3.40
  -3  11  -8    7.30    3.10
  -4 -11  -8    3.40    3.00
  -4 -11  -8    4.60    2.80
   4 -11   8    3.80    2.10
  -4  11  -8    7.50    2.70
   4  11   8    6.20    2.90
  -4  11  -8    2.80    2.50
   4  11   8    2.40    3.10
  -4  11  -8    3.90    2.90
   4  11   8    5.50    3.90
  -5 -11  -8   25.00    4.80
   5 -11   8   25.50    3.60
  -5 -11  -8   22.30    4.80
  -5  11  -8   14.90    2.80
  -5  11  -8   21.30    4.40
   5  11   8   27.30    4.50
   5  11   8   24.30    4.10
   5  11   8   23.10    4.20
   6 -11   8    3.10    1.70
  -6 -11  -8    3.80    2.40
  -6 -11  -8    2.00    2.60
  -6  11  -8    2.60    1.90
  -6  11  -8   -0.40    2.30
   6  11   8    1.30    2.30
   7  12  -8   72.69    7.20
  -6 -12   8    4.00    1.60
  -6 -12   8    5.30    2.30
   6  12  -8    2.00    2.90
   6  12  -8    4.40    3.70
  -6  12   8    2.90    1.60
   6  12  -8    1.60    3.10
  -5 -12   8   39.20    3.90
  -5 -12   8   32.30    4.60
   5  12  -8   48.20    7.00
   5  12  -8   36.60    5.80
   5  12  -8   35.30    5.90
  -5  12   8   40.80    3.90
  -4 -12   8    3.10    1.90
  -4 -12   8    1.90    2.80
   4  12  -8    2.20    3.20
   4  12  -8    1.60    4.00
  -4  12   8    3.60    1.90
   4  12  -8    0.00    3.40
  -3 -12   8   68.59    5.30
  -3 -12   8   62.99    6.20
   3  12  -8   60.69    7.90
   3  12  -8   56.19    6.80
   3  12  -8   54.79    6.70
  -3  12   8   65.59    5.30
  -2 -12   8   36.90    4.30
  -2 -12   8   38.60    5.40
   2  12  -8   35.40    6.20
  -2  12   8   42.10    4.90
   2  12  -8   45.20    6.20
   2  12  -8   38.80    7.40
  -2  12   8   50.59    4.60
  -1 -12   8    3.80    2.00
   1 -12  -8    5.50    2.10
  -1  12   8    6.00    2.30
   1  12  -8    8.00    3.50
   1  12  -8    4.60    3.80
  -1  12   8    8.20    2.70
   1  12  -8    5.10    3.40
   0 -12   8   18.00    3.60
   0 -12  -8   17.10    2.60
   0  12  -8   13.70    3.50
   0  12  -8   17.80    3.80
   0  12  -8   12.30    3.70
   0  12   8   12.70    3.10
   0  12   8   17.40    3.10
   0  12  -8   18.30    4.90
  -1 -12  -8    0.60    2.00
   1 -12   8    1.30    1.90
  -1  12  -8    1.00    3.20
   1  12   8    1.30    3.00
   1  12   8   -1.50    2.70
  -1  12  -8    2.20    3.00
  -1  12  -8   -0.50    2.80
   1  12   8   -1.00    2.00
  -2 -12  -8   31.60    4.40
   2 -12   8   32.90    3.80
  -2  12  -8   25.50    5.00
  -2  12  -8   24.10    4.30
   2  12   8   33.30    5.90
   2  12   8   39.80    4.20
   2  12   8   38.10    5.20
  -2  12  -8   29.30    5.40
  -3 -12  -8   16.90    3.10
   3 -12   8   15.80    3.10
  -3 -12  -8   17.50    2.80
   3  12   8   15.90    3.30
   3  12   8   17.30    3.50
  -3  12  -8   12.40    3.10
   3  12   8   11.60    3.00
  -3  12  -8   14.30    3.20
  -4 -12  -8   -1.80    2.10
   4 -12   8   -0.60    1.50
  -4  12  -8    4.80    2.30
   4  12   8    1.50    2.30
   4  12   8   -1.50    2.90
  -4  12  -8   -0.60    2.00
  -4 -13   8   27.20    3.00
   4  13  -8   25.10    5.60
   4  13  -8   23.20    4.60
  -3 -13   8    7.60    2.30
  -3 -13   8    8.10    1.80
   3  13  -8   11.60    3.00
   3  13  -8   11.50    3.20
  -2 -13   8    3.10    1.60
  -2 -13   8    3.90    2.30
   2  13  -8    0.70    2.80
   2  13  -8    0.40    2.70
  -1 -13   8    7.60    2.30
  -1 -13   8    5.30    1.70
   1  13  -8    5.10    2.90
   1  13  -8    7.20    3.10
   0 -13   8    2.10    1.50
   0  13  -8   -1.10    2.70
   0  13   8   -0.30    3.20
   0  13  -8    1.40    2.70
   1 -13   8    4.00    1.50
   1  13   8    2.10    3.60
  -1  13  -8    2.30    2.60
   2 -13   8    0.10    1.50
 -14   0   9   -0.10    1.60
  13   0  -9   76.39   10.50
 -13   0   9   71.59    5.90
 -12   0   9    3.20    2.70
  12   0  -9    1.00    3.80
  12   0  -9   -0.70    4.40
  11   0  -9   48.80    7.90
 -11   0   9   49.70    7.20
  11   0  -9   46.20    8.20
 -11   0   9   34.40    5.50
  10   0  -9   -1.90    4.20
 -10   0   9   -0.80    3.90
  10   0  -9   -3.20    4.40
 -10   0   9   -0.20    2.70
   9   0  -9  764.92   41.30
  -9   0   9  639.34   41.70
   9   0  -9  669.43   41.20
   9   0  -9  624.14   40.30
  -9   0   9  695.23   39.80
  -8   0   9    0.70    2.30
  -8   0   9   -2.70    3.90
   8   0  -9    1.40    3.00
  -8   0   9    0.90    3.60
   8   0  -9   -8.20    3.60
   7   0  -9   82.19    8.20
  -7   0   9   70.59    8.10
  -7   0   9   81.69    5.90
   7   0  -9   81.69    6.60
  -7   0   9   65.89    5.40
   7   0  -9   69.59    7.20
  -7   0   9   75.09    7.50
  -6   0   9    0.90    1.30
  -6   0   9    0.90    2.90
  -6   0   9    1.00    1.80
   6   0  -9    0.60    2.40
  -6   0   9   -2.00    3.20
   6   0  -9    3.50    3.50
   6   0  -9    0.00    2.70
  -5   0   9   87.99    7.70
   5   0  -9   95.99    7.30
  -5   0   9   97.99    6.30
   5   0  -9  102.89    8.20
  -5   0   9   84.99    6.20
  -5   0   9   90.99    8.40
   4   0  -9   -0.30    2.20
   4   0  -9    0.60    2.70
   4   0  -9    0.80    2.40
  -4   0   9   -0.40    1.30
  -4   0   9    0.00    2.10
  -4   0   9   -2.60    2.50
  -3   0   9  104.59    6.50
   3   0  -9  108.09    7.70
   3   0  -9   97.89    7.90
   3   0  -9   88.19    7.20
  -3   0   9  102.89    8.10
  -3   0   9  107.59    7.70
   3   0  -9  100.29    6.60
   2   0  -9   -0.90    1.80
   2   0  -9    1.20    1.40
   2   0  -9    3.70    2.50
  -2   0   9   -1.20    2.10
  -2   0   9    1.70    1.90
   2   0  -9    0.10    2.40
  -1   0   9  564.34   35.00
   1   0  -9  590.24   35.10
   1   0  -9  614.44   34.90
  -1   0   9  568.34   35.30
   1   0  -9  616.74   34.60
   0   0  -9    0.50    2.30
   0   0  -9    1.50    1.70
   0   0   9    4.60    2.10
   0   0   9   -0.10    1.50
   0   0   9    0.70    1.30
   0   0  -9   -1.10    1.70
  -1   0  -9  208.48   13.40
  -1   0  -9  186.48   13.70
   1   0   9  248.08   13.90
  -1   0  -9  216.38   13.40
  -1   0  -9  225.58   13.10
   1   0   9  229.68   13.60
  -2   0  -9    3.40    4.20
  -2   0  -9    3.90    1.60
  -2   0  -9    1.00    1.70
   2   0   9    2.10    1.90
  -2   0  -9   -2.50    1.70
  -2   0  -9   -0.10    2.20
   3   0   9  139.79   10.20
  -3   0  -9  164.58   10.10
  -3   0  -9  147.39   10.20
  -3   0  -9  154.28    9.70
   4   0   9   -1.00    2.60
  -4   0  -9    2.00    2.10
  -4   0  -9   -1.40    1.80
  -4   0  -9   -0.80    2.50
  -5   0  -9  173.08   11.10
  -5   0  -9  158.38   11.30
   5   0   9  182.08   12.00
  -5   0  -9  170.18   11.30
  -6   0  -9   -0.20    2.30
  -6   0  -9    1.20    2.30
   6   0   9   -2.30    3.10
  -6   0  -9    2.60    2.60
  -7   0  -9  220.68   14.50
   7   0   9  247.38   15.90
  -7   0  -9  231.98   14.70
   8   0   9    0.40    3.70
  -8   0  -9   -1.10    2.30
  -8   0  -9    1.90    2.50
  -9   0  -9   31.60    4.80
  -9   0  -9   34.50    4.50
   9   0   9   32.90    6.20
 -10   0  -9    1.80    2.10
 -10   0  -9   -0.20    2.30
  10   0   9   -2.40    3.10
 -11   0  -9    2.60    1.90
  11   0   9    3.10    2.60
 -14  -1   9    1.80    1.80
 -14   1   9    3.20    1.60
  13  -1  -9   12.00    4.70
 -13  -1   9   12.30    2.70
  13   1  -9   14.40    4.30
 -13   1   9   14.50    2.50
  12  -1  -9   55.79    7.40
  12  -1  -9   37.80    7.40
 -12  -1   9   30.70    5.20
 -12   1   9   31.60    4.80
  12   1  -9   36.80    7.30
 -11  -1   9    6.60    2.90
 -11  -1   9    4.60    4.70
  11  -1  -9    8.10    5.50
  11  -1  -9    5.10    4.40
 -11   1   9    6.00    4.70
 -11   1   9    8.10    2.70
  11   1  -9   11.80    5.10
 -10  -1   9   62.59    9.00
  10  -1  -9   78.09    9.20
  10  -1  -9   62.09    7.90
 -10  -1   9   71.99    6.70
  10  -1  -9   83.29    9.20
 -10   1   9   62.19    8.40
  10   1  -9   86.19    9.80
  10   1  -9   55.89   11.10
 -10   1   9   65.99    6.40
  -9  -1   9   53.49    5.80
   9  -1  -9   68.19    8.80
  -9  -1   9   51.69    8.20
  -9  -1   9   47.70    8.00
   9  -1  -9   55.19    7.60
  -9   1   9   60.19    9.20
  -9   1   9   66.59    7.70
   9   1  -9   49.60    7.60
  -9   1   9   55.29    5.70
   9   1  -9   78.59    9.30
  -8  -1   9  131.49    9.50
   8  -1  -9  128.89   10.80
   8  -1  -9  110.59   11.20
  -8  -1   9  134.39   11.60
  -8  -1   9  152.48   12.80
   8   1  -9  148.59   10.00
  -8   1   9  154.48    9.40
   8   1  -9  158.48   11.80
  -8   1   9  135.19   11.30
   8   1  -9  134.79   11.10
  -8   1   9  136.99   12.40
  -8   1   9  144.69    9.40
   7  -1  -9  425.46   25.90
  -7  -1   9  458.65   28.20
   7  -1  -9  399.06   26.40
  -7  -1   9  426.46   25.60
   7  -1  -9  459.75   27.00
  -7  -1   9  415.96   27.30
   7   1  -9  449.86   26.20
   7   1  -9  460.55   27.20
  -7   1   9  432.46   27.30
  -7   1   9  422.06   25.70
  -7   1   9  409.16   27.90
  -7   1   9  439.56   25.60
   6  -1  -9   54.89    5.40
  -6  -1   9   50.59    4.80
  -6  -1   9   51.79    6.90
  -6  -1   9   51.59    6.20
   6  -1  -9   51.59    6.90
  -6   1   9   53.59    4.40
   6   1  -9   42.20    5.80
   6   1  -9   62.79    5.80
   6   1  -9   61.29    7.20
  -6   1   9   54.39    4.60
  -6   1   9   49.80    6.20
  -6   1   9   48.10    7.00
   5  -1  -9  452.25   30.30
  -5  -1   9  539.55   30.00
  -5  -1   9  520.15   31.80
   5  -1  -9  557.14   31.10
  -5  -1   9  523.15   31.30
   5  -1  -9  454.25   30.20
   5   1  -9  528.25   30.50
  -5   1   9  518.05   31.90
  -5   1   9  538.05   29.90
  -5   1   9  522.45   30.20
   5   1  -9  457.85   30.40
  -5   1   9  517.95   31.40
   5   1  -9  555.14   31.10
  -4  -1   9  159.58   11.90
  -4  -1   9  173.48   11.60
   4  -1  -9  183.48   11.90
  -4  -1   9  181.28   10.40
   4  -1  -9  174.98   11.10
   4   1  -9  148.49   11.10
  -4   1   9  168.68   10.60
  -4   1   9  160.48   11.60
  -4   1   9  170.48   10.30
   4   1  -9  159.48   10.40
   4   1  -9  179.28   11.90
   4   1  -9  172.58   11.30
  -4   1   9  168.78   12.20
   3  -1  -9  127.09    9.20
  -3  -1   9  133.79   10.00
   3  -1  -9  156.48    9.60
  -3  -1   9  145.69    8.60
  -3  -1   9  148.79    9.70
   3  -1  -9  131.09   10.00
  -3   1   9  138.19    8.90
  -3   1   9  143.59    9.80
   3   1  -9  133.59    8.80
   3   1  -9  141.19    9.90
  -3   1   9  129.29   10.20
   3   1  -9  138.99    9.50
  -2  -1   9    2.60    1.30
   2  -1  -9    2.80    1.90
  -2  -1   9    1.80    1.60
   2  -1  -9    3.90    1.50
   2  -1  -9    5.20    2.40
  -2  -1   9    6.40    2.30
   2   1  -9    5.50    2.40
  -2   1   9    1.60    2.20
   2   1  -9    3.50    2.00
  -2   1   9    3.70    1.50
   2   1  -9    3.00    1.50
   2   1  -9    3.00    2.40
  -2   1   9    3.10    2.00
  -1  -1   9   47.10    4.20
  -1  -1   9   47.90    4.60
   1  -1  -9   46.10    5.00
   1  -1  -9   43.80    4.70
   1  -1  -9   54.09    4.20
   1   1  -9   49.90    4.30
  -1   1   9   47.10    4.00
   1   1  -9   64.99    5.50
  -1   1   9   58.59    5.30
   1   1  -9   36.50    4.40
   1   1  -9   47.60    5.00
  -1   1   9   43.90    4.50
   0  -1   9   10.70    2.00
   0  -1  -9   17.20    2.50
   0  -1  -9   15.30    3.00
   0  -1  -9   12.30    2.10
   0   1  -9   12.60    2.50
   0   1  -9   12.40    2.40
   0   1  -9   14.80    2.30
   0   1   9   14.20    2.90
   0   1  -9   17.90    3.00
   0   1   9   20.70    2.80
   0   1   9   15.80    2.60
   0   1   9   19.40    3.10
  -1  -1  -9  199.58   12.40
  -1  -1  -9  188.68   11.90
  -1  -1  -9  225.48   13.00
  -1   1  -9  202.18   12.30
  -1   1  -9  197.28   12.10
   1   1   9  202.28   12.70
  -1   1  -9  171.88   13.60
   1   1   9  200.88   13.10
   1   1   9  192.58   12.50
  -1   1  -9  183.98   12.50
   1   1   9  211.58   12.60
  -2  -1  -9   -8.30    4.00
  -2  -1  -9    2.40    2.50
  -2  -1  -9    2.10    2.00
  -2  -1  -9    1.60    1.90
  -2  -1  -9    0.50    1.50
   2   1   9    2.00    1.60
  -2   1  -9    4.00    1.70
   2   1   9    0.30    1.90
  -2   1  -9   -0.50    2.30
  -2   1  -9   -0.70    1.50
   2   1   9   -0.10    1.60
  -3  -1  -9   54.49    5.40
  -3  -1  -9   55.89    5.70
  -3  -1  -9   43.40    7.10
  -3  -1  -9   52.29    5.10
  -3  -1  -9   41.00    7.40
   3  -1   9   47.50    5.00
  -3  -1  -9   53.89    4.60
   3   1   9   47.00    4.50
   3   1   9   54.69    5.30
  -3   1  -9   53.29    4.60
  -3   1  -9   59.39    5.00
  -3   1  -9   56.89    5.60
  -4  -1  -9    0.40    2.60
   4  -1   9    2.70    2.40
  -4  -1  -9    4.30    2.50
  -4  -1  -9    0.40    6.50
  -4  -1  -9    3.90    2.00
  -4  -1  -9   -1.30    5.00
  -4  -1  -9   -0.50    2.10
  -4   1  -9    1.00    1.80
  -4   1  -9   -0.50    2.40
   4   1   9    2.60    2.70
  -4   1  -9    1.80    2.00
  -5  -1  -9  674.93   39.20
  -5  -1  -9  637.04   39.40
   5  -1   9  714.73   40.00
  -5  -1  -9  674.43   39.40
  -5   1  -9  653.33   39.20
   5   1   9  697.33   40.20
  -5   1  -9  678.13   39.40
  -5   1  -9  636.94   39.30
  -6  -1  -9    2.70    2.80
  -6  -1  -9   -0.10    2.40
   6  -1   9    2.40    3.10
  -6  -1  -9    5.20    2.50
   6   1   9    5.00    3.40
  -6   1  -9    3.30    2.30
  -6   1  -9    1.40    2.10
   7  -1   9   77.79    7.40
  -7  -1  -9   64.29    6.30
  -7  -1  -9   51.69    6.20
  -7   1  -9   65.09    6.00
   7   1   9   83.49    7.80
  -7   1  -9   57.19    6.00
  -8  -1  -9    6.90    2.80
   8  -1   9    6.10    3.70
  -8  -1  -9    4.70    2.60
  -8   1  -9    0.00    2.20
  -8   1  -9    3.10    2.30
   8   1   9    3.40    3.80
   9  -1   9   19.20    4.10
  -9  -1  -9   14.80    2.80
  -9  -1  -9   19.60    3.30
  -9   1  -9   17.60    3.20
   9   1   9   28.60    5.10
  -9   1  -9   20.90    3.00
 -10  -1  -9    0.60    2.20
  10  -1   9   -1.00    2.70
 -10  -1  -9    5.90    2.00
 -10   1  -9    2.00    2.10
 -10   1  -9    3.00    2.40
  10   1   9   -1.00    3.10
 -11  -1  -9   58.69    5.20
 -11   1  -9   56.99    5.10
  11   1   9   68.39    6.20
 -14  -2   9    1.50    1.50
 -14   2   9    4.30    1.60
 -13  -2   9   49.10    5.10
  13  -2  -9   53.89    7.70
 -13   2   9   46.60    4.70
  13   2  -9   65.29    7.10
  12  -2  -9    8.40    5.40
 -12  -2   9   11.60    3.00
 -12   2   9    6.20    2.30
  12   2  -9   10.10    4.70
 -11  -2   9   31.00    6.30
  11  -2  -9   31.60    5.30
  11  -2  -9   26.80    4.50
  11  -2  -9   43.60    7.20
 -11  -2   9   33.60    5.50
 -11   2   9   42.10    6.80
 -11   2   9   30.80    4.70
  11   2  -9   28.80    5.60
  10  -2  -9   42.70    7.00
  10  -2  -9   27.30    4.80
 -10  -2   9   25.20    5.70
 -10  -2   9   31.50    5.30
 -10   2   9   17.10    5.00
 -10   2   9   29.30    4.70
  10   2  -9   20.80    5.40
   9  -2  -9   12.00    4.30
   9  -2  -9    9.60    3.90
  -9  -2   9   13.20    3.00
  -9  -2   9   12.50    4.90
  -9  -2   9   11.40    5.50
  -9   2   9   17.30    3.00
   9   2  -9   22.60    5.40
  -9   2   9   15.30    2.90
  -9   2   9   14.70    6.30
  -9   2   9    9.30    4.80
   8  -2  -9   67.79    8.00
  -8  -2   9   52.89    7.50
   8  -2  -9   56.89    7.30
  -8  -2   9   57.59    5.80
  -8  -2   9   47.00    7.50
  -8   2   9   48.60    4.90
  -8   2   9   50.59    8.30
   8   2  -9   61.59    8.70
  -8   2   9   56.99    6.80
   8   2  -9   59.89    6.30
  -8   2   9   41.30    5.00
   7  -2  -9  321.47   19.90
  -7  -2   9  291.07   18.20
  -7  -2   9  299.17   20.00
  -7  -2   9  280.57   20.50
  -7   2   9  306.27   18.10
  -7   2   9  292.87   20.60
   7   2  -9  299.77   18.90
  -7   2   9  279.67   19.80
  -7   2   9  309.97   18.40
   7   2  -9  316.67   20.00
   6  -2  -9    4.20    3.10
  -6  -2   9    5.60    3.70
  -6  -2   9    1.20    3.20
   6  -2  -9    2.20    2.90
   6  -2  -9    5.20    2.30
  -6  -2   9    1.20    2.10
   6   2  -9   -1.50    3.30
  -6   2   9    0.40    3.60
   6   2  -9    2.00    2.60
  -6   2   9    2.20    3.00
  -6   2   9    0.70    1.50
  -6   2   9    1.60    1.70
  -5  -2   9    0.80    1.90
   5  -2  -9    2.00    3.00
  -5  -2   9    1.00    3.10
   5  -2  -9    1.00    2.40
   5  -2  -9    1.00    2.30
  -5  -2   9   -1.40    2.40
  -5   2   9    1.90    3.30
  -5   2   9   -1.20    2.80
  -5   2   9    0.10    1.40
   5   2  -9    0.20    2.60
  -5   2   9   -0.80    1.50
   5   2  -9    3.20    3.10
   4  -2  -9   16.20    3.80
   4  -2  -9    9.00    2.60
  -4  -2   9    8.00    1.80
   4  -2  -9    9.30    2.30
  -4  -2   9    7.20    3.00
  -4  -2   9    8.40    1.90
  -4  -2   9   10.70    2.80
  -4   2   9    9.20    3.40
   4   2  -9    8.40    2.50
  -4   2   9   12.60    2.20
   4   2  -9   10.30    1.90
  -4   2   9   11.50    3.10
   4   2  -9   11.00    3.40
  -3  -2   9   29.60    4.70
  -3  -2   9   31.70    2.80
  -3  -2   9   30.10    3.20
  -3  -2   9   29.70    3.80
   3   2  -9   34.10    4.60
   3   2  -9   29.90    3.50
   3   2  -9   26.50    5.00
  -2  -2   9   10.20    2.20
  -2  -2   9   11.90    1.90
   2  -2  -9   12.90    2.40
  -2  -2   9   10.90    2.50
   2  -2  -9   16.00    2.00
  -2  -2   9   10.80    1.60
   2  -2  -9   17.50    3.00
  -2   2   9   11.10    3.20
  -2   2   9    9.80    2.60
   2   2  -9   12.20    2.80
   2   2  -9   14.60    2.20
   2   2  -9   10.10    2.80
  -2   2   9   12.70    2.20
  -2   2   9   13.50    2.90
   1  -2  -9  119.79    7.30
  -1  -2   9  118.59    6.90
   1  -2  -9   98.79    7.40
   1   2  -9   97.89    7.00
  -1   2   9  101.19    7.60
  -1   2   9   97.29    7.90
   1   2  -9  111.89    7.30
  -1   2   9  112.49    8.50
  -1   2   9  105.09    7.30
   1   2  -9  107.29    8.00
   0  -2  -9  635.74   33.70
   0  -2  -9  551.74   33.20
   0  -2   9  628.24   33.00
   0   2   9  538.75   33.80
   0   2   9  549.25   33.60
   0   2   9  573.44   33.50
   0   2  -9  515.25   32.90
   0   2  -9  549.74   33.60
   0   2  -9  539.95   33.40
   0   2   9  580.84   34.30
   0   2  -9  578.74   33.10
   1  -2   9  353.86   19.00
  -1  -2  -9  318.67   19.70
  -1  -2  -9  343.87   19.30
  -1  -2  -9  326.57   19.30
   1   2   9  313.67   19.50
  -1   2  -9  298.57   19.50
  -1   2  -9  325.77   19.10
   1   2   9  318.57   19.80
  -1   2  -9  322.87   19.30
  -1   2  -9  286.27   19.40
   1   2   9  314.87   20.20
  -1   2  -9  308.67   19.50
   1   2   9  325.97   19.60
  -2  -2  -9    0.90    1.90
  -2  -2  -9    1.00    5.00
  -2  -2  -9    1.00    2.90
  -2  -2  -9   -1.40    2.10
   2  -2   9   -0.10    1.40
  -2  -2  -9    0.20    1.60
  -2   2  -9   -2.30    2.20
   2   2   9   -0.70    1.90
   2   2   9   -0.60    1.70
   2   2   9    1.40    2.20
  -2   2  -9   -0.30    1.70
  -2   2  -9    2.10    1.80
  -3  -2  -9  336.47   20.00
  -3  -2  -9  337.87   19.80
  -3  -2  -9  299.17   20.20
   3  -2   9  360.86   19.60
  -3  -2  -9  326.47   19.60
   3   2   9  318.57   20.00
  -3   2  -9  323.07   19.70
   3   2   9  321.37   20.40
  -3   2  -9  325.17   20.00
  -3   2  -9  333.27   19.90
   4  -2   9  234.58   13.20
  -4  -2  -9  204.08   13.70
  -4  -2  -9  204.48   16.30
  -4  -2  -9  205.48   13.40
  -4  -2  -9  221.38   13.30
  -4  -2  -9  197.08   13.90
  -4  -2  -9  176.58   17.40
   4   2   9  216.88   13.50
  -4   2  -9  225.28   13.50
  -4   2  -9  201.98   13.50
   4   2   9  222.28   14.20
  -4   2  -9  205.48   13.20
  -5  -2  -9  181.98   12.40
   5  -2   9  208.58   11.80
  -5  -2  -9  165.48   12.50
  -5  -2  -9  186.48   12.20
  -5  -2  -9  146.09   18.60
  -5  -2  -9  194.38   12.10
  -5  -2  -9  186.98   15.80
   5   2   9  198.18   13.00
  -5   2  -9  175.68   12.00
  -5   2  -9  182.98   12.30
  -6  -2  -9    8.20    3.20
  -6  -2  -9   12.00    3.20
  -6  -2  -9    9.80    2.70
   6  -2   9   10.90    3.30
   6   2   9   18.70    4.60
  -6   2  -9    9.80    2.70
  -6   2  -9    7.70    2.60
  -7  -2  -9   11.00    3.00
  -7  -2  -9   10.10    3.10
  -7  -2  -9   18.20    3.30
   7  -2   9   16.70    4.10
  -7   2  -9   12.50    2.80
  -7   2  -9    8.50    2.60
   7   2   9   11.00    4.00
  -8  -2  -9    9.40    2.80
  -8  -2  -9    8.00    2.80
   8  -2   9   12.50    3.90
  -8   2  -9    9.10    2.60
   8   2   9   16.70    4.80
  -8   2  -9   12.30    2.70
  -9  -2  -9   -0.60    2.40
   9  -2   9    3.60    3.60
  -9  -2  -9   -0.10    2.50
  -9   2  -9   -1.40    2.20
  -9   2  -9    2.50    2.40
   9   2   9   -1.50    3.60
 -10  -2  -9    0.00    2.10
 -10  -2  -9    0.30    2.10
 -10   2  -9   -0.20    2.40
  10   2   9    4.20    3.30
 -10   2  -9    3.20    3.00
 -11  -2  -9    1.80    1.90
  11   2   9   -0.80    2.90
 -11   2  -9    1.20    1.90
 -14  -3   9   20.00    3.60
  13  -3  -9    6.90    4.40
 -13  -3   9    2.30    2.30
  13   3  -9    7.80    4.10
 -13   3   9    5.30    2.00
  12  -3  -9   53.99    8.60
 -12  -3   9   42.60    5.50
  12  -3  -9   38.20    6.40
  12   3  -9   53.99    8.10
 -12   3   9   40.80    4.50
 -11  -3   9    3.10    3.10
 -11  -3   9   -1.30    4.20
  11  -3  -9   -2.20    4.20
  11  -3  -9    5.10    5.90
  11  -3  -9    3.30    3.80
  11   3  -9   -0.90    4.50
 -11   3   9   -1.20    4.20
 -11   3   9    1.80    2.20
 -10  -3   9   16.50    5.50
 -10  -3   9   23.00    3.80
  10  -3  -9   14.00    4.30
  10  -3  -9   26.30    5.00
  10   3  -9   29.10    6.10
 -10   3   9   27.70    4.50
 -10   3   9   23.10    5.20
  -9  -3   9   -0.20    4.40
  -9  -3   9   -1.30    5.60
   9  -3  -9    2.20    4.00
   9  -3  -9    3.00    3.80
  -9  -3   9    0.00    3.00
  -9   3   9    3.30    2.40
  -9   3   9   -0.10    2.40
  -9   3   9    0.00    4.10
  -9   3   9   -6.10    5.10
   9   3  -9    6.30    5.00
   9   3  -9    0.90    3.30
  -8  -3   9   21.40    3.60
   8  -3  -9   16.60    4.40
   8  -3  -9   23.10    4.60
  -8  -3   9   16.70    5.70
  -8  -3   9   13.30    4.60
   8   3  -9   24.60    5.50
  -8   3   9   18.70    3.70
  -8   3   9   16.20    5.40
  -8   3   9   22.60    3.00
   8   3  -9   16.00    3.80
  -8   3   9   20.90    4.80
   7  -3  -9  152.58   11.30
  -7  -3   9  132.69   12.30
  -7  -3   9  140.29    9.70
   7  -3  -9  124.29   10.60
  -7  -3   9  136.09   11.50
  -7   3   9  149.69    9.70
   7   3  -9  161.38   10.70
  -7   3   9  141.29    9.30
  -7   3   9  131.59   11.10
  -7   3   9  143.89   12.20
  -6  -3   9  263.87   18.50
   6  -3  -9  274.87   17.20
  -6  -3   9  269.27   19.20
   6  -3  -9  306.77   18.50
   6  -3  -9  262.07   17.60
  -6  -3   9  277.47   16.80
  -6  -3   9  273.57   17.00
  -6   3   9  302.97   18.70
  -6   3   9  256.97   19.00
   6   3  -9  307.57   18.90
   6   3  -9  281.07   17.80
  -6   3   9  283.27   16.90
  -6   3   9  289.07   17.30
  -5  -3   9  801.82   46.90
   5  -3  -9  757.92   47.20
  -5  -3   9  792.82   46.60
   5  -3  -9  810.22   47.10
   5  -3  -9  841.12   48.00
  -5  -3   9  783.82   48.50
  -5  -3   9  796.62   48.10
  -5   3   9  838.82   47.30
  -5   3   9  791.42   48.80
   5   3  -9  848.12   47.50
   5   3  -9  808.32   48.00
  -4  -3   9    7.20    3.00
   4  -3  -9    8.80    2.70
  -4  -3   9    7.30    1.50
   4  -3  -9    9.80    2.50
  -4  -3   9    6.40    2.50
  -4  -3   9    5.60    1.90
  -4   3   9   10.00    2.20
  -4   3   9    7.90    3.70
   4   3  -9    3.40    3.30
   4   3  -9    5.80    2.90
   4   3  -9   11.30    2.20
  -4   3   9    8.90    3.40
   3  -3  -9  139.59    9.60
  -3  -3   9  120.69    9.70
  -3  -3   9  146.29    8.70
   3  -3  -9  134.39    9.30
  -3  -3   9  139.99    8.80
   3   3  -9  135.59   10.30
   3   3  -9  140.19    9.10
  -3   3   9  128.69   10.50
  -3   3   9  138.09   10.10
   3   3  -9  134.19    9.70
  -3   3   9  140.99    9.70
  -3   3   9  139.89    9.10
  -2  -3   9   24.90    2.90
   2  -3  -9   22.90    3.20
   2  -3  -9   22.80    3.80
   2  -3  -9   26.50    4.90
  -2   3   9   15.60    3.00
   2   3  -9   26.20    4.70
  -2   3   9   25.30    4.10
  -2   3   9   24.40    4.00
   2   3  -9   16.30    2.40
  -2   3   9   22.70    3.60
   2   3  -9   26.10    3.20
   2   3  -9   23.20    4.70
   1  -3  -9   32.10    4.10
   1  -3  -9   28.00    3.70
  -1  -3   9   31.20    3.30
   1  -3  -9   28.00    3.90
  -1   3   9   30.90    4.20
   1   3  -9   24.00    3.40
   1   3  -9   30.90    3.80
   1   3  -9   23.10    4.50
  -1   3   9   27.10    4.40
   1   3  -9   30.80    4.70
  -1   3   9   30.90    4.70
   1   3  -9   28.70    3.60
   0  -3   9  244.28   14.40
   0  -3  -9  253.07   14.70
   0  -3  -9  238.48   14.70
   0   3  -9  245.68   15.10
   0   3   9  233.88   15.40
   0   3  -9  243.78   14.70
   0   3  -9  217.28   14.90
   0   3  -9  233.28   14.40
   0   3   9  233.68   14.80
   0   3   9  231.28   15.80
   0   3   9  241.18   15.00
   0   3  -9  233.58   14.50
   1  -3   9  110.69    7.00
  -1  -3  -9  102.59    7.70
  -1  -3  -9  100.19    7.50
  -1   3  -9  102.59    7.20
   1   3   9  103.89    8.80
   1   3   9  106.69    7.80
  -1   3  -9  100.79    6.90
   1   3   9   97.39    7.40
  -1   3  -9  102.19    7.90
  -1   3  -9  107.99    7.50
   1   3   9  110.09    8.10
  -2  -3  -9  151.58   15.40
  -2  -3  -9  182.18   12.00
  -2  -3  -9  179.28   11.70
   2  -3   9  195.38   11.50
  -2  -3  -9  176.88   11.40
  -2   3  -9  189.08   11.60
  -2   3  -9  182.38   11.30
   2   3   9  197.58   12.10
  -2   3  -9  181.18   11.80
  -2   3  -9  174.28   12.10
   2   3   9  186.78   12.40
   2   3   9  184.98   12.20
  -3  -3  -9   28.40    4.00
  -3  -3  -9   31.80    4.80
  -3  -3  -9   20.70    7.10
   3  -3   9   36.00    4.00
  -3  -3  -9   25.80    5.00
  -3   3  -9   30.00    4.20
  -3   3  -9   29.40    4.40
  -3   3  -9   27.40    4.90
   3   3   9   25.30    4.80
  -3   3  -9   26.40    3.40
   3   3   9   33.30    4.50
  -4  -3  -9   78.29    7.40
  -4  -3  -9   79.39    7.30
  -4  -3  -9  103.19   13.10
   4  -3   9   97.09    6.70
  -4  -3  -9   93.99   11.50
  -4  -3  -9   86.49    6.80
   4   3   9   83.59    7.70
  -4   3  -9   95.99    7.00
   4   3   9   86.79    7.00
  -4   3  -9   83.59    7.20
  -4   3  -9   89.19    6.80
  -5  -3  -9   87.29    8.70
  -5  -3  -9   82.79   12.10
  -5  -3  -9   98.49    8.10
  -5  -3  -9   98.09    7.90
  -5  -3  -9   89.19    7.50
  -5  -3  -9   74.19   11.80
   5   3   9  111.19    8.70
  -5   3  -9   97.59    7.60
  -5   3  -9  105.49    7.40
   5   3   9   97.49    7.50
  -6  -3  -9   -0.10    3.20
   6  -3   9    1.70    2.30
  -6  -3  -9   -1.10    3.00
  -6  -3  -9    4.90    2.80
  -6  -3  -9    4.30    2.70
  -6  -3  -9    8.20    7.00
  -6   3  -9   -1.60    2.30
  -6   3  -9    2.90    2.30
   6   3   9   -1.40    3.70
  -7  -3  -9   48.40    6.30
  -7  -3  -9   51.49    6.00
  -7  -3  -9   50.39    6.30
  -7   3  -9   57.99    5.60
  -7   3  -9   50.29    5.70
   7   3   9   64.89    7.40
  -8  -3  -9    1.50    2.70
  -8  -3  -9    3.10    2.80
  -8   3  -9    2.60    2.50
  -8   3  -9    3.10    2.60
   8   3   9    7.00    4.60
  -9  -3  -9   55.29    5.90
  -9  -3  -9   58.99    5.90
  -9   3  -9   69.49    5.50
   9   3   9   69.69    7.60
  -9   3  -9   61.79    5.90
 -10  -3  -9   -0.30    2.00
 -10  -3  -9    0.70    2.30
 -10   3  -9    1.60    2.20
  10   3   9    1.50    3.20
 -11  -3  -9   26.90    3.90
 -11   3  -9   23.00    3.30
  11   3   9   38.40    4.70
  13  -4  -9   75.69    8.00
 -13  -4   9   52.39    5.40
  13   4  -9   72.79    7.20
 -13   4   9   65.69    4.80
  12  -4  -9    3.80    5.40
 -12  -4   9    4.50    2.60
  12  -4  -9    7.60    3.40
 -12   4   9    4.90    2.20
  12   4  -9    5.60    4.40
 -11  -4   9    4.80    3.00
  11  -4  -9    6.80    6.00
  11  -4  -9    3.50    3.70
  11   4  -9    9.80    5.20
 -11   4   9    4.70    2.20
  10  -4  -9    1.80    3.80
  10  -4  -9    5.80    3.90
 -10  -4   9   -0.30    2.80
 -10  -4   9    6.00    5.00
 -10   4   9    5.50    4.60
  10   4  -9   -1.00    4.50
 -10   4   9    1.60    2.40
 -10   4   9    0.70    2.30
   9  -4  -9   83.29    9.30
   9  -4  -9   98.19    9.00
  -9  -4   9   63.99    9.30
  -9  -4   9   79.29    7.50
   9   4  -9   83.19    8.40
  -9   4   9   88.79    6.90
  -9   4   9   86.69    9.10
  -9   4   9   97.99    7.20
   9   4  -9   89.99   10.60
  -8  -4   9   75.89   10.60
   8  -4  -9   79.79    8.60
  -8  -4   9   66.69    8.70
  -8  -4   9   68.39    7.00
   8  -4  -9   77.69    9.10
   8   4  -9   69.89    8.20
  -8   4   9   82.09    6.40
  -8   4   9   74.59   10.10
  -8   4   9   71.99    6.20
  -8   4   9   83.19    8.50
   8   4  -9   88.09   10.20
  -7  -4   9   18.30    2.80
   7  -4  -9   22.70    4.00
   7  -4  -9   16.80    3.90
  -7  -4   9   18.70    3.40
  -7  -4   9   18.80    4.60
  -7  -4   9    8.60    5.00
  -7   4   9   23.50    5.10
  -7   4   9   21.00    3.70
  -7   4   9   21.70    5.80
   7   4  -9   22.30    5.30
   7   4  -9   23.00    4.40
   6  -4  -9    8.00    3.00
  -6  -4   9   11.80    3.90
  -6  -4   9    7.80    1.70
  -6  -4   9   11.80    4.60
  -6  -4   9   10.90    2.80
   6  -4  -9   11.90    3.90
  -6   4   9    3.90    3.70
   6   4  -9    5.20    3.30
  -6   4   9    8.00    4.40
  -6   4   9    6.80    2.30
  -6   4   9    9.50    2.80
   6   4  -9    6.40    2.40
   6   4  -9    3.50    4.10
   5  -4  -9   77.29    6.80
  -5  -4   9   74.79    7.50
   5  -4  -9   92.39    8.70
   5  -4  -9   90.59    7.20
  -5  -4   9   75.29    8.40
  -5  -4   9   78.19    5.80
  -5  -4   9   80.29    6.60
  -5   4   9   95.29    8.90
  -5   4   9   86.39    8.00
   5   4  -9   84.99    8.70
  -5   4   9   91.39    6.40
   5   4  -9   81.39    6.70
   5   4  -9   84.79    7.70
   4  -4  -9   61.29    5.80
   4  -4  -9   59.09    5.90
  -4  -4   9   52.79    4.50
  -4  -4   9   57.99    5.20
  -4   4   9   54.39    7.20
   4   4  -9   51.39    5.30
   4   4  -9   55.89    6.20
  -4   4   9   63.49    5.10
  -4   4   9   57.69    6.40
   4   4  -9   47.40    5.40
   4   4  -9   61.19    7.60
  -3  -4   9   19.80    3.10
   3  -4  -9   28.00    3.90
   3  -4  -9   19.10    3.90
   3   4  -9   25.80    4.00
   3   4  -9   21.10    4.00
  -3   4   9   21.00    4.20
  -3   4   9   21.10    3.40
  -3   4   9   20.80    4.00
   3   4  -9   31.80    4.50
  -3   4   9   17.90    4.30
   3   4  -9   19.50    3.60
   2  -4  -9   56.79    6.30
   2  -4  -9   58.49    5.20
  -2  -4   9   53.79    4.40
   2   4  -9   54.09    6.20
  -2   4   9   50.19    5.40
  -2   4   9   53.99    4.80
   2   4  -9   54.09    4.70
  -2   4   9   49.20    6.20
   2   4  -9   50.39    6.00
   2   4  -9   50.69    5.00
   2   4  -9   45.90    5.00
  -2   4   9   49.10    5.60
   1  -4  -9    2.90    2.00
   1  -4  -9    3.00    2.10
  -1  -4   9    4.50    1.70
  -1   4   9    5.10    2.50
   1   4  -9    2.40    1.90
  -1   4   9    3.50    3.10
   1   4  -9    2.80    2.00
   1   4  -9    3.00    2.40
  -1   4   9    8.30    2.90
  -1   4   9    6.70    2.20
   1   4  -9    4.30    2.70
   1   4  -9    1.20    2.50
   0  -4   9   55.99    4.40
   0  -4  -9   50.79    5.30
   0  -4  -9   48.20    5.20
   0   4  -9   49.00    5.10
   0   4  -9   46.80    4.70
   0   4  -9   44.70    4.60
   0   4  -9   48.30    5.90
   0   4   9   46.00    5.30
   0   4   9   44.70    5.30
   0   4   9   44.20    5.80
   0   4  -9   48.70    5.50
   0   4   9   42.30    4.60
  -1  -4  -9  163.88   10.70
   1  -4   9  157.08   10.00
  -1  -4  -9  158.58   10.30
  -1   4  -9  144.99   10.80
  -1   4  -9  154.78    9.90
  -1   4  -9  154.28   10.10
  -1   4  -9  165.08   10.40
   1   4   9  156.28   10.70
   1   4   9  155.08   11.00
   1   4   9  150.58   11.60
   1   4   9  148.49   10.60
  -2  -4  -9   20.20    7.30
  -2  -4  -9    9.30    3.00
   2  -4   9   10.40    2.20
  -2  -4  -9   10.90    2.70
  -2   4  -9   15.10    2.70
   2   4   9   12.40    3.10
  -2   4  -9   10.80    2.40
  -2   4  -9   10.10    2.40
  -2   4  -9   11.80    3.20
   2   4   9   10.50    3.20
   2   4   9   11.70    3.10
   2   4   9    9.40    3.60
  -3  -4  -9   15.10    7.80
  -3  -4  -9   35.80    6.20
  -3  -4  -9   33.70    5.30
  -3  -4  -9   29.30    4.30
   3   4   9   37.10    5.10
  -3   4  -9   37.80    5.40
  -3   4  -9   55.09    5.40
  -3   4  -9   45.30    4.30
   3   4   9   36.50    5.30
  -4  -4  -9   46.30    5.20
  -4  -4  -9   39.30    8.90
  -4  -4  -9   34.80    9.70
  -4  -4  -9   52.89    5.90
  -4  -4  -9   39.50    6.60
   4  -4   9   52.79    5.00
  -4   4  -9   45.20    5.50
  -4   4  -9   45.40    4.60
   4   4   9   41.30    5.50
  -4   4  -9   46.30    6.10
  -4   4  -9   41.00    5.30
   4   4   9   48.70    6.10
  -5  -4  -9   15.10    2.80
  -5  -4  -9   10.10    6.80
   5  -4   9    7.80    2.50
  -5  -4  -9    5.20    3.00
  -5  -4  -9   -2.90    8.40
  -5  -4  -9    4.90    3.10
   5   4   9    9.30    3.70
  -5   4  -9    6.80    2.70
  -5   4  -9    7.90    2.40
  -5   4  -9    8.30    2.90
   5   4   9    6.90    2.70
  -6  -4  -9    4.50    3.20
  -6  -4  -9    4.50    3.30
  -6  -4  -9    5.20    3.00
  -6  -4  -9    7.10    6.90
   6  -4   9    9.90    2.70
  -6  -4  -9    0.40   11.30
  -6   4  -9    5.70    2.80
   6   4   9    2.70    3.70
  -6   4  -9    6.90    2.70
   7  -4   9   56.09    5.70
  -7  -4  -9   38.90    6.70
  -7  -4  -9   53.59   10.20
  -7  -4  -9   41.70    6.30
  -7  -4  -9   52.59    6.20
  -7  -4  -9   44.10    6.40
  -7   4  -9   50.39    5.70
  -7   4  -9   60.79    5.90
   7   4   9   67.29    7.50
  -8  -4  -9   30.40    5.40
  -8  -4  -9   28.20    5.60
  -8  -4  -9   34.20    5.40
  -8   4  -9   32.30    4.70
   8   4   9   40.00    6.50
  -8   4  -9   28.60    4.90
  -9  -4  -9   -1.10    2.50
  -9  -4  -9    0.20    2.60
   9   4   9   -1.60    3.30
  -9   4  -9    1.50    2.40
  -9   4  -9    0.40    2.20
 -10  -4  -9   42.70    4.60
 -10  -4  -9   45.80    4.70
  10   4   9   60.19    6.30
 -10   4  -9   41.50    4.50
 -11  -4  -9   15.20    3.70
 -11   4  -9   18.60    3.50
  11   4   9   25.10    4.30
  13  -5  -9    0.80    3.90
 -13  -5   9    1.70    1.90
  13   5  -9    0.90    3.40
  12  -5  -9  136.09   11.60
  12  -5  -9  130.29    9.70
 -12  -5   9  114.69    8.80
  12   5  -9  144.09   11.00
 -12   5   9  118.79    8.30
  11  -5  -9    3.40    3.70
 -11  -5   9    1.40    2.80
  11   5  -9    3.50    4.90
 -11   5   9    3.00    1.90
 -10  -5   9   67.49    7.10
  10  -5  -9   76.89    8.70
 -10  -5   9   70.49    9.50
 -10   5   9   69.89    6.00
  10   5  -9   89.19   10.60
 -10   5   9   67.69    8.30
 -10   5   9   82.39    6.50
  10   5  -9   78.59    8.30
   9  -5  -9    0.40    3.70
  -9  -5   9   -0.50    3.20
   9  -5  -9   -2.10    3.30
  -9  -5   9    0.50    4.60
  -9   5   9   -0.30    4.20
  -9   5   9    1.00    2.20
   9   5  -9    1.60    3.70
  -9   5   9   -0.90    2.40
   9   5  -9    5.70    5.30
   8  -5  -9   95.79    9.20
  -8  -5   9   56.49    8.90
  -8  -5   9   88.29    7.70
  -8   5   9   84.39    9.00
  -8   5   9   91.89    7.10
   8   5  -9   87.79    9.00
   8   5  -9   86.19   10.90
  -8   5   9   89.89    6.70
   7  -5  -9    7.80    3.30
   7  -5  -9    6.70    3.70
  -7  -5   9   11.60    4.30
  -7  -5   9    8.40    1.80
  -7  -5   9   10.20    3.30
   7   5  -9   17.60    4.30
  -7   5   9    8.40    5.20
   7   5  -9   15.20    5.20
  -7   5   9   11.30    2.50
  -7   5   9   10.10    4.20
   7   5  -9   16.80    4.60
  -7   5   9   10.70    2.80
   6  -5  -9  161.98   12.10
  -6  -5   9  148.89    9.80
  -6  -5   9  151.58   10.50
  -6  -5   9  147.79   11.90
  -6   5   9  147.69   13.00
   6   5  -9  145.69   10.60
  -6   5   9  163.68   10.50
   6   5  -9  167.98   13.20
  -6   5   9  174.08   12.20
  -5  -5   9  377.06   22.60
  -5  -5   9  360.36   23.00
   5  -5  -9  390.86   23.20
   5  -5  -9  380.16   23.20
   5   5  -9  429.46   24.00
  -5   5   9  383.56   23.20
   5   5  -9  341.77   22.90
  -5   5   9  400.06   24.60
   5   5  -9  385.86   23.20
  -5   5   9  396.46   25.30
   5   5  -9  398.16   24.70
  -4  -5   9   10.00    2.60
   4  -5  -9   12.90    3.10
  -4  -5   9    7.60    1.90
   4  -5  -9    9.00    2.50
  -4   5   9    5.30    2.80
  -4   5   9    3.40    2.20
   4   5  -9    6.00    2.60
   4   5  -9   10.90    2.80
   4   5  -9    5.40    3.30
  -4   5   9    5.90    3.70
   4   5  -9    7.80    4.00
  -4   5   9    5.40    4.10
   3  -5  -9  152.28   10.50
  -3  -5   9  148.79    9.40
   3  -5  -9  160.28   10.00
  -3   5   9  145.09   11.00
   3   5  -9  137.59   11.10
  -3   5   9  139.89   10.40
   3   5  -9  138.89    9.80
  -3   5   9  135.19   11.50
   3   5  -9  150.48   10.10
   3   5  -9  149.59   10.80
  -3   5   9  149.88    9.90
  -2  -5   9  112.99    7.20
   2  -5  -9  101.49    7.70
   2   5  -9   98.69    8.70
   2   5  -9   99.59    7.80
  -2   5   9  103.09    8.80
  -2   5   9  100.89    7.50
   2   5  -9  110.69    8.80
   2   5  -9  104.69    7.90
   2   5  -9  106.39    7.50
  -2   5   9  103.99    8.10
  -2   5   9  104.59    9.60
   1  -5  -9  105.19    7.40
   1  -5  -9  109.19    7.70
  -1  -5   9  105.79    6.90
   1   5  -9   76.19    8.10
   1   5  -9   96.59    8.50
  -1   5   9  103.19    8.50
  -1   5   9   99.89    7.50
   1   5  -9   99.09    7.40
   1   5  -9   95.99    7.30
  -1   5   9  102.09    7.90
  -1   5   9   87.89    9.00
   1   5  -9  102.89    7.50
   0  -5  -9   59.49    5.60
   0  -5  -9   56.29    6.10
   0  -5   9   56.59    4.90
   0   5   9   57.99    6.90
   0   5   9   54.59    6.70
   0   5   9   55.49    5.40
   0   5   9   58.19    5.90
   0   5  -9   49.40    6.70
   0   5  -9   57.49    5.70
   0   5  -9   57.19    5.30
   0   5   9   51.59    6.00
   0   5  -9   47.60    5.20
   1  -5   9   40.10    4.30
  -1  -5  -9   45.30    5.90
  -1  -5  -9   36.50    5.20
  -1   5  -9   39.10    4.80
  -1   5  -9   42.60    6.30
  -1   5  -9   35.10    4.40
   1   5   9   36.90    5.50
   1   5   9   39.60    4.90
   1   5   9   32.00    5.40
  -1   5  -9   37.70    5.20
   1   5   9   35.90    6.80
  -2  -5  -9    3.60    3.20
   2  -5   9    3.80    2.10
  -2  -5  -9    6.20    2.80
  -2  -5  -9   10.30    7.40
  -2   5  -9    4.90    2.50
   2   5   9    7.60    3.00
   2   5   9    4.30    3.60
  -2   5  -9    7.20    2.70
   2   5   9    6.10    3.30
   2   5   9    5.70    3.00
  -2   5  -9    6.70    3.20
  -2   5  -9    2.20    2.30
  -3  -5  -9    7.00    3.10
  -3  -5  -9   -2.50    3.30
   3  -5   9    5.40    2.20
  -3  -5  -9    7.20    2.50
  -3  -5  -9   13.70    8.20
  -3   5  -9    1.10    2.30
  -3   5  -9    3.90    2.60
   3   5   9    6.20    3.00
   3   5   9    6.60    4.00
   3   5   9    9.20    3.20
  -3   5  -9    1.80    3.00
  -3   5  -9    1.10    2.50
  -4  -5  -9   53.09    5.80
  -4  -5  -9   54.39    7.10
  -4  -5  -9   17.80    9.50
  -4  -5  -9   47.40    9.70
   4  -5   9   56.49    5.60
  -4  -5  -9   61.59    6.80
  -4   5  -9   55.69    6.00
   4   5   9   51.89    6.40
   4   5   9   58.09    8.00
  -4   5  -9   56.89    5.20
  -4   5  -9   56.89    6.30
   4   5   9   57.89    6.60
  -5  -5  -9    8.60    9.90
   5  -5   9    0.50    2.40
  -5  -5  -9    1.90    3.10
  -5  -5  -9    2.40    2.90
  -5  -5  -9   -6.50    7.10
  -5  -5  -9    7.90    3.70
  -5   5  -9    2.40    2.60
   5   5   9    3.00    2.80
  -5   5  -9    3.30    2.50
  -5   5  -9    2.70    2.60
   5   5   9    2.40    3.60
  -6  -5  -9  230.48   15.30
   6  -5   9  255.57   15.00
  -6  -5  -9  228.58   15.60
  -6  -5  -9  239.18   15.20
  -6  -5  -9  182.58   19.70
   6   5   9  236.48   15.30
   6   5   9  248.98   16.20
  -6   5  -9  230.98   14.40
  -6   5  -9  225.08   15.10
  -6   5  -9  234.98   14.90
  -7  -5  -9    6.60    3.70
  -7  -5  -9   -3.00    2.90
  -7  -5  -9    8.90    8.00
   7  -5   9    1.20    2.50
  -7  -5  -9    5.20    3.30
  -7  -5  -9    2.90    3.20
   7   5   9    4.90    4.20
  -7   5  -9    3.30    2.90
  -7   5  -9    3.80    2.80
  -7   5  -9    3.70    2.50
  -8  -5  -9   13.00    3.30
  -8  -5  -9   13.60    3.30
   8  -5   9   15.80    2.90
  -8  -5  -9   14.70    3.20
  -8   5  -9   10.40    2.60
   8   5   9   13.30    4.00
  -8   5  -9    9.10    2.80
  -9  -5  -9    2.00    2.30
  -9  -5  -9    4.90    2.50
   9   5   9    5.10    3.40
  -9   5  -9    0.90    2.30
 -10  -5  -9    3.30    2.00
 -10  -5  -9   -0.50    2.00
 -10   5  -9    2.90    2.00
  10   5   9    6.10    3.20
  12  -6  -9   39.90    5.80
 -12  -6   9   43.30    4.80
  12  -6  -9   47.90    7.50
 -12   6   9   46.90    4.00
  12   6  -9   44.20    6.90
  11  -6  -9   23.70    4.30
 -11  -6   9   18.40    3.20
 -11   6   9   28.00    3.90
  11   6  -9   31.70    5.80
  10  -6  -9    2.00    3.60
 -10  -6   9    6.50    3.30
  10   6  -9    3.90    5.40
  10   6  -9    1.20    3.70
 -10   6   9    3.80    2.30
 -10   6   9    5.20    2.60
   9  -6  -9   17.10    4.20
  -9  -6   9    4.70    3.50
  -9  -6   9    3.70    5.50
   9   6  -9   17.40    4.70
  -9   6   9    9.40    4.70
   9   6  -9   15.70    6.10
  -9   6   9   11.40    2.90
  -9   6   9   10.20    2.40
  -8  -6   9    9.30    2.10
   8  -6  -9   13.30    4.10
  -8  -6   9    2.90    3.60
   8   6  -9    8.40    4.10
   8   6  -9    7.20    5.10
  -8   6   9   10.30    4.50
  -8   6   9    6.60    2.70
  -7  -6   9    7.20    3.30
  -7  -6   9   11.40    2.10
   7  -6  -9   13.40    3.60
   7  -6  -9   15.90    3.90
   7   6  -9   15.30    5.60
  -7   6   9    8.80    2.90
  -7   6   9    9.80    4.60
   7   6  -9   19.50    4.80
   7   6  -9   16.30    3.50
  -7   6   9   11.30    5.50
   6  -6  -9  196.78   13.80
  -6  -6   9  212.28   12.90
   6  -6  -9  219.28   15.10
  -6  -6   9  191.98   13.50
   6   6  -9  223.78   15.30
  -6   6   9  223.88   13.70
  -6   6   9  194.78   16.10
   6   6  -9  191.98   13.80
   6   6  -9  220.08   16.20
  -6   6   9  233.18   15.50
  -5  -6   9   49.20    5.60
   5  -6  -9   32.90    5.80
  -5  -6   9   46.10    4.60
  -5   6   9   54.09    7.20
  -5   6   9   52.29    5.10
  -5   6   9   74.09    9.20
   5   6  -9   50.49    6.00
   5   6  -9   61.49    7.60
   5   6  -9   49.90    7.00
   5   6  -9   41.90    5.90
  -4  -6   9  138.59    8.70
   4  -6  -9  134.79    9.80
   4  -6  -9  132.39    9.20
  -4  -6   9  110.39    9.10
  -4   6   9  141.79   10.70
   4   6  -9  132.99   10.80
   4   6  -9  121.69    9.40
   4   6  -9  134.99   11.30
   4   6  -9  133.19    9.70
  -4   6   9  122.59   11.30
  -4   6   9  133.19    9.10
   3  -6  -9   90.29    7.70
   3  -6  -9   78.99    6.50
  -3  -6   9   76.39    5.90
   3   6  -9   72.79    6.90
   3   6  -9   68.69    8.30
  -3   6   9   89.29    7.20
  -3   6   9   72.29    6.50
  -3   6   9   74.09    8.50
   3   6  -9   75.39    8.10
   3   6  -9   84.49    7.30
  -3   6   9   78.29    7.70
  -2  -6   9  130.59    8.80
   2  -6  -9  139.29    9.20
  -2   6   9  150.38   11.30
   2   6  -9  137.49    9.50
   2   6  -9  140.09    9.70
  -2   6   9  128.29    9.80
  -2   6   9  132.89    9.30
  -2   6   9  128.99   10.30
   2   6  -9  119.99   10.50
   2   6  -9  122.49    9.30
   2   6  -9  128.19   10.60
   1  -6  -9    1.60    2.60
   1  -6  -9    0.60    2.30
  -1  -6   9    0.90    1.80
   1   6  -9    1.80    2.40
  -1   6   9    5.90    3.90
   1   6  -9    0.80    3.00
   1   6  -9   13.70    3.70
  -1   6   9   -0.40    2.20
  -1   6   9    1.20    2.50
   1   6  -9    4.80    3.10
   1   6  -9    3.60    2.40
  -1   6   9    1.20    3.20
   0  -6   9  129.69    8.30
   0  -6  -9  125.39    9.20
   0  -6  -9  123.59    8.70
   0   6  -9  110.39    9.90
   0   6  -9  115.29    8.70
   0   6   9  126.99   10.20
   0   6   9  114.19    9.20
   0   6   9  113.39    9.80
   0   6   9  114.09    8.80
   0   6  -9  111.99    8.50
   0   6  -9  118.79    8.90
   0   6   9  118.39   10.80
  -1  -6  -9  135.19    9.50
   1  -6   9  143.49    9.00
  -1  -6  -9  135.69   10.10
  -1   6  -9  130.29    9.30
  -1   6  -9  132.89    9.10
   1   6   9  118.99   10.10
   1   6   9  122.39   10.10
  -1   6  -9  120.59   10.20
  -2  -6  -9    3.60    2.90
  -2  -6  -9    5.00    3.40
  -2  -6  -9   -3.60    7.40
   2  -6   9    3.60    2.00
  -2   6  -9   -1.30    2.40
  -2   6  -9    3.00    3.10
   2   6   9    3.30    3.30
  -2   6  -9    4.30    2.70
   2   6   9    3.00    4.10
   2   6   9    7.10    3.20
  -2   6  -9    2.50    2.70
   2   6   9    3.00    3.00
  -3  -6  -9  272.47   25.80
  -3  -6  -9  323.77   20.30
   3  -6   9  364.26   20.00
  -3  -6  -9  300.57   20.70
  -3   6  -9  327.27   19.80
  -3   6  -9  360.86   20.10
   3   6   9  318.77   21.50
  -3   6  -9  344.77   20.30
   3   6   9  302.17   20.70
   3   6   9  309.17   20.60
  -4  -6  -9   97.49   14.30
  -4  -6  -9  107.49    9.10
  -4  -6  -9   98.59    8.30
  -4  -6  -9  110.09    9.80
  -4  -6  -9   76.49   13.20
   4  -6   9  113.39    8.20
   4   6   9  138.29   10.80
  -4   6  -9  109.99    7.90
  -4   6  -9  102.89    8.70
   4   6   9  110.69    9.30
  -4   6  -9   98.69    8.40
   4   6   9  104.29    9.10
  -5  -6  -9    0.20    3.50
  -5  -6  -9    2.90    7.90
   5  -6   9    0.70    2.50
  -5  -6  -9    4.20    3.40
  -5  -6  -9    0.70    2.90
  -5   6  -9    3.00    2.90
   5   6   9    5.50    4.60
   5   6   9    3.00    3.70
   5   6   9    0.20    2.90
  -5   6  -9    0.00    2.60
  -5   6  -9    0.10    2.70
  -6  -6  -9    7.20    3.50
  -6  -6  -9   -1.70    8.00
  -6  -6  -9    2.90    3.60
  -6  -6  -9    3.20    2.90
   6  -6   9    4.50    2.70
  -6   6  -9   -1.40    2.80
   6   6   9    6.70    3.00
  -6   6  -9    6.40    2.60
  -6   6  -9    3.80    2.80
   6   6   9    2.60    3.70
   7  -6   9    3.10    2.60
  -7  -6  -9    4.10    3.20
  -7  -6  -9    6.10    3.40
  -7  -6  -9    1.50    3.00
  -7   6  -9    0.00    2.30
  -7   6  -9    3.00    2.60
   7   6   9   -0.10    3.50
  -7   6  -9    0.50    2.60
   7   6   9    2.90    2.80
  -8  -6  -9   -1.40    2.60
  -8  -6  -9    2.30    3.20
   8  -6   9    4.90    2.40
  -8  -6  -9   -3.60    3.10
  -8  -6  -9    4.40    2.70
  -8   6  -9    1.20    2.20
  -8   6  -9    0.80    2.40
   8   6   9    3.50    3.60
  -9  -6  -9    0.50    2.30
  -9  -6  -9    2.10    2.20
   9   6   9   -2.40    3.00
  -9   6  -9   -1.00    2.20
  10   6   9   32.00    4.50
 -10   6  -9   30.40    3.70
 -12  -7   9   43.80    4.60
  12  -7  -9   57.59    7.20
  12  -7  -9   56.79    5.70
  12   7  -9   56.99    6.50
 -11  -7   9    2.20    2.50
  11  -7  -9    3.90    3.20
  11   7  -9   -0.50    4.00
  10  -7  -9   48.40    7.00
 -10  -7   9   37.50    5.60
 -10   7   9   48.30    5.00
  10   7  -9   44.90    6.70
  10   7  -9   48.80    8.50
   9  -7  -9   -1.30    3.50
  -9  -7   9    4.40    3.60
  -9   7   9    2.00    2.60
   9   7  -9   -0.60    4.10
   9   7  -9    0.80    5.20
  -8  -7   9    7.70    3.40
   8  -7  -9   17.40    4.10
  -8  -7   9   14.70    2.30
  -8   7   9   12.10    2.90
  -8   7   9    9.80    4.40
   8   7  -9   23.00    6.30
   8   7  -9   18.70    5.70
   8   7  -9   14.50    4.50
   7  -7  -9   52.59    6.70
   7  -7  -9   45.20    6.90
  -7  -7   9   42.40    6.20
  -7  -7   9   50.09    4.70
  -7   7   9   51.69    7.70
  -7   7   9   50.89    5.40
   7   7  -9   64.89    8.70
   7   7  -9   47.30    6.60
   7   7  -9   43.00    6.80
   7   7  -9   49.70   10.20
  -6  -7   9    0.50    2.00
   6  -7  -9    1.40    3.90
  -6  -7   9    4.40    3.10
   6  -7  -9    5.40    2.80
  -6   7   9    3.30    4.10
   6   7  -9    1.00    3.60
   6   7  -9    2.70    3.30
   6   7  -9   -5.00    4.20
   6   7  -9   -3.10    4.60
  -6   7   9    1.10    2.30
  -5  -7   9   12.30    2.40
  -5  -7   9   17.50    3.40
   5  -7  -9   16.30    3.20
   5   7  -9   14.80    3.40
   5   7  -9    9.50    3.50
  -5   7   9   17.00    4.90
  -5   7   9   12.70    2.90
   5   7  -9    7.70    4.90
   5   7  -9   14.90    4.80
  -5   7   9   23.80    6.10
   4  -7  -9  144.49   10.60
   4  -7  -9  144.09   10.00
  -4  -7   9  150.28    9.50
  -4  -7   9  136.29   10.00
  -4   7   9  142.99   11.80
   4   7  -9  141.09   12.40
  -4   7   9  136.99   13.10
   4   7  -9  138.29   10.30
   4   7  -9  143.79   12.20
   4   7  -9  145.39   10.60
  -4   7   9  147.79   10.60
  -4   7   9  143.79   10.00
  -3  -7   9   25.30    4.00
   3  -7  -9   19.20    3.10
   3  -7  -9   35.80    4.80
  -3   7   9   16.40    3.30
  -3   7   9   26.50    4.30
  -3   7   9   29.60    5.10
  -3   7   9   27.70    5.70
   3   7  -9   20.50    3.80
   3   7  -9   30.40    5.20
   3   7  -9   31.00    4.10
   3   7  -9   22.30    4.60
   2  -7  -9  116.29    8.60
  -2  -7   9  123.39    8.20
   2   7  -9  111.29    9.00
  -2   7   9  129.49   11.20
  -2   7   9  125.99   10.10
   2   7  -9  121.89    9.60
  -2   7   9  126.19    8.80
  -2   7   9  115.09    9.30
   2   7  -9  120.29   10.40
   2   7  -9  118.99    9.10
   2   7  -9   92.19    9.80
   1  -7  -9   28.80    5.10
   1  -7  -9   36.10    5.80
  -1  -7   9   38.80    4.40
   1   7  -9   42.50    7.10
   1   7  -9   44.20    6.20
  -1   7   9   39.60    7.20
  -1   7   9   35.60    6.00
   1   7  -9   35.20    5.40
  -1   7   9   33.60    5.00
   1   7  -9   35.90    5.50
  -1   7   9   24.70    6.00
  -1   7   9   44.00    6.10
   0  -7   9  102.39    7.60
   0  -7  -9   79.49    8.70
   0  -7  -9  110.29    8.20
   0   7  -9   95.99    8.10
   0   7  -9  118.09    9.80
   0   7  -9  107.99    8.30
   0   7  -9  115.79    8.90
   0   7   9  106.59    9.80
   0   7   9  103.19    8.20
   0   7   9  105.79    8.90
   0   7   9   98.09    9.10
   1  -7   9   35.50    4.60
  -1  -7  -9   10.40    8.40
  -1  -7  -9   30.20    5.50
  -1  -7  -9   25.50    4.40
  -1   7  -9   19.90    4.30
   1   7   9   35.60    5.20
   1   7   9   25.10    4.80
   1   7   9   30.80    5.20
   1   7   9   33.40    6.10
  -1   7  -9   31.60    5.40
  -1   7  -9   30.30    6.10
  -1   7  -9   24.70    3.80
  -2  -7  -9  167.48   19.80
  -2  -7  -9  186.58   13.60
   2  -7   9  196.08   12.30
  -2  -7  -9  191.98   12.70
  -2   7  -9  179.58   13.00
  -2   7  -9  176.58   12.20
  -2   7  -9  193.58   12.70
   2   7   9  187.78   13.90
   2   7   9  200.48   14.30
  -2   7  -9  178.08   13.20
   2   7   9  197.28   13.60
   2   7   9  195.08   13.20
  -3  -7  -9   17.00    8.60
  -3  -7  -9   14.10    9.40
  -3  -7  -9   26.60    4.80
  -3  -7  -9   24.40    4.00
   3  -7   9   21.70    4.40
  -3   7  -9   25.30    4.00
   3   7   9   19.60    4.00
   3   7   9   25.80    4.60
  -3   7  -9   22.70    3.70
   3   7   9   20.00    5.20
  -3   7  -9   16.30    3.40
  -4  -7  -9  125.19    9.60
  -4  -7  -9  111.69    9.20
   4  -7   9  126.79    8.80
  -4  -7  -9  119.29   10.70
  -4  -7  -9   88.09   15.50
  -4   7  -9  126.39    9.60
  -4   7  -9  105.89    8.90
  -4   7  -9  120.09    8.50
   4   7   9  118.29   10.10
   4   7   9  124.89    9.80
   4   7   9  113.29   11.70
   5  -7   9   50.09    5.50
  -5  -7  -9   38.30    5.80
  -5  -7  -9   28.20    9.00
  -5  -7  -9   42.10    7.00
  -5   7  -9   37.50    4.90
   5   7   9   44.90    6.60
  -5   7  -9   29.10    5.70
   5   7   9   44.00    6.20
   5   7   9   37.20    6.20
  -5   7  -9   46.00    6.10
  -6  -7  -9   36.40    6.60
  -6  -7  -9   46.30    6.80
  -6  -7  -9   34.30    5.50
   6  -7   9   34.80    5.00
  -6   7  -9   21.80    4.40
   6   7   9   32.60    5.70
   6   7   9   37.60    5.90
  -6   7  -9   36.40    5.50
  -6   7  -9   32.60    5.50
  -7  -7  -9    7.70    3.30
  -7  -7  -9   20.20    3.70
  -7  -7  -9    9.50    3.10
   7  -7   9   15.20    2.90
   7   7   9    7.90    2.90
  -7   7  -9   11.40    2.50
  -7   7  -9   12.80    3.00
  -7   7  -9    9.30    2.70
   7   7   9   11.10    3.90
  -8  -7  -9    5.30    3.10
  -8  -7  -9    2.30    3.00
  -8  -7  -9    1.00    2.60
  -8  -7  -9   -0.40    2.30
   8  -7   9    2.10    2.20
  -8   7  -9   -3.10    2.40
   8   7   9    3.80    3.30
  -8   7  -9    6.10    2.00
  -9  -7  -9   30.10    4.00
  -9  -7  -9   28.40    4.40
  -9   7  -9   35.10    4.00
   9   7   9   42.40    5.10
  11  -8  -9    9.10    4.50
  11  -8  -9    7.20    2.80
 -11  -8   9    7.70    2.30
  11   8  -9   13.40    4.10
  10  -8  -9   -0.90    2.80
 -10  -8   9    2.80    2.60
  10   8  -9    3.70    4.60
  10   8  -9    0.80    3.50
 -10   8   9    0.70    1.90
   9  -8  -9   35.00    6.20
  -9  -8   9   33.50    5.50
   9   8  -9   28.80    5.00
   9   8  -9   36.00    6.20
  -9   8   9   35.30    4.40
  -8  -8   9   42.90    4.40
  -8  -8   9   41.50    6.10
   8   8  -9   54.29    8.40
   8   8  -9   31.90    5.90
   8   8  -9   27.90    6.20
   8   8  -9   37.90    6.40
  -8   8   9   50.29    5.10
   7  -8  -9   24.10    3.80
   7  -8  -9   26.40    4.20
  -7  -8   9   25.00    3.90
  -7  -8   9   21.00    3.90
   7   8  -9   22.80    5.10
   7   8  -9   21.80    4.00
  -7   8   9   29.10    4.20
  -7   8   9   29.70    5.90
   7   8  -9   16.50    5.60
   7   8  -9   13.00    4.10
  -6  -8   9   34.40    5.60
  -6  -8   9   32.70    4.30
   6  -8  -9   38.80    6.70
   6  -8  -9   28.90    5.60
   6   8  -9   21.50    4.50
   6   8  -9   35.80    6.40
   6   8  -9   27.60    5.20
   6   8  -9   44.60    6.90
  -6   8   9   37.50    4.80
  -6   8   9   26.00    5.40
  -5  -8   9   68.09    7.20
  -5  -8   9   71.19    6.00
   5  -8  -9   68.09    6.90
   5   8  -9   69.69    7.80
   5   8  -9   69.99    7.70
  -5   8   9   78.19    6.60
   5   8  -9   74.19    9.80
  -5   8   9   80.89    8.90
   5   8  -9   83.49    9.60
  -4  -8   9   10.20    3.30
   4  -8  -9    7.10    2.70
  -4  -8   9    7.00    2.40
   4  -8  -9   13.00    5.80
   4   8  -9    5.80    4.60
  -4   8   9   -1.40    3.70
  -4   8   9    7.90    2.90
   4   8  -9    3.70    3.30
  -4   8   9    8.30    3.00
   4   8  -9    5.30    4.50
   4   8  -9    6.90    3.50
   3  -8  -9   98.69    7.60
   3  -8  -9   99.39    8.90
  -3  -8   9   95.69    7.00
   3   8  -9   93.99    8.60
  -3   8   9  102.69    8.30
  -3   8   9   87.99   10.80
  -3   8   9   95.79    7.60
   3   8  -9   78.59    8.20
   3   8  -9   75.79    9.40
   3   8  -9   95.69   10.60
  -3   8   9   88.69    9.20
  -2  -8   9  511.95   29.30
   2  -8  -9  518.85   29.50
  -2   8   9  476.15   31.00
   2   8  -9  477.15   29.60
   2   8  -9  525.15   30.00
   2   8  -9  495.75   30.80
  -2   8   9  489.95   29.80
  -2   8   9  474.05   32.00
  -2   8   9  488.65   30.20
   2   8  -9  469.45   29.50
  -1  -8   9    5.50    2.30
   1  -8  -9    7.10    2.80
   1   8  -9   -0.10    3.60
  -1   8   9    7.10    3.00
   1   8  -9    5.90    3.60
  -1   8   9    0.00    3.50
  -1   8   9    1.10    3.50
  -1   8   9   -0.10    2.80
   1   8  -9    2.10    3.10
   1   8  -9   -0.30    4.20
   0  -8  -9   64.69    7.50
   0  -8  -9   67.59    6.70
   0  -8   9   69.19    5.90
   0  -8  -9   38.20   11.20
   0   8  -9   70.39    7.00
   0   8  -9   62.29    6.90
   0   8   9   61.19    7.40
   0   8   9   68.09    7.90
   0   8   9   63.39    6.50
   0   8  -9   63.59    7.70
   0   8   9   67.39    8.60
   0   8  -9   57.29    8.70
  -1  -8  -9   16.40    4.10
  -1  -8  -9   19.00    3.50
   1  -8   9   24.00    4.50
   1   8   9   16.00    4.40
   1   8   9   24.40    4.90
   1   8   9   24.60    4.60
  -1   8  -9   24.00    4.70
  -1   8  -9   22.30    4.10
   1   8   9   17.60    4.90
  -1   8  -9   22.50    3.70
  -1   8  -9   22.90    4.00
  -2  -8  -9    2.00    3.00
  -2  -8  -9   -0.20    3.60
   2  -8   9    2.60    2.40
  -2   8  -9    3.90    3.10
  -2   8  -9   -1.80    3.30
  -2   8  -9    0.10    3.10
   2   8   9    0.80    3.10
   2   8   9   -0.50    4.40
  -2   8  -9    0.20    3.30
   2   8   9    3.30    3.70
  -3  -8  -9   43.40   10.90
  -3  -8  -9   64.69    7.70
  -3  -8  -9   63.49    8.00
   3  -8   9   76.59    6.30
  -3   8  -9   57.29    6.20
   3   8   9   67.59    8.00
   3   8   9   75.09    7.20
  -3   8  -9   65.79    6.80
   3   8   9   67.19    9.60
  -3   8  -9   70.79    7.60
   4  -8   9    2.70    2.40
  -4  -8  -9    7.50    4.00
  -4  -8  -9    2.60    3.60
  -4  -8  -9   14.00    8.50
   4   8   9    9.80    3.80
  -4   8  -9    7.00    3.10
  -4   8  -9   11.60    3.50
  -4   8  -9   10.40    3.40
   4   8   9   10.50    4.70
   4   8   9   11.70    3.70
  -5  -8  -9    0.40    3.40
   5  -8   9   -0.40    2.40
  -5  -8  -9   -3.50    3.40
   5   8   9    2.50    4.30
   5   8   9    0.20    3.30
  -5   8  -9    0.30    2.70
   5   8   9    1.30    3.20
  -5   8  -9    0.00    3.10
  -5   8  -9    0.10    2.80
  -6  -8  -9   14.90    4.00
  -6  -8  -9   11.90    3.10
   6  -8   9   15.10    2.80
  -6  -8  -9   14.40    3.70
  -6   8  -9   16.10    2.90
  -6   8  -9   18.60    3.40
  -6   8  -9    9.90    2.80
   6   8   9   16.80    4.10
   6   8   9   14.10    3.60
  -7  -8  -9   15.30    3.40
  -7  -8  -9    7.80    2.80
   7  -8   9    9.90    2.50
  -7  -8  -9    2.60    2.90
  -7   8  -9    5.30    3.10
  -7   8  -9    5.30    2.30
  -7   8  -9    9.60    2.60
   7   8   9    9.10    3.40
   7   8   9   14.40    3.00
  -8  -8  -9   24.40    4.40
  -8  -8  -9   27.40    5.90
  -8  -8  -9   24.50    3.70
  -8  -8  -9   23.40    4.00
   8  -8   9   33.80    3.70
   8   8   9   33.00    4.70
  -8   8  -9   31.10    4.10
 -10  -9   9   79.39    6.80
  10  -9  -9   90.89    7.60
  10   9  -9   98.69    8.60
  10   9  -9  112.59    9.10
   9  -9  -9    3.30    2.70
  -9  -9   9    4.20    2.80
  -9   9   9    2.10    2.20
   9   9  -9    1.50    3.60
  -8  -9   9   46.70    4.40
   8  -9  -9   46.90    6.30
  -8  -9   9   44.70    5.70
   8   9  -9   50.89    8.70
   8   9  -9   40.50    5.70
  -8   9   9   45.70    4.80
   8   9  -9   44.90    7.60
   8   9  -9   48.70    6.10
  -7  -9   9   27.40    3.80
   7  -9  -9   26.50    3.90
  -7  -9   9   26.30    4.20
   7   9  -9   28.40    5.60
   7   9  -9   28.30    5.90
  -7   9   9   27.80    4.50
   7   9  -9   30.50    6.00
   7   9  -9   17.20    4.30
  -6  -9   9   10.20    3.60
   6  -9  -9    3.00    3.30
   6  -9  -9    9.40    2.90
  -6  -9   9    8.30    2.30
   6   9  -9    6.00    3.50
   6   9  -9    4.40    3.90
  -6   9   9   12.50    3.10
  -6   9   9    5.30    5.00
   6   9  -9   10.80    4.80
   6   9  -9    5.80    4.90
  -5  -9   9   18.80    4.00
   5  -9  -9   23.00    3.40
  -5  -9   9   20.90    4.20
   5   9  -9   23.00    5.40
  -5   9   9   20.00    5.00
   5   9  -9   16.60    4.00
  -5   9   9   26.30    4.50
   5   9  -9   12.80    4.30
   5   9  -9   14.50    5.10
  -4  -9   9    2.10    3.20
  -4  -9   9    6.60    2.30
   4  -9  -9   13.50    2.90
   4   9  -9    3.70    3.60
   4   9  -9   -1.40    3.70
   4   9  -9    5.90    5.00
   4   9  -9    7.50    4.50
  -4   9   9    7.30    2.90
  -4   9   9   10.40    3.20
  -4   9   9   18.10    4.70
  -3  -9   9   32.60    4.50
   3  -9  -9   33.50    6.50
   3  -9  -9   26.80    3.70
   3   9  -9   28.50    5.70
   3   9  -9   32.00    5.30
   3   9  -9   28.60    4.60
  -3   9   9   29.00    4.70
  -3   9   9   34.70    5.90
  -3   9   9   22.20    3.90
   3   9  -9   32.00    4.70
  -2  -9   9   12.90    2.60
   2  -9  -9   10.70    2.80
   2   9  -9    7.70    3.90
  -2   9   9   11.50    4.10
   2   9  -9    5.00    3.60
   2   9  -9    7.60    3.50
  -2   9   9    6.10    2.80
  -2   9   9    8.80    3.10
   2   9  -9   11.10    4.90
   1   9  -9   51.19    6.90
   1   9  -9   43.50    6.70
   1   9  -9   44.40    6.70
   0  -9   9  109.59    8.20
   0  -9  -9  101.69    9.50
   0  -9  -9  112.39    8.80
   0   9   9  125.19    9.10
   0   9  -9  104.59    9.00
   0   9  -9  107.39    9.70
   0   9  -9  120.69   10.50
   0   9  -9  114.19    9.10
   0   9   9  112.49   10.00
   0   9   9  119.99   10.30
   0   9   9  108.69    9.50
  -1  -9  -9   -0.20    3.50
  -1  -9  -9    6.40    3.10
   1  -9   9    0.30    2.30
   1   9   9   -0.20    4.10
  -1   9  -9    3.70    3.20
  -1   9  -9    3.30    3.50
  -1   9  -9    2.80    3.30
   1   9   9    1.80    3.10
   1   9   9    2.90    3.40
  -1   9  -9   -0.70    3.60
  -2  -9  -9   51.09   11.50
  -2  -9  -9   54.89    7.30
   2  -9   9   46.90    5.40
  -2  -9  -9   42.70    6.70
   2   9   9   48.90    7.00
  -2   9  -9   54.89    6.50
  -2   9  -9   52.39    7.00
  -2   9  -9   46.60    6.00
   2   9   9   53.69    6.30
   2   9   9   55.29    8.50
   3  -9   9    2.10    2.40
  -3  -9  -9    1.80    3.80
  -3  -9  -9   -3.80    7.60
  -3  -9  -9   -0.30    3.20
  -3   9  -9    5.40    3.40
   3   9   9    6.90    4.50
  -3   9  -9   -2.80    2.80
  -3   9  -9    3.90    3.30
   3   9   9    1.70    3.40
   3   9   9    5.80    3.80
  -4  -9  -9   78.19    8.00
   4  -9   9   83.99    6.60
  -4  -9  -9   67.19    8.30
   4   9   9   79.59    7.90
  -4   9  -9   72.89    6.60
   4   9   9   83.89    9.50
  -4   9  -9   77.69    7.20
  -4   9  -9   77.39    7.40
   4   9   9   81.79    7.60
  -5  -9  -9   17.10    3.80
  -5  -9  -9   13.50    3.90
   5  -9   9   14.00    2.70
  -5   9  -9    6.60    2.90
  -5   9  -9    6.40    2.70
   5   9   9   11.10    3.20
   5   9   9   18.00    4.80
  -5   9  -9    3.60    2.50
   5   9   9    7.60    3.30
  -6  -9  -9   10.80    3.40
  -6  -9  -9   12.70    3.60
   6  -9   9   12.00    2.50
   6   9   9   14.70    3.40
   6   9   9    7.50    2.90
  -6   9  -9    7.90    2.60
  -6   9  -9    6.40    2.40
  -6   9  -9   10.90    2.50
   7  -9   9    8.90    2.20
  -7  -9  -9    8.90    3.00
  -7  -9  -9   11.50    2.60
   7   9   9   12.90    2.90
   7   9   9   14.00    3.10
  -7   9  -9    6.40    2.00
  -7   9  -9    8.60    2.40
  -8  -9  -9    4.80    2.70
  -9 -10   9    1.40    2.20
   9 -10  -9   -0.50    2.20
   9  10  -9   -3.70    3.30
  -9  10   9    0.90    1.60
   9  10  -9    0.40    2.90
  -8 -10   9   66.69    6.70
  -8 -10   9   88.19    6.00
   8 -10  -9   84.99    7.00
  -8  10   9   94.99    6.30
   8  10  -9   84.29    8.60
   8  10  -9   88.79    8.30
   8  10  -9   65.79    7.50
  -7 -10   9    3.80    3.00
  -7 -10   9    4.40    1.80
   7  10  -9    3.60    4.20
   7  10  -9    2.30    3.60
   7  10  -9    5.90    4.30
  -7  10   9    1.50    2.00
   7  10  -9   -2.00    3.10
  -6 -10   9   36.80    5.70
  -6 -10   9   39.60    4.20
   6 -10  -9   33.50    5.10
   6  10  -9   36.50    5.00
   6  10  -9   39.90    6.20
  -6  10   9   36.70    4.40
   6  10  -9   43.80    8.10
   6  10  -9   36.70    5.80
   5 -10  -9   -0.80    3.30
   5 -10  -9   -0.90    2.50
  -5 -10   9    0.00    2.00
  -5 -10   9    3.00    3.30
   5  10  -9    0.70    4.50
   5  10  -9   -2.40    3.90
   5  10  -9   -3.10    3.70
  -5  10   9    1.50    2.30
   5  10  -9    2.10    3.50
  -4 -10   9  111.39    7.50
   4 -10  -9   96.99    7.80
  -4 -10   9  103.49    8.50
   4  10  -9   98.79    9.00
   4  10  -9   87.69    8.80
   4  10  -9  114.09   11.20
   4  10  -9   98.09    9.60
  -4  10   9  110.29    8.00
  -3 -10   9   -0.70    3.30
  -3 -10   9    2.60    2.20
   3 -10  -9    3.40    2.50
  -3  10   9   -1.60    2.60
   3  10  -9   -2.50    4.70
   3  10  -9    0.80    3.50
   3  10  -9   -1.80    3.60
  -3  10   9   -0.50    5.50
  -3  10   9    1.70    2.70
  -2 -10   9  204.18   12.20
   2 -10  -9  195.58   12.50
   2  10  -9  184.98   13.40
  -2  10   9  205.48   13.30
   2  10  -9  187.28   14.80
   2  10  -9  163.78   12.90
  -2  10   9  190.78   14.10
  -2  10   9  189.38   12.70
  -1 -10   9   -0.10    2.30
   1 -10  -9   -2.40    2.50
   1  10  -9   -0.80    4.20
  -1  10   9    3.70    3.20
   1  10  -9   -2.70    3.20
   1  10  -9    1.30    3.80
  -1  10   9    2.30    2.60
  -1  10   9    5.50    4.00
   1  10  -9   -1.70    3.30
   0 -10   9   44.70    5.00
   0 -10  -9   38.80    5.80
   0  10   9   38.60    7.00
   0  10   9   47.10    5.60
   0  10  -9   48.10    6.40
   0  10  -9   56.99    7.10
   0  10   9   49.50    6.50
   0  10  -9   36.30    6.20
   0  10  -9   40.70    7.40
   1 -10   9    2.60    2.30
  -1 -10  -9   -1.20    3.10
  -1 -10  -9    4.50    2.80
  -1  10  -9    6.20    3.60
  -1  10  -9    5.40    3.60
   1  10   9    1.20    3.80
   1  10   9    0.60    2.80
  -1  10  -9    4.20    3.60
  -1  10  -9    5.30    3.80
   1  10   9    5.30    3.20
   2 -10   9    3.10    2.20
  -2 -10  -9    0.20    2.80
  -2 -10  -9    4.20    3.30
  -2  10  -9    5.90    3.30
   2  10   9    4.00    3.50
   2  10   9    0.40    2.80
  -2  10  -9    0.00    2.80
   2  10   9    4.90    4.00
  -2  10  -9    0.10    3.10
  -3 -10  -9    2.20    3.30
   3 -10   9    1.10    2.20
  -3 -10  -9   -2.80    2.80
   3  10   9    1.10    3.00
  -3  10  -9    1.80    3.00
  -3  10  -9    3.50    3.20
   3  10   9    2.90    3.40
   3  10   9    3.60    4.00
  -3  10  -9    0.20    2.70
  -4 -10  -9    8.60    3.10
  -4 -10  -9    5.60    3.40
   4 -10   9    3.10    2.20
  -4  10  -9    4.10    3.20
  -4  10  -9    3.90    2.60
   4  10   9    7.60    4.20
   4  10   9    2.90    3.30
   4  10   9    3.80    3.10
  -4  10  -9    0.60    2.70
   5 -10   9    9.00    2.30
  -5 -10  -9    3.30    3.00
  -5 -10  -9    3.90    3.00
  -5  10  -9    3.00    2.10
  -5  10  -9    0.60    2.30
  -5  10  -9    3.00    2.50
   5  10   9    3.10    2.80
   5  10   9    5.70    3.00
  -6 -10  -9   10.30    2.80
   6 -10   9   16.20    3.10
  -6 -10  -9   10.00    2.90
  -6  10  -9   12.60    2.70
   6  10   9   13.80    3.00
  -6  10  -9    8.20    2.20
   6  10   9   10.40    2.70
   8  11  -9   31.50    6.10
  -7 -11   9    7.20    1.80
   7 -11  -9    6.10    2.30
  -7 -11   9    3.90    2.40
  -7  11   9    8.80    2.10
   7  11  -9    7.50    3.20
   7  11  -9    4.10    3.60
   7  11  -9   10.00    3.60
   7  11  -9    4.00    3.20
  -6 -11   9    0.80    1.70
  -6 -11   9    2.60    2.70
   6 -11  -9    0.60    2.20
  -6  11   9    1.40    2.00
   6  11  -9    6.10    4.20
   6  11  -9    3.10    3.20
   6  11  -9    0.60    3.30
   6  11  -9    4.10    3.40
   5 -11  -9   13.80    2.50
  -5 -11   9    8.30    2.80
  -5 -11   9   10.20    2.10
   5  11  -9    6.40    3.50
   5  11  -9    6.80    3.40
  -5  11   9    9.50    2.40
   5  11  -9    7.60    3.60
   5  11  -9   10.50    4.60
   4 -11  -9    1.30    2.20
  -4 -11   9   -2.10    3.00
  -4 -11   9    1.20    1.90
  -4  11   9   -1.40    2.30
   4  11  -9    3.00    3.60
   4  11  -9    0.80    3.30
   4  11  -9   -2.70    4.40
  -3 -11   9   30.40    5.60
   3 -11  -9   42.70    4.80
  -3 -11   9   38.30    4.40
   3  11  -9   31.00    6.30
   3  11  -9   46.20    7.70
   3  11  -9   31.30    4.80
  -3  11   9   36.50    4.60
  -3  11   9   39.70    4.90
  -2 -11   9   11.30    2.40
   2 -11  -9    9.90    2.70
   2 -11  -9    8.90    3.60
   2  11  -9    8.00    4.30
   2  11  -9    8.10    3.50
  -2  11   9   16.10    3.40
  -2  11   9   12.90    2.90
   2  11  -9   10.20    3.60
   1 -11  -9    2.80    2.40
  -1 -11   9    1.00    2.00
  -1  11   9    5.00    2.90
   1  11  -9    0.90    3.40
   1  11  -9    0.90    3.80
   1  11  -9    2.30    3.20
  -1  11   9    2.50    2.60
   0 -11  -9   28.60    4.60
   0  11  -9   15.00    3.60
   0  11  -9   16.60    3.60
   0  11   9   23.30    3.90
   0  11  -9   14.50    3.80
   0  11   9   22.90    4.20
   0  11  -9   16.20    4.20
  -1 -11  -9   15.10    2.90
   1 -11   9   21.50    3.80
  -1  11  -9   13.70    3.40
   1  11   9    9.90    3.20
  -1  11  -9    5.20    3.10
   1  11   9   10.90    2.80
  -1  11  -9   12.50    3.30
   2 -11   9   10.40    2.30
  -2 -11  -9    8.40    2.80
  -2 -11  -9   11.10    3.00
  -2  11  -9    8.20    2.80
  -2  11  -9   11.00    3.20
   2  11   9   15.40    3.20
   2  11   9   16.20    3.70
  -2  11  -9    8.10    3.20
   2  11   9    9.10    3.60
  -3 -11  -9    1.80    2.60
  -3 -11  -9   -0.10    2.60
   3 -11   9    0.90    1.80
   3  11   9    0.80    2.70
  -3  11  -9    0.40    2.50
  -3  11  -9    1.30    2.90
   3  11   9    0.90    2.40
  -3  11  -9    5.80    2.60
   4 -11   9   25.10    3.50
  -4 -11  -9   22.90    4.50
  -4 -11  -9   30.10    5.00
  -4  11  -9   17.00    2.90
  -4  11  -9   25.90    4.30
   4  11   9   28.20    4.10
  -4  11  -9   22.10    4.40
   4  11   9   28.60    4.60
   5 -11   9    4.30    1.70
  -5 -11  -9    6.00    2.60
  -5 -11  -9    2.70    2.40
  -5  11  -9    3.70    2.40
  -5  11  -9    0.10    1.90
   5  11   9    3.00    2.20
   6  12  -9    4.90    3.50
  -5 -12   9   16.50    2.80
  -5 -12   9   16.20    2.70
   5  12  -9   24.10    4.70
  -5  12   9   20.90    3.00
   5  12  -9   16.70    3.90
   5  12  -9    7.60    3.20
  -4 -12   9   34.50    3.70
  -4 -12   9   32.50    4.50
   4  12  -9   41.50    6.40
   4  12  -9   35.20    5.40
  -4  12   9   39.10    3.90
   4  12  -9   35.00    5.40
  -3 -12   9   25.00    3.40
  -3 -12   9   26.10    4.40
   3  12  -9   28.60    4.60
  -3  12   9   21.80    3.50
   3  12  -9   19.00    3.60
   3  12  -9   21.10    3.80
  -2 -12   9   27.40    4.50
   2 -12  -9   19.50    3.90
  -2 -12   9   25.90    3.50
   2  12  -9   23.40    4.40
  -2  12   9   26.70    4.20
  -2  12   9   20.60    3.60
   2  12  -9   25.80    5.00
   2  12  -9   20.60    3.80
  -1 -12   9   28.40    3.50
  -1 -12   9   25.00    4.50
   1 -12  -9   24.70    4.00
   1  12  -9   21.50    3.80
   1  12  -9   19.90    3.60
   1  12  -9   15.20    4.00
  -1  12   9   27.80    3.70
  -1  12   9   24.40    4.30
   0 -12   9    4.70    1.90
   0 -12  -9    3.60    2.20
   0 -12  -9    6.50    3.20
   0  12   9    5.20    2.60
   0  12   9    6.60    2.40
   0  12  -9    0.40    2.90
   0  12  -9   -1.20    2.90
  -1 -12  -9   24.70    4.20
   1 -12   9   31.50    3.50
   1  12   9   37.20    4.00
  -1  12  -9   23.60    4.80
  -1  12  -9   24.80    4.80
   1  12   9   22.60    4.30
   2 -12   9    1.30    1.70
  -2 -12  -9   -0.10    2.10
   2  12   9    4.10    1.80
  -2  12  -9    0.20    2.20
   2  12   9    0.70    2.30
  -2  12  -9    0.20    2.60
  -2  12  -9    0.80    2.40
   3 -12   9   10.80    1.80
  -3 -12  -9   11.00    2.40
  -3  12  -9    7.20    2.50
  -3  12  -9    4.90    2.10
   3  12   9    5.80    2.20
  -1 -13   9    6.50    1.90
 -14   0  10    3.70    2.00
 -13   0  10   -1.50    1.80
 -12   0  10    2.10    2.40
  12   0 -10    1.50    3.80
  11   0 -10   -4.30    5.30
  11   0 -10   -0.30    4.30
 -11   0  10    9.10    4.40
 -11   0  10   -0.50    2.50
 -10   0  10  109.69   10.80
  10   0 -10  124.59   10.90
  10   0 -10  113.49   10.50
 -10   0  10  110.39    8.50
  -9   0  10    3.80    7.30
   9   0 -10    4.70    4.40
   9   0 -10    0.80    4.70
  -9   0  10   -3.90    3.90
  -9   0  10    0.30    2.70
  -8   0  10  580.24   39.20
  -8   0  10  616.64   38.50
  -8   0  10  652.03   36.60
  -7   0  10    1.60    2.30
   7   0 -10    4.40    2.90
  -7   0  10    4.80    4.40
   7   0 -10   -4.70    3.80
  -7   0  10    0.60    3.50
   7   0 -10   -2.00    2.90
  -6   0  10   46.10    4.50
  -6   0  10   50.49    7.20
   6   0 -10   40.10    6.20
   6   0 -10   52.39    5.70
  -6   0  10   53.99    6.20
   6   0 -10   44.00    7.30
  -5   0  10    1.00    1.70
   5   0 -10    0.80    3.60
   5   0 -10    3.80    2.70
   5   0 -10   -2.60    2.80
  -5   0  10   -3.20    3.40
  -5   0  10    0.60    2.90
   4   0 -10  164.68   11.20
  -4   0  10  159.98   12.00
  -4   0  10  161.28   11.40
  -4   0  10  160.38   10.00
   4   0 -10  157.68   11.60
  -3   0  10    2.20    2.70
   3   0 -10    0.60    1.50
   3   0 -10   -6.10    2.10
   3   0 -10   -1.20    2.90
  -3   0  10   -1.80    2.10
   3   0 -10    2.30    2.60
   2   0 -10  127.49    7.80
  -2   0  10  105.09    8.80
  -2   0  10  109.59    8.40
  -1   0  10   -0.80    1.80
   1   0 -10    0.10    2.20
   1   0 -10    0.90    1.70
  -1   0  10    0.00    2.20
   1   0 -10    1.40    2.60
   1   0 -10    1.30    2.50
   0   0  10   21.10    3.50
   0   0 -10   28.90    5.10
   0   0 -10   34.10    3.90
   0   0 -10   27.70    4.40
   0   0 -10   34.00    4.80
  -1   0 -10   -0.30    2.10
  -1   0 -10   -0.30    2.70
   1   0  10   -0.50    1.70
  -1   0 -10   -1.40    1.80
  -1   0 -10   -3.90    2.10
  -1   0 -10   -0.30    1.60
  -2   0 -10  585.24   33.00
  -2   0 -10  596.24   33.20
  -2   0 -10  506.35   33.20
  -2   0 -10  555.94   33.50
   2   0  10  579.84   33.50
  -3   0 -10    1.90    1.80
   3   0  10   -0.40    2.30
  -3   0 -10    0.80    2.90
  -3   0 -10   -0.70    1.90
  -4   0 -10   43.70    4.50
   4   0  10   39.50    5.00
  -4   0 -10   32.60    4.90
  -4   0 -10   39.20    5.70
  -5   0 -10   -1.20    2.20
  -5   0 -10    0.00    2.70
  -5   0 -10    0.40    2.10
   5   0  10   -0.70    2.90
  -6   0 -10  198.98   12.80
  -6   0 -10  188.88   12.90
  -6   0 -10  194.38   12.60
   6   0  10  207.68   13.70
  -7   0 -10    1.20    2.40
   7   0  10   -1.00    3.20
  -7   0 -10    6.10    2.50
  -8   0 -10   77.49    6.70
  -8   0 -10   73.49    6.60
   8   0  10   87.49    7.80
   9   0  10    0.00    3.00
  -9   0 -10   -1.40    2.20
  -9   0 -10   -0.30    2.00
 -10   0 -10   15.60    2.50
  10   0  10   15.40    3.00
 -10   0 -10   20.00    2.80
 -11   0 -10    0.60    2.30
 -13  -1  10    9.30    2.40
 -13   1  10    7.80    2.20
  13   1 -10    8.00    4.40
  12  -1 -10   86.59    8.90
 -12  -1  10   72.49    6.70
  12  -1 -10   90.59    8.60
  12   1 -10   89.59    8.80
 -12   1  10   79.29    6.50
 -11  -1  10    5.80    4.90
  11  -1 -10    6.20    4.40
 -11  -1  10   10.00    2.80
  11  -1 -10    7.90    4.80
 -11   1  10    8.60    5.10
 -11   1  10    7.40    2.40
  11   1 -10    9.40    4.90
  10  -1 -10   25.20    5.70
  10  -1 -10   25.10    5.50
  10  -1 -10   27.00    4.30
 -10  -1  10   24.40    5.50
 -10  -1  10   23.70    3.70
 -10   1  10   23.60    5.50
  10   1 -10   29.20    5.60
 -10   1  10   26.40    3.60
  -9  -1  10   15.70    4.90
   9  -1 -10   25.30    4.60
  -9  -1  10   34.60    5.00
   9  -1 -10   27.20    5.40
  -9   1  10   28.00    4.70
   9   1 -10   36.70    6.30
  -9   1  10   27.80    5.50
   8  -1 -10   72.79    8.40
  -8  -1  10   83.39    8.80
  -8  -1  10   85.99   10.40
  -8  -1  10   77.19    6.80
   8  -1 -10   91.69    9.40
  -8   1  10   75.89    6.50
  -8   1  10   76.89   10.00
   8   1 -10   78.99    7.30
  -8   1  10   89.99    8.60
   8   1 -10   81.89    9.80
  -8   1  10   84.49    6.30
  -7  -1  10   95.49    8.80
  -7  -1  10   86.79    6.90
   7  -1 -10   87.89    7.70
   7  -1 -10   85.69    8.70
  -7  -1  10   85.29   10.10
   7  -1 -10   93.79    9.10
  -7   1  10   90.89   10.00
  -7   1  10   88.09    8.80
   7   1 -10  103.09    9.70
   7   1 -10   92.89    7.90
  -7   1  10   89.09    6.70
  -7   1  10   87.39    6.60
  -6  -1  10   90.59   10.10
   6  -1 -10  119.79    8.70
  -6  -1  10  115.59    7.90
  -6  -1  10  112.69    9.40
  -6   1  10  112.59    7.70
  -6   1  10  111.99   10.20
  -6   1  10  115.19    7.80
   6   1 -10  118.59    9.00
  -6   1  10  120.19    9.60
   6   1 -10  121.49   10.20
   6   1 -10   98.79    9.30
  -5  -1  10  219.18   13.20
   5  -1 -10  183.28   13.90
  -5  -1  10  203.98   15.20
  -5  -1  10  213.78   14.60
   5  -1 -10  238.08   14.80
   5  -1 -10  221.08   13.90
  -5   1  10  209.18   13.10
   5   1 -10  228.28   14.90
  -5   1  10  218.28   15.40
   5   1 -10  222.58   14.20
  -5   1  10  211.88   13.30
  -4  -1  10  436.26   26.90
   4  -1 -10  447.86   25.90
  -4  -1  10  416.66   26.40
   4  -1 -10  436.36   26.50
  -4  -1  10  434.36   25.30
   4  -1 -10  382.46   25.80
   4   1 -10  453.15   26.60
   4   1 -10  428.86   25.40
   4   1 -10  384.66   25.80
  -4   1  10  443.76   27.10
  -4   1  10  420.96   26.50
  -4   1  10  449.36   25.60
   4   1 -10  469.25   26.00
  -3  -1  10   15.60    3.50
   3  -1 -10   18.10    3.30
   3  -1 -10   13.60    2.90
  -3  -1  10   17.10    2.90
   3  -1 -10   15.80    3.90
  -3  -1  10   18.70    2.80
   3   1 -10   13.90    3.00
  -3   1  10   19.20    3.40
  -3   1  10   14.00    3.70
   3   1 -10   17.70    3.70
   3   1 -10   15.80    3.10
  -3   1  10   13.50    2.70
   2  -1 -10  646.34   37.30
   2  -1 -10  657.43   37.80
  -2  -1  10  621.74   38.20
   2  -1 -10  636.34   38.20
  -2   1  10  648.84   38.30
   2   1 -10  655.63   37.40
   2   1 -10  627.84   38.00
  -2   1  10  638.54   38.70
  -2   1  10  627.44   37.50
   1  -1 -10   20.00    3.50
  -1   1  10   16.40    3.60
   1   1 -10   13.20    2.30
   1   1 -10   17.40    3.30
   1   1 -10   12.70    3.00
  -1   1  10   18.90    2.90
  -1   1  10   17.50    3.00
   0  -1 -10  304.17   17.70
   0  -1 -10  313.27   18.10
   0  -1 -10  268.07   17.70
   0   1  10  303.87   18.70
   0   1 -10  276.27   17.40
   0   1 -10  301.77   17.70
   0   1  10  283.17   18.10
   0   1 -10  305.57   18.10
   0   1  10  290.57   17.80
   0   1 -10  278.97   18.00
  -1  -1 -10   12.40    2.40
  -1  -1 -10   11.20    2.60
  -1  -1 -10    9.10    2.90
   1   1  10   10.40    2.40
  -1   1 -10    5.20    2.70
  -1   1 -10    4.50    1.90
  -1   1 -10    6.70    2.40
   1   1  10   14.50    2.50
  -1   1 -10    9.00    2.30
  -2  -1 -10   44.00    8.10
  -2  -1 -10   73.19    6.10
  -2  -1 -10   74.69    5.40
  -2  -1 -10   63.89    6.60
  -2  -1 -10   68.89    6.10
  -2   1 -10   74.89    5.60
  -2   1 -10   67.59    6.70
  -2   1 -10   68.99    5.60
   2   1  10   66.19    5.90
  -2   1 -10   60.99    8.00
  -3  -1 -10    4.90    2.70
  -3  -1 -10    3.40    2.30
  -3  -1 -10    2.40    2.00
  -3  -1 -10    1.40    2.40
  -3   1 -10    2.20    2.00
  -3   1 -10    1.00    2.80
   3   1  10    0.80    2.50
  -3   1 -10    2.50    2.10
  -4  -1 -10    6.00    2.30
  -4  -1 -10   11.60    3.30
  -4  -1 -10    5.70    2.50
  -4   1 -10    5.20    2.90
  -4   1 -10    8.50    2.40
   4   1  10    6.70    3.00
  -4   1 -10    7.40    2.30
   5  -1  10    1.20    2.70
  -5  -1 -10    2.00    2.90
  -5  -1 -10   -1.30    2.50
  -5  -1 -10   -0.20    2.30
  -5   1 -10    0.20    2.10
  -5   1 -10    0.30    2.30
  -5   1 -10   -1.20    2.50
   5   1  10   -0.80    2.90
  -6  -1 -10   27.00    3.80
  -6  -1 -10   29.20    4.70
   6  -1  10   28.50    5.30
  -6  -1 -10   27.30    5.10
   6   1  10   31.10    5.80
  -6   1 -10   31.80    4.90
  -6   1 -10   25.50    4.60
  -7  -1 -10    2.50    2.50
  -7  -1 -10    2.50    2.40
   7  -1  10    6.00    3.40
  -7   1 -10    1.40    2.20
   7   1  10    2.10    3.40
  -7   1 -10    4.30    2.40
  -8  -1 -10   21.60    3.30
   8  -1  10   26.70    4.50
  -8  -1 -10   24.30    4.60
   8   1  10   27.80    5.70
  -8   1 -10   22.90    4.50
  -8   1 -10   30.70    3.60
  -9  -1 -10   -1.20    2.10
  -9  -1 -10    2.40    2.40
  -9   1 -10   -2.20    2.10
   9   1  10   -0.70    3.10
  -9   1 -10    3.90    2.30
 -10  -1 -10   46.60    4.50
 -10  -1 -10   51.79    4.90
 -10   1 -10   51.39    4.90
  10   1  10   59.99    5.70
 -10   1 -10   45.20    4.60
  13  -2 -10    5.60    4.10
 -13  -2  10    5.50    2.20
 -13   2  10    5.50    1.80
  13   2 -10    7.20    3.60
  12  -2 -10    3.50    4.60
 -12  -2  10    2.70    2.50
 -12   2  10    7.20    2.00
  12   2 -10    4.40    4.30
  11  -2 -10    1.20    4.10
  11  -2 -10   -2.60    3.40
 -11  -2  10    1.90    2.80
  11  -2 -10    1.60    5.10
  11   2 -10    5.40    4.90
 -11   2  10    3.60    2.40
  10  -2 -10   85.99    9.50
  10  -2 -10  103.39    9.20
 -10  -2  10   97.19   10.00
 -10   2  10   87.19    7.00
 -10   2  10   84.59    9.60
  10   2 -10   78.89   10.30
  -9  -2  10    2.10    4.30
   9  -2 -10    7.30    4.30
  -9  -2  10    3.10    2.80
   9  -2 -10   -0.40    3.60
  -9   2  10    3.50    2.30
  -9   2  10    5.40    4.10
   9   2 -10    3.10    4.70
  -9   2  10    1.70    2.50
  -8  -2  10  173.78   11.70
   8  -2 -10  172.28   13.20
  -8  -2  10  162.68   14.90
   8  -2 -10  199.28   14.00
  -8  -2  10  169.68   13.60
  -8   2  10  148.49   14.90
  -8   2  10  187.08   11.60
   8   2 -10  188.98   14.50
   8   2 -10  184.88   12.70
  -8   2  10  174.38   13.70
  -8   2  10  184.38   11.70
  -7  -2  10   -1.00    3.40
  -7  -2  10    7.80    4.60
   7  -2 -10   -1.20    3.80
   7  -2 -10   -5.70    3.50
  -7  -2  10    1.60    2.60
  -7   2  10    0.10    2.00
  -7   2  10    1.10    2.10
  -7   2  10    0.40    4.20
   7   2 -10    0.00    4.40
   7   2 -10   -1.50    2.90
  -7   2  10   -1.50    3.30
   6  -2 -10   19.90    3.80
  -6  -2  10   20.50    4.10
   6  -2 -10   18.30    3.20
   6  -2 -10   10.60    4.10
  -6  -2  10   19.30    4.90
  -6  -2  10   18.50    2.90
   6   2 -10   20.30    3.80
   6   2 -10   26.10    4.90
  -6   2  10   23.00    4.40
  -6   2  10   21.90    3.40
  -6   2  10   18.80    3.30
  -6   2  10   17.50    4.70
  -5  -2  10   11.30    2.30
   5  -2 -10    8.60    2.90
  -5  -2  10    7.60    3.30
   5  -2 -10    8.90    3.10
   5  -2 -10   10.70    3.70
  -5  -2  10    2.60    3.60
   5   2 -10   16.50    3.70
  -5   2  10   11.90    3.00
  -5   2  10    9.40    2.20
  -5   2  10    9.80    4.30
   5   2 -10   14.30    4.20
  -5   2  10   11.20    3.70
  -4  -2  10   57.09    5.70
   4  -2 -10   52.69    6.90
  -4  -2  10   54.19    4.70
  -4  -2  10   55.49    6.70
   4  -2 -10   48.80    5.90
   4  -2 -10   46.20    5.90
   4   2 -10   60.69    5.00
  -4   2  10   50.79    4.50
   4   2 -10   59.09    6.80
  -4   2  10   51.29    6.00
  -4   2  10   48.80    6.80
   4   2 -10   60.39    6.10
   3  -2 -10  100.49    7.70
   3  -2 -10   92.49    8.50
   3  -2 -10   97.59    7.40
  -3  -2  10   71.09    7.60
  -3  -2  10   93.99    6.40
   3   2 -10   81.59    8.00
   3   2 -10   90.99    6.70
  -3   2  10   95.59    8.70
  -3   2  10   92.49    6.60
   3   2 -10   97.99    7.70
  -3   2  10   97.79    7.90
  -2  -2  10  141.09    8.80
   2  -2 -10  140.89    9.00
   2  -2 -10  158.78   10.10
   2  -2 -10  140.99    9.50
  -2  -2  10  134.09    8.50
  -2   2  10  127.69    9.90
  -2   2  10  127.59    9.00
  -2   2  10  138.19   10.70
  -1  -2  10  284.67   16.70
   1  -2 -10  262.07   17.30
   1  -2 -10  285.97   17.00
   1  -2 -10  296.07   17.60
  -1  -2  10  297.17   16.60
  -1   2  10  273.57   17.10
  -1   2  10  287.47   17.90
   1   2 -10  280.17   17.50
  -1   2  10  265.67   17.50
   1   2 -10  263.07   17.60
  -1   2  10  266.77   18.30
   1   2 -10  291.77   17.00
   0  -2 -10  133.29    9.70
   0  -2 -10  142.29   10.30
   0  -2 -10  154.28    9.70
   0  -2  10  160.88    9.10
   0   2  10  148.49   10.00
   0   2 -10  158.28    9.60
   0   2  10  136.39   10.10
   0   2  10  136.09   10.70
   0   2  10  145.79    9.70
   0   2 -10  152.88   10.20
   0   2 -10  135.69    9.30
   0   2 -10  125.59   10.00
   1  -2  10  105.79    6.40
  -1  -2 -10   86.69    7.10
  -1  -2 -10   99.09    7.20
  -1  -2 -10   97.99    8.30
  -1   2 -10   88.79    6.90
   1   2  10   93.29    7.10
  -1   2 -10   98.69    6.70
  -1   2 -10   92.89    7.60
  -1   2 -10   77.19    7.20
   1   2  10   95.59    7.20
   1   2  10   91.69    7.40
  -2  -2 -10  191.98   11.90
  -2  -2 -10  191.38   13.00
  -2  -2 -10  189.68   12.40
  -2  -2 -10  167.18   16.20
  -2  -2 -10  199.98   12.60
  -2   2 -10  196.28   12.20
   2   2  10  192.38   12.50
  -2   2 -10  187.48   12.70
   2   2  10  203.98   12.80
   2   2  10  181.68   12.90
  -2   2 -10  201.08   12.40
  -3  -2 -10    9.00    7.20
  -3  -2 -10   10.90    2.90
  -3  -2 -10    9.50    2.70
   3  -2  10   11.00    2.20
  -3  -2 -10    8.30    2.30
  -3  -2 -10    9.30    3.50
  -3  -2 -10    7.40    5.60
   3   2  10   10.70    2.40
  -3   2 -10   11.50    3.10
  -3   2 -10    6.90    2.30
   3   2  10    8.50    3.00
  -3   2 -10   10.50    2.40
  -4  -2 -10  185.28   13.60
  -4  -2 -10  191.58   16.90
  -4  -2 -10  202.58   13.20
  -4  -2 -10  198.28   13.30
  -4  -2 -10  214.68   12.90
  -4   2 -10  208.68   13.10
  -4   2 -10  199.08   13.40
   4   2  10  197.28   13.70
  -4   2 -10  226.38   13.00
  -5  -2 -10    7.90    2.90
  -5  -2 -10   12.80    3.40
  -5  -2 -10   14.50    2.80
  -5  -2 -10   16.70    3.30
  -5   2 -10   13.40    3.20
  -5   2 -10   11.70    2.60
  -5   2 -10   11.70    2.80
   5   2  10   15.80    4.00
  -6  -2 -10   34.70    5.90
  -6  -2 -10   45.30    5.30
  -6  -2 -10   35.50    5.80
   6   2  10   45.30    6.50
  -6   2 -10   39.50    5.30
  -6   2 -10   45.40    5.20
  -7  -2 -10   -0.90    2.40
  -7  -2 -10   -2.70    2.50
  -7   2 -10   -3.30    2.40
  -7   2 -10   -5.30    2.20
   7   2  10    0.00    3.40
  -8  -2 -10   10.80    2.90
  -8  -2 -10   16.20    3.00
  -8   2 -10   12.80    2.80
  -8   2 -10    7.20    2.60
   8   2  10   10.40    4.20
  -9  -2 -10   -2.30    2.10
  -9  -2 -10    2.20    2.40
  -9   2 -10   -0.90    2.10
   9   2  10    3.90    3.10
  -9   2 -10    1.70    2.50
 -10  -2 -10    1.80    1.70
 -10  -2 -10    1.40    2.10
  10   2  10    2.50    2.80
 -10   2 -10    1.00    2.10
 -13  -3  10    2.00    2.00
  13  -3 -10   -1.50    3.40
  13   3 -10    0.90    3.50
 -13   3  10   -0.10    1.40
  12  -3 -10    0.20    3.50
  12  -3 -10    0.90    4.70
 -12  -3  10    0.50    2.50
 -12   3  10    1.50    1.70
  12   3 -10    4.70    4.30
  11  -3 -10   -0.30    3.80
  11  -3 -10    3.60    3.50
  11  -3 -10   -0.90    4.80
 -11  -3  10   -0.10    2.90
 -11   3  10    0.50    2.10
  11   3 -10    0.80    4.60
 -10  -3  10    2.90    4.50
 -10  -3  10    4.90    3.10
  10  -3 -10   -2.40    3.80
  10  -3 -10    3.70    3.80
 -10   3  10    0.40    2.10
  10   3 -10   -4.70    4.90
 -10   3  10   -1.90    3.90
   9  -3 -10   40.00    7.50
  -9  -3  10   34.70    5.50
  -9  -3  10   35.20    6.20
   9  -3 -10   37.30    7.70
   9   3 -10   36.00    6.60
  -9   3  10   45.00    7.50
   9   3 -10   38.40    6.50
  -9   3  10   40.70    4.80
  -9   3  10   38.80    4.80
  -8  -3  10    7.90    5.70
   8  -3 -10    4.60    4.00
  -8  -3  10    0.00    2.80
  -8  -3  10   -2.00    3.90
   8  -3 -10    7.20    4.40
  -8   3  10    6.40    4.20
   8   3 -10    1.30    4.50
   8   3 -10    3.20    3.60
  -8   3  10    0.70    2.30
  -8   3  10    1.20    2.20
  -8   3  10    3.60    5.30
  -7  -3  10   91.79   10.80
   7  -3 -10  106.69   10.00
  -7  -3  10   92.49    8.00
  -7  -3  10  105.99    9.70
  -7   3  10  100.79    7.30
  -7   3  10  113.79    7.90
  -7   3  10  112.19    9.90
   7   3 -10  122.49   10.90
   7   3 -10  111.19    9.10
  -7   3  10  107.09   11.30
   6  -3 -10  128.79    9.30
  -6  -3  10  104.19   11.00
   6  -3 -10  128.29    9.80
   6  -3 -10  118.39   10.50
  -6  -3  10  118.89   10.20
  -6  -3  10  127.39    8.90
  -6   3  10  138.49    8.90
  -6   3  10  123.19   10.60
  -6   3  10  135.09   11.70
   6   3 -10  139.09   10.00
   5  -3 -10    5.30    3.00
   5  -3 -10    2.40    2.70
  -5  -3  10    5.40    2.50
  -5  -3  10    0.70    3.70
   5  -3 -10    4.30    3.70
  -5  -3  10    5.70    3.10
  -5   3  10    9.50    3.60
  -5   3  10    4.80    3.80
   5   3 -10    4.40    3.20
   5   3 -10    6.10    2.30
   5   3 -10    2.70    4.10
  -5   3  10    2.80    2.20
   4  -3 -10  540.85   34.30
  -4  -3  10  571.24   35.20
   4  -3 -10  578.04   34.30
  -4  -3  10  547.15   33.60
  -4  -3  10  585.14   33.90
   4  -3 -10  627.54   35.30
  -4   3  10  562.34   35.80
   4   3 -10  577.44   35.10
   4   3 -10  623.64   34.70
  -4   3  10  582.54   35.30
  -4   3  10  579.64   34.20
   4   3 -10  580.24   34.00
  -3  -3  10   16.20    2.60
   3  -3 -10   18.30    3.10
  -3  -3  10   21.70    2.80
   3  -3 -10   19.40    3.40
   3   3 -10   21.10    3.90
  -3   3  10   15.80    4.30
   3   3 -10   21.00    3.60
   3   3 -10   18.00    3.90
  -3   3  10   13.30    3.60
  -3   3  10   19.40    3.20
   2  -3 -10  161.38   10.50
  -2  -3  10  178.58   10.30
   2  -3 -10  166.08   11.20
  -2  -3  10  178.78   10.60
   2  -3 -10  171.98   11.60
  -2   3  10  157.38   11.80
  -2   3  10  168.48   10.90
   2   3 -10  148.79   10.80
   2   3 -10  167.38   11.70
  -2   3  10  167.28   11.40
  -2   3  10  156.28   12.40
   2   3 -10  168.88   11.50
  -1  -3  10   65.99    4.80
   1  -3 -10   60.79    6.80
   1  -3 -10   66.59    5.40
   1  -3 -10   62.59    5.70
   1   3 -10   54.99    5.10
  -1   3  10   68.69    7.20
   1   3 -10   51.89    6.20
   1   3 -10   69.49    5.60
  -1   3  10   58.99    5.90
   1   3 -10   59.09    6.40
  -1   3  10   60.09    5.30
  -1   3  10   62.19    6.30
   0  -3 -10  218.08   14.00
   0  -3 -10  225.38   14.10
   0  -3 -10  244.98   15.00
   0   3  10  226.68   14.20
   0   3  10  239.38   14.50
   0   3 -10  223.78   13.80
   0   3 -10  234.28   14.20
   0   3 -10  206.68   13.60
   0   3 -10  194.18   14.30
   0   3 -10  231.58   14.60
   0   3  10  214.18   15.50
   0   3  10  229.68   14.80
  -1  -3 -10    0.70    2.30
  -1  -3 -10   -0.50    2.40
  -1  -3 -10   -0.30    3.40
   1  -3  10    3.50    1.80
   1   3  10   -0.70    2.40
  -1   3 -10    3.80    2.20
  -1   3 -10    2.80    2.50
   1   3  10    1.90    2.40
   1   3  10    1.80    2.20
  -1   3 -10    0.00    2.10
  -1   3 -10    0.70    2.10
  -2  -3 -10   37.20    5.60
  -2  -3 -10   40.80    5.40
  -2  -3 -10   29.10    7.90
   2  -3  10   45.60    4.30
  -2  -3 -10   41.00    7.00
  -2   3 -10   35.10    4.50
   2   3  10   35.80    5.00
  -2   3 -10   42.00    5.00
   2   3  10   38.10    5.10
  -2   3 -10   41.70    5.50
   2   3  10   44.20    5.40
  -3  -3 -10   36.20    4.40
  -3  -3 -10   26.00    4.40
  -3  -3 -10   11.00    8.30
  -3  -3 -10   31.80    5.40
   3  -3  10   35.20    4.10
  -3   3 -10   22.60    4.70
  -3   3 -10   39.70    5.60
  -3   3 -10   28.70    4.70
   3   3  10   32.90    5.20
   3   3  10   35.50    4.80
  -4  -3 -10    1.30    2.30
  -4  -3 -10   19.70    7.30
  -4  -3 -10    5.80    9.30
   4  -3  10    5.90    2.20
  -4  -3 -10    4.60    3.70
  -4  -3 -10    1.70    2.80
  -4  -3 -10    4.40    2.80
  -4   3 -10    2.40    2.40
   4   3  10    6.10    2.30
  -4   3 -10    3.10    2.40
  -4   3 -10    0.70    2.80
   4   3  10    0.50    3.10
  -5  -3 -10   36.20    8.90
  -5  -3 -10   39.30    5.50
  -5  -3 -10   37.80    6.00
  -5  -3 -10   46.00    6.40
   5  -3  10   54.59    4.90
  -5  -3 -10   37.90    6.70
  -5   3 -10   50.29    5.70
   5   3  10   50.89    6.30
  -5   3 -10   47.50    5.60
  -6  -3 -10    2.50    3.10
  -6  -3 -10    6.70    2.80
  -6  -3 -10    3.20    3.20
  -6   3 -10    1.00    2.60
  -6   3 -10    1.40    2.50
   6   3  10    1.00    3.40
  -7  -3 -10    3.30    2.80
  -7  -3 -10    3.40    2.80
  -7  -3 -10    2.00    3.00
  -7   3 -10    0.00    2.60
   7   3  10    4.60    3.80
  -7   3 -10    3.10    2.70
  -8  -3 -10   30.00    5.10
  -8  -3 -10   39.50    5.10
  -8   3 -10   45.70    5.00
   8   3  10   47.60    6.10
  -8   3 -10   34.30    4.80
  -9  -3 -10    7.80    2.50
  -9  -3 -10    5.50    2.40
  -9   3 -10    3.50    2.30
  -9   3 -10    6.00    2.30
   9   3  10    9.60    3.60
 -10  -3 -10   51.19    4.80
 -10  -3 -10   55.49    4.90
  10   3  10   68.09    5.80
 -10   3 -10   52.29    4.60
  13  -4 -10   21.90    5.70
  13   4 -10   21.70    5.70
  12  -4 -10   28.60    5.80
  12  -4 -10   39.50    7.60
 -12  -4  10   29.70    4.60
 -12   4  10   28.60    3.60
  12   4 -10   38.00    7.40
 -11  -4  10    4.90    2.70
  11  -4 -10    2.60    3.60
  11  -4 -10    2.60    4.80
  11   4 -10    5.60    4.80
 -11   4  10    4.60    2.10
 -10  -4  10   19.10    3.30
  10  -4 -10   11.80    4.10
 -10  -4  10   15.00    6.90
  10  -4 -10   25.30    4.70
 -10   4  10   19.50    2.70
  10   4 -10   11.40    5.90
 -10   4  10   17.80    4.80
 -10   4  10   21.10    4.10
  -9  -4  10    0.80    4.60
  -9  -4  10    9.80    3.20
   9  -4 -10    7.00    4.10
   9  -4 -10    5.00    4.00
  -9   4  10    8.10    2.90
  -9   4  10    4.60    2.10
   9   4 -10   12.50    5.30
   9   4 -10   14.20    4.00
  -9   4  10    9.50    4.60
   8  -4 -10  133.49   11.20
  -8  -4  10  107.69    9.10
   8  -4 -10  136.09   11.10
  -8  -4  10  109.39   11.00
   8   4 -10  124.59   10.60
   8   4 -10  128.79   11.80
  -8   4  10  116.09   10.60
  -8   4  10  119.99    8.40
  -8   4  10  125.79    8.90
   7  -4 -10    9.80    3.90
   7  -4 -10   11.70    4.30
  -7  -4  10    4.80    4.20
  -7  -4  10    3.70    3.10
   7   4 -10    3.90    4.60
  -7   4  10    9.30    2.80
  -7   4  10   13.30    5.50
   7   4 -10    8.90    4.10
  -7   4  10   11.00    4.40
   6  -4 -10  288.17   19.20
  -6  -4  10  268.27   17.80
   6  -4 -10  272.27   18.40
  -6  -4  10  281.17   19.20
  -6  -4  10  275.47   17.20
  -6   4  10  302.67   20.70
   6   4 -10  338.57   19.90
   6   4 -10  286.17   18.00
  -6   4  10  300.77   19.70
   6   4 -10  310.17   18.90
  -6   4  10  298.47   18.00
  -5  -4  10   37.10    4.80
  -5  -4  10   41.10    3.80
   5  -4 -10   36.60    5.90
   5  -4 -10   43.30    7.10
   5  -4 -10   33.10    5.40
   5   4 -10   39.00    7.60
  -5   4  10   46.90    6.50
  -5   4  10   44.00    4.50
   5   4 -10   37.00    6.80
   5   4 -10   47.50    5.10
  -5   4  10   47.50    7.00
  -4  -4  10   40.10    3.80
   4  -4 -10   34.50    5.90
  -4  -4  10   32.10    4.70
   4  -4 -10   36.30    5.40
  -4   4  10   39.00    4.30
   4   4 -10   38.30    7.10
   4   4 -10   38.40    6.40
   4   4 -10   40.90    5.00
  -4   4  10   45.80    7.30
  -4   4  10   35.30    6.00
  -3  -4  10   56.79    5.20
   3  -4 -10   52.29    6.10
  -3  -4  10   57.99    4.60
   3  -4 -10   57.09    6.50
   3   4 -10   50.19    5.00
  -3   4  10   60.49    6.10
  -3   4  10   55.39    6.40
   3   4 -10   41.90    7.30
  -3   4  10   65.49    7.40
  -3   4  10   57.99    5.10
   3   4 -10   51.49    6.60
   3   4 -10   52.19    5.50
   2  -4 -10   15.30    3.80
   2  -4 -10   14.00    2.90
  -2  -4  10   10.30    2.10
  -2   4  10    8.20    3.80
   2   4 -10   15.50    2.80
   2   4 -10   15.00    2.50
   2   4 -10   17.60    3.80
  -2   4  10   11.80    3.50
   2   4 -10   10.60    3.50
  -2   4  10   16.80    3.40
  -2   4  10   16.70    3.20
  -1  -4  10  140.69    8.70
   1  -4 -10  131.39    9.40
   1  -4 -10  133.39   10.50
   1  -4 -10  131.39    9.00
   1   4 -10  126.09    8.80
  -1   4  10  125.69   10.00
  -1   4  10  138.69   10.90
   1   4 -10  138.69    9.30
  -1   4  10  137.09    9.60
  -1   4  10  136.59    9.20
   1   4 -10  145.49   10.10
   1   4 -10  120.19    8.90
   1   4 -10  110.89    9.80
   0  -4  10   82.19    6.00
   0   4 -10   69.69    6.10
   0   4 -10   70.59    7.40
   0   4  10   85.79    6.60
   0   4 -10   67.79    7.80
   0   4  10   81.29    6.90
   0   4  10   75.29    7.30
   0   4  10   83.19    8.30
   0   4 -10   82.79    6.60
   0   4 -10   75.09    6.30
  -1  -4 -10   44.50    5.70
  -1  -4 -10   45.70    5.70
   1  -4  10   42.20    4.30
  -1   4 -10   33.90    4.60
  -1   4 -10   44.20    5.10
   1   4  10   35.90    4.80
  -1   4 -10   37.40    6.20
   1   4  10   34.80    5.40
  -1   4 -10   38.10    4.90
   1   4  10   42.60    5.40
  -2  -4 -10  309.17   18.80
  -2  -4 -10  311.97   18.90
   2  -4  10  313.77   18.30
  -2  -4 -10  256.07   23.00
   2   4  10  317.07   19.10
  -2   4 -10  286.47   19.10
  -2   4 -10  261.87   18.70
   2   4  10  300.47   19.50
  -2   4 -10  305.67   18.20
   2   4  10  309.87   19.20
  -2   4 -10  320.57   18.50
  -3  -4 -10   39.30    6.00
  -3  -4 -10   42.30    4.90
  -3  -4 -10   34.90   10.20
   3  -4  10   31.70    4.50
  -3  -4 -10   40.00    6.20
  -3   4 -10   40.20    5.10
   3   4  10   42.40    5.50
  -3   4 -10   43.40    4.40
  -3   4 -10   36.60    5.60
  -3   4 -10   38.20    6.10
   3   4  10   44.20    5.50
  -4  -4 -10   36.00   10.80
  -4  -4 -10   50.79    6.60
  -4  -4 -10   48.00    6.40
  -4  -4 -10   50.29    7.90
   4  -4  10   64.39    5.40
  -4  -4 -10   22.50    8.30
  -4  -4 -10   46.10    5.60
  -4   4 -10   45.30    6.30
  -4   4 -10   52.89    5.70
   4   4  10   51.89    6.40
  -4   4 -10   56.09    6.10
  -4   4 -10   51.39    6.40
   4   4  10   54.79    5.90
  -5  -4 -10   79.99    8.40
  -5  -4 -10   79.49   13.60
   5  -4  10  112.39    7.40
  -5  -4 -10   91.59    7.60
  -5  -4 -10   52.79   16.90
  -5  -4 -10   89.29    8.20
  -5  -4 -10   92.99    9.10
  -5   4 -10   99.99    7.80
  -5   4 -10   90.29    7.50
   5   4  10   96.39    7.70
   5   4  10  107.39    8.80
  -6  -4 -10   27.00    6.10
  -6  -4 -10   32.90    5.30
  -6  -4 -10   37.30    4.70
  -6  -4 -10   33.90    4.70
   6  -4  10   40.90    4.70
  -6   4 -10   38.70    5.30
  -6   4 -10   39.30    5.50
   6   4  10   33.00    6.20
  -7  -4 -10   32.00    4.20
  -7  -4 -10   32.90    5.20
  -7  -4 -10   31.40    5.70
   7   4  10   47.10    6.60
  -7   4 -10   38.70    5.20
  -7   4 -10   36.50    5.10
  -8  -4 -10   91.29    7.90
  -8  -4 -10   93.29    7.60
  -8   4 -10  107.39    7.60
   8   4  10  122.49    9.10
  -8   4 -10   98.09    7.50
  -9  -4 -10   44.30    4.90
  -9  -4 -10   46.60    4.80
   9   4  10   63.89    6.30
  -9   4 -10   42.30    4.70
  -9   4 -10   40.30    4.60
 -10  -4 -10   11.20    2.60
 -10  -4 -10    9.50    2.00
  10   4  10   13.40    3.00
 -10   4 -10    4.50    2.00
  12  -5 -10   15.40    3.30
 -12  -5  10   15.70    2.80
  12  -5 -10   17.30    5.20
  12   5 -10   24.70    5.00
 -12   5  10   14.60    2.20
  11  -5 -10   37.20    6.90
 -11  -5  10   25.20    4.80
  11   5 -10   43.30    8.30
 -11   5  10   31.80    3.90
  10  -5 -10   22.80    4.70
  10  -5 -10   36.80    7.20
 -10  -5  10   33.60    5.30
 -10   5  10   41.00    4.70
  10   5 -10   46.90    9.00
 -10   5  10   37.00    4.00
  10   5 -10   35.40    6.80
   9  -5 -10  152.68   11.60
   9  -5 -10  133.79   11.10
  -9  -5  10  132.69    9.90
  -9  -5  10  138.39   12.60
  -9   5  10  140.29    9.70
   9   5 -10  137.49   11.10
  -9   5  10  116.59   11.50
  -9   5  10  130.19    9.00
   9   5 -10  155.88   12.90
  -8  -5  10    3.20    3.20
   8  -5 -10    1.30    3.90
  -8   5  10   -0.70    3.90
  -8   5  10    0.80    2.60
   8   5 -10   -1.60    3.80
   8   5 -10    0.00    5.30
  -7  -5  10   88.79    8.00
   7  -5 -10  105.59    9.50
   7  -5 -10   85.49    9.10
   7   5 -10  108.39   11.10
  -7   5  10  108.19    7.90
  -7   5  10   95.99   14.60
   7   5 -10  112.39    9.80
  -7   5  10  109.99   10.00
   6  -5 -10  169.78   12.70
   6  -5 -10  189.08   13.90
  -6  -5  10  200.18   11.50
  -6  -5  10  172.68   12.30
  -6   5  10  167.38   15.10
  -6   5  10  175.88   14.00
  -6   5  10  186.68   12.30
   6   5 -10  218.08   15.00
   5  -5 -10    3.50    3.10
   5  -5 -10    2.40    4.10
   5  -5 -10    3.90    2.70
  -5   5  10   -0.30    4.40
  -5   5  10    2.40    2.20
  -5   5  10    3.80    3.90
   4  -5 -10  158.68   10.70
  -4  -5  10  149.39    9.60
  -4  -5  10  141.49   10.20
   4  -5 -10  148.49   10.80
   4   5 -10  155.88   10.70
   4   5 -10  139.19   10.10
   4   5 -10  129.09   11.90
   4   5 -10  184.88   11.80
  -4   5  10  161.78   11.70
  -4   5  10  147.49   10.20
  -4   5  10  152.38   12.70
  -3  -5  10    6.30    2.50
   3  -5 -10   11.50    2.80
  -3  -5  10   10.70    2.10
   3  -5 -10    8.50    3.70
  -3   5  10    7.90    2.60
   3   5 -10    9.50    2.90
  -3   5  10   11.00    4.00
   3   5 -10    5.90    3.70
   3   5 -10    8.60    2.70
   3   5 -10   11.40    3.60
  -3   5  10   11.30    3.10
  -3   5  10   14.70    4.90
   2  -5 -10  162.88   11.20
   2  -5 -10  150.58   10.30
  -2  -5  10  152.48    9.60
   2   5 -10  127.19   11.00
   2   5 -10  134.49    9.80
  -2   5  10  151.68   11.40
   2   5 -10  152.38   10.30
  -2   5  10  149.99   10.10
  -2   5  10  143.89   12.30
   2   5 -10  158.78   11.30
  -2   5  10  148.49   10.60
  -1  -5  10    0.60    1.90
   1  -5 -10    5.10    2.30
   1  -5 -10    2.00    2.50
   1   5 -10    4.50    3.20
  -1   5  10    4.10    3.40
   1   5 -10    2.20    2.90
  -1   5  10    0.50    2.20
   1   5 -10    4.20    3.20
   1   5 -10    1.90    2.20
  -1   5  10    6.80    4.10
  -1   5  10   -0.40    2.40
   1   5 -10    2.50    2.40
   0  -5  10   47.40    4.70
   0  -5 -10   46.90    5.80
   0  -5 -10   48.30    5.90
   0   5  10   49.50    6.00
   0   5  10   52.09    5.40
   0   5 -10   47.70    5.20
   0   5  10   49.90    6.10
   0   5  10   50.19    7.00
   0   5 -10   42.90    6.80
   0   5 -10   47.90    5.70
   0   5 -10   38.50    5.40
  -1  -5 -10  173.78   11.70
  -1  -5 -10  147.09   11.40
   1  -5  10  178.38   10.80
  -1   5 -10  159.28   10.90
  -1   5 -10  172.08   11.40
   1   5  10  162.48   11.70
   1   5  10  159.68   11.50
  -1   5 -10  164.68   11.00
  -1   5 -10  178.58   12.10
   1   5  10  166.98   12.20
  -2  -5 -10   11.80    3.20
   2  -5  10    6.30    2.30
  -2  -5 -10    7.70    3.30
  -2  -5 -10   -0.40    7.80
   2   5  10    5.20    3.60
  -2   5 -10    0.20    2.70
  -2   5 -10    7.70    3.00
  -2   5 -10   13.30    2.90
   2   5  10    7.00    3.30
   2   5  10    6.90    3.10
  -2   5 -10    8.40    3.60
  -3  -5 -10   34.20    6.80
  -3  -5 -10   44.10    6.60
  -3  -5 -10   38.30   10.40
   3  -5  10   46.80    5.20
  -3   5 -10   40.60    4.90
   3   5  10   42.20    6.00
   3   5  10   41.80    5.80
  -3   5 -10   45.70    5.80
  -3   5 -10   45.70    5.60
  -3   5 -10   45.00    6.70
  -4  -5 -10    1.20    2.50
  -4  -5 -10   -0.30    9.30
   4  -5  10    2.00    2.40
  -4  -5 -10   -0.30    3.20
  -4  -5 -10    7.90    3.60
  -4  -5 -10   -3.80    6.90
  -4   5 -10   -0.60    2.80
  -4   5 -10    0.00    2.70
  -4   5 -10    0.60    2.40
   4   5  10   -1.40    3.40
   4   5  10    2.50    2.80
  -5  -5 -10  115.99   10.30
  -5  -5 -10  130.29   10.30
  -5  -5 -10  123.39    9.40
   5  -5  10  151.58    9.40
  -5  -5 -10  119.19   10.90
  -5  -5 -10  105.39   15.60
   5   5  10  127.39    9.80
  -5   5 -10  129.19    9.90
  -5   5 -10  136.99    9.60
  -5   5 -10  137.79    9.10
   5   5  10  150.78   10.80
  -6  -5 -10   12.50    3.50
  -6  -5 -10    9.70    3.00
  -6  -5 -10    5.90    3.60
  -6  -5 -10   13.20    8.70
  -6  -5 -10   12.50    4.10
   6  -5  10   13.20    2.90
  -6   5 -10    9.50    3.10
   6   5  10   14.60    4.50
  -6   5 -10    7.40    3.00
   6   5  10   18.80    5.30
  -7  -5 -10   29.10    3.90
  -7  -5 -10   31.00    4.90
  -7  -5 -10   34.20    5.70
   7  -5  10   33.20    4.30
  -7  -5 -10   27.70    4.50
  -7   5 -10   19.50    3.40
  -7   5 -10   21.90    4.60
   7   5  10   34.20    6.00
  -8  -5 -10   -2.60    2.60
  -8  -5 -10   -0.70    2.60
  -8  -5 -10    2.20    2.30
  -8   5 -10    8.00    2.30
  -8   5 -10    2.50    2.50
   8   5  10    3.00    3.20
  -9  -5 -10   20.40    3.10
  -9  -5 -10   22.80    3.80
  -9   5 -10   22.60    3.80
   9   5  10   28.80    4.30
  12  -6 -10   42.90    5.20
  12  -6 -10   40.40    6.70
 -12  -6  10   32.50    4.20
  12   6 -10   37.30    6.50
  11  -6 -10   15.20    3.60
 -11  -6  10    9.10    2.50
  11   6 -10   20.20    4.80
 -10  -6  10   30.50    5.40
  10  -6 -10   41.30    6.80
  10   6 -10   48.90    9.10
  10   6 -10   29.90    4.80
 -10   6  10   50.79    4.80
   9  -6 -10   18.20    4.10
  -9  -6  10    9.30    3.40
   9  -6 -10   15.50    4.30
   9   6 -10   20.70    4.50
  -9   6  10   11.30    2.90
   9   6 -10    7.30    5.30
  -8  -6  10    7.90    3.30
   8  -6 -10   15.30    4.20
  -8   6  10   11.70    4.60
  -8   6  10   11.30    3.10
   8   6 -10    9.00    4.20
   8   6 -10    8.70    5.50
   7  -6 -10   -1.00    3.50
   7  -6 -10    2.80    3.40
  -7  -6  10    2.40    1.60
  -7   6  10    0.30    3.90
   7   6 -10    4.90    3.10
   7   6 -10    7.40    5.00
  -7   6  10    6.40    2.60
   7   6 -10    3.30    4.30
   6  -6 -10   59.89    7.20
  -6  -6  10   62.89    5.20
  -6  -6  10   59.29    6.40
   6  -6 -10   69.79    8.30
  -6   6  10   64.39    7.90
  -6   6  10   60.49    5.90
   6   6 -10   63.19    9.70
   6   6 -10   68.39    9.30
   6   6 -10   68.99    6.80
  -5  -6  10   45.60    4.60
  -5  -6  10   51.29    5.90
   5  -6 -10   48.80    6.30
   5  -6 -10   43.80    6.40
  -5   6  10   52.89    7.70
   5   6 -10   44.40    5.70
  -5   6  10   50.39    5.30
  -5   6  10   38.60    6.50
   5   6 -10   58.29    6.40
   5   6 -10   41.70    8.30
   5   6 -10   49.30    8.60
   4  -6 -10   39.90    6.00
  -4  -6  10   32.70    5.20
   4  -6 -10   39.70    6.40
  -4  -6  10   34.20    4.30
   4   6 -10   37.70    5.80
   4   6 -10   34.10    5.40
   4   6 -10   38.00    7.30
  -4   6  10   30.10    6.40
   4   6 -10   40.80    6.20
  -4   6  10   38.40    6.30
  -4   6  10   37.40    4.60
   3  -6 -10  474.55   28.20
  -3  -6  10  479.05   27.80
   3  -6 -10  493.65   28.80
   3   6 -10  478.35   28.40
  -3   6  10  450.55   30.30
   3   6 -10  497.35   29.20
  -3   6  10  485.65   28.70
  -3   6  10  481.45   29.60
  -3   6  10  470.45   28.30
   3   6 -10  443.46   29.20
   3   6 -10  422.86   28.00
   2  -6 -10   78.99    6.90
   2  -6 -10   68.09    8.60
  -2  -6  10   75.49    5.70
   2   6 -10   71.09    8.30
   2   6 -10   57.49    7.70
  -2   6  10   47.40    7.40
   2   6 -10   76.69    7.10
  -2   6  10   74.69    7.70
  -2   6  10   67.99    6.10
  -2   6  10   64.89    6.90
   2   6 -10   56.79    6.40
   1  -6 -10   11.40    3.00
  -1  -6  10   18.80    2.70
   1  -6 -10   12.70    3.00
  -1   6  10   10.40    3.40
   1   6 -10    9.00    3.30
  -1   6  10   13.30    3.30
   1   6 -10   17.50    3.10
   1   6 -10   15.50    4.30
  -1   6  10   14.10    4.00
  -1   6  10   12.50    4.80
   1   6 -10   13.80    3.30
   0  -6 -10   56.09    6.20
   0  -6 -10   37.60    6.10
   0  -6  10   48.40    4.90
   0   6 -10   48.30    5.80
   0   6  10   47.60    6.20
   0   6 -10   57.09    5.80
   0   6  10   40.40    6.20
   0   6 -10   49.40    7.60
   0   6  10   46.80    5.60
   0   6 -10   36.90    6.30
  -1  -6 -10   17.80    9.20
  -1  -6 -10   35.40    6.00
   1  -6  10   12.00    2.60
  -1  -6 -10   19.70    3.80
  -1   6 -10   13.50    3.30
  -1   6 -10   21.40    3.50
   1   6  10   25.20    4.80
   1   6  10   19.90    4.70
  -1   6 -10   19.40    4.30
  -1   6 -10   14.40    3.10
   1   6  10   29.70    5.60
  -2  -6 -10   52.39    6.80
  -2  -6 -10   32.10   10.00
  -2  -6 -10   40.30    7.10
   2  -6  10   56.29    5.30
  -2   6 -10   48.40    6.30
  -2   6 -10   51.09    5.60
   2   6  10   53.79    6.10
   2   6  10   41.30    6.60
   2   6  10   42.70    6.60
  -2   6 -10   49.50    5.80
  -2   6 -10   52.29    7.00
  -3  -6 -10   87.59   14.60
  -3  -6 -10   82.19    8.90
  -3  -6 -10   39.90   16.00
   3  -6  10  114.69    7.70
  -3  -6 -10  103.19    9.00
  -3   6 -10  102.89    7.60
   3   6  10   94.59    8.50
  -3   6 -10   94.69    8.20
   3   6  10  108.49    8.80
  -3   6 -10  101.09    8.10
  -3   6 -10   91.49    8.60
  -4  -6 -10   93.39    9.60
  -4  -6 -10   89.79   15.00
   4  -6  10  125.49    8.50
  -4  -6 -10  114.29    9.70
   4   6  10  112.89    9.50
  -4   6 -10  113.39    9.00
  -4   6 -10  134.09    9.00
   4   6  10  113.29    9.40
  -4   6 -10  108.09    8.20
  -5  -6 -10   31.60    4.60
  -5  -6 -10   12.10    8.30
  -5  -6 -10   33.80    5.20
   5  -6  10   21.60    4.70
  -5   6 -10   28.30    4.50
  -5   6 -10   30.50    5.60
   5   6  10   35.30    5.60
  -5   6 -10   30.20    5.40
   5   6  10   29.50    6.00
  -6  -6 -10    7.40    2.80
  -6  -6 -10    1.00    3.10
   6  -6  10    7.70    2.60
  -6  -6 -10    5.00    3.40
  -6  -6 -10    6.30    4.00
  -6   6 -10    2.70    2.50
  -6   6 -10    5.10    3.00
   6   6  10    9.10    4.10
  -6   6 -10    6.70    2.90
   6   6  10    3.50    2.80
  -7  -6 -10    1.70    3.10
  -7  -6 -10    0.00    3.20
   7  -6  10    0.60    2.20
  -7  -6 -10    4.10    2.90
  -7  -6 -10    3.00    2.50
   7   6  10    3.50    3.70
  -7   6 -10    0.00    2.30
  -7   6 -10    7.20    2.70
  -8  -6 -10   -0.20    2.50
  -8  -6 -10    0.30    2.50
  -8  -6 -10    2.90    2.30
   8   6  10    1.60    3.00
  -8   6 -10    5.90    2.30
  -8   6 -10    3.30    2.40
  -9  -6 -10   16.90    3.50
  -9   6 -10   24.70    3.40
   9   6  10   22.30    4.20
 -11  -7  10   61.69    5.20
  11  -7 -10   58.79    6.30
  11  -7 -10   49.70    7.40
  11   7 -10   56.99    7.40
 -10  -7  10    3.20    2.90
  10  -7 -10    0.90    3.10
  10   7 -10    4.10    3.60
  10   7 -10    6.80    4.40
 -10   7  10    4.30    2.20
   9  -7 -10   80.29    8.40
  -9  -7  10   72.29    7.20
   9   7 -10   81.19    8.80
  -9   7  10   81.39    6.50
   9   7 -10   95.49   10.00
   8  -7 -10    4.20    3.40
  -8  -7  10    2.60    3.40
   8   7 -10    0.60    4.10
  -8   7  10    5.70    7.40
  -8   7  10    1.30    2.50
   8   7 -10    0.70    5.20
  -7  -7  10   26.30    4.10
  -7  -7  10   19.70    3.40
   7  -7 -10   13.00    3.80
   7  -7 -10   23.30    4.10
  -7   7  10   21.50    4.40
  -7   7  10   26.70    5.40
   7   7 -10   25.00    5.10
   7   7 -10   21.00    3.80
   7   7 -10   29.30    6.30
  -6  -7  10   51.19    4.70
   6  -7 -10   44.40    7.50
  -6  -7  10   42.70    5.80
   6  -7 -10   45.20    6.60
   6   7 -10   45.40    6.30
  -6   7  10   54.39    7.80
   6   7 -10   36.50    6.20
   6   7 -10   50.69    8.60
   6   7 -10   32.90    6.20
  -6   7  10   53.49    5.30
  -5  -7  10  220.18   14.80
   5  -7 -10  228.78   15.10
  -5  -7  10  243.18   14.20
   5   7 -10  253.67   16.90
   5   7 -10  232.98   15.10
  -5   7  10  238.58   14.80
   5   7 -10  195.28   14.90
   5   7 -10  220.98   17.00
  -5   7  10  253.77   16.80
  -4  -7  10  179.88   10.90
  -4  -7  10  161.88   11.50
   4  -7 -10  178.68   12.20
   4  -7 -10  164.68   11.80
   4   7 -10  194.88   14.00
   4   7 -10  181.08   12.00
  -4   7  10  164.28   13.20
  -4   7  10  181.18   12.20
   4   7 -10  145.19   11.70
   4   7 -10  147.59   13.40
  -4   7  10  174.58   11.50
   3  -7 -10    8.40    4.10
  -3  -7  10    6.10    2.20
   3  -7 -10    5.70    2.90
   3   7 -10    7.50    3.30
  -3   7  10    8.40    5.10
   3   7 -10    5.10    3.30
   3   7 -10    5.30    4.00
  -3   7  10    6.30    3.90
  -3   7  10    6.10    2.60
  -3   7  10    7.00    3.10
   3   7 -10    5.40    4.50
   2  -7 -10  191.18   13.90
  -2  -7  10  194.28   11.80
   2  -7 -10  187.38   12.50
  -2   7  10  192.48   12.90
  -2   7  10  168.98   14.80
   2   7 -10  149.59   13.30
  -2   7  10  189.38   13.80
   2   7 -10  177.88   12.40
   2   7 -10  183.28   14.00
  -2   7  10  187.28   12.50
   2   7 -10  189.08   13.00
  -1  -7  10    0.60    2.20
   1  -7 -10    4.50    3.00
  -1   7  10    4.90    3.50
  -1   7  10    3.60    2.90
   1   7 -10   -1.80    3.10
  -1   7  10    8.80    4.80
  -1   7  10    0.20    2.60
   1   7 -10   -0.20    3.80
   1   7 -10    1.10    2.90
   1   7 -10   -0.30    3.30
   0  -7 -10  164.68   11.50
   0  -7 -10  176.38   11.60
   0  -7  10  169.38   10.70
   0   7  10  161.58   12.60
   0   7 -10  161.58   11.20
   0   7 -10  163.38   11.70
   0   7 -10  152.88   12.60
   0   7 -10  145.99   11.10
   0   7  10  160.68   11.50
   0   7  10  158.98   11.80
  -1  -7 -10  105.59    8.90
  -1  -7 -10  105.09    8.70
   1  -7  10  107.79    7.50
   1   7  10   95.19    8.80
  -1   7 -10   99.59    8.20
   1   7  10   98.89    8.40
  -1   7 -10   91.79    8.70
  -1   7 -10   90.39    8.10
  -1   7 -10  102.99    9.50
   1   7  10  100.29    9.50
  -2  -7 -10   60.59    7.70
   2  -7  10   71.89    6.00
  -2  -7 -10   72.49    7.60
  -2   7 -10   51.99    7.50
   2   7  10   70.59    7.00
  -2   7 -10   63.89    7.40
   2   7  10   59.69    7.20
  -2   7 -10   62.49    6.80
  -2   7 -10   59.39    6.30
  -3  -7 -10  108.59   16.70
  -3  -7 -10  183.68   11.90
  -3  -7 -10  166.18   12.30
   3  -7  10  188.28   11.00
   3   7  10  170.28   12.00
   3   7  10  166.08   12.00
  -3   7 -10  142.99   11.60
  -3   7 -10  143.39   11.20
  -3   7 -10  152.38   10.90
  -4  -7 -10   20.50    8.40
   4  -7  10   23.00    3.40
  -4  -7 -10   24.10    4.20
  -4  -7 -10   13.20    4.10
   4   7  10   29.90    5.70
   4   7  10   32.60    4.90
  -4   7 -10   15.20    3.10
  -4   7 -10   29.70    5.70
  -4   7 -10   20.90    3.50
   5  -7  10   79.29    6.50
  -5  -7 -10   74.39    7.80
  -5  -7 -10   74.89    8.10
  -5   7 -10   76.59    6.80
  -5   7 -10   67.29    7.20
   5   7  10   76.19    7.50
   5   7  10   76.29    7.30
  -5   7 -10   69.09    6.10
  -6  -7 -10    9.60    4.40
   6  -7  10    7.70    2.50
  -6  -7 -10    7.80    3.30
  -6  -7 -10    4.70    3.40
  -6  -7 -10    9.20    2.80
   6   7  10    7.10    3.30
  -6   7 -10    4.00    2.40
   6   7  10    7.30    2.90
  -6   7 -10    6.60    2.70
  -6   7 -10    7.80    3.00
   7  -7  10   12.00    2.40
  -7  -7 -10    6.40    3.60
  -7  -7 -10   15.00    3.40
  -7  -7 -10   11.60    2.60
  -7  -7 -10   12.60    3.00
  -7   7 -10    9.20    2.50
   7   7  10   10.50    3.20
  -7   7 -10   11.90    2.60
  -8  -7 -10    1.10    2.20
  -8   7 -10    5.70    2.30
   8   7  10    0.60    2.20
  11  -8 -10   52.69    5.10
 -11  -8  10   51.29    5.20
  11  -8 -10   30.10    5.80
  11   8 -10   45.70    6.10
 -10  -8  10    2.30    2.30
  10  -8 -10    1.60    2.80
  10   8 -10   -4.50    3.70
  10   8 -10   -0.90    3.00
   9  -8 -10   -3.80    2.80
  -9  -8  10    0.40    2.90
  -9   8  10    0.80    2.20
   9   8 -10   -1.00    3.60
   9   8 -10    1.60    4.30
  -8  -8  10    8.10    2.00
   8  -8 -10   10.80    3.70
  -8  -8  10    6.60    3.10
   8   8 -10   10.10    5.00
   8   8 -10    6.90    4.30
  -8   8  10    8.20    2.60
  -7  -8  10    6.70    1.90
   7  -8 -10    6.70    3.40
   7  -8 -10    6.60    3.40
  -7  -8  10    4.10    3.10
   7   8 -10    5.00    3.30
  -7   8  10    8.40    2.90
   7   8 -10    6.10    4.50
   7   8 -10    2.40    4.80
  -6  -8  10    0.80    2.00
   6  -8 -10    3.00    3.70
   6  -8 -10   -0.10    3.00
  -6  -8  10    3.20    3.00
   6   8 -10    5.30    4.70
  -6   8  10    3.60    2.60
   6   8 -10    5.20    4.40
  -6   8  10    3.80    4.20
   6   8 -10    4.60    3.60
   6   8 -10    0.10    3.30
  -5  -8  10   17.60    3.70
   5  -8 -10   12.60    3.50
  -5  -8  10   13.00    2.40
   5   8 -10    1.80    4.40
   5   8 -10   18.90    4.00
  -5   8  10   16.10    4.90
   5   8 -10    8.30    3.60
   5   8 -10   12.20    4.90
  -5   8  10   11.80    3.00
   4  -8 -10    2.30    2.90
  -4  -8  10    3.80    2.20
  -4  -8  10    6.90    3.40
   4  -8 -10    4.90    3.80
   4   8 -10    2.80    4.20
   4   8 -10    2.80    3.50
   4   8 -10    4.30    4.70
   4   8 -10    7.30    3.50
  -4   8  10    6.90    2.90
  -4   8  10    2.30    4.20
  -3  -8  10   20.10    2.90
   3  -8 -10   24.60    4.50
  -3  -8  10   17.10    3.70
   3  -8 -10   26.10    5.40
   3   8 -10   17.30    4.60
   3   8 -10   18.70    3.70
   3   8 -10   23.70    5.40
  -3   8  10   11.50    3.10
   3   8 -10   12.80    3.50
  -3   8  10   16.90    4.60
  -3   8  10   13.80    3.40
   2  -8 -10  217.48   15.30
  -2  -8  10  209.68   13.40
   2  -8 -10  218.78   14.10
   2   8 -10  205.18   14.10
   2   8 -10  210.38   15.90
  -2   8  10  222.48   14.20
  -2   8  10  196.98   15.10
   2   8 -10  216.88   14.60
  -2   8  10  214.38   14.60
   1  -8 -10   83.89    7.80
  -1  -8  10   84.99    6.80
   1   8 -10   83.89    7.90
  -1   8  10   88.69    7.50
   1   8 -10   80.49    9.80
   1   8 -10   80.29    8.20
  -1   8  10   90.99    8.90
  -1   8  10   87.89    8.10
   1   8 -10   76.19    7.60
   0  -8 -10    3.30    3.20
   0  -8 -10    0.80    3.10
   0  -8  10    1.40    2.20
   0   8 -10    1.10    3.10
   0   8  10    1.40    3.80
   0   8 -10    9.30    4.60
   0   8  10    3.40    3.50
   0   8 -10    1.00    3.70
   0   8 -10    8.30    3.50
   0   8  10    3.70    3.10
  -1  -8 -10   18.90    3.90
   1  -8  10   19.80    4.20
  -1  -8 -10   15.90    3.70
   1   8  10   18.50    4.20
  -1   8 -10   17.30    3.80
   1   8  10   17.50    4.60
  -1   8 -10   17.40    4.50
   1   8  10   16.60    3.90
  -1   8 -10   10.80    3.40
  -1   8 -10   14.10    3.70
   2  -8  10    9.40    2.60
  -2  -8 -10   23.00    4.10
  -2   8 -10    3.70    3.30
  -2   8 -10    9.80    3.80
   2   8  10    8.80    3.40
  -2   8 -10    4.10    3.50
   2   8  10   16.90    3.80
  -2   8 -10    1.20    3.00
  -3  -8 -10    0.70    7.80
  -3  -8 -10    6.30    3.60
   3  -8  10    7.80    2.60
  -3  -8 -10    8.50    3.60
  -3   8 -10    7.00    3.40
  -3   8 -10   12.90    3.60
  -3   8 -10    5.10    3.30
   3   8  10    5.30    3.60
   3   8  10    9.20    3.60
   4  -8  10    3.30    2.40
  -4  -8 -10    0.50    3.50
  -4  -8 -10    2.30    3.40
   4   8  10   -0.60    3.10
   4   8  10    1.10    3.10
  -4   8 -10    8.20    3.00
   5  -8  10    3.30    2.40
  -5  -8 -10    3.50    3.10
  -5  -8 -10    2.40    3.40
  -5   8 -10    3.20    2.80
   5   8  10    3.70    2.90
  -5   8 -10    1.00    2.60
   5   8  10    1.40    3.00
  -5   8 -10    4.00    2.70
  -6  -8 -10   -2.30    3.00
   6  -8  10   -0.90    2.00
  -6  -8 -10   -3.00    3.80
  -6  -8 -10   -2.10    2.60
   6   8  10    1.90    2.50
   6   8  10    0.10    2.80
  -6   8 -10    3.10    2.30
  -6   8 -10    2.70    2.50
  -6   8 -10    1.00    2.30
  -7  -8 -10   21.60    3.70
   7  -8  10   29.40    3.40
  -7  -8 -10   39.10    4.90
  -7  -8 -10   15.30    3.00
   7   8  10   29.80    4.60
  -7   8 -10   23.60    3.90
  -8  -8 -10    6.90    2.30
  -8   8 -10   11.20    2.30
   8   8  10    9.90    2.60
  10  -9 -10    3.60    2.40
 -10  -9  10    4.80    3.40
  10   9 -10    3.50    3.40
  -9  -9  10   39.40    4.90
   9  -9 -10   49.70    5.60
  -9   9  10   46.40    4.30
   9   9 -10   41.20    6.30
   9   9 -10   47.30    6.90
  -8  -9  10   16.20    3.30
  -8  -9  10   14.50    3.10
   8  -9 -10   18.10    3.50
   8   9 -10   10.50    4.60
   8   9 -10   18.80    4.30
  -8   9  10   18.20    3.60
   7  -9 -10   88.49   10.20
  -7  -9  10   71.09    6.80
   7  -9 -10   67.39    7.10
  -7  -9  10   70.29    5.50
   7   9 -10   89.49    7.30
   7   9 -10   81.59    9.20
   7   9 -10   65.79    9.00
   7   9 -10   61.59    7.80
  -7   9  10   85.49    6.30
   6  -9 -10    3.40    3.20
   6  -9 -10    3.50    2.90
  -6  -9  10    1.60    1.90
  -6  -9  10    2.80    3.30
   6   9 -10   -1.30    3.30
   6   9 -10    5.90    4.50
   6   9 -10    1.10    4.30
  -6   9  10    4.00    2.50
   6   9 -10    3.60    3.40
  -5  -9  10   68.29    5.50
   5  -9 -10   65.29    6.70
  -5  -9  10   61.89    6.60
   5  -9 -10   65.49    7.90
   5   9 -10   60.49    9.00
   5   9 -10   46.20    7.20
  -5   9  10   69.19    6.00
   5   9 -10   58.29    8.50
   5   9 -10   73.39    7.30
  -4  -9  10   -0.60    2.10
   4  -9 -10    0.70    2.70
  -4  -9  10    0.50    3.10
   4   9 -10   -1.80    3.90
   4   9 -10   -3.20    4.30
  -4   9  10   -2.80    2.50
  -4   9  10    2.00    4.00
   4   9 -10    2.50    3.40
   4   9 -10    2.80    3.50
  -3  -9  10    6.00    3.00
   3  -9 -10    2.90    2.90
  -3  -9  10    2.80    2.20
   3  -9 -10    2.80    3.80
   3   9 -10    0.90    3.50
  -3   9  10    3.50    3.20
   3   9 -10    5.20    4.30
  -3   9  10    9.10    4.50
   3   9 -10    6.90    3.70
  -3   9  10    0.50    2.70
  -2  -9  10    6.90    2.40
   2  -9 -10    5.10    3.10
   2  -9 -10    4.80    4.30
  -2   9  10    5.70    3.10
   2   9 -10    4.60    4.50
  -2   9  10    1.80    3.80
   2   9 -10    3.50    3.40
   2   9 -10    5.90    3.50
  -2   9  10    4.70    2.80
   1  -9 -10   27.20    5.80
  -1  -9  10   31.90    4.50
  -1   9  10   34.80    6.00
   1   9 -10   26.50    4.50
  -1   9  10   21.10    4.90
   1   9 -10   25.00    5.20
  -1   9  10   27.60    5.10
   1   9 -10   24.60    4.30
   1   9 -10   34.00    4.50
   0  -9 -10    6.80    3.20
   0  -9  10    6.80    2.50
   0   9  10   10.90    4.20
   0   9  10    5.30    3.30
   0   9 -10    3.80    3.80
   0   9 -10    4.90    3.40
   0   9  10    9.30    3.40
   0   9 -10   10.40    3.70
   0   9 -10    3.80    3.80
  -1  -9 -10    3.30    3.00
  -1  -9 -10    1.80    3.20
   1  -9  10    4.00    2.30
  -1   9 -10    2.40    3.40
   1   9  10    7.00    3.10
  -1   9 -10    3.10    3.30
   1   9  10   -0.50    3.10
  -1   9 -10    1.90    3.30
  -1   9 -10    6.40    3.80
  -2  -9 -10    4.20    3.30
   2  -9  10    2.40    2.30
  -2  -9 -10    6.10    3.40
   2   9  10    3.60    3.50
  -2   9 -10    2.90    3.10
  -2   9 -10    3.90    3.20
   2   9  10    2.50    3.00
  -2   9 -10    7.70    3.50
   3  -9  10   51.49    5.00
  -3  -9 -10   41.20    6.50
  -3  -9 -10   45.30    7.00
  -3   9 -10   42.70    5.70
   3   9  10   44.30    6.50
  -3   9 -10   37.80    5.50
  -3   9 -10   45.60    6.30
   3   9  10   49.60    6.10
  -4  -9 -10    8.20    3.50
  -4  -9 -10    7.90    3.20
   4  -9  10    6.30    2.30
  -4   9 -10    3.80    2.80
  -4   9 -10    4.50    2.70
   4   9  10    6.50    3.40
  -4   9 -10    4.80    2.80
   4   9  10    6.30    3.30
  -5  -9 -10   46.70    6.00
  -5  -9 -10   66.69    6.80
   5  -9  10   63.49    5.10
  -5   9 -10   52.69    5.50
  -5   9 -10   50.89    5.50
  -5   9 -10   48.40    5.20
   5   9  10   62.89    6.20
   5   9  10   61.39    6.10
   6  -9  10    2.70    1.80
  -6  -9 -10    4.00    2.80
  -6  -9 -10    0.50    3.30
  -6  -9 -10   -0.30    2.30
   6   9  10    1.10    2.40
   6   9  10    2.90    2.40
  -6   9 -10    0.80    2.30
  -6   9 -10    0.60    2.10
  -7  -9 -10    0.90    2.30
   7   9  10    3.40    2.70
  -7   9 -10    2.80    1.90
   8 -10 -10   -0.60    2.20
  -8 -10  10   -1.70    2.30
  -8  10  10   -0.20    1.60
   8  10 -10    3.80    3.10
   8  10 -10    0.70    3.20
  -7 -10  10   29.80    3.30
  -7 -10  10   18.90    3.30
   7  10 -10   23.80    3.80
  -7  10  10   26.60    3.70
   7  10 -10   22.20    4.40
   7  10 -10   28.70    4.90
   6 -10 -10    0.60    2.70
  -6 -10  10    4.90    1.80
   6 -10 -10    2.50    2.60
  -6 -10  10    2.80    3.00
   6  10 -10   -3.40    3.90
  -6  10  10   -1.80    2.00
   6  10 -10   -2.20    3.40
   6  10 -10    3.80    3.30
   6  10 -10   -4.80    3.00
   5 -10 -10   33.10    5.60
   5 -10 -10   27.60    3.60
  -5 -10  10   31.00    5.00
  -5 -10  10   32.40    3.90
   5  10 -10   29.30    4.80
   5  10 -10   27.70    5.60
   5  10 -10   25.50    5.20
   5  10 -10   27.50    5.50
  -5  10  10   29.80    4.20
  -4 -10  10   -0.90    2.00
   4 -10 -10    2.90    2.60
  -4 -10  10    5.60    3.10
   4  10 -10   -0.60    3.40
   4  10 -10    2.40    3.70
   4  10 -10   -2.70    4.30
  -4  10  10   -0.90    2.40
   3 -10 -10   79.19    6.70
  -3 -10  10   62.49    6.80
  -3 -10  10   76.69    5.70
   3  10 -10   60.09    7.00
  -3  10  10   68.19    6.70
  -3  10  10   66.09    6.10
   3  10 -10   59.49    7.20
   3  10 -10   56.19    9.00
   2 -10 -10    6.90    3.70
  -2 -10  10    6.60    2.30
   2 -10 -10    7.40    2.90
  -2  10  10   11.10    3.30
  -2  10  10   12.40    3.00
   2  10 -10    8.20    3.20
   2  10 -10    3.30    3.50
   2  10 -10    5.00    4.40
   1 -10 -10   92.99    7.80
  -1 -10  10   98.09    7.00
   1 -10 -10   92.19    9.30
  -1  10  10   92.79    8.20
   1  10 -10   97.29    9.20
   1  10 -10   85.69    8.30
   1  10 -10   79.89    7.80
  -1  10  10   95.69    7.50
   0 -10 -10    2.70    2.80
   0 -10  10    2.00    2.20
   0  10 -10   -1.50    3.50
   0  10  10   -0.80    2.80
   0  10 -10   -1.10    3.20
   0  10  10    2.10    2.80
   0  10 -10   -0.90    2.90
   0  10 -10    3.10    3.60
  -1 -10 -10   20.60    3.60
   1 -10  10   21.20    4.00
   1  10  10   13.20    3.30
  -1  10 -10   14.60    3.40
   1  10  10   27.50    5.50
  -1  10 -10   31.70    4.10
  -1  10 -10   18.50    3.70
  -2 -10 -10    4.90    3.10
   2 -10  10    5.00    2.20
  -2 -10 -10   -1.20    2.50
  -2  10 -10    3.70    3.10
  -2  10 -10    5.10    3.20
  -2  10 -10    5.30    3.00
   2  10  10    5.10    3.20
   2  10  10    4.00    2.90
   3 -10  10    1.50    2.00
  -3 -10 -10    1.00    2.60
  -3 -10 -10   -0.80    2.90
   3  10  10    0.40    2.60
   3  10  10    1.10    2.60
  -3  10 -10    5.00    2.90
  -3  10 -10    2.50    2.80
  -3  10 -10   -1.90    2.50
  -4 -10 -10   16.80    3.30
   4 -10  10   15.30    3.30
  -4 -10 -10   12.70    3.00
  -4  10 -10    7.70    2.60
   4  10  10   16.90    3.50
  -4  10 -10   12.10    3.00
  -4  10 -10    9.80    2.50
   4  10  10   20.40    3.40
  -5 -10 -10    4.30    2.80
   5 -10  10    6.50    1.80
  -5 -10 -10    7.10    3.80
  -5 -10 -10    0.30    2.30
  -5  10 -10   -1.00    1.90
  -5  10 -10    0.70    2.30
   5  10  10    7.50    2.20
   5  10  10    2.40    2.40
  -7 -11  10   25.90    3.70
   7  11 -10   25.80    5.20
  -7  11  10   26.30    3.60
  -6 -11  10    4.20    2.40
  -6 -11  10    4.80    1.60
   6 -11 -10    9.10    2.30
   6  11 -10   12.40    3.80
   6  11 -10    4.70    2.90
  -6  11  10    7.00    2.00
  -5 -11  10   25.90    3.30
  -5 -11  10   24.10    3.20
   5 -11 -10   19.40    4.10
   5  11 -10   21.70    3.70
   5  11 -10   22.10    4.50
   5  11 -10   20.70    3.60
  -5  11  10   26.10    3.50
  -4 -11  10   18.30    3.30
  -4 -11  10   15.40    2.90
   4  11 -10   25.50    4.80
   4  11 -10   12.20    3.50
   4  11 -10   11.00    3.40
  -3 -11  10    2.50    2.90
   3 -11 -10    2.00    2.30
  -3 -11  10    3.00    1.90
   3  11 -10    3.70    3.10
   3  11 -10    3.60    3.90
  -3  11  10    0.90    2.30
   3  11 -10    3.70    3.30
  -2 -11  10    7.60    2.10
  -2 -11  10    3.50    2.80
   2 -11 -10    5.80    2.50
   2  11 -10    3.10    3.90
  -2  11  10    4.80    2.20
   2  11 -10    1.10    3.20
  -2  11  10   12.20    3.10
   2  11 -10    6.90    3.50
  -1 -11  10    6.70    2.10
   1 -11 -10    5.10    2.50
   1 -11 -10    6.80    3.40
  -1  11  10    4.50    2.30
   1  11 -10    8.80    3.30
   1  11 -10    2.30    3.00
  -1  11  10    8.10    2.80
   1  11 -10    4.30    3.80
   0 -11  10    2.90    2.00
   0 -11 -10    9.30    3.70
   0 -11 -10    1.30    2.40
   0  11  10    3.30    2.40
   0  11 -10    4.30    3.10
   0  11 -10    1.60    3.00
   0  11 -10    2.70    3.50
   0  11  10    1.50    2.50
   1 -11  10    7.00    2.10
  -1 -11 -10   13.00    4.00
  -1 -11 -10    6.80    2.60
   1  11  10    5.50    2.50
  -1  11 -10    4.50    2.90
  -1  11 -10    8.10    3.00
   1  11  10   11.20    2.60
  -1  11 -10    8.10    3.20
   2 -11  10    3.30    1.90
  -2 -11 -10    6.10    2.60
   2  11  10    4.90    2.40
  -2  11 -10    3.60    2.70
  -2  11 -10    5.30    2.80
   2  11  10    0.20    2.40
  -3 -11 -10   11.00    3.70
  -3 -11 -10   20.50    3.10
   3 -11  10   14.60    3.10
   3  11  10   15.80    3.20
  -3  11 -10    9.30    2.40
  -3  11 -10   11.70    2.70
  -3  11 -10   12.00    2.60
   3  11  10   21.40    3.60
   4 -11  10    1.60    1.50
  -4 -11 -10   -0.50    3.00
  -4 -11 -10    0.90    2.30
   4  11  10    0.60    2.00
  -4  11 -10    0.60    1.90
  -4 -12  10    8.40    1.70
  -4 -12  10    3.00    2.20
   4  12 -10   11.40    2.90
  -3 -12  10    8.70    2.30
  -3 -12  10    6.00    1.70
   3  12 -10    5.30    2.70
   3  12 -10    2.90    2.70
   3  12 -10    7.50    5.00
  -3  12  10    7.00    1.90
  -2 -12  10    8.20    1.80
   2 -12 -10    6.50    2.10
  -2 -12  10    1.40    2.30
   2  12 -10    6.40    2.80
  -2  12  10    7.70    2.20
   2  12 -10    8.80    2.90
   1 -12 -10   25.60    4.00
  -1 -12  10   21.50    3.80
  -1 -12  10   31.70    3.30
   1  12 -10   22.70    3.50
   1  12 -10   27.10    4.70
  -1  12  10   28.90    3.40
  -1  12  10   30.40    4.10
   0 -12  10   13.50    2.70
   0 -12 -10    8.10    2.20
   0 -12  10    6.70    2.20
   0  12 -10   10.70    2.80
   0  12  10   10.90    2.70
   0  12 -10   14.30    2.90
   0  12  10   15.30    2.60
   1 -12  10    7.60    1.70
  -1 -12 -10    6.30    2.20
  -1  12 -10    8.10    2.50
   1  12  10    6.20    2.30
 -13   0  11    0.40    1.60
  12   0 -11   -0.80    3.50
 -12   0  11   -0.50    1.90
 -11   0  11   43.40    5.20
  11   0 -11   53.59    8.00
 -10   0  11    7.20    4.20
 -10   0  11    1.80    2.40
  10   0 -11   -6.00    4.10
   9   0 -11   53.79    8.60
  -9   0  11   43.70    5.40
  -9   0  11   47.70    7.60
   8   0 -11   -0.10    2.80
  -8   0  11   -1.10    2.40
   8   0 -11    2.50    4.60
  -8   0  11   -0.90    3.80
  -8   0  11   -4.60    5.00
   7   0 -11  281.67   17.60
   7   0 -11  293.37   18.90
  -7   0  11  265.67   16.60
  -7   0  11  268.67   18.50
  -7   0  11  241.78   19.40
   6   0 -11    0.90    3.00
   6   0 -11   -0.80    4.20
  -6   0  11   -1.80    2.10
  -6   0  11   -3.10    4.00
   6   0 -11    2.40    3.00
  -6   0  11   -4.40    3.20
  -5   0  11   58.39    5.10
  -5   0  11   58.09    7.90
  -5   0  11   65.49    6.80
   5   0 -11   56.89    6.80
   5   0 -11   71.69    7.10
   5   0 -11   59.49    8.10
  -4   0  11    0.10    3.60
   4   0 -11    1.20    3.80
  -4   0  11   -4.00    2.70
   4   0 -11   -0.70    3.00
   3   0 -11    3.80    2.90
   3   0 -11    8.20    3.30
  -3   0  11    8.20    3.50
  -3   0  11    6.40    2.90
   3   0 -11    9.10    2.00
   3   0 -11    9.60    3.30
  -2   0  11    2.30    2.60
   2   0 -11   -0.50    3.00
   2   0 -11    1.20    2.60
  -2   0  11   -1.00    3.20
   2   0 -11    2.70    1.90
   2   0 -11    1.80    3.10
   1   0 -11   31.70    4.10
   1   0 -11   19.60    3.30
   1   0 -11   22.10    3.80
   1   0 -11   22.20    3.60
  -1   0  11   25.90    4.20
   0   0 -11   -0.50    2.40
   0   0 -11    0.60    2.60
   0   0 -11    1.10    2.90
   0   0 -11   -0.20    1.90
  -1   0 -11    9.00    3.10
  -1   0 -11    9.30    3.00
  -1   0 -11    6.30    2.10
  -2   0 -11    1.30    2.00
  -2   0 -11    1.50    2.30
  -2   0 -11   -1.20    2.90
  -2   0 -11    1.10    2.20
  -3   0 -11   11.40    3.30
  -3   0 -11   13.00    2.50
  -3   0 -11    7.40    2.30
   3   0  11   16.60    3.10
  -4   0 -11    1.20    2.10
  -4   0 -11    0.40    2.30
  -4   0 -11    1.40    3.00
   4   0  11   -0.60    2.50
  -5   0 -11  341.87   21.50
  -5   0 -11  372.46   21.40
  -5   0 -11  349.27   21.70
   6   0  11   -0.10    2.80
  -6   0 -11    2.70    2.50
  -6   0 -11   -1.60    2.30
  -7   0 -11  146.39   10.30
  -7   0 -11  146.29   10.30
   7   0  11  168.68   11.20
   8   0  11    3.50    2.90
  -8   0 -11   -1.10    2.30
  -8   0 -11   -1.20    2.20
  -9   0 -11   65.29    5.40
  -9   0 -11   59.59    5.20
 -10   0 -11    1.20    1.80
 -13  -1  11   33.50    3.70
 -13   1  11   31.80    3.40
 -12  -1  11    2.90    2.20
  12  -1 -11   -3.80    3.50
  12   1 -11    2.70    3.80
 -12   1  11    2.70    1.80
  11  -1 -11   44.70    7.80
 -11  -1  11   43.20    5.10
  11   1 -11   48.10    8.10
 -11   1  11   37.80    4.60
 -10  -1  11   -0.10    2.60
  10  -1 -11    0.10    4.10
 -10  -1  11   -2.80    4.10
  10  -1 -11    2.60    4.60
  10   1 -11    3.40    4.70
 -10   1  11    0.00    2.50
 -10   1  11    1.70    4.20
  -9  -1  11   49.60    7.20
   9  -1 -11   65.89    8.50
  -9  -1  11   39.00    5.40
   9  -1 -11   39.50    7.50
  -9   1  11   50.89    7.20
  -9   1  11   44.90    5.20
   9   1 -11   58.69    8.90
   8  -1 -11   -2.10    4.50
  -8  -1  11   -0.90    2.60
   8  -1 -11   -3.00    3.40
  -8  -1  11    3.30    4.20
  -8  -1  11   -3.60    5.60
   8   1 -11    3.60    4.90
   8   1 -11    2.10    3.10
  -8   1  11   -0.80    2.30
  -8   1  11    2.60    2.00
  -8   1  11   -0.10    4.00
  -8   1  11   -5.10    7.80
  -7  -1  11    1.40    2.40
  -7  -1  11    4.30    4.90
   7  -1 -11    3.50    3.50
   7  -1 -11   -1.40    3.00
   7  -1 -11    0.00    4.10
  -7  -1  11   -0.70    3.60
  -7   1  11    1.10    3.60
  -7   1  11    1.50    2.10
  -7   1  11    3.80    4.50
   7   1 -11   -1.90    4.20
  -7   1  11   -0.80    1.80
   7   1 -11    1.60    3.40
  -6  -1  11    3.90    2.30
  -6  -1  11    8.20    4.90
   6  -1 -11    6.10    3.70
   6  -1 -11   -0.70    3.90
  -6  -1  11   -0.90    3.40
   6  -1 -11    6.00    3.10
   6   1 -11   -1.10    3.20
   6   1 -11   -1.00    4.20
  -6   1  11    3.80    2.00
  -6   1  11    6.30    4.80
  -6   1  11    4.60    2.00
  -6   1  11    3.50    3.70
  -5  -1  11  394.36   25.70
  -5  -1  11  385.96   26.30
  -5  -1  11  409.06   24.40
   5  -1 -11  432.46   25.90
   5  -1 -11  426.26   25.10
  -5   1  11  380.26   25.80
  -5   1  11  407.66   26.70
   5   1 -11  428.26   25.30
   5   1 -11  445.36   26.00
  -5   1  11  398.56   24.60
   4  -1 -11   14.10    4.00
   4  -1 -11   13.50    3.30
  -4  -1  11   11.00    2.20
  -4  -1  11   14.40    3.50
   4  -1 -11   16.80    3.40
  -4  -1  11    9.30    4.10
  -4   1  11    5.30    4.00
   4   1 -11   12.00    4.10
   4   1 -11    5.70    3.00
   4   1 -11   12.60    3.20
  -4   1  11   12.80    3.70
  -4   1  11   11.40    2.20
  -3  -1  11   59.59    9.40
   3  -1 -11   62.29    6.90
  -3  -1  11   69.29    6.40
   3  -1 -11   67.39    7.10
   3  -1 -11   73.29    7.60
  -3  -1  11   72.29    5.40
   3   1 -11   71.09    7.60
   3   1 -11   86.99    7.60
  -3   1  11   80.99    7.90
  -3   1  11   70.79    5.50
   3   1 -11   72.29    5.80
  -3   1  11   82.19    6.90
   2  -1 -11    6.30    3.50
   2  -1 -11    4.30    3.20
   2  -1 -11    2.00    2.00
   2  -1 -11    2.20    2.70
   2   1 -11    5.40    3.30
  -2   1  11    2.30    3.50
  -2   1  11    2.30    1.70
   2   1 -11    3.80    2.00
   2   1 -11    0.40    3.00
  -2   1  11    0.90    2.70
   1  -1 -11  100.49    8.30
   1  -1 -11  112.79    8.90
   1  -1 -11  100.69    9.10
   1  -1 -11  117.99    7.80
  -1   1  11  111.89    7.60
   1   1 -11   98.69    8.60
  -1   1  11  101.39    8.30
   1   1 -11  128.89    8.90
  -1   1  11  107.39    9.20
   1   1 -11  110.19    7.90
   0  -1 -11    1.20    2.50
   0  -1 -11    1.00    2.00
   0  -1 -11    1.40    3.10
   0  -1 -11    6.00    3.00
   0   1 -11    1.80    2.90
   0   1  11    0.20    1.70
   0   1 -11    0.80    2.10
   0   1 -11   -0.70    2.50
   0   1  11    1.80    2.40
  -1  -1 -11  534.25   31.20
  -1  -1 -11  477.35   34.20
  -1  -1 -11  545.75   31.50
  -1  -1 -11  472.95   31.10
  -1   1 -11  542.95   30.90
   1   1  11  543.75   31.40
  -1   1 -11  547.45   31.20
  -1   1 -11  526.85   31.50
  -2  -1 -11   -1.50    2.00
  -2  -1 -11   -0.40    2.20
  -2  -1 -11    0.70    2.50
  -2  -1 -11    0.40    3.00
   2   1  11   -2.80    2.20
  -2   1 -11   -1.90    2.10
  -2   1 -11    1.00    2.80
  -2   1 -11   -2.80    2.00
  -3  -1 -11  173.88   11.30
  -3  -1 -11  186.98   12.40
  -3  -1 -11  171.98   11.70
  -3   1 -11  185.08   12.10
  -3   1 -11  166.48   11.60
  -3   1 -11  183.68   11.50
   3   1  11  176.48   12.00
  -4  -1 -11    6.90    2.30
  -4  -1 -11    8.70    2.90
  -4  -1 -11   14.90    3.50
  -4   1 -11   11.20    2.90
   4   1  11   11.00    3.20
  -4   1 -11   10.30    3.10
  -4   1 -11    9.40    2.70
  -5  -1 -11   88.79    7.30
  -5  -1 -11   84.19    7.70
  -5  -1 -11   93.89    7.00
  -5   1 -11   82.49    7.20
  -5   1 -11   87.79    7.10
  -5   1 -11   87.09    7.60
   5   1  11   91.89    7.90
  -6  -1 -11    1.50    2.30
  -6  -1 -11    5.90    2.70
  -6  -1 -11    1.80    2.70
  -6   1 -11    2.10    2.50
  -6   1 -11    0.40    2.30
   6   1  11    2.60    3.20
  -7  -1 -11   -0.50    2.40
  -7  -1 -11   -0.60    2.30
  -7   1 -11    1.60    2.40
   7   1  11   -0.90    2.80
  -7   1 -11    0.50    2.40
  -8  -1 -11   -0.80    2.30
  -8  -1 -11    0.90    2.20
  -8   1 -11    3.60    2.60
   8   1  11    3.10    2.70
  -8   1 -11    3.60    2.30
  -9  -1 -11    0.10    2.00
  -9  -1 -11    0.30    1.90
   9   1  11   -0.10    2.40
  -9   1 -11   -0.90    2.00
  -9   1 -11    1.30    2.20
 -10  -1 -11    4.50    1.90
 -10   1 -11    0.80    1.70
 -13  -2  11   15.20    2.20
 -13   2  11   20.20    3.40
  12  -2 -11   -1.70    4.00
 -12  -2  11   -3.00    2.00
 -12   2  11   -0.90    1.60
  12   2 -11   -0.90    3.90
 -11  -2  11   18.50    3.10
  11  -2 -11   15.20    4.50
  11  -2 -11   15.60    5.30
  11   2 -11   16.30    5.00
 -11   2  11   16.80    2.70
  10  -2 -11   81.19    9.10
 -10  -2  11   76.79    9.30
  10  -2 -11   81.79    8.50
  10  -2 -11   88.99    9.10
 -10  -2  11   76.29    6.80
 -10   2  11   83.89    9.00
  10   2 -11   83.89   10.00
 -10   2  11   71.29    6.30
   9  -2 -11  200.38   14.50
   9  -2 -11  181.28   13.70
  -9  -2  11  169.08   14.30
  -9  -2  11  185.98   12.40
  -9   2  11  186.08   14.50
   9   2 -11  208.48   15.20
  -9   2  11  196.78   12.20
  -9   2  11  182.48   12.10
  -8  -2  11    2.60    2.70
   8  -2 -11    1.90    4.30
  -8  -2  11    3.40    4.30
   8  -2 -11    8.50    4.10
  -8   2  11    4.90    2.20
  -8   2  11   10.30    4.60
  -8   2  11    2.80    2.30
   8   2 -11    6.30    5.20
   8   2 -11    1.90    3.30
  -7  -2  11   94.79    7.80
  -7  -2  11   87.49    9.50
  -7  -2  11   90.89   11.10
   7  -2 -11  125.39    8.30
  -7   2  11  106.79    7.50
   7   2 -11  111.59    9.10
  -7   2  11   81.99   10.60
  -7   2  11   95.19    7.10
  -7   2  11   89.99    9.30
   7   2 -11   98.39   10.90
  -6  -2  11    1.50    2.40
  -6  -2  11    1.20    3.50
  -6  -2  11    0.90    4.40
   6  -2 -11   -1.20    2.90
   6  -2 -11    4.30    3.90
   6   2 -11   -0.10    3.50
   6   2 -11    3.30    4.50
  -6   2  11    3.10    2.10
  -6   2  11    3.30    3.60
  -6   2  11    4.70    4.30
   5  -2 -11  282.37   19.50
   5  -2 -11  313.47   20.30
  -5  -2  11  302.67   18.80
   5  -2 -11  322.07   19.50
  -5  -2  11  309.27   20.10
   5   2 -11  318.07   19.90
  -5   2  11  341.47   21.50
  -5   2  11  320.47   19.00
  -5   2  11  311.97   20.50
  -4  -2  11    1.20    2.20
   4  -2 -11    1.40    3.10
   4  -2 -11    3.40    3.00
  -4  -2  11    2.20    3.50
   4  -2 -11    1.40    3.70
  -4   2  11    2.10    1.90
   4   2 -11    2.90    3.60
   4   2 -11    5.80    3.40
  -4   2  11    0.40    3.10
   4   2 -11    2.10    2.10
  -4   2  11   -1.00    3.70
  -3  -2  11  212.58   13.00
   3  -2 -11  225.68   14.00
   3  -2 -11  211.58   14.60
   3  -2 -11  191.18   13.70
  -3   2  11  210.68   14.40
   3   2 -11  197.58   14.30
   3   2 -11  211.68   13.20
  -3   2  11  216.08   13.20
   3   2 -11  216.28   14.10
  -3   2  11  193.88   15.10
   2  -2 -11   17.80    4.40
   2  -2 -11   17.50    2.50
   2  -2 -11   13.60    3.50
  -2  -2  11   14.50    2.30
   2  -2 -11   14.10    3.10
  -2   2  11   17.10    3.30
  -2   2  11   14.80    4.30
   2   2 -11   15.90    3.70
   2   2 -11   16.50    2.70
  -2   2  11   17.20    3.70
   2   2 -11   13.00    3.40
   1  -2 -11    7.70    2.30
   1  -2 -11    7.60    2.80
   1  -2 -11    7.90    3.20
  -1   2  11   12.40    3.10
  -1   2  11   12.50    2.60
   1   2 -11   11.00    2.50
  -1   2  11    7.40    3.60
   1   2 -11   14.40    3.60
   1   2 -11    3.50    3.00
   0  -2 -11  129.49   10.00
   0  -2 -11  136.39    9.70
   0  -2 -11  156.48   10.80
   0   2  11  145.69   10.40
   0   2 -11  143.99   10.60
   0   2 -11  148.19    9.80
   0   2 -11  147.19    9.40
   0   2  11  143.39    9.70
   0   2  11  138.19   11.10
  -1  -2 -11   33.80    5.50
  -1  -2 -11   29.70    4.80
  -1  -2 -11   41.90    6.00
  -1   2 -11   30.10    4.30
  -1   2 -11   34.70    4.60
  -1   2 -11   36.40    6.00
   1   2  11   26.70    4.20
   1   2  11   31.80    4.40
  -2  -2 -11   63.59    6.70
  -2  -2 -11   65.39    6.30
  -2  -2 -11   67.99    7.00
  -2  -2 -11   55.89   10.80
  -2   2 -11   65.19    5.80
  -2   2 -11   56.89    6.90
   2   2  11   74.09    6.20
  -2   2 -11   67.69    6.10
   2   2  11   65.39    6.10
  -3  -2 -11   22.30    4.00
  -3  -2 -11   19.90    2.70
  -3  -2 -11   17.30    3.10
   3   2  11   24.00    4.60
  -3   2 -11   12.30    2.70
  -3   2 -11   21.70    3.10
  -3   2 -11   23.00    3.90
  -4  -2 -11   27.50    5.50
  -4  -2 -11   38.40    4.70
  -4  -2 -11   31.10    5.30
  -4  -2 -11   31.30    6.20
  -4   2 -11   38.00    5.80
   4   2  11   39.10    5.50
  -4   2 -11   31.60    5.20
  -4   2 -11   41.30    5.10
  -5  -2 -11   42.70    6.50
  -5  -2 -11   48.40    5.80
  -5  -2 -11   45.50    5.20
  -5   2 -11   51.59    5.70
  -5   2 -11   52.69    5.90
  -5   2 -11   56.69    5.80
   5   2  11   51.79    6.40
  -6  -2 -11    2.60    2.70
  -6  -2 -11    5.10    2.40
  -6  -2 -11    4.40    3.00
  -6   2 -11    4.80    2.90
   6   2  11    5.50    3.50
  -6   2 -11    2.60    2.50
  -7  -2 -11   74.49    6.40
  -7  -2 -11   67.39    6.60
   7   2  11   92.99    7.80
  -7   2 -11   75.89    6.60
  -7   2 -11   80.39    6.80
  -8  -2 -11   -1.50    2.10
  -8  -2 -11    0.50    2.30
   8   2  11   -1.30    2.90
  -8   2 -11   -2.10    2.30
  -8   2 -11    0.10    2.30
  -9  -2 -11   19.70    3.80
  -9  -2 -11   21.50    3.40
  -9   2 -11   18.00    3.40
  -9   2 -11   14.70    2.60
   9   2  11   29.50    4.60
 -10   2 -11    2.40    1.60
 -13  -3  11   30.00    3.40
 -12  -3  11   -1.70    1.90
  12  -3 -11    4.90    4.10
  12   3 -11    1.30    3.90
 -12   3  11    0.80    1.60
  11  -3 -11    7.60    4.90
 -11  -3  11    4.90    2.50
  11  -3 -11    6.70    3.50
  11  -3 -11    4.40    3.20
 -11   3  11    3.80    1.90
  11   3 -11    7.40    4.60
 -10  -3  11   36.90    5.30
  10  -3 -11   46.30    7.60
  10  -3 -11   45.90    7.10
 -10   3  11   47.40    4.60
  10   3 -11   43.60    8.70
  -9  -3  11   19.90    3.60
   9  -3 -11   15.70    4.40
  -9  -3  11   25.20    5.70
   9  -3 -11   21.60    4.80
  -9   3  11   20.50    4.10
   9   3 -11   19.70    4.30
  -9   3  11   21.40    5.10
   9   3 -11   19.70    5.60
  -9   3  11   20.50    2.90
   8  -3 -11    4.50    4.60
  -8  -3  11    6.00    4.40
   8  -3 -11    6.90    4.10
  -8  -3  11    4.40    2.90
   8   3 -11   10.70    5.30
   8   3 -11    7.30    3.90
  -8   3  11   10.00    4.60
  -8   3  11    4.80    2.50
  -8   3  11    7.10    2.30
   7  -3 -11    7.90    4.80
  -7  -3  11   19.40    6.20
  -7  -3  11   11.70    4.40
  -7  -3  11    5.30    2.90
   7   3 -11   13.30    5.30
  -7   3  11   10.90    2.80
  -7   3  11    4.50    4.00
  -7   3  11    9.20    5.20
   7   3 -11    4.90    3.60
   6  -3 -11  152.88   10.80
  -6  -3  11  141.69   11.50
   6  -3 -11  137.59   11.50
   6  -3 -11  160.98   12.20
  -6  -3  11  141.59   10.20
  -6   3  11  145.09   13.30
   6   3 -11  159.28   12.80
  -6   3  11  163.18   10.20
   6   3 -11  157.08   11.40
  -6   3  11  149.59   12.10
   5  -3 -11  172.78   13.00
  -5  -3  11  164.78   11.10
   5  -3 -11  180.88   11.90
   5  -3 -11  174.08   12.20
   5   3 -11  176.48   12.40
  -5   3  11  178.88   14.10
  -5   3  11  151.78   11.10
   5   3 -11  176.88   13.20
  -5   3  11  178.88   13.00
   5   3 -11  171.58   11.30
  -4  -3  11    0.20    2.20
   4  -3 -11    4.00    3.10
   4  -3 -11    0.40    3.50
   4  -3 -11    4.30    2.90
   4   3 -11   -6.20    3.20
   4   3 -11    2.50    2.40
  -4   3  11    3.20    3.60
  -4   3  11    2.00    2.00
  -4   3  11    3.60    4.10
   4   3 -11    1.70    3.60
   3  -3 -11  285.07   19.30
   3  -3 -11  326.97   19.70
  -3  -3  11  311.67   18.70
   3   3 -11  346.17   19.90
  -3   3  11  322.07   20.30
  -3   3  11  293.87   20.80
   3   3 -11  317.37   19.00
  -3   3  11  312.17   19.00
   3   3 -11  278.27   19.90
  -2  -3  11    3.40    2.00
  -2  -3  11    1.80    1.60
   2  -3 -11    3.20    3.30
   2  -3 -11    3.80    2.00
   2  -3 -11    2.50    2.80
   2   3 -11    5.20    3.50
   2   3 -11    4.50    3.00
   2   3 -11    4.90    2.30
  -2   3  11    1.30    3.10
  -2   3  11    2.00    3.70
  -2   3  11    6.80    2.40
   1  -3 -11  225.88   14.50
  -1  -3  11  216.58   12.80
  -1  -3  11  202.48   13.00
   1  -3 -11  212.18   13.90
   1  -3 -11  214.58   13.30
  -1   3  11  220.88   14.10
   1   3 -11  227.08   14.30
   1   3 -11  176.78   14.00
   1   3 -11  218.38   13.50
   1   3 -11  197.28   13.00
  -1   3  11  217.68   13.60
  -1   3  11  203.18   15.10
  -1   3  11  212.38   14.40
   0  -3 -11    6.50    2.60
   0  -3 -11    9.80    3.00
   0  -3 -11   13.00    3.70
   0   3 -11   12.60    3.60
   0   3  11   12.10    3.00
   0   3  11   11.50    3.60
   0   3 -11    7.90    3.30
   0   3  11    9.30    4.30
   0   3  11    8.70    2.60
  -1  -3 -11  237.48   15.20
  -1  -3 -11  209.08   14.50
  -1  -3 -11  233.38   14.50
  -1   3 -11  228.98   14.20
   1   3  11  236.48   15.30
   1   3  11  229.68   14.70
   1   3  11  224.78   14.80
  -1   3 -11  217.38   14.90
  -1   3 -11  230.08   14.50
  -2  -3 -11   79.09    7.20
  -2  -3 -11   79.39    6.90
  -2  -3 -11   44.40   10.70
  -2  -3 -11   62.89    8.30
   2  -3  11   80.89    5.90
   2   3  11   81.39    7.00
  -2   3 -11   80.19    7.60
  -2   3 -11   80.59    6.60
  -2   3 -11   78.09    7.00
   2   3  11   83.19    6.80
  -3  -3 -11   50.39   15.10
   3  -3  11   81.19    6.20
  -3  -3 -11   78.19    7.20
  -3  -3 -11   72.99    7.30
  -3  -3 -11   73.69    8.00
  -3  -3 -11   50.09    9.60
  -3   3 -11   79.49    7.40
  -3   3 -11   79.69    7.00
  -3   3 -11   84.29    6.60
   3   3  11   76.69    7.30
   3   3  11   78.89    6.70
  -4  -3 -11   22.00    4.10
  -4  -3 -11   29.70    5.70
  -4  -3 -11   33.60    5.90
  -4  -3 -11   30.40    4.60
   4   3  11   26.50    4.40
  -4   3 -11   30.30    5.40
  -4   3 -11   29.80    4.90
   4   3  11   27.60    5.60
  -4   3 -11   28.60    5.20
  -5  -3 -11    0.60    3.00
  -5  -3 -11    3.80    3.30
  -5  -3 -11    7.00    3.40
  -5  -3 -11    6.60    2.60
  -5   3 -11    4.00    2.70
  -5   3 -11    4.00    2.60
   5   3  11    5.80    3.60
  -6  -3 -11   40.50    6.10
  -6  -3 -11   36.80    5.70
  -6  -3 -11   43.90    5.20
  -6   3 -11   41.50    5.40
   6   3  11   46.60    6.50
  -6   3 -11   60.09    5.50
  -7  -3 -11    1.90    2.30
  -7  -3 -11    2.90    2.70
  -7  -3 -11   -0.50    2.50
  -7   3 -11    0.40    2.50
   7   3  11   -0.40    3.40
  -7   3 -11    2.20    2.50
  -8  -3 -11   -0.40    2.20
  -8  -3 -11    0.90    2.20
  -8   3 -11   -0.70    2.10
  -8   3 -11    0.60    2.10
   8   3  11    0.80    3.10
  -9  -3 -11    6.90    2.00
  -9  -3 -11    8.00    2.10
  -9   3 -11   10.70    2.20
   9   3  11    8.60    2.90
  -9   3 -11    6.60    2.50
 -12  -4  11   15.20    2.50
  12  -4 -11   16.00    4.60
  12   4 -11   11.20    4.10
  11  -4 -11    3.50    3.20
  11  -4 -11    2.60    4.80
 -11  -4  11   -0.20    2.40
  11   4 -11    2.30    4.30
 -11   4  11    0.90    1.60
  10  -4 -11   21.60    4.50
 -10  -4  11   15.60    3.40
  10  -4 -11   30.10    4.80
  10   4 -11   21.20    6.00
 -10   4  11   23.30    3.60
  -9  -4  11   15.50    3.30
   9  -4 -11   22.70    4.80
   9  -4 -11   25.20    5.10
   9   4 -11   20.10    4.40
  -9   4  11   20.10    4.00
  -9   4  11   30.50    6.10
   9   4 -11   20.20    5.50
   8  -4 -11   11.10    4.80
   8  -4 -11   15.50    4.60
  -8  -4  11   12.70    3.40
  -8   4  11   12.90    3.00
  -8   4  11    4.30    4.20
   8   4 -11   17.40    5.30
   8   4 -11    3.90    4.00
   7  -4 -11  334.77   21.10
  -7  -4  11  296.77   19.30
  -7   4  11  324.87   21.50
   7   4 -11  308.57   21.40
  -7   4  11  321.97   19.50
   6  -4 -11    5.40    2.80
  -6  -4  11    2.90    3.10
   6  -4 -11    6.80    4.10
   6  -4 -11    4.50    3.50
   6   4 -11    1.50    3.80
  -6   4  11    2.20    4.80
  -6   4  11    6.70    2.50
  -6   4  11    1.50    3.90
   6   4 -11    2.00    4.60
   5  -4 -11   71.69    8.50
   5  -4 -11   56.29    6.60
   5  -4 -11   52.69    7.00
  -5  -4  11   57.69    5.80
  -5   4  11   53.29    5.30
   5   4 -11   56.49    7.80
   5   4 -11   48.50    8.40
  -5   4  11   48.40    7.30
  -5   4  11   58.39    7.40
   5   4 -11   55.39    5.90
   4  -4 -11    8.10    3.30
   4  -4 -11    4.20    3.20
   4  -4 -11    2.20    4.20
  -4  -4  11    7.30    1.80
  -4  -4  11    7.50    2.50
  -4   4  11   -2.10    4.50
   4   4 -11    2.40    3.70
   4   4 -11    0.70    2.50
  -4   4  11    7.40    3.90
  -4   4  11    5.40    2.30
   4   4 -11    7.60    4.60
  -3  -4  11   51.69    4.30
   3  -4 -11   35.80    6.70
  -3  -4  11   47.70    5.10
   3  -4 -11   37.30    6.40
   3   4 -11   52.69    7.20
  -3   4  11   58.49    7.90
  -3   4  11   48.40    6.50
  -3   4  11   36.40    4.60
   3   4 -11   49.20    5.60
   3   4 -11   44.10    7.10
  -2  -4  11    2.30    2.40
   2  -4 -11   -2.00    3.50
  -2  -4  11    5.40    1.90
   2  -4 -11    2.20    2.90
   2   4 -11    3.50    2.50
   2   4 -11   10.30    3.80
  -2   4  11    7.70    2.60
   2   4 -11   11.40    3.90
  -2   4  11   15.10    3.90
  -2   4  11    4.70    2.70
   2   4 -11    8.80    2.40
  -2   4  11   -1.30    3.90
   1  -4 -11   -0.80    2.60
  -1  -4  11    6.30    1.90
   1  -4 -11    7.80    3.90
   1  -4 -11    4.20    2.30
   1   4 -11    2.10    2.50
  -1   4  11    5.90    4.10
  -1   4  11    7.20    2.80
   1   4 -11    9.50    2.50
   1   4 -11    7.20    3.80
   1   4 -11    2.30    3.20
  -1   4  11    6.50    2.60
  -1   4  11    3.00    3.20
   0  -4 -11  215.58   15.10
   0  -4  11  228.68   13.50
   0  -4 -11  221.68   14.30
   0  -4 -11  227.48   14.00
   0   4  11  214.78   14.10
   0   4  11  208.28   14.40
   0   4 -11  213.18   13.70
   0   4 -11  231.38   15.00
   0   4  11  213.98   15.90
   0   4 -11  201.68   13.70
   0   4  11  224.98   15.00
   0   4 -11  215.08   14.20
  -1  -4 -11  101.19    8.70
   1  -4  11  120.69    7.60
  -1  -4 -11  104.79    8.40
  -1  -4 -11   72.69   12.70
  -1  -4 -11  102.49    9.70
   1   4  11  108.19    8.30
   1   4  11  109.29    8.70
   1   4  11   98.79    9.10
   2  -4  11  157.28    9.70
  -2  -4 -11  156.08   10.80
  -2  -4 -11  134.19   11.90
  -2  -4 -11  127.69   17.10
  -2  -4 -11  152.38   10.50
  -2   4 -11  144.69   11.10
   2   4  11  140.09   11.20
  -2   4 -11  138.09    9.90
   2   4  11  137.89   10.60
  -2   4 -11  145.69   10.50
  -2   4 -11  144.29   10.10
   2   4  11  162.18   10.70
  -3  -4 -11  162.58   12.50
  -3  -4 -11  167.68   11.70
  -3  -4 -11  155.38   11.50
  -3  -4 -11  124.79   16.30
  -3  -4 -11  182.88   20.80
   3  -4  11  185.48   10.80
  -3   4 -11  161.38   11.50
   3   4  11  168.28   11.60
  -3   4 -11  159.38   11.10
  -3   4 -11  156.08   11.90
   3   4  11  175.38   12.00
  -4  -4 -11    7.10    4.20
  -4  -4 -11    9.50    3.40
   4  -4  11    3.30    2.30
  -4  -4 -11    5.80    3.30
  -4  -4 -11    9.50    4.10
  -4  -4 -11    8.50    8.00
  -4   4 -11    7.50    2.90
   4   4  11    3.90    2.50
   4   4  11    5.50    3.40
  -4   4 -11    6.20    2.80
  -4   4 -11    4.00    3.30
  -5  -4 -11    6.00    3.30
  -5  -4 -11    4.80    3.10
  -5  -4 -11    2.40    2.50
  -5  -4 -11    2.10    3.50
  -5   4 -11    5.80    2.80
   5   4  11    1.70    3.40
  -5   4 -11   -0.10    2.60
  -6  -4 -11    6.60    2.80
  -6  -4 -11   10.00    3.20
  -6  -4 -11    5.30    2.50
  -6   4 -11    2.10    2.70
  -6   4 -11    2.50    2.50
   6   4  11    3.80    3.60
  -7  -4 -11   62.89    5.70
  -7  -4 -11   50.79    6.10
  -7  -4 -11   64.69    6.20
   7   4  11   74.49    7.00
  -7   4 -11   62.19    6.00
  -7   4 -11   63.89    5.70
  -8  -4 -11    0.00    2.00
  -8  -4 -11   -0.50    2.30
  -8   4 -11   -0.20    2.10
  -8   4 -11    1.90    2.20
   8   4  11    2.30    2.80
  -9  -4 -11   13.20    2.20
  -9  -4 -11   11.60    2.30
  -9   4 -11   18.30    3.30
   9   4  11   11.00    2.70
 -12  -5  11   55.39    4.80
  12  -5 -11   58.09    7.50
  12   5 -11   64.49    7.20
 -11  -5  11    9.40    2.60
  11  -5 -11    4.80    3.30
  11  -5 -11    5.00    4.30
  11   5 -11   12.40    4.70
 -10  -5  11    3.20    2.60
  10  -5 -11    2.90    3.60
  10  -5 -11    3.70    3.40
 -10   5  11    2.90    2.30
  10   5 -11    0.80    4.60
  10   5 -11    2.70    3.60
   9  -5 -11   34.70    5.30
  -9  -5  11   36.20    5.70
   9  -5 -11   39.50    7.10
  -9   5  11   41.80    4.80
   9   5 -11   44.50    6.90
   9   5 -11   46.30    7.00
   8  -5 -11   14.80    4.70
  -8  -5  11   29.70    5.40
   8  -5 -11   25.60    5.00
  -8   5  11   13.30    4.60
   8   5 -11   23.00    5.90
   8   5 -11   30.40    5.10
  -8   5  11   25.70    4.40
   7  -5 -11   23.00    5.10
  -7  -5  11   24.40    3.80
   7  -5 -11   18.10    4.40
   7   5 -11   20.10    5.70
  -7   5  11   22.60    4.30
  -7   5  11   20.80    5.20
   7   5 -11   15.00    4.70
  -6  -5  11   32.80    5.30
   6  -5 -11   29.80    5.60
   6  -5 -11   35.00    6.30
  -6   5  11   27.60    4.30
   6   5 -11   26.60    5.30
  -6   5  11   38.10    6.00
   6   5 -11   25.00    4.60
   6   5 -11   30.50    6.10
   5  -5 -11   88.49    9.80
   5  -5 -11   80.29    8.40
  -5  -5  11   92.09    6.20
   5  -5 -11   89.59    7.70
  -5  -5  11   83.89    7.30
   5   5 -11   78.79    9.60
  -5   5  11   88.99    9.00
  -5   5  11   97.19    7.20
   5   5 -11   95.49    9.50
   5   5 -11   81.49    7.60
  -5   5  11   89.09   10.80
  -4  -5  11  110.99    8.40
   4  -5 -11  117.89    9.30
   4  -5 -11  119.89    9.30
  -4  -5  11  115.09    7.60
  -4   5  11  107.99   10.00
  -4   5  11  115.29    8.30
   4   5 -11  119.89    8.90
   4   5 -11  100.79   10.50
  -4   5  11   76.79   10.90
   4   5 -11  121.69   10.10
  -3  -5  11  150.38   10.30
   3  -5 -11  164.68   11.50
   3  -5 -11  146.69   11.20
  -3  -5  11  154.78    9.80
  -3   5  11  154.38   12.00
  -3   5  11  145.09   10.40
   3   5 -11  153.08   10.80
   3   5 -11  156.48   11.80
  -3   5  11  144.09   13.00
   3   5 -11  151.58   12.00
   2  -5 -11   25.50    4.70
  -2  -5  11   28.70    3.70
   2  -5 -11   30.80    5.30
   2   5 -11   27.20    5.30
  -2   5  11   27.70    5.30
  -2   5  11   20.80    4.40
  -2   5  11   25.00    4.70
   2   5 -11   14.30    4.20
  -2   5  11   36.30    6.00
   2   5 -11   20.70    3.30
   2   5 -11   25.90    4.60
   1  -5 -11   84.29    7.60
  -1  -5  11   93.79    6.50
   1  -5 -11   87.59    9.10
   1   5 -11   85.49    7.50
  -1   5  11   87.19    7.20
   1   5 -11   87.59    8.80
   1   5 -11   86.49    6.90
  -1   5  11   78.19    8.00
  -1   5  11   83.29    7.80
   1   5 -11   77.89    8.10
  -1   5  11   88.49    9.40
   0  -5  11   39.20    4.40
   0  -5 -11   39.80    6.30
   0  -5 -11   36.00    5.40
   0  -5 -11   33.50    5.30
   0   5  11   31.10    5.00
   0   5 -11   37.90    5.60
   0   5 -11   30.90    5.20
   0   5  11   33.70    6.00
   0   5 -11   29.70    4.90
   0   5  11   32.80    5.70
   0   5 -11   37.70    6.90
   1  -5  11  100.09    7.20
  -1  -5 -11  102.69    8.10
  -1  -5 -11  104.09    8.60
  -1  -5 -11   88.29   10.30
  -1  -5 -11   68.49   12.10
   1   5  11   97.99    8.30
  -1   5 -11   87.29    7.70
   1   5  11   82.79    8.70
  -1   5 -11  103.69    7.60
   1   5  11  103.59    8.10
  -1   5 -11   91.49    8.10
  -1   5 -11   90.49    8.80
   2  -5  11  111.29    7.40
  -2  -5 -11   90.29   13.80
  -2  -5 -11   92.39    8.80
  -2  -5 -11   95.79   10.00
  -2  -5 -11   91.69    8.50
  -2   5 -11  100.39    8.40
   2   5  11  106.09    8.50
  -2   5 -11  103.69    9.20
  -2   5 -11   98.99    7.70
  -2   5 -11   94.19    7.70
   2   5  11   97.69    8.40
  -3  -5 -11   12.70    3.70
  -3  -5 -11   12.40    3.60
   3  -5  11   14.00    2.70
  -3  -5 -11   12.30    4.60
  -3  -5 -11   12.90    8.10
  -3   5 -11   12.50    3.40
   3   5  11   21.90    4.20
  -3   5 -11   20.50    3.50
  -3   5 -11    7.60    3.60
   3   5  11   16.30    3.50
  -3   5 -11    7.90    3.10
  -4  -5 -11   78.59    8.00
  -4  -5 -11   39.60   10.10
  -4  -5 -11   62.39    9.10
  -4  -5 -11   70.19    7.80
   4  -5  11   88.99    6.40
  -4   5 -11   77.49    7.30
   4   5  11   77.49    7.50
   4   5  11   88.19    7.30
  -4   5 -11   73.39    6.80
  -5  -5 -11  143.09   11.30
  -5  -5 -11  137.79   11.00
  -5  -5 -11  111.69   17.80
   5  -5  11  179.58   10.30
  -5  -5 -11  138.29   11.60
   5   5  11  164.78   11.00
  -5   5 -11  149.88   10.90
   5   5  11  173.08   11.60
  -5   5 -11  150.98   10.60
  -6  -5 -11   47.80    5.90
  -6  -5 -11   39.80    6.30
  -6  -5 -11   44.80    5.40
  -6  -5 -11   45.20    6.40
   6   5  11   46.40    6.50
  -6   5 -11   42.40    5.50
  -6   5 -11   45.80    5.20
  -7  -5 -11    0.80    2.40
  -7  -5 -11    2.80    2.20
  -7  -5 -11    0.20    2.80
  -7   5 -11    2.40    2.40
   7   5  11    6.30    3.30
  -7   5 -11    1.00    2.40
  -8  -5 -11   11.10    2.50
  -8  -5 -11   16.90    3.30
  -8   5 -11   20.80    3.00
  -8   5 -11   16.10    2.50
   8   5  11   25.90    4.70
  -9  -5 -11    8.60    2.50
   9   5  11   11.90    3.50
  -9   5 -11    4.80    1.80
 -11  -6  11    1.00    2.10
  11  -6 -11    1.10    2.90
  11  -6 -11    4.40    3.90
  11   6 -11    3.10    3.90
  10  -6 -11   10.40    3.60
 -10  -6  11   16.40    2.90
  10   6 -11   22.20    5.30
 -10   6  11   24.60    3.60
  10   6 -11   31.50    4.50
   9  -6 -11   86.29    7.90
  -9  -6  11   69.39    6.90
   9  -6 -11   82.39    8.70
   9   6 -11   79.99    8.30
  -9   6  11   80.09    6.40
   9   6 -11   75.79    9.80
   8  -6 -11    2.20    3.90
   8  -6 -11    2.40    3.60
  -8  -6  11   -0.70    3.00
  -8   6  11   -0.70    2.40
  -8   6  11    5.60    4.40
   8   6 -11    5.00    5.00
   8   6 -11    0.90    4.00
  -7  -6  11   59.59    6.10
   7  -6 -11   34.70    5.50
   7  -6 -11   51.39    7.60
  -7   6  11   52.99    5.30
  -7   6  11   45.90    7.50
   7   6 -11   54.89    9.20
   7   6 -11   51.69    8.50
   6  -6 -11   12.50    4.70
  -6  -6  11   15.70    3.30
  -6  -6  11   15.70    3.50
   6  -6 -11   13.30    3.90
   6   6 -11   14.70    5.40
   6   6 -11   19.10    5.30
  -6   6  11   18.60    5.20
   6   6 -11   19.20    3.50
  -6   6  11   20.70    3.40
   5  -6 -11    5.00    4.40
  -5  -6  11    1.60    2.90
  -5  -6  11    2.20    1.80
   5  -6 -11    1.80    3.00
   5  -6 -11    4.60    3.30
  -5   6  11    3.50    3.90
   5   6 -11    3.10    4.40
  -5   6  11    2.50    2.40
   5   6 -11   -2.20    2.80
   5   6 -11   -1.40    4.40
   4  -6 -11   11.10    3.50
  -4  -6  11   11.40    3.30
   4  -6 -11   14.20    3.70
  -4  -6  11   14.10    2.30
  -4   6  11   10.40    4.40
   4   6 -11   12.10    4.80
   4   6 -11   16.60    4.80
   4   6 -11    5.50    3.10
  -4   6  11    7.20    2.70
   4   6 -11    5.00    3.10
  -3  -6  11   21.50    3.50
  -3  -6  11   21.30    3.80
   3  -6 -11   19.20    4.40
   3  -6 -11   15.00    3.60
   3   6 -11   20.00    3.60
   3   6 -11   10.90    4.20
  -3   6  11   15.10    3.10
   3   6 -11   16.40    4.50
  -3   6  11   26.10    5.10
   3   6 -11   21.20    3.90
  -3   6  11   16.00    3.60
  -3   6  11   25.30    6.10
   2  -6 -11  242.78   15.10
  -2  -6  11  230.08   14.10
   2  -6 -11  250.07   16.20
  -2   6  11  220.98   17.00
   2   6 -11  190.68   15.50
  -2   6  11  224.78   16.00
   2   6 -11  209.28   14.60
  -2   6  11  239.88   15.40
  -2   6  11  234.48   14.90
   2   6 -11  243.28   15.20
   2   6 -11  233.08   16.20
   1  -6 -11   90.69    8.10
   1  -6 -11   84.79    9.50
  -1  -6  11   87.49    6.60
   1   6 -11   81.99    9.30
  -1   6  11   84.59    8.60
   1   6 -11   77.59    7.10
  -1   6  11   90.09    7.90
   1   6 -11   86.99    8.10
  -1   6  11   66.79   10.10
  -1   6  11   90.79    7.40
   0  -6 -11   76.99    8.30
   0  -6 -11   79.09    7.50
   0  -6  11   85.09    6.70
   0  -6 -11   71.19    9.70
   0   6  11   80.99    8.00
   0   6 -11  105.89    7.30
   0   6 -11  108.79    8.20
   0   6  11   74.49    8.40
   0   6  11   79.99    7.50
   1  -6  11   -0.50    2.20
  -1  -6 -11    1.40    3.30
  -1  -6 -11   -2.20    2.90
  -1  -6 -11    0.20    4.80
  -1   6 -11    3.30    3.20
   1   6  11    1.90    2.90
  -1   6 -11    1.80    2.90
  -1   6 -11   -1.50    2.70
   1   6  11    1.60    4.00
  -1   6 -11    4.50    3.80
   1   6  11    2.10    3.00
  -2  -6 -11    5.60    3.50
   2  -6  11    5.80    2.40
  -2  -6 -11    6.40    4.90
  -2  -6 -11    1.90    3.20
   2   6  11    9.00    3.20
  -2   6 -11    1.60    3.00
   2   6  11    6.00    3.60
  -2   6 -11    4.70    3.60
  -2   6 -11    9.90    3.20
  -2   6 -11    5.20    3.00
  -3  -6 -11   90.59    8.90
  -3  -6 -11   81.39   10.00
   3  -6  11  105.09    7.20
  -3  -6 -11   90.49    8.60
  -3  -6 -11   81.39   14.30
   3   6  11   97.19    8.40
  -3   6 -11   89.99    8.20
  -3   6 -11   97.39    7.70
  -3   6 -11   91.19    7.50
   3   6  11   89.59    8.30
  -4  -6 -11   28.00    9.30
  -4  -6 -11   40.40    7.10
  -4  -6 -11   42.20    8.10
   4  -6  11   41.90    4.80
  -4  -6 -11   35.60    6.20
  -4   6 -11   35.70    6.00
  -4   6 -11   37.50    5.50
   4   6  11   45.70    6.10
  -4   6 -11   41.30    5.30
   4   6  11   43.90    5.90
   5  -6  11    8.10    2.40
  -5  -6 -11    2.90    4.10
  -5  -6 -11    5.40    3.60
  -5  -6 -11    6.60    3.40
   5   6  11    3.00    3.10
  -5   6 -11    3.50    2.60
   5   6  11    8.10    2.90
  -5   6 -11    5.70    3.00
   6  -6  11   12.20    2.40
  -6  -6 -11    6.60    3.50
  -6  -6 -11    7.20    3.00
  -6  -6 -11    9.90    3.30
  -6   6 -11    4.20    2.60
   6   6  11   12.10    3.70
  -6   6 -11   13.00    2.90
  -7  -6 -11    5.60    2.60
  -7  -6 -11    0.00    2.30
   7   6  11    3.50    3.10
  -7   6 -11    4.80    2.30
  -7   6 -11   -0.10    2.30
  -8  -6 -11   -1.80    2.00
  -8   6 -11    2.20    2.10
   8   6  11    2.90    2.40
 -11  -7  11    2.80    1.80
  11  -7 -11    3.10    2.60
  11  -7 -11    3.70    3.70
  11   7 -11    2.90    3.50
 -10  -7  11   28.10    4.30
  10  -7 -11   31.30    5.70
 -10   7  11   29.40    3.60
  10   7 -11   30.00    5.40
  10   7 -11   43.80    6.90
   9  -7 -11    1.80    3.30
  -9  -7  11    5.30    2.70
  -9   7  11    1.10    2.00
   9   7 -11    6.80    3.90
   9   7 -11    2.10    4.40
   8  -7 -11   69.29    8.10
  -8  -7  11   65.99    6.50
   8  -7 -11   58.19    7.20
   8   7 -11   63.29    8.10
  -8   7  11   65.79    5.80
   8   7 -11   66.19    9.60
   7  -7 -11   -0.10    3.50
   7  -7 -11   -0.90    3.30
  -7  -7  11    2.50    3.00
   7   7 -11    3.10    3.10
   7   7 -11   -0.10    4.60
   7   7 -11    2.10    4.40
  -7   7  11    4.30    2.50
  -6  -7  11   49.60    4.50
  -6  -7  11   53.89    6.30
   6  -7 -11   43.10    7.60
   6  -7 -11   51.79    7.20
  -6   7  11   50.49    5.50
   6   7 -11   49.30    6.30
   6   7 -11   47.70    8.90
  -6   7  11   44.40    7.60
   6   7 -11   48.70    8.70
   5  -7 -11   38.90    6.30
   5  -7 -11   50.79    6.40
  -5  -7  11   46.80    4.30
  -5  -7  11   37.90    5.60
   5   7 -11   33.90    6.00
  -5   7  11   41.80    5.10
   5   7 -11   46.80    6.50
   5   7 -11   31.30    5.80
  -5   7  11   25.30    5.40
  -4  -7  11  105.79    7.20
   4  -7 -11  107.59    8.90
  -4  -7  11   93.39    8.10
   4  -7 -11  105.89    8.90
   4   7 -11   89.69    8.10
   4   7 -11  101.69    8.70
   4   7 -11   82.79    9.90
   4   7 -11  107.79   10.90
  -4   7  11  107.49    8.00
  -4   7  11  105.19    9.90
  -3  -7  11  115.09    8.50
   3  -7 -11  121.59    9.40
   3  -7 -11  119.29   10.10
  -3  -7  11  109.59    7.90
   3   7 -11   91.69   10.10
  -3   7  11  109.49    9.20
  -3   7  11  105.09    8.30
  -3   7  11  123.69   10.20
   3   7 -11   97.79    8.70
   3   7 -11  124.49   10.90
   3   7 -11  119.39    9.40
   2  -7 -11    7.40    3.30
   2  -7 -11   13.90    4.70
  -2  -7  11    7.10    2.30
  -2   7  11    6.60    4.20
   2   7 -11    5.40    3.20
   2   7 -11    6.80    4.40
   2   7 -11    9.00    3.50
  -2   7  11    4.30    2.90
  -2   7  11    6.70    3.00
   1  -7 -11   34.00    6.30
  -1  -7  11   30.00    4.50
   1  -7 -11   32.00    5.60
  -1   7  11   18.20    4.70
   1   7 -11   26.90    5.50
   1   7 -11   43.70    7.70
  -1   7  11   31.50    5.00
  -1   7  11   33.10    6.00
   1   7 -11   34.10    6.40
   0  -7 -11    3.40    3.00
   0  -7 -11   10.20    3.50
   0  -7 -11   14.30    5.30
   0  -7  11   15.80    2.70
   0   7 -11    8.20    3.30
   0   7  11    9.50    4.30
   0   7 -11    9.10    3.50
   0   7 -11    9.80    3.50
   0   7 -11    8.40    4.30
   0   7  11    9.20    3.60
   0   7  11    7.80    3.50
   1  -7  11   47.80    5.00
  -1  -7 -11   49.99    7.20
  -1  -7 -11   35.40    6.20
  -1  -7 -11   53.29    6.90
   1   7  11   38.00    6.30
  -1   7 -11   46.90    6.50
  -1   7 -11   45.20    7.50
  -1   7 -11   31.90    5.90
  -1   7 -11   38.50    5.70
   1   7  11   44.50    6.00
   1   7  11   59.39    7.30
  -2  -7 -11   13.90    3.70
   2  -7  11   14.90    2.90
  -2  -7 -11   26.00    4.30
   2   7  11   17.50    3.80
   2   7  11   27.80    4.40
  -2   7 -11   21.30    3.80
  -2   7 -11   22.20    4.30
  -2   7 -11   27.80    5.00
  -2   7 -11   14.90    3.30
  -3  -7 -11   14.80    4.00
  -3  -7 -11   16.00    3.80
   3  -7  11   14.90    2.80
  -3  -7 -11   25.10    5.70
  -3  -7 -11    8.20    7.40
  -3   7 -11   10.20    3.20
  -3   7 -11   20.70    3.60
  -3   7 -11   13.20    3.50
   3   7  11   18.10    3.80
   3   7  11   26.00    4.40
  -4  -7 -11   65.29    7.60
   4  -7  11   78.89    6.30
  -4  -7 -11   76.69    9.50
  -4  -7 -11   80.19    8.20
  -4   7 -11   74.99    7.50
   4   7  11   84.09    7.60
  -4   7 -11   76.19    6.60
  -4   7 -11   77.49    6.90
   4   7  11   87.19    7.70
  -5  -7 -11   -2.00    2.70
  -5  -7 -11   -0.20    3.30
   5  -7  11    1.90    2.20
  -5  -7 -11   -1.80    3.90
   5   7  11   -1.20    2.40
   5   7  11    0.40    3.00
  -5   7 -11    1.40    2.60
  -5   7 -11    0.90    2.50
  -5   7 -11   -1.00    2.50
  -6  -7 -11   39.50    5.60
  -6  -7 -11   25.50    5.10
   6  -7  11   34.30    3.80
  -6  -7 -11   27.10    4.30
   6   7  11   32.50    5.30
   6   7  11   34.40    4.80
  -6   7 -11   28.80    4.40
  -6   7 -11   22.30    4.30
  -7  -7 -11   -1.00    2.50
  -7  -7 -11    0.60    2.40
   7   7  11   -0.60    2.20
  -7   7 -11   -0.90    2.00
 -10  -8  11   17.20    3.30
  10  -8 -11   20.20    3.30
  10   8 -11   29.80    5.50
   9  -8 -11    3.90    3.10
  -9  -8  11    3.90    2.60
  -9   8  11    5.90    2.30
   9   8 -11    9.00    4.30
   9   8 -11    7.70    3.60
   8  -8 -11    0.00    3.30
  -8  -8  11    1.20    2.70
   8  -8 -11    1.70    3.40
   8   8 -11   -9.80    3.80
  -8   8  11   -1.30    1.90
   8   8 -11    5.70    3.90
   7  -8 -11   11.50    3.60
  -7  -8  11    6.90    3.20
   7  -8 -11    3.30    3.50
  -7  -8  11    7.10    1.90
  -7   8  11   11.10    3.00
   7   8 -11   13.20    3.40
   7   8 -11    8.60    4.60
   7   8 -11   11.90    4.30
  -6  -8  11    2.60    1.80
   6  -8 -11    2.70    3.30
  -6  -8  11    1.20    3.00
   6  -8 -11    2.10    3.50
   6   8 -11    6.10    4.40
  -6   8  11    8.30    2.90
   6   8 -11    3.70    3.20
   6   8 -11    3.10    4.00
  -5  -8  11   -0.20    3.00
  -5  -8  11    1.50    1.90
   5  -8 -11    0.80    4.00
   5  -8 -11    1.80    3.10
   5   8 -11   -4.30    3.50
   5   8 -11    5.40    4.30
   5   8 -11    4.90    4.50
  -5   8  11    8.90    5.00
   5   8 -11   -1.00    3.20
  -5   8  11    2.40    2.70
  -4  -8  11    6.00    2.20
   4  -8 -11    7.30    3.40
  -4  -8  11    9.00    3.40
   4  -8 -11    6.60    3.80
   4   8 -11    2.70    3.20
   4   8 -11    2.60    4.50
   4   8 -11   10.10    3.30
  -4   8  11    3.90    4.00
   4   8 -11   -0.10    3.90
  -4   8  11    5.00    2.60
  -3  -8  11   39.70    4.70
  -3  -8  11   49.40    5.90
   3  -8 -11   51.59    6.60
   3  -8 -11   51.19    7.30
   3   8 -11   41.40    6.60
  -3   8  11   51.39    5.50
   3   8 -11   40.10    6.00
  -3   8  11   30.00    5.90
  -3   8  11   36.40    6.30
   3   8 -11   55.39    8.70
   2  -8 -11   23.50    4.70
   2  -8 -11   11.90    3.60
  -2  -8  11   15.20    2.60
   2   8 -11   13.60    4.80
   2   8 -11   13.80    3.50
  -2   8  11   16.00    3.70
  -2   8  11    9.50    3.20
  -2   8  11   12.00    4.60
   2   8 -11   11.20    3.70
  -1  -8  11   18.30    2.90
   1  -8 -11   19.90    3.90
   1  -8 -11   32.10    5.50
   1   8 -11   47.60    8.40
  -1   8  11   22.40    4.70
   1   8 -11   18.30    3.90
  -1   8  11   18.20    3.60
  -1   8  11   17.80    4.70
   1   8 -11   16.90    3.80
   0  -8  11   84.69    6.20
   0  -8 -11   77.99    7.80
   0  -8 -11   69.79    9.90
   0   8 -11   63.19    7.00
   0   8  11   75.29    6.90
   0   8  11   88.89    7.70
   0   8 -11   55.19    7.10
   0   8 -11   63.79    7.70
   0   8  11   65.59    8.10
   0   8 -11   62.29    8.70
  -1  -8 -11    1.30    2.90
  -1  -8 -11   -0.60    3.30
  -1  -8 -11    3.50    5.10
   1  -8  11   -0.70    2.20
  -1   8 -11    1.10    3.70
   1   8  11    4.50    3.20
   1   8  11    2.80    3.00
  -1   8 -11    0.20    3.10
  -1   8 -11    1.00    3.20
  -1   8 -11    0.10    3.40
  -2  -8 -11   45.10    7.00
   2  -8  11   41.10    4.60
  -2  -8 -11   32.50    5.80
  -2  -8 -11   35.30    5.90
  -2   8 -11   31.50    5.10
   2   8  11   43.40    5.70
   2   8  11   41.70    6.20
  -2   8 -11   33.50    5.30
  -2   8 -11   38.80    6.30
  -2   8 -11   25.50    4.00
  -3  -8 -11    0.70    3.10
  -3  -8 -11    0.90    4.70
  -3  -8 -11    1.40    3.40
   3  -8  11    0.00    2.20
  -3   8 -11    1.70    2.70
   3   8  11    5.80    3.30
   3   8  11    1.60    3.20
  -3   8 -11   -2.00    2.80
  -3   8 -11   -0.60    2.90
  -4  -8 -11   43.60    8.20
  -4  -8 -11   53.69    7.00
   4  -8  11   54.29    4.70
  -4  -8 -11   38.40    5.80
  -4   8 -11   40.50    5.60
   4   8  11   46.20    5.80
   4   8  11   48.80    5.60
  -4   8 -11   41.30    5.30
  -4   8 -11   40.10    5.10
  -5  -8 -11    0.10    3.70
  -5  -8 -11   -2.70    2.40
  -5  -8 -11    0.80    3.20
   5  -8  11   -0.70    1.90
  -5   8 -11   -2.30    2.30
   5   8  11   -2.50    2.60
   5   8  11   -0.60    2.40
  -5   8 -11   -1.40    2.30
  -5   8 -11    0.70    2.40
  -6  -8 -11    1.90    3.00
  -6  -8 -11    4.70    2.80
   6  -8  11    3.20    1.90
  -6  -8 -11    1.10    2.20
  -6   8 -11    2.80    2.10
   6   8  11    2.90    2.70
  -6   8 -11    3.20    2.10
  -7  -8 -11    0.70    2.10
   7   8  11    3.10    2.20
  -7   8 -11   -0.70    1.80
   9  -9 -11   10.70    2.80
  -9  -9  11   14.00    2.40
  -9   9  11   15.90    2.60
   9   9 -11    6.90    3.80
   8  -9 -11   39.00    5.70
  -8  -9  11   32.00    4.70
   8   9 -11   45.00    6.10
   8   9 -11   43.00    6.60
  -8   9  11   35.60    3.90
  -7  -9  11    0.10    1.70
   7  -9 -11    2.10    2.90
  -7  -9  11    0.60    2.80
   7   9 -11   -1.80    2.80
   7   9 -11    1.60    3.90
   7   9 -11    3.10    3.90
  -7   9  11    2.50    2.10
  -6  -9  11   36.20    5.60
  -6  -9  11   56.89    4.40
   6  -9 -11   51.49    6.30
   6  -9 -11   50.99    6.40
  -6   9  11   56.79    5.10
   6   9 -11   56.79    7.50
   6   9 -11   55.09    8.10
   6   9 -11   43.90    6.10
   5  -9 -11    3.50    3.60
   5  -9 -11    6.80    3.10
  -5  -9  11    0.70    2.70
  -5  -9  11    5.00    1.90
  -5   9  11    7.20    2.80
   5   9 -11    8.90    4.10
   5   9 -11    8.80    3.40
   5   9 -11   10.70    3.50
   5   9 -11    4.90    4.30
  -4  -9  11   61.79    5.10
   4  -9 -11   56.49    6.70
  -4  -9  11   54.09    6.40
   4   9 -11   69.19    9.00
   4   9 -11   52.89    9.10
   4   9 -11   54.09    6.50
   4   9 -11   49.40    6.70
  -4   9  11   64.39    5.70
   3  -9 -11    0.00    3.20
  -3  -9  11   -2.10    3.10
   3  -9 -11    0.50    3.00
  -3  -9  11    0.10    2.00
  -3   9  11    0.90    2.40
   3   9 -11   -0.10    3.30
   3   9 -11   -0.10    4.30
   3   9 -11    2.40    3.10
  -2  -9  11    1.70    2.10
   2  -9 -11    5.30    3.10
  -2  -9  11    5.60    3.20
   2  -9 -11    3.10    3.80
   2   9 -11    1.20    3.30
   2   9 -11    6.70    3.30
  -2   9  11    4.30    2.70
  -2   9  11    5.00    3.30
   2   9 -11    5.10    4.50
  -1  -9  11   17.90    3.80
   1  -9 -11   20.90    3.70
   1  -9 -11   16.80    4.80
  -1   9  11   25.30    4.30
   1   9 -11   15.50    3.80
   1   9 -11   21.10    3.80
  -1   9  11   18.50    3.90
   1   9 -11   19.90    4.80
   0  -9  11    4.00    2.20
   0  -9 -11   -2.80    4.70
   0  -9 -11    2.00    3.10
   0   9  11    1.30    2.80
   0   9 -11    1.90    3.10
   0   9 -11    2.30    3.70
   0   9 -11    1.70    3.10
   0   9  11    2.30    2.60
   1  -9  11   32.90    4.30
  -1  -9 -11   33.80    6.10
  -1  -9 -11   33.60    5.60
  -1  -9 -11   19.00    3.50
  -1   9 -11   23.20    4.40
  -1   9 -11   35.90    5.20
  -1   9 -11   29.70    5.90
   1   9  11   27.30    5.30
   1   9  11   35.00    5.20
  -1   9 -11   26.50    4.10
  -2  -9 -11    2.70    2.70
  -2  -9 -11   10.30    4.70
   2  -9  11    7.50    2.40
  -2  -9 -11    4.60    3.30
   2   9  11    8.50    2.90
  -2   9 -11    3.90    3.10
   2   9  11    8.70    3.00
  -2   9 -11    3.00    2.90
  -2   9 -11    3.40    2.80
   3  -9  11    4.70    2.10
  -3  -9 -11   12.60    3.40
  -3  -9 -11    8.60    2.90
  -3  -9 -11    7.00    4.30
  -3   9 -11    9.30    2.80
  -3   9 -11    6.30    2.70
   3   9  11    8.30    3.00
   3   9  11    6.70    2.80
  -3   9 -11    6.50    2.60
   4  -9  11   14.20    2.30
  -4  -9 -11    8.00    2.70
  -4  -9 -11   14.30    3.40
  -4  -9 -11   12.30    4.30
  -4   9 -11    9.90    2.80
  -4   9 -11    8.60    2.70
   4   9  11   13.60    3.00
  -4   9 -11   10.60    2.60
   4   9  11   11.60    2.90
  -5  -9 -11    6.80    2.40
   5  -9  11    1.50    1.70
  -5  -9 -11    3.70    3.40
  -5  -9 -11    0.20    2.80
  -5   9 -11    1.60    2.30
  -5   9 -11    0.90    1.90
   5   9  11    0.80    2.40
  -5   9 -11    1.20    2.60
   5   9  11    0.30    2.10
  -6   9 -11    9.90    2.50
   6   9  11   19.20    3.40
   8 -10 -11    0.00    2.20
  -7 -10  11    1.80    2.10
   7 -10 -11    5.10    2.50
   7  10 -11    4.80    3.60
  -7  10  11    1.50    1.70
  -6 -10  11    3.30    2.50
  -6 -10  11   -0.40    1.40
   6 -10 -11    3.30    2.70
   6  10 -11    2.10    2.90
  -6  10  11    1.60    1.90
   6  10 -11    1.90    3.70
   6  10 -11    8.20    6.00
  -5 -10  11    4.30    2.60
   5 -10 -11    0.90    2.90
  -5 -10  11    0.60    1.50
   5 -10 -11    0.50    2.60
   5  10 -11    1.10    2.90
  -5  10  11    0.00    2.10
   5  10 -11    1.40    3.80
   5  10 -11   -1.10    2.80
  -4 -10  11    7.20    2.90
  -4 -10  11    7.00    2.00
   4 -10 -11    8.60    4.00
   4 -10 -11   11.90    3.10
   4  10 -11    5.00    3.40
   4  10 -11    6.50    4.20
   4  10 -11    8.60    3.20
  -4  10  11   10.50    2.40
  -3 -10  11    2.50    1.80
   3 -10 -11    0.40    2.60
  -3 -10  11    4.10    2.80
  -3  10  11    3.00    2.30
   3  10 -11    4.00    4.10
   3  10 -11    5.10    3.10
   3  10 -11    7.60    3.10
  -2 -10  11  177.58   10.20
  -2 -10  11  147.49   10.70
   2 -10 -11  163.08   11.00
   2 -10 -11  150.68   11.20
  -2  10  11  178.28   10.90
   2  10 -11  147.19   11.30
  -2  10  11  144.09   11.10
   2  10 -11  145.59   10.80
   2  10 -11  165.78   12.20
   1 -10 -11   -0.70    3.30
   1 -10 -11   -1.00    2.80
  -1 -10  11   -2.20    2.70
  -1 -10  11    1.70    1.90
   1  10 -11   -0.90    3.60
   1  10 -11    3.60    2.90
  -1  10  11   -0.60    2.40
  -1  10  11   -3.90    2.60
   1  10 -11   -1.00    2.70
   0 -10 -11   22.90    4.50
   0 -10 -11   12.90    3.30
   0 -10  11   10.10    2.20
   0  10  11   10.30    2.90
   0  10 -11    8.70    3.70
   0  10 -11    6.80    2.90
   0  10 -11   23.30    4.60
   0  10  11   12.50    2.70
  -1 -10 -11    4.20    3.90
   1 -10  11    3.30    2.00
  -1 -10 -11    4.80    2.90
  -1  10 -11    3.50    2.60
   1  10  11    2.90    2.40
   1  10  11    4.00    2.80
  -1  10 -11    3.10    2.80
  -2 -10 -11    4.20    2.90
  -2 -10 -11    2.70    3.70
   2 -10  11    1.20    1.90
  -2  10 -11   -0.20    2.50
  -2  10 -11    0.50    2.60
   2  10  11    1.20    2.60
   2  10  11    4.20    2.60
  -2  10 -11    6.20    2.50
   3 -10  11    1.20    1.70
  -3 -10 -11    0.20    2.70
  -3 -10 -11    5.10    3.50
  -3 -10 -11   -0.10    2.30
  -3  10 -11    1.80    2.10
  -3  10 -11    0.20    2.50
   3  10  11   -0.40    2.50
   3  10  11    0.50    2.30
  -3  10 -11   -1.80    2.10
  -4 -10 -11    2.50    2.50
  -4 -10 -11    2.30    3.20
   4 -10  11    4.80    1.70
  -4  10 -11    2.20    2.20
   4  10  11    3.60    2.30
   4  10  11    4.60    2.20
   5 -11 -11    9.40    2.50
  -5 -11  11   10.60    2.50
   5  11 -11    8.60    3.60
   5  11 -11   13.20    3.00
  -5  11  11   10.00    2.10
   4 -11 -11    8.30    3.00
  -4 -11  11    7.00    1.70
   4 -11 -11    6.20    2.40
  -4 -11  11   13.30    2.60
  -4  11  11   15.90    2.90
   4  11 -11   10.00    3.70
   4  11 -11   11.00    3.50
   4  11 -11    7.10    2.90
   3 -11 -11    4.60    2.50
   3 -11 -11    9.30    3.50
  -3 -11  11    5.70    2.40
  -3 -11  11    6.20    1.70
   3  11 -11    5.90    2.90
   3  11 -11    8.20    3.60
  -3  11  11    6.90    2.30
   3  11 -11    2.50    2.90
  -2 -11  11   24.40    3.40
  -2 -11  11   31.10    3.40
   2 -11 -11   29.80    4.60
   2  11 -11   19.80    4.10
  -2  11  11   30.40    3.70
   2  11 -11   22.00    4.60
   2  11 -11   27.70    4.90
   1 -11 -11    0.60    2.40
  -1 -11  11    0.70    2.10
   1 -11 -11   -0.60    2.70
  -1 -11  11    0.10    1.70
   1  11 -11    0.90    2.40
  -1  11  11    0.20    2.00
   1  11 -11    3.10    2.60
  -1  11  11    0.00    2.40
   0 -11 -11    1.50    3.00
   0 -11  11    6.60    1.80
   0 -11 -11    6.30    2.60
   0 -11  11    2.30    2.20
   0  11 -11    3.70    2.60
   0  11  11    3.50    2.30
   0  11  11    5.50    2.30
   0  11 -11    4.00    2.70
   1 -11  11    1.20    1.60
  -1 -11 -11   -2.40    2.90
  -1 -11 -11    1.70    2.40
   1  11  11   -1.70    2.10
  -1  11 -11   -1.30    2.20
  -1  11 -11   -1.40    2.20
   1  11  11   -0.30    1.60
  -2 -11 -11    0.50    2.90
  -2 -11 -11   -0.90    2.30
   2 -11  11    1.30    1.50
  -2  11 -11   -1.30    2.00
   2  11  11    2.40    2.20
  -2  11 -11    1.30    2.80
   2  11  11    0.20    1.60
 -12   0  12   -0.10    1.60
  12   0 -12    2.00    3.30
  11   0 -12   10.50    4.50
 -10   0  12   42.00    5.00
  10   0 -12   38.60    6.20
  -9   0  12    0.80    2.30
   9   0 -12   -0.20    4.60
  -9   0  12   -6.10    4.00
  -8   0  12  217.68   14.30
  -8   0  12  217.38   16.40
   8   0 -12  247.28   15.40
   8   0 -12  230.78   16.80
   7   0 -12    3.70    3.40
   7   0 -12   -2.70    4.60
  -7   0  12   -3.80    3.60
  -7   0  12    1.60    2.20
  -6   0  12   41.50    4.60
  -6   0  12   36.10    6.50
   6   0 -12   52.09    8.20
   6   0 -12   38.70    6.60
   6   0 -12   40.10    6.50
  -6   0  12   41.60    6.60
  -5   0  12    0.00    3.20
   5   0 -12   -0.80    3.10
   5   0 -12    1.60    4.30
  -5   0  12    1.70    4.60
   5   0 -12    1.10    3.40
  -4   0  12  199.98   14.50
   4   0 -12  198.58   14.10
   4   0 -12  168.18   12.80
   4   0 -12  208.68   13.50
  -4   0  12  181.28   13.20
  -3   0  12    2.00    3.10
   3   0 -12    3.20    3.30
   3   0 -12    3.70    3.70
   3   0 -12    0.20    1.90
   2   0 -12  227.08   16.10
   2   0 -12  251.17   16.00
   2   0 -12  248.38   15.10
   1   0 -12   -1.00    2.10
   1   0 -12    3.90    3.10
   1   0 -12    4.60    3.40
   1   0 -12   -2.70    4.30
   0   0 -12  205.58   13.30
   0   0 -12  200.58   12.50
   0   0 -12  176.08   12.90
  -1   0 -12   -1.40    3.10
  -1   0 -12    0.40    2.50
  -1   0 -12   -1.20    2.20
  -2   0 -12   52.89    5.70
  -2   0 -12   53.79    7.00
  -3   0 -12    0.30    2.50
  -3   0 -12    0.20    2.40
  -3   0 -12   -0.50    3.10
  -4   0 -12  238.58   14.30
  -4   0 -12  208.88   14.60
  -4   0 -12  228.88   14.40
  -5   0 -12   -0.40    2.40
  -5   0 -12    1.00    2.60
  -5   0 -12    2.00    2.40
  -6   0 -12  120.29    8.20
  -6   0 -12  104.99    8.20
  -7   0 -12    2.80    2.50
  -7   0 -12   -1.60    2.20
  -8   0 -12   71.79    5.90
  -8   0 -12   69.09    5.80
  -9   0 -12    1.30    2.80
  -9   0 -12    1.70    1.80
 -12  -1  12   77.19    5.70
  12  -1 -12   78.49    7.50
  12   1 -12   85.19    7.70
 -12   1  12   70.59    5.50
 -11  -1  12    2.50    2.10
  11  -1 -12    2.40    3.90
 -11   1  12    1.80    2.00
  11   1 -12    2.30    4.10
 -10  -1  12  117.49    8.30
  10  -1 -12  117.79   10.20
  10   1 -12  129.49   11.40
 -10   1  12  106.89    8.00
   9  -1 -12   -1.70    4.40
  -9  -1  12   -3.10    2.40
  -9  -1  12   -1.00    4.20
   9   1 -12   -2.10    4.90
  -9   1  12    1.30    2.40
  -9   1  12   -2.40    4.20
   8  -1 -12   91.79    9.30
  -8  -1  12  107.69    7.90
  -8  -1  12  105.39   10.10
   8  -1 -12  111.59   10.80
  -8   1  12  105.19    7.70
   8   1 -12  114.79   11.00
   8   1 -12  110.89    9.00
  -8   1  12  103.69   10.00
   7  -1 -12   -0.60    3.40
  -7  -1  12    3.10    4.00
   7  -1 -12   -0.50    4.60
   7  -1 -12   -1.40    3.20
  -7  -1  12    0.30    2.40
  -7   1  12   -1.10    3.70
   7   1 -12   -3.50    3.40
  -7   1  12    0.70    2.10
   7   1 -12   -6.80    4.40
   6  -1 -12    9.30    3.90
   6  -1 -12   15.70    4.70
  -6  -1  12    7.60    5.40
   6  -1 -12   16.10    3.80
  -6  -1  12   11.00    3.90
  -6  -1  12    9.20    2.60
   6   1 -12   13.80    4.70
  -6   1  12   10.60    4.40
   6   1 -12   16.40    4.20
  -6   1  12   17.20    5.70
   5  -1 -12    4.50    4.10
  -5  -1  12    4.80    2.20
  -5  -1  12    2.80    3.60
   5  -1 -12    4.50    3.50
   5   1 -12    2.30    3.60
   5   1 -12    8.10    4.40
  -5   1  12    1.70    3.50
  -5   1  12    6.40    5.00
  -4  -1  12   38.30    5.50
   4  -1 -12   32.90    6.50
   4  -1 -12   54.69    6.60
   4  -1 -12   37.20    7.40
   4   1 -12   45.50    7.10
  -4   1  12   51.89    7.70
   4   1 -12   44.70    6.90
  -4   1  12   46.90    6.10
   3  -1 -12   13.90    3.70
   3  -1 -12   13.10    3.80
   3  -1 -12   11.20    3.40
  -3   1  12   13.30    3.90
   3   1 -12   10.90    2.50
  -3   1  12   17.60    4.90
   3   1 -12    9.80    3.20
   3   1 -12   16.90    4.20
   2  -1 -12    2.00    3.60
   2  -1 -12   13.00    2.50
   2  -1 -12   12.10    3.50
   2  -1 -12   10.00    3.30
   2   1 -12   14.90    2.70
  -2   1  12   14.10    6.00
  -2   1  12   14.70    3.40
   2   1 -12   14.70    3.50
   2   1 -12   22.70    4.30
   1  -1 -12   32.70    6.20
   1  -1 -12   29.90    6.00
   1  -1 -12   38.90    4.70
   1   1 -12   34.80    5.80
  -1   1  12   30.10    5.20
   1   1 -12   29.50    4.80
   1   1 -12   39.60    6.60
   0  -1 -12  275.57   16.70
   0  -1 -12  220.48   16.20
   0  -1 -12  270.47   16.00
   0   1  12  275.37   16.10
   0   1 -12  218.78   16.40
   0   1 -12  250.17   16.60
   0   1 -12  285.97   16.10
  -1  -1 -12    0.80    3.00
  -1  -1 -12    2.80    3.30
  -1  -1 -12    1.20    2.30
  -1  -1 -12    0.40    2.90
  -1   1 -12    4.60    2.40
   1   1  12    1.50    2.00
  -1   1 -12    1.20    3.20
  -1   1 -12    1.20    2.60
  -2  -1 -12  169.98   12.40
  -2  -1 -12  190.88   13.30
  -2   1 -12  200.58   12.30
   2   1  12  201.58   12.70
  -2   1 -12  182.78   13.10
  -2   1 -12  208.58   12.70
  -3  -1 -12   52.69    6.50
  -3  -1 -12   49.30    5.30
  -3  -1 -12   50.59    5.70
  -3   1 -12   51.39    5.30
   3   1  12   61.69    5.70
  -3   1 -12   46.00    5.70
  -3   1 -12   48.30    6.50
  -4  -1 -12   12.00    2.80
  -4  -1 -12   20.60    4.20
  -4  -1 -12   18.90    3.70
  -4   1 -12   15.30    3.60
   4   1  12   18.50    3.50
  -4   1 -12   26.40    4.90
  -4   1 -12   30.60    4.60
  -5  -1 -12    4.80    2.40
  -5  -1 -12    2.70    2.40
   5   1  12    1.90    2.80
  -6  -1 -12   24.80    4.40
  -6  -1 -12   32.50    4.60
  -6  -1 -12   23.90    3.50
  -6   1 -12   23.30    4.70
   6   1  12   28.40    4.90
  -6   1 -12   20.80    3.20
  -7  -1 -12    0.00    2.20
  -7  -1 -12    0.30    2.20
  -7   1 -12    0.60    2.20
   7   1  12   -1.10    2.60
  -7   1 -12   -1.90    2.30
  -8  -1 -12    7.10    2.30
  -8  -1 -12    9.20    2.20
  -8   1 -12    9.40    2.30
  -8   1 -12    9.00    2.30
  -9  -1 -12   -0.70    2.00
  -9  -1 -12   -0.10    1.80
  -9   1 -12    1.40    1.60
 -12  -2  12    1.50    1.90
  12   2 -12    1.20    3.60
 -12   2  12    0.30    1.40
 -11  -2  12   14.10    2.60
  11  -2 -12   17.00    4.30
 -11   2  12   10.70    2.10
  11   2 -12   20.00    4.90
  10  -2 -12   50.59    7.60
  10  -2 -12   50.49    7.50
 -10  -2  12   39.70    5.20
 -10   2  12   39.30    4.50
  10   2 -12   58.49    8.80
   9  -2 -12   91.39    9.40
   9  -2 -12   67.79    8.50
  -9  -2  12   81.29    6.80
  -9  -2  12   76.99    9.20
   9   2 -12   84.19   12.00
   9   2 -12   91.39   10.00
  -9   2  12   87.49    9.00
  -9   2  12   74.39    6.20
  -8  -2  12  318.27   22.10
  -8  -2  12  324.27   20.30
   8  -2 -12  363.76   22.30
   8  -2 -12  305.67   21.40
   8   2 -12  331.27   22.40
   8   2 -12  342.47   21.30
  -8   2  12  363.06   20.50
  -8   2  12  322.57   22.30
   7  -2 -12   34.70    5.70
   7  -2 -12   39.10    6.50
  -7  -2  12   33.70    5.10
  -7  -2  12   38.70    5.90
   7  -2 -12   29.70    5.00
   7   2 -12   27.70    4.70
   7   2 -12   31.40    6.00
  -7   2  12   57.99    7.10
  -7   2  12   34.50    4.20
   6  -2 -12   97.59   10.20
  -6  -2  12   91.19    7.40
  -6  -2  12   99.49    9.30
   6  -2 -12  101.99    8.80
   6   2 -12  108.89    9.20
  -6   2  12   98.89    7.30
  -6   2  12   93.59    9.30
  -6   2  12   85.09   11.30
   6   2 -12   99.39   10.40
   5  -2 -12    0.40    3.90
   5  -2 -12    6.60    3.40
   5  -2 -12    6.30    3.80
  -5  -2  12    5.20    2.50
  -5   2  12    4.40    3.70
  -5   2  12    1.40    4.60
  -5   2  12    7.30    2.40
   5   2 -12    4.70    4.50
   5   2 -12   10.30    3.90
   4  -2 -12  232.78   16.40
  -4  -2  12  236.78   15.50
   4  -2 -12  281.77   16.60
   4  -2 -12  262.97   17.40
   4   2 -12  293.27   17.10
  -4   2  12  231.58   15.70
   4   2 -12  261.17   17.50
   4   2 -12  253.57   15.80
  -4   2  12  265.07   17.30
  -4   2  12  241.68   18.40
   3  -2 -12    6.90    3.40
   3  -2 -12    3.90    3.50
   3  -2 -12   10.20    4.40
  -3  -2  12    5.30    2.30
   3   2 -12    2.40    3.50
  -3   2  12    7.20    2.30
   3   2 -12    6.60    2.40
  -3   2  12    6.50    3.60
  -3   2  12    6.90    4.70
   3   2 -12    6.30    3.70
   2  -2 -12  203.88   14.70
   2  -2 -12  221.28   14.30
   2  -2 -12  209.48   13.10
   2   2 -12  183.68   13.40
  -2   2  12  214.08   13.30
   2   2 -12  237.18   14.40
  -2   2  12  194.58   15.50
  -2   2  12  217.98   14.60
   1  -2 -12   30.50    4.70
   1  -2 -12   23.10    4.30
   1  -2 -12   13.00    4.00
  -1   2  12   29.10    5.60
  -1   2  12   32.40    5.10
   1   2 -12   22.00    4.10
   1   2 -12   27.10    4.60
   1   2 -12   20.70    4.10
  -1   2  12   27.10    4.00
   0  -2 -12   22.90    4.70
   0  -2 -12   20.90    3.70
   0  -2 -12   25.60    4.50
   0  -2 -12   23.20    4.30
   0   2 -12   24.00    4.30
   0   2  12   23.80    4.00
   0   2  12   22.70    4.00
   0   2 -12   14.80    3.00
   0   2 -12   19.80    3.70
  -1  -2 -12   17.70    4.10
  -1  -2 -12   13.40    3.30
  -1  -2 -12   14.50    2.90
  -1   2 -12    5.00    3.30
  -1   2 -12   18.50    2.90
   1   2  12   11.60    2.80
  -1   2 -12   15.70    3.10
  -2  -2 -12   -0.90    3.40
  -2  -2 -12    0.60    2.90
  -2  -2 -12    0.40    2.50
  -2   2 -12    1.70    3.30
  -2   2 -12    3.50    2.40
  -2   2 -12   -2.10    2.20
   2   2  12    0.20    2.50
  -3  -2 -12    2.10    2.90
  -3  -2 -12    1.20    2.50
  -3  -2 -12    0.40    3.40
   3   2  12    2.80    2.70
  -3   2 -12   -0.30    2.40
  -3   2 -12    3.00    3.10
  -3   2 -12    2.50    2.50
  -4  -2 -12    3.10    3.40
  -4  -2 -12    1.90    2.50
  -4  -2 -12    0.70    2.70
  -4   2 -12   -1.30    3.00
   4   2  12    2.60    2.90
  -4   2 -12    5.50    2.70
  -4   2 -12    3.20    2.60
  -5  -2 -12   97.89    8.80
  -5  -2 -12  112.09    8.20
  -5  -2 -12  109.09    8.60
   5   2  12  132.19    9.00
  -5   2 -12  112.39    8.30
  -5   2 -12  119.09    8.50
  -6  -2 -12   33.80    5.00
  -6  -2 -12   28.30    5.30
  -6  -2 -12   41.80    4.90
  -6   2 -12   42.60    5.10
   6   2  12   37.20    5.50
  -6   2 -12   35.70    4.70
  -7  -2 -12    1.40    2.40
  -7  -2 -12    0.70    2.20
   7   2  12    0.20    2.80
  -7   2 -12    0.30    2.20
  -7   2 -12    2.30    2.40
  -8  -2 -12   58.89    5.40
  -8  -2 -12   63.09    5.30
   8   2  12   82.69    6.20
  -8   2 -12   64.39    5.30
  -8   2 -12   67.09    5.40
  -9   2 -12    1.20    1.60
 -12  -3  12   31.30    3.80
  12   3 -12   39.00    6.20
  11  -3 -12    9.10    4.70
 -11  -3  12    0.50    2.20
  11  -3 -12    1.30    3.20
  11   3 -12    6.80    4.30
  10  -3 -12   18.70    4.10
 -10  -3  12   18.20    3.20
  10  -3 -12   24.00    4.60
  10   3 -12   16.40    5.30
  -9  -3  12  101.49    8.10
   9  -3 -12   94.59    9.60
   9  -3 -12  110.09   10.20
  -9   3  12   88.19   14.20
  -9   3  12  108.59    7.70
   9   3 -12  117.19   11.10
   9   3 -12  117.89    9.40
   8  -3 -12    4.20    4.40
  -8  -3  12    8.10    2.90
   8  -3 -12    2.10    3.90
  -8   3  12   -1.00    3.90
   8   3 -12   10.50    4.00
  -8   3  12    9.70    2.50
   8   3 -12    6.70    4.80
  -7  -3  12  178.78   12.40
   7  -3 -12  193.98   14.70
   7  -3 -12  198.38   14.40
  -7   3  12  178.08   14.10
   7   3 -12  178.68   14.60
  -7   3  12  192.18   12.30
   7   3 -12  206.18   13.80
  -6  -3  12    5.10    2.80
   6  -3 -12    5.30    4.40
   6  -3 -12    9.30    3.40
   6  -3 -12    9.00    4.10
   6   3 -12    7.00    5.20
   6   3 -12    7.20    3.80
  -6   3  12    8.90    4.20
  -6   3  12   10.10    2.60
  -5  -3  12   59.79    6.10
   5  -3 -12   72.49    7.90
   5  -3 -12   71.59    7.40
   5  -3 -12   70.89    8.70
  -5   3  12   72.39    6.00
  -5   3  12   69.19    9.90
   5   3 -12   66.79    8.00
  -5   3  12   69.89    8.00
   5   3 -12   56.39    9.00
   4  -3 -12   16.60    4.00
   4  -3 -12   20.00    4.10
  -4  -3  12   15.30    2.90
   4  -3 -12   16.30    4.90
   4   3 -12   16.90    4.50
  -4   3  12   20.10    4.60
   4   3 -12   17.30    3.10
  -4   3  12   20.10    3.10
   4   3 -12   19.10    4.50
  -4   3  12   16.40    5.60
   3  -3 -12    1.30    4.10
   3  -3 -12    2.30    3.60
   3  -3 -12    1.60    3.10
  -3  -3  12    2.80    2.30
   3   3 -12    3.20    3.60
   3   3 -12    5.10    2.60
  -3   3  12    3.80    2.30
   3   3 -12    4.60    4.00
  -3   3  12    1.50    4.70
  -3   3  12    5.60    3.60
   2  -3 -12  138.09   10.40
   2  -3 -12  141.59   11.60
   2  -3 -12  148.49   11.10
  -2  -3  12  114.49    9.10
  -2   3  12  131.99   10.60
   2   3 -12  122.69   10.70
   2   3 -12  158.08   11.00
  -2   3  12  139.39   11.80
  -2   3  12  142.49    9.50
   2   3 -12  150.38    9.90
   1  -3 -12   75.29    7.40
   1  -3 -12   66.19    7.90
   1  -3 -12   74.59    6.10
  -1   3  12   72.19    7.40
  -1   3  12   75.99    6.30
   1   3 -12   72.39    8.00
   1   3 -12   73.89    6.70
   1   3 -12   49.50    7.10
  -1   3  12   58.99    8.90
   0  -3 -12  207.08   14.10
   0  -3 -12  214.78   13.70
   0  -3 -12  213.28   14.60
   0   3  12  210.08   14.50
   0   3 -12  205.58   13.20
   0   3  12  222.38   13.80
   0   3 -12  213.38   14.60
   0   3 -12  212.88   13.80
  -1  -3 -12    6.00   10.60
  -1  -3 -12   14.00    3.50
  -1  -3 -12   13.80    3.00
  -1  -3 -12   15.70    4.30
   1   3  12   20.00    4.30
   1   3  12   17.50    3.50
  -1   3 -12   16.30    3.90
  -1   3 -12   15.00    3.10
  -1   3 -12   14.10    2.90
  -2  -3 -12  108.89    8.90
  -2  -3 -12  114.59    9.20
  -2  -3 -12  108.99    9.70
  -2   3 -12  117.39    8.80
  -2   3 -12  123.29    8.40
  -2   3 -12  114.19    9.30
   2   3  12  117.79    8.90
  -3  -3 -12    8.50    3.60
  -3  -3 -12    9.80    3.20
  -3  -3 -12    9.50    3.30
   3   3  12   12.70    3.30
  -3   3 -12   10.40    2.70
  -3   3 -12   13.30    3.50
  -3   3 -12   10.90    2.90
  -4  -3 -12    8.20    2.90
  -4  -3 -12   10.40    3.70
  -4  -3 -12    9.50    3.70
  -4   3 -12    3.90    3.20
  -4   3 -12    4.80    2.50
   4   3  12   10.20    3.50
  -4   3 -12    4.80    2.70
  -5  -3 -12   43.80    5.40
  -5  -3 -12   36.50    4.70
  -5  -3 -12   36.20    6.20
   5   3  12   37.30    5.60
  -5   3 -12   34.20    5.40
  -5   3 -12   31.60    4.80
  -6  -3 -12   68.89    6.20
  -6  -3 -12   68.59    5.90
  -6  -3 -12   60.29    6.50
  -6   3 -12   68.99    6.00
  -6   3 -12   68.69    6.40
   6   3  12   78.39    7.00
  -7  -3 -12    4.40    4.10
  -7  -3 -12    8.10    2.40
  -7  -3 -12    6.60    2.60
  -7   3 -12   10.20    2.50
  -7   3 -12    8.50    2.50
   7   3  12    8.00    3.00
  -8  -3 -12    2.90    2.00
  -8  -3 -12    0.80    1.80
  -8   3 -12    3.70    2.10
   8   3  12    3.40    2.60
  -8   3 -12    1.50    2.10
 -12  -4  12    6.90    1.90
  12   4 -12    8.00    3.70
  11  -4 -12    9.40    3.10
  11  -4 -12   12.30    4.60
 -11  -4  12    8.20    2.30
  11   4 -12   20.70    4.70
  10  -4 -12   -0.60    3.40
  10  -4 -12   -1.20    3.40
 -10  -4  12    4.40    2.30
  10   4 -12   -2.80    4.30
   9  -4 -12   -1.70    3.70
  -9  -4  12    1.80    2.80
   9  -4 -12    1.80    3.70
   9   4 -12    6.40    5.00
   9   4 -12   -2.40    3.40
  -9   4  12    1.90    2.30
   8  -4 -12   13.10    4.60
  -8  -4  12   10.00    3.10
   8  -4 -12    7.90    4.30
  -8   4  12   15.30    2.90
  -8   4  12   11.20    4.90
   8   4 -12    9.20    4.30
   8   4 -12   11.20    5.10
   7  -4 -12   61.09    9.10
  -7  -4  12   60.99    6.40
   7   4 -12   75.59    9.50
  -7   4  12   65.59    5.90
   7   4 -12   73.89    8.50
  -7   4  12   63.99    7.80
   6  -4 -12  257.97   17.30
  -6  -4  12  248.98   15.60
   6  -4 -12  262.57   16.20
   6  -4 -12  208.18   16.70
   6   4 -12  250.57   17.50
  -6   4  12  253.87   15.80
   6   4 -12  260.27   17.20
  -6   4  12  262.27   17.70
   5  -4 -12   57.19    8.60
   5  -4 -12   65.19    6.90
  -5  -4  12   58.89    5.90
   5  -4 -12   38.10    7.30
  -5   4  12   49.70    5.30
   5   4 -12   51.49    5.90
   5   4 -12   49.10    8.20
  -5   4  12   56.39    7.60
   5   4 -12   64.19    8.20
   4  -4 -12   21.60    4.10
   4  -4 -12   20.00    4.00
   4  -4 -12   18.80    5.10
  -4  -4  12   14.00    3.20
  -4   4  12   14.90    4.60
  -4   4  12   15.30    5.70
  -4   4  12   21.10    3.30
   4   4 -12   16.00    4.50
   4   4 -12   21.40    3.50
   4   4 -12   13.10    4.20
   3  -4 -12   44.00    6.20
  -3  -4  12   30.20    4.90
   3  -4 -12   42.20    7.30
   3  -4 -12   25.40    4.40
  -3   4  12   40.90    4.70
   3   4 -12   34.90    7.00
   3   4 -12   34.30    5.40
   3   4 -12   40.20    5.60
  -3   4  12   46.20    6.60
  -3   4  12   30.90    6.30
   2  -4 -12  133.19   10.30
  -2  -4  12  140.39    9.00
   2  -4 -12  133.89   10.90
  -2  -4  12  123.59    9.00
   2   4 -12  107.09   10.20
   2   4 -12  134.69    9.60
  -2   4  12  119.69   12.00
  -2   4  12  134.19   10.80
   2   4 -12  146.89   11.00
  -2   4  12  130.99    9.30
  -1  -4  12   22.90    3.40
   1  -4 -12   27.10    5.00
   1  -4 -12   23.80    3.30
  -1  -4  12   17.30    2.90
   1  -4 -12   21.70    3.90
   1   4 -12   27.60    5.10
  -1   4  12   25.30    5.00
  -1   4  12   26.30    6.40
  -1   4  12   21.00    4.40
   1   4 -12   13.40    4.00
   1   4 -12   24.50    3.20
   1   4 -12   25.60    4.80
   0  -4 -12    2.10    3.20
   0  -4  12    7.70    2.40
   0  -4  12    3.40    1.90
   0  -4 -12    2.80    4.00
   0  -4 -12    2.30    2.60
   0   4 -12    3.30    2.70
   0   4  12    2.90    2.60
   0   4 -12    3.10    3.70
   0   4  12    6.20    3.90
   0   4  12    5.90    3.00
   0   4 -12    2.20    2.40
   1  -4  12   35.80    4.30
  -1  -4 -12   51.79    7.50
  -1  -4 -12   40.50    5.50
  -1  -4 -12   34.70   11.50
  -1  -4 -12   42.70    6.80
  -1   4 -12   48.40    6.00
  -1   4 -12   42.80    5.10
   1   4  12   46.00    5.60
  -1   4 -12   37.30    7.20
   1   4  12   40.20    6.40
   1   4  12   42.60    5.90
  -2  -4 -12   15.40    3.30
  -2  -4 -12   15.50    4.50
  -2  -4 -12   11.10    3.60
  -2   4 -12   15.40    4.00
   2   4  12   12.90    3.50
  -2   4 -12   17.30    3.30
  -2   4 -12   15.30    3.40
   2   4  12   13.60    3.20
  -3  -4 -12   70.09    7.10
  -3  -4 -12   59.39    8.40
  -3  -4 -12   72.69   11.90
  -3  -4 -12   70.39    7.60
  -3   4 -12   72.19    7.60
   3   4  12   82.89    7.30
  -3   4 -12   69.09    7.20
  -3   4 -12   72.99    6.50
   3   4  12   73.69    6.80
  -4  -4 -12    1.40    3.10
  -4  -4 -12    3.20    3.70
  -4  -4 -12    3.10    3.00
  -4   4 -12    0.80    2.70
   4   4  12    5.30    3.40
  -4   4 -12    2.50    2.80
  -5  -4 -12   61.89    7.40
  -5  -4 -12   71.59    6.80
  -5   4 -12   75.79    6.90
  -5   4 -12   73.79    6.30
   5   4  12   77.89    7.10
  -6  -4 -12    8.10    3.00
  -6  -4 -12   11.40    3.00
   6   4  12    5.70    3.10
  -6   4 -12    6.60    2.70
  -6   4 -12    8.90    2.70
  -7  -4 -12   -1.60    2.30
  -7  -4 -12    4.60    2.50
  -7  -4 -12   -0.90    2.00
   7   4  12   -0.40    2.80
  -7   4 -12   -1.00    2.30
  -7   4 -12   -0.30    2.20
  -8  -4 -12    5.70    2.10
   8   4  12    1.50    2.10
  -8   4 -12    2.40    1.80
  -8   4 -12    9.40    3.20
  11  -5 -12   -2.70    3.60
  11  -5 -12    3.50    2.70
 -11  -5  12   -0.40    1.90
  11   5 -12    0.30    3.80
  10  -5 -12   13.60    3.90
 -10  -5  12   22.70    3.10
  10  -5 -12   24.50    4.00
  10   5 -12   15.70    4.90
   9  -5 -12    0.40    3.40
  -9  -5  12    5.30    2.90
   9  -5 -12    5.50    3.80
   9   5 -12    4.40    3.60
   9   5 -12   -1.40    4.60
  -9   5  12    3.50    2.30
   8  -5 -12    5.40    4.10
  -8  -5  12    7.40    3.10
   8  -5 -12   14.00    4.20
   8   5 -12   14.10    5.40
  -8   5  12    8.60    2.60
   7  -5 -12   22.40    5.00
  -7  -5  12   22.10    3.80
   7   5 -12   24.70    5.60
  -7   5  12   28.70    5.70
   7   5 -12   21.70    4.90
  -7   5  12   25.70    4.20
  -6  -5  12   72.09    7.10
   6  -5 -12   86.59    9.40
   6  -5 -12   77.89    8.70
   6   5 -12   71.79    9.60
  -6   5  12   88.49    9.30
   6   5 -12   83.29    9.10
  -6   5  12   94.09    6.90
   5  -5 -12   55.59    8.50
  -5  -5  12   41.20    6.00
   5  -5 -12   60.09    6.70
   5  -5 -12   49.90    7.20
   5   5 -12   53.29    8.50
   5   5 -12   50.89    8.00
  -5   5  12   48.90    6.90
  -5   5  12   51.89    5.40
   5   5 -12   50.79    6.10
   4  -5 -12    1.10    3.30
  -4  -5  12    2.20    2.60
   4  -5 -12    1.50    3.40
   4  -5 -12    2.60    4.80
   4   5 -12    6.10    3.70
   4   5 -12    0.50    3.90
  -4   5  12    3.00    2.70
  -4   5  12    3.00    4.00
   4   5 -12   -1.10    2.90
  -3  -5  12   40.90    5.40
   3  -5 -12   54.19    7.80
  -3  -5  12   43.00    4.40
   3  -5 -12   58.89    7.20
   3   5 -12   41.50    7.40
  -3   5  12   45.40    7.20
   3   5 -12   50.79    6.20
   3   5 -12   49.30    7.90
  -3   5  12   56.19    5.50
  -2  -5  12   48.50    4.60
   2  -5 -12   51.39    6.90
  -2  -5  12   46.40    5.40
   2  -5 -12   56.69    8.00
   2   5 -12   33.60    6.90
  -2   5  12   50.09    5.50
   2   5 -12   51.99    6.30
   2   5 -12   50.29    7.60
   2   5 -12   40.80    6.80
  -2   5  12   57.19   11.30
  -2   5  12   59.69    7.20
  -1  -5  12    9.20    2.70
   1  -5 -12   10.60    4.50
  -1  -5  12    7.80    2.10
   1  -5 -12   12.50    2.80
   1  -5 -12    5.30    3.60
  -1   5  12   13.10    4.20
   1   5 -12    8.60    3.00
  -1   5  12    1.80    8.90
  -1   5  12    7.90    3.60
   1   5 -12    5.80    3.90
  -1   5  12    6.80    3.00
   1   5 -12    9.50    2.80
   0  -5 -12  114.89   10.40
   0  -5  12  112.79    7.70
   0  -5 -12  118.39    9.40
   0  -5 -12  104.69    8.50
   0   5  12  108.99   10.00
   0   5 -12  113.29    9.00
   0   5 -12  102.79   10.00
   0   5 -12  101.29    8.20
   0   5  12  135.49    9.00
   0   5  12  114.69    9.20
   1  -5  12   37.90    4.30
  -1  -5 -12   29.50    5.40
  -1  -5 -12   33.60    4.70
  -1  -5 -12   36.10    5.60
  -1   5 -12   35.50    7.20
   1   5  12   34.50    5.30
   1   5  12   33.80    5.80
  -1   5 -12   30.70    5.00
   1   5  12   37.40    5.60
  -1   5 -12   33.90    5.80
  -2  -5 -12   19.80    3.60
   2  -5  12   21.10    3.90
  -2  -5 -12   15.50    4.50
  -2  -5 -12   16.30    3.90
   2   5  12   17.40    3.70
  -2   5 -12   18.80    3.30
   2   5  12   21.10    3.80
  -2   5 -12   20.90    4.30
  -2   5 -12   17.00    3.60
   3  -5  12  153.18    9.00
  -3  -5 -12  122.79   10.00
  -3  -5 -12  112.39   10.30
  -3  -5 -12  130.59   11.00
  -3   5 -12  128.89    9.40
   3   5  12  142.79   10.10
  -3   5 -12  122.99   10.30
   3   5  12  150.78   10.30
  -3   5 -12  135.39   10.10
  -4  -5 -12   21.50    4.00
  -4  -5 -12   12.80    3.30
  -4  -5 -12   17.00    4.20
  -4   5 -12   29.50    4.70
   4   5  12   27.80    3.80
   4   5  12   24.60    5.20
  -5  -5 -12   17.40    3.50
  -5  -5 -12   16.60    4.00
  -5  -5 -12   15.60    3.40
   5   5  12   19.20    4.00
  -5   5 -12   17.30    3.20
  -5   5 -12   10.20    3.00
  -6  -5 -12    7.40    3.10
  -6  -5 -12    8.70    2.90
  -6   5 -12    5.00    2.60
  -6   5 -12    7.40    2.60
   6   5  12    5.10    2.80
  -7  -5 -12    3.20    2.40
   7   5  12    6.10    2.70
  -7   5 -12    3.30    2.10
  -7   5 -12    3.20    2.30
  -8  -5 -12   -1.50    1.60
  -8   5 -12    1.20    1.80
 -11  -6  12   17.20    3.10
  11   6 -12   20.10    4.00
  10  -6 -12    4.40    3.10
 -10  -6  12    5.40    2.40
  10   6 -12    0.10    3.80
   9  -6 -12    2.30    3.50
  -9  -6  12    9.90    2.90
   9  -6 -12    7.20    3.40
   9   6 -12    5.10    4.40
   9   6 -12    1.80    3.50
  -9   6  12    6.00    2.10
   8  -6 -12   23.90    4.60
  -8  -6  12   16.60    3.50
   8  -6 -12   20.80    4.30
   8   6 -12   18.00    4.70
  -8   6  12   16.80    3.60
   8   6 -12   16.80    5.00
   7  -6 -12   29.80    5.20
  -7  -6  12   30.70    5.20
   7   6 -12   23.70    5.00
   7   6 -12   33.30    6.10
  -7   6  12   29.00    4.40
   6  -6 -12   32.50    5.20
   6  -6 -12   18.90    4.30
  -6  -6  12   15.90    3.30
  -6   6  12   16.20    4.80
   6   6 -12   33.60    5.30
   6   6 -12   24.90    5.30
  -6   6  12   26.90    4.30
   6   6 -12   25.80    5.80
   5  -6 -12   26.80    4.40
   5  -6 -12   29.20    5.70
  -5  -6  12   17.40    3.40
   5  -6 -12   17.10    4.60
   5   6 -12   25.70    5.40
   5   6 -12   19.40    3.50
  -5   6  12   22.20    4.10
   5   6 -12   16.90    4.70
  -5   6  12   31.00    5.50
   4  -6 -12   23.40    4.30
  -4  -6  12   21.40    3.40
  -4  -6  12   27.70    5.00
   4  -6 -12   24.10    4.20
   4  -6 -12   32.10    6.00
   4   6 -12   20.30    4.80
  -4   6  12   11.10    4.30
   4   6 -12   19.40    4.60
  -4   6  12   24.10    4.30
   4   6 -12   20.60    3.60
   3  -6 -12   16.20    4.20
  -3  -6  12    7.80    2.10
  -3  -6  12    6.40    2.70
   3  -6 -12    8.80    3.70
   3   6 -12    9.80    3.50
   3   6 -12   13.50    4.60
   3   6 -12    2.60    3.90
  -3   6  12    4.80    4.10
  -3   6  12   11.10    3.10
   2  -6 -12   40.60    7.00
  -2  -6  12   32.70    5.00
  -2  -6  12   28.40    4.10
   2  -6 -12   45.00    7.80
   2   6 -12   34.80    6.20
  -2   6  12   26.80    5.50
   2   6 -12   22.00    4.80
  -2   6  12   31.60    4.90
   2   6 -12   36.30    5.30
   1  -6 -12  189.58   13.50
   1  -6 -12  178.18   12.40
  -1  -6  12  167.38   10.80
   1   6 -12  153.78   11.30
   1   6 -12  172.88   12.00
  -1   6  12  177.58   12.30
  -1   6  12  179.68   11.90
   1   6 -12  165.48   13.20
  -1   6  12  153.78   12.70
   0  -6 -12   60.29    9.20
   0  -6  12   58.29    5.10
   0  -6 -12   58.99    6.00
   0  -6 -12   55.99    7.30
   0   6 -12   57.09    6.90
   0   6  12   49.60    7.50
   0   6  12   52.09    6.10
   0   6  12   55.89    6.80
   0   6 -12   54.69    8.10
   0   6 -12   51.19    5.90
  -1  -6 -12    2.50    2.80
  -1  -6 -12    7.00    3.60
   1  -6  12    5.90    2.20
  -1  -6 -12   -1.70    4.70
   1   6  12   11.70    4.10
  -1   6 -12    3.00    3.80
  -1   6 -12    2.60    3.00
  -1   6 -12   -1.60    2.80
   1   6  12    4.80    3.20
   1   6  12    1.40    3.00
  -2  -6 -12    5.70    3.60
  -2  -6 -12    2.90    4.60
  -2  -6 -12   -2.50    2.80
   2  -6  12    2.90    2.30
  -2   6 -12   -0.60    2.70
  -2   6 -12   -2.00    3.00
   2   6  12   -1.90    2.70
  -2   6 -12   -2.70    3.40
   2   6  12    0.30    3.20
  -2   6 -12    4.90    2.80
  -3  -6 -12    5.20    4.30
  -3  -6 -12   11.70    3.80
  -3  -6 -12    9.70    3.10
   3  -6  12    9.30    2.40
  -3   6 -12   10.00    3.10
   3   6  12    8.10    3.30
  -3   6 -12    3.60    3.00
  -3   6 -12    6.80    5.00
   3   6  12    9.80    3.30
  -4  -6 -12    1.90    2.90
  -4  -6 -12    1.40    3.80
   4  -6  12   -1.20    2.10
  -4  -6 -12    0.50    3.40
   4   6  12    2.70    3.10
  -4   6 -12    0.40    2.80
  -4   6 -12    0.10    2.50
   4   6  12   -0.50    2.30
  -5  -6 -12   14.00    3.70
  -5  -6 -12   18.30    3.70
  -5  -6 -12   17.90    3.30
   5   6  12   13.90    3.30
  -5   6 -12   15.80    2.80
   5   6  12   27.00    5.00
  -5   6 -12   14.90    3.00
  -6  -6 -12    1.60    2.50
  -6  -6 -12    1.10    2.80
   6   6  12    2.60    2.70
  -6   6 -12    1.60    2.40
  -6   6 -12    2.80    2.10
  -7  -6 -12    3.80    2.10
  -7   6 -12    3.40    1.90
   7   6  12    4.10    2.30
  10  -7 -12   26.00    5.10
 -10  -7  12   27.20    3.70
  10   7 -12   31.50    4.80
   9  -7 -12   35.10    6.20
  -9  -7  12   30.50    4.50
  -9   7  12   38.40    4.10
   9   7 -12   46.60    6.20
   9   7 -12   43.00    5.90
   8  -7 -12    9.10    3.80
   8  -7 -12    7.40    3.50
  -8  -7  12    2.20    2.80
   8   7 -12    8.80    4.40
   8   7 -12    8.60    4.10
  -8   7  12    5.30    2.10
  -7  -7  12   56.09    6.10
   7  -7 -12   53.79    7.30
  -7   7  12   73.59    5.90
   7   7 -12   65.99    8.60
   7   7 -12   77.39    8.30
   6  -7 -12    7.90    3.60
  -6  -7  12    4.80    3.20
   6  -7 -12    6.30    4.00
   6   7 -12    1.20    4.30
  -6   7  12    6.30    2.80
   6   7 -12    9.50    4.70
   6   7 -12    4.60    3.10
   5  -7 -12  103.49    9.90
   5  -7 -12   97.69    8.70
  -5  -7  12   97.99    7.80
  -5  -7  12   92.89    6.60
  -5   7  12   97.19    7.60
   5   7 -12   88.99    9.60
   5   7 -12   99.69    8.10
   5   7 -12  122.39   10.60
  -5   7  12   80.09   10.40
   4  -7 -12    3.40    3.60
  -4  -7  12    1.90    1.90
   4  -7 -12    1.40    4.60
  -4  -7  12   -1.70    2.50
   4  -7 -12    0.50    3.20
   4   7 -12    3.60    4.60
   4   7 -12   -1.20    3.90
  -4   7  12   -0.60    2.40
   4   7 -12   -0.80    2.90
  -4   7  12   -1.90    4.10
  -3  -7  12    4.30    3.00
   3  -7 -12    3.40    3.90
  -3  -7  12    6.90    2.10
   3  -7 -12    6.70    3.60
   3   7 -12    4.80    3.20
   3   7 -12    2.90    6.60
  -3   7  12    5.20    3.00
   3   7 -12    3.50    3.00
   3   7 -12    3.40    4.30
  -3   7  12    0.40    4.10
  -2  -7  12    8.30    2.20
   2  -7 -12    5.30    3.60
   2  -7 -12    3.30    4.20
  -2  -7  12    1.20    2.80
  -2   7  12    7.50    4.70
   2   7 -12    7.80    3.50
   2   7 -12    2.20    3.00
  -2   7  12    7.70    3.10
   2   7 -12    5.00    4.30
  -2   7  12   10.00    3.80
   1  -7 -12   28.70    5.30
   1  -7 -12   22.80    4.10
  -1  -7  12   30.50    3.90
   1   7 -12   31.40    5.50
   1   7 -12   33.80    6.10
   1   7 -12   26.40    5.20
  -1   7  12   38.20    6.00
  -1   7  12   27.40    5.00
  -1   7  12   27.90    5.70
   0  -7 -12   45.40    7.30
   0  -7 -12   62.79    7.60
   0  -7 -12   65.89    8.80
   0  -7  12   61.09    5.30
   0   7 -12   59.69    7.20
   0   7  12   67.29    7.00
   0   7 -12   68.29    8.60
   0   7  12   62.89    6.50
   0   7  12   51.59    7.90
   0   7 -12   57.89    6.20
  -1  -7 -12    6.00    3.60
  -1  -7 -12    4.80    2.70
  -1  -7 -12    6.00    4.80
   1  -7  12    5.50    2.20
   1   7  12    2.60    2.90
  -1   7 -12    3.70    3.00
  -1   7 -12    4.80    3.80
   1   7  12    4.70    3.10
  -1   7 -12    6.20    3.30
  -2  -7 -12   46.80    5.90
   2  -7  12   51.49    5.10
  -2  -7 -12   59.29    7.60
  -2  -7 -12   66.49    9.00
  -2   7 -12   33.10    5.40
   2   7  12   64.49    6.50
  -2   7 -12   53.59    6.50
  -2   7 -12   49.00    5.70
   2   7  12   53.59    6.10
  -2   7 -12   54.09    6.90
  -3  -7 -12   16.90    5.10
   3  -7  12   10.30    2.40
  -3  -7 -12   14.80    3.30
  -3  -7 -12   18.80    4.00
   3   7  12   13.80    3.70
  -3   7 -12    9.80    2.80
   3   7  12   10.80    3.20
  -3   7 -12   11.20    3.20
  -3   7 -12   13.00    3.10
  -4  -7 -12   24.10    4.60
  -4  -7 -12   25.40    4.10
  -4  -7 -12   26.40    3.90
   4  -7  12   25.80    3.80
  -4   7 -12   25.70    3.70
   4   7  12   26.50    4.80
  -4   7 -12   27.40    4.30
   4   7  12   33.80    4.70
  -5  -7 -12   15.20    2.90
  -5  -7 -12   21.10    3.60
  -5  -7 -12   23.10    4.00
  -5   7 -12   19.90    2.90
   5   7  12   23.00    4.00
  -5   7 -12   16.30    2.90
   5   7  12   15.10    3.20
  -6  -7 -12   -2.30    2.30
  -6  -7 -12    1.50    2.30
  -6   7 -12    0.20    1.90
   6   7  12   -0.20    2.20
  -6   7 -12    1.10    2.00
   9  -8 -12    5.10    2.70
  -9  -8  12    4.00    2.00
  -9   8  12    6.10    1.80
   9   8 -12    2.60    3.70
   9   8 -12    2.20    3.40
  -8  -8  12    2.40    2.50
   8  -8 -12    4.40    3.20
   8   8 -12    1.80    3.60
  -8   8  12    2.20    1.90
   8   8 -12    3.70    3.60
   7  -8 -12    1.00    3.00
  -7  -8  12    1.20    2.70
   7   8 -12   -2.40    3.80
   7   8 -12    1.90    3.60
  -7   8  12    1.00    2.20
  -6  -8  12    1.70    2.60
   6  -8 -12    5.20    3.30
   6  -8 -12    0.40    3.30
  -6   8  12    3.80    2.40
   6   8 -12    0.40    4.00
   6   8 -12    4.00    3.00
   6   8 -12    4.70    3.70
  -5  -8  12   -1.10    1.60
  -5  -8  12   -2.70    2.60
   5  -8 -12   -1.00    3.70
   5  -8 -12   -0.90    3.30
   5   8 -12    4.30    4.10
  -5   8  12    1.00    2.50
   5   8 -12    1.40    3.10
   5   8 -12    2.20    3.50
  -4  -8  12   -0.20    2.90
   4  -8 -12    6.80    3.60
   4  -8 -12    3.90    4.50
   4  -8 -12    4.90    4.10
  -4  -8  12    2.20    1.80
   4   8 -12    4.60    4.10
   4   8 -12    3.80    4.50
   4   8 -12    1.80    3.00
   4   8 -12    2.60    3.70
  -4   8  12    1.50    2.30
  -3  -8  12   53.59    5.70
   3  -8 -12   52.19    7.00
  -3  -8  12   50.79    4.60
   3  -8 -12   54.29    7.10
   3   8 -12   55.39    6.30
   3   8 -12   40.90    5.70
   3   8 -12   57.19    8.80
  -3   8  12   49.99    5.40
   2  -8 -12   15.30    3.80
  -2  -8  12   11.10    3.10
   2  -8 -12   15.30    4.10
  -2  -8  12    8.20    2.20
   2   8 -12   10.80    3.10
   2   8 -12    9.50    4.40
   2   8 -12   18.30    3.70
  -2   8  12   13.80    3.20
   1  -8 -12   10.40    3.60
  -1  -8  12    6.80    2.70
   1  -8 -12   14.70    4.60
  -1  -8  12    9.20    2.20
   1   8 -12   10.60    3.10
   1   8 -12   12.80    3.60
   1   8 -12    3.80    4.30
  -1   8  12    7.40    3.10
  -1   8  12   10.30    2.90
   0  -8  12    1.00    1.90
   0  -8 -12    0.60    4.30
   0  -8 -12   -0.60    3.30
   0   8 -12    3.60    3.10
   0   8 -12   -4.50    3.70
   0   8 -12   -2.60    2.70
   0   8  12    0.30    2.70
   0   8  12   -0.70    2.80
   1  -8  12   46.40    4.70
  -1  -8 -12   47.90    6.10
  -1  -8 -12   53.79    7.20
  -1  -8 -12   45.00    5.20
  -1   8 -12   48.90    6.70
   1   8  12   52.69    5.80
  -1   8 -12   34.20    6.10
  -1   8 -12   40.40    5.40
   1   8  12   45.80    6.10
  -2  -8 -12   -2.00    3.30
  -2  -8 -12    1.30    4.40
  -2  -8 -12   -1.50    2.40
   2  -8  12    1.60    2.00
  -2   8 -12    0.10    2.80
   2   8  12    0.90    2.80
  -2   8 -12    1.60    2.60
   2   8  12   -0.30    2.60
  -2   8 -12    0.70    3.00
  -3  -8 -12  163.38   11.60
  -3  -8 -12  146.89   12.10
  -3  -8 -12  145.59   10.80
   3  -8  12  184.78   10.40
  -3   8 -12  143.39   10.50
  -3   8 -12  151.58   10.60
   3   8  12  177.78   11.30
   3   8  12  179.28   11.30
  -3   8 -12  156.18   11.10
   4  -8  12    1.90    1.80
  -4  -8 -12    1.20    2.30
  -4  -8 -12    5.80    3.50
  -4  -8 -12    1.60    3.00
  -4   8 -12    0.30    2.40
  -4   8 -12    1.20    2.30
   4   8  12   -0.30    2.30
   4   8  12    2.50    2.70
  -5  -8 -12   11.90    3.30
  -5  -8 -12    8.70    2.90
  -5  -8 -12    4.90    2.20
  -5   8 -12    5.20    2.10
   5   8  12   10.40    2.70
  -5   8 -12    5.90    2.20
   6   8  12    2.00    2.80
   8  -9 -12    8.70    2.70
  -8  -9  12   10.20    2.30
   8   9 -12   12.40    3.60
  -8   9  12   10.70    2.10
   7  -9 -12   33.00    5.70
  -7  -9  12   28.20    4.10
  -7   9  12   26.20    3.50
   7   9 -12   35.30    6.10
   7   9 -12   30.00    5.70
  -6  -9  12    4.40    2.60
   6  -9 -12    4.00    2.90
   6  -9 -12   -1.40    2.90
   6   9 -12    4.30    2.70
   6   9 -12    2.20    3.80
   6   9 -12    2.80    3.10
  -6   9  12    0.80    1.80
   5  -9 -12   85.39    7.80
  -5  -9  12   88.29    7.10
  -5  -9  12   91.79    6.20
   5  -9 -12   86.99    8.20
   5   9 -12  113.99    9.40
   5   9 -12   93.19    7.50
  -5   9  12   93.49    7.00
  -4  -9  12    2.60    2.40
   4  -9 -12   -0.30    2.90
   4  -9 -12    4.60    3.70
  -4  -9  12    2.50    1.70
  -4   9  12   -1.50    2.30
   4   9 -12   18.50    4.50
   4   9 -12    2.80    3.20
   4   9 -12    0.80    3.00
   3  -9 -12   17.90    3.70
   3  -9 -12   17.30    3.50
  -3  -9  12   10.00    2.10
  -3  -9  12   12.20    3.10
   3   9 -12   10.20    4.00
   3   9 -12   10.50    3.10
   3   9 -12    8.10    3.00
  -3   9  12   16.40    3.10
   2  -9 -12   -1.50    3.00
   2  -9 -12    0.60    3.30
  -2  -9  12    1.10    2.40
  -2  -9  12    0.00    1.80
  -2   9  12    1.30    2.40
   2   9 -12    1.40    3.00
   2   9 -12    0.60    3.00
   2   9 -12   -1.60    3.60
  -1  -9  12   11.20    2.10
   1  -9 -12    6.70    4.00
  -1  -9  12    6.30    2.80
   1  -9 -12    8.70    3.50
  -1   9  12    7.20    2.60
   1   9 -12   13.70    3.20
   1   9 -12   10.40    3.30
   1   9 -12    5.10    3.60
  -1   9  12   13.80    3.40
   0  -9 -12   -0.20    3.90
   0  -9  12   -1.20    1.80
   0  -9 -12    3.00    3.20
   0   9  12    1.40    2.40
   0   9 -12    3.40    3.50
   0   9 -12    2.30    3.00
   0   9  12    1.70    2.60
   0   9 -12    3.00    2.70
  -1  -9 -12   33.00    4.90
  -1  -9 -12   25.90    4.10
   1  -9  12   30.10    3.70
  -1   9 -12   30.20    5.10
  -1   9 -12   25.70    4.60
  -1   9 -12   26.90    4.50
   1   9  12   37.50    4.60
   1   9  12   33.40    5.10
   2  -9  12    7.10    2.00
  -2  -9 -12    8.90    3.30
  -2  -9 -12    4.20    3.80
  -2  -9 -12    8.00    2.40
   2   9  12    5.20    2.60
  -2   9 -12    5.50    2.80
   2   9  12   14.90    3.10
  -2   9 -12    6.10    2.70
  -3  -9 -12    5.10    3.80
  -3  -9 -12    5.30    3.00
  -3  -9 -12    1.40    2.00
   3  -9  12    5.80    1.80
  -3   9 -12    3.40    2.50
   3   9  12    5.30    2.60
  -3   9 -12    1.40    2.20
   3   9  12    5.30    2.50
  -4  -9 -12   -2.70    2.90
  -4  -9 -12   -1.00    2.60
  -4  -9 -12   -2.70    3.60
  -4   9 -12    2.30    2.00
  -4   9 -12    1.40    2.20
   4   9  12    0.90    2.00
   4   9  12   -0.80    2.10
  -6 -10  12    0.40    2.10
  -6  10  12    2.50    1.60
   6  10 -12    3.40    3.00
   5 -10 -12    4.40    2.60
   5 -10 -12    7.80    3.20
  -5 -10  12    4.20    2.30
   5  10 -12    4.40    3.50
  -5  10  12    3.60    2.10
  -4 -10  12    1.60    2.20
  -4 -10  12   -1.00    1.40
   4 -10 -12   -2.10    2.80
   4 -10 -12   -1.50    2.50
   4  10 -12   -1.30    3.40
  -4  10  12    0.30    2.00
   4  10 -12    2.50    2.60
  -3 -10  12   52.39    4.20
   3 -10 -12   45.30    5.90
   3 -10 -12   46.80    6.70
  -3 -10  12   52.39    5.20
   3  10 -12   66.29    7.00
   3  10 -12   40.80    5.40
   3  10 -12   48.30    5.60
  -3  10  12   65.89    5.10
   2 -10 -12   25.00    5.30
  -2 -10  12   24.30    4.20
  -2 -10  12   21.60    3.20
   2 -10 -12   18.80    3.50
   2  10 -12   21.80    4.40
   2  10 -12   26.80    4.70
   2  10 -12   24.40    4.20
  -2  10  12   35.80    4.00
  -1 -10  12   35.00    3.60
  -1 -10  12   32.00    4.30
   1 -10 -12   27.90    5.20
   1 -10 -12   32.60    5.50
   1  10 -12   34.60    4.90
  -1  10  12   40.40    4.20
   1  10 -12   28.80    5.60
   1  10 -12   31.70    4.60
   0 -10 -12    2.20    2.80
   0 -10 -12   -2.60    3.10
   0 -10  12    1.60    1.70
   0 -10  12    1.80    2.20
   0  10 -12    3.50    2.30
   0  10  12    1.50    1.90
   0  10  12    1.90    2.50
   0  10 -12   -2.90    2.50
  -1 -10 -12   24.20    4.10
   1 -10  12   20.30    3.00
   1 -10  12   19.00    3.50
  -1 -10 -12   24.90    5.00
  -1  10 -12   21.40    3.80
   1  10  12   21.20    4.10
   1  10  12   28.10    3.70
  -1  10 -12   20.80    3.30
  -2 -10 -12    2.40    2.70
   2 -10  12    1.20    1.50
  -2 -10 -12    3.70    3.10
   2  10  12    0.10    1.80
   2  10  12    1.00    2.20
  -2  10 -12    0.80    2.20
  -2  10 -12    1.30    2.00
  -3 -10 -12    7.70    5.20
  -3 -10 -12    8.80    2.70
   3  10  12    7.00    2.60
   3 -11 -12   31.60    4.70
  -3 -11  12   41.10    5.20
  -2 -11  12    1.90    2.80
   2 -11 -12    4.50    2.50
  -2  11  12    3.50    1.70
   2  11 -12    2.50    2.30
   1 -11 -12    4.60    2.50
   1  11 -12    9.30    2.70
  -1  11  12    5.10    2.00
   0 -11 -12    4.40    2.50
 -11   0  13   -0.70    1.70
  11   0 -13    4.30    3.90
  10   0 -13    1.20    4.20
 -10   0  13    1.20    2.10
  -9   0  13   13.00    2.60
   9   0 -13   19.60    4.80
   8   0 -13    4.70    4.50
   8   0 -13    2.30    3.20
  -8   0  13    2.50    4.10
  -8   0  13    1.90    2.10
   7   0 -13    1.60    3.70
   7   0 -13    8.80    5.10
  -7   0  13    9.50    4.40
   6   0 -13    1.20    4.70
  -6   0  13    0.50    3.90
   6   0 -13   -3.90    3.70
   5   0 -13  368.86   24.50
   5   0 -13  394.46   24.00
   4   0 -13   -2.10    3.90
   4   0 -13    1.10    3.60
   3   0 -13  403.06   25.30
   3   0 -13  407.86   26.50
   3   0 -13  470.25   26.50
   2   0 -13    5.00    2.30
   2   0 -13    3.50    3.40
   2   0 -13    0.00    3.50
   1   0 -13  415.26   25.00
   1   0 -13  445.96   25.80
   1   0 -13  391.76   25.70
   0   0 -13   -0.20    3.30
   0   0 -13    0.70    3.10
   0   0 -13    1.70    2.40
  -1   0 -13   94.89    8.30
  -1   0 -13   72.59    7.60
  -1   0 -13   91.69    7.20
  -2   0 -13   -1.70    2.40
  -2   0 -13    3.60    3.20
  -3   0 -13    3.40    3.10
  -3   0 -13    2.90    2.50
  -4   0 -13   -2.30    2.70
  -4   0 -13   -1.10    2.40
  -4   0 -13    0.40    2.40
  -5   0 -13   83.09    7.00
  -5   0 -13   76.29    7.10
  -5   0 -13   89.69    6.60
  -6   0 -13   -0.40    2.20
  -6   0 -13    1.10    2.20
  -7   0 -13   13.50    2.40
  -7   0 -13   16.50    2.60
  -8   0 -13   -1.90    1.80
  12   1 -13    2.10    4.00
 -11  -1  13   33.60    3.80
  11  -1 -13   36.90    6.10
 -11   1  13   26.70    3.60
  11   1 -13   41.70    6.70
  10  -1 -13    3.20    4.00
 -10  -1  13   -0.70    2.10
 -10   1  13   -1.70    1.70
  10   1 -13   -2.40    4.00
   9  -1 -13  182.98   13.80
  -9  -1  13  163.58   11.20
   9   1 -13  191.48   14.00
   8  -1 -13   11.80    5.20
  -8  -1  13    7.40    2.50
  -8   1  13    6.90    4.40
   8   1 -13    7.70    3.40
   8   1 -13   10.90    4.70
  -7  -1  13  199.68   14.40
   7  -1 -13  164.98   12.90
  -7  -1  13  177.98   11.70
   7  -1 -13  212.38   14.40
  -7   1  13  181.08   13.90
   7   1 -13  194.58   14.60
   7   1 -13  174.38   12.90
   6  -1 -13    8.10    4.00
   6  -1 -13    8.50    5.10
   6  -1 -13    7.20    3.50
  -6  -1  13    5.50    2.40
   6   1 -13    6.50    4.10
  -6   1  13    7.80    4.10
   6   1 -13    7.90    4.90
   5  -1 -13   18.60    4.10
   5  -1 -13   18.80    4.20
   5  -1 -13   21.40    5.30
   5   1 -13   12.60    4.70
  -5   1  13   17.30    4.60
   5   1 -13   14.80    4.40
   4  -1 -13    4.60    3.90
   4  -1 -13    4.10    4.40
   4   1 -13    1.10    3.60
   4   1 -13    3.30    4.30
  -4   1  13    2.60    5.40
  -4   1  13    2.80    3.70
   3  -1 -13    6.10    4.20
   3  -1 -13   -0.80    3.70
  -3   1  13   -0.60    3.20
   3   1 -13    0.40    3.90
   3   1 -13    0.40    2.30
   3   1 -13   -0.20    3.50
   2  -1 -13    7.50    3.40
   2  -1 -13    6.30    3.70
   2  -1 -13    6.80    2.40
   2  -1 -13    8.70    3.90
   2   1 -13    7.40    2.70
   2   1 -13    2.40    3.40
   2   1 -13   -1.20    3.40
   1  -1 -13   15.30    4.30
   1  -1 -13   14.70    3.80
   1  -1 -13   18.30    3.00
   1  -1 -13   13.60    3.50
   1   1 -13   14.00    3.90
   1   1 -13   20.60    4.00
   1   1 -13   13.90    2.90
   0  -1 -13    2.80    3.50
   0  -1 -13    0.70    2.30
   0  -1 -13    0.60    3.10
   0   1 -13    1.20    3.40
   0   1 -13    1.20    3.00
   0   1 -13    1.80    2.60
  -1  -1 -13   74.29    7.80
  -1  -1 -13  103.19    7.40
  -1  -1 -13   96.89    8.60
  -1   1 -13   95.49    8.50
  -1   1 -13   93.79    7.50
  -2  -1 -13    2.50    3.10
  -2  -1 -13    0.90    3.40
  -2  -1 -13    0.30    2.40
  -2   1 -13    0.10    2.40
  -2   1 -13    1.90    3.30
  -3  -1 -13   85.09    7.70
  -3  -1 -13   77.99    6.80
  -3   1 -13   85.39    6.60
  -3   1 -13   71.79    7.50
  -3   1 -13   76.29    6.90
  -4  -1 -13    1.20    2.60
  -4  -1 -13    3.50    2.50
  -4   1 -13    2.80    2.60
  -4   1 -13    1.70    2.90
  -4   1 -13    4.30    2.50
  -5  -1 -13    2.90    2.60
  -5  -1 -13    4.20    2.60
  -5  -1 -13    4.60    2.70
  -5   1 -13    4.40    2.60
  -5   1 -13    8.30    2.80
  -5   1 -13    2.70    2.90
  -6  -1 -13   16.80    2.90
  -6  -1 -13   10.90    2.70
  -6   1 -13   16.50    2.90
  -6   1 -13   14.50    2.90
  -7  -1 -13   31.90    4.20
  -7  -1 -13   33.30    3.90
  -7   1 -13   25.80    4.10
  -7   1 -13   28.80    3.70
  -8  -1 -13    2.80    1.90
  -8   1 -13    1.90    1.70
  11  -2 -13    1.60    3.30
 -11  -2  13    4.20    2.10
  11   2 -13    2.20    3.60
 -10  -2  13   49.20    5.10
  10  -2 -13   43.40    6.90
  10   2 -13   53.99    8.10
  -9  -2  13   17.40    2.80
   9  -2 -13   20.90    4.90
   9   2 -13   17.10    5.00
  -8  -2  13   41.00    4.80
   8  -2 -13   52.39    8.20
   8  -2 -13   31.00    4.80
   8   2 -13   44.10    6.60
   8   2 -13   44.80    6.70
  -8   2  13   25.20    5.80
   7  -2 -13  159.28   11.30
  -7  -2  13  153.78   10.10
   7  -2 -13  124.69   11.40
   7  -2 -13  162.28   12.60
  -7   2  13  143.39   12.10
   7   2 -13  144.69   11.40
   7   2 -13  150.58   13.00
   6  -2 -13   11.90    3.90
  -6  -2  13   14.40    2.90
   6  -2 -13   13.60    4.80
   6  -2 -13   11.60    4.30
  -6   2  13   19.30    5.00
   6   2 -13   16.60    4.40
   6   2 -13   17.60    5.50
   5  -2 -13  162.28   11.60
   5  -2 -13  153.48   12.70
  -5  -2  13  136.59    9.80
   5   2 -13  132.09   12.40
  -5   2  13  145.79   11.80
   5   2 -13  166.38   12.10
   4  -2 -13    5.00    4.40
   4  -2 -13   18.00    4.10
   4  -2 -13   10.50    4.00
   4   2 -13   15.50    4.70
   4   2 -13   11.70    4.20
  -4   2  13   12.60    4.60
  -4   2  13   18.30    6.30
   4   2 -13   12.60    2.90
   3  -2 -13  116.99   10.70
   3  -2 -13  113.09   10.00
   3  -2 -13  139.39   10.70
   3   2 -13  138.39   10.80
  -3   2  13  124.99   12.60
   3   2 -13  119.39   10.70
   3   2 -13  125.99    9.10
  -3   2  13  136.09    8.80
  -3   2  13  109.39   10.10
   2  -2 -13   16.60    4.50
   2  -2 -13   23.00    4.10
   2  -2 -13   31.20    4.20
   2  -2 -13   31.90    4.90
   2   2 -13   28.70    5.10
   2   2 -13   21.80    4.40
   2   2 -13   22.20    4.30
  -2   2  13   28.10    4.00
  -2   2  13   18.30    4.20
   1  -2 -13  150.28   10.40
   1  -2 -13  161.78   11.70
   1  -2 -13  146.49   12.00
   1  -2 -13  133.59   11.20
  -1   2  13  157.68   10.40
   1   2 -13  164.08   11.60
   1   2 -13  168.98   10.80
   0  -2 -13    0.80    2.40
   0  -2 -13   -0.10    3.30
   0  -2 -13    0.10    3.30
   0  -2 -13    3.00    3.80
   0   2 -13    5.30    2.70
   0   2  13    2.80    2.30
   0   2 -13   -0.10    3.40
   0   2 -13    0.80    3.60
  -1  -2 -13   30.90    6.10
  -1  -2 -13   44.70    5.20
  -1  -2 -13   45.80    7.20
  -1  -2 -13   28.10    4.40
  -1   2 -13   41.50    5.60
  -1   2 -13   30.40    6.30
   1   2  13   41.20    4.80
  -2  -2 -13   34.60    6.80
  -2  -2 -13   30.50    4.90
  -2  -2 -13   33.00    4.70
  -2   2 -13   23.10    4.30
  -2   2 -13   42.40    5.40
  -2   2 -13   34.70    5.00
   2   2  13   46.40    5.00
  -3  -2 -13   22.20    4.00
  -3  -2 -13   21.40    3.20
  -3   2 -13   41.20    5.80
  -3   2 -13   26.60    3.50
  -3   2 -13   30.50    4.40
   3   2  13   33.30    4.60
  -4  -2 -13   21.40    3.50
  -4  -2 -13   18.60    3.70
   4   2  13   24.50    4.60
  -4   2 -13   29.20    4.80
  -4   2 -13   17.30    3.50
  -4   2 -13   17.10    2.90
  -5  -2 -13    1.50    2.70
  -5  -2 -13   -0.90    2.10
  -5   2 -13   -0.80    2.20
   5   2  13    3.50    2.70
  -5   2 -13    1.90    2.60
  -6  -2 -13    6.90    2.60
  -6  -2 -13   17.20    3.80
  -6  -2 -13    3.70    2.20
   6   2  13   11.30    3.00
  -6   2 -13   15.20    2.80
  -6   2 -13    6.00    2.40
  -7  -2 -13   59.69    5.10
  -7   2 -13   53.49    4.70
  -7   2 -13   54.39    5.10
  -8  -2 -13    2.80    1.80
  11  -3 -13   27.90    5.20
 -11  -3  13   24.40    3.60
  11   3 -13   40.30    6.30
 -10  -3  13    5.70    2.40
  10  -3 -13   15.10    3.60
  10  -3 -13    1.30    4.50
  10   3 -13   12.70    4.80
  -9  -3  13   36.90    4.60
   9  -3 -13   27.80    4.60
   9  -3 -13   33.90    5.50
   9   3 -13   36.40    5.80
   9   3 -13   34.20    6.00
   8  -3 -13   84.69    9.00
  -8  -3  13   82.19    7.20
   8  -3 -13   93.69    9.90
  -8   3  13   98.79    7.00
   8   3 -13   85.69   10.10
   8   3 -13  103.69    9.00
   7  -3 -13   29.60    5.70
   7  -3 -13   40.20    7.60
  -7  -3  13   28.80    4.90
   7   3 -13   32.60    5.80
  -7   3  13   29.80    3.90
  -7   3  13   22.10    5.10
   7   3 -13   36.30    6.90
  -6  -3  13    3.00    2.80
   6  -3 -13    6.60    4.50
   6  -3 -13    6.00    3.50
  -6   3  13    8.70    2.40
  -6   3  13    4.20    4.20
   6   3 -13    7.40    4.00
   6   3 -13    8.00    4.90
   5  -3 -13    2.00    4.40
   5  -3 -13    0.20    3.30
  -5  -3  13   -0.60    2.50
   5  -3 -13   -1.70    3.90
   5   3 -13    1.20    4.20
  -5   3  13   -1.20    2.10
   5   3 -13    2.20    3.90
  -5   3  13    1.10    3.80
   4  -3 -13   25.20    4.50
   4  -3 -13   18.40    4.50
  -4  -3  13   26.20    4.40
   4  -3 -13   23.20    4.30
  -4   3  13   24.90    4.00
   4   3 -13   23.10    4.90
   4   3 -13   24.90    5.00
  -4   3  13   21.20    4.70
   4   3 -13   21.10    4.70
  -3  -3  13   -1.60    2.20
   3  -3 -13    0.60    3.70
   3  -3 -13   -0.30    4.20
   3  -3 -13    3.40    3.60
   3   3 -13    0.20    3.60
  -3   3  13   -1.40    2.20
   3   3 -13   -2.00    3.80
   3   3 -13   -0.50    2.60
  -3   3  13    5.20    3.80
   2  -3 -13    3.30    3.50
   2  -3 -13   -1.30    3.90
   2  -3 -13    2.40    4.00
  -2   3  13    1.60    3.60
  -2   3  13    1.40    2.40
   2   3 -13   -2.20    3.80
   2   3 -13   -0.20    3.30
   2   3 -13    0.80    2.60
   1  -3 -13    7.30    2.60
   1  -3 -13    8.50    4.20
   1  -3 -13    5.60    4.00
   1  -3 -13   12.00    3.80
   1   3 -13    3.60    3.30
  -1   3  13   12.40    2.80
   1   3 -13    7.60    3.90
  -1   3  13   11.60    4.00
   1   3 -13   11.20    3.20
   0  -3 -13   22.40    4.80
   0  -3 -13   17.60    4.00
   0  -3 -13   17.00    3.00
   0  -3 -13   17.80    4.70
   0   3 -13   16.70    4.40
   0   3 -13   21.30    3.60
   0   3  13   20.70    4.20
  -1  -3 -13  105.49    9.50
  -1  -3 -13  110.59    8.60
  -1  -3 -13  108.69    9.90
  -1  -3 -13  120.49   10.10
   1   3  13  123.99    8.80
  -1   3 -13  120.79    8.30
  -1   3 -13  121.59    9.60
  -1   3 -13  105.99    9.00
  -2  -3 -13   22.70    4.10
  -2  -3 -13   26.70    4.70
  -2  -3 -13   26.30    4.60
  -2  -3 -13   32.10    4.90
   2   3  13   27.80    4.80
  -2   3 -13   35.80    5.40
  -2   3 -13   31.20    4.60
  -2   3 -13   25.30    4.40
  -3  -3 -13   23.80    4.20
  -3  -3 -13   27.70    4.60
  -3   3 -13   25.70    4.10
   3   3  13   29.40    4.90
  -3   3 -13   22.10    4.50
  -3   3 -13   24.70    3.70
  -4  -3 -13    6.90    2.70
  -4  -3 -13    0.50    3.20
  -4   3 -13    0.70    2.60
  -4   3 -13   -1.70    2.50
  -4   3 -13    0.10    3.10
   4   3  13    2.50    2.90
  -5  -3 -13   69.89    6.20
  -5  -3 -13   62.99    6.70
  -5   3 -13   57.39    5.80
  -5   3 -13   80.39    6.50
   5   3  13   81.19    6.40
  -6  -3 -13   15.60    2.80
  -6  -3 -13   13.70    2.80
  -6   3 -13   28.00    3.80
   6   3  13   21.40    4.30
  -7  -3 -13   18.90    3.70
  -7   3 -13   22.50    3.70
  -7   3 -13   20.30    3.40
   7   3  13   24.10    3.70
 -11  -4  13    9.10    2.00
  11   4 -13    4.40    3.80
 -10  -4  13   13.10    2.40
  10  -4 -13    9.10    3.30
  10  -4 -13   12.30    3.50
  10   4 -13   28.30    5.10
   9  -4 -13   -2.80    3.50
   9  -4 -13    1.00    3.40
  -9  -4  13    1.40    2.30
   9   4 -13    7.80    4.30
  -9   4  13    0.70    1.80
   9   4 -13    0.60    3.30
   8  -4 -13    7.40    4.50
   8  -4 -13    5.00    4.00
  -8  -4  13    3.30    2.80
   8   4 -13    5.50    4.70
   8   4 -13    3.30    3.80
  -8   4  13    6.40    2.20
   7  -4 -13    7.80    4.60
  -7  -4  13   16.50    3.30
   7  -4 -13   14.40    4.60
  -7   4  13   16.40    3.50
  -7   4  13   16.60    5.00
   7   4 -13   12.00    4.30
   7   4 -13   10.70    4.80
  -6  -4  13   24.90    3.50
   6  -4 -13   24.00    4.20
   6  -4 -13   21.50    5.20
  -6   4  13   17.80    4.70
   6   4 -13   30.00    5.70
   6   4 -13   23.40    4.60
  -6   4  13   22.90    3.90
   5  -4 -13   26.30    4.10
   5  -4 -13   26.50    5.30
  -5  -4  13   17.60    3.20
   5  -4 -13   21.60    4.50
   5   4 -13   16.90    3.30
   5   4 -13   17.40    4.30
  -5   4  13   20.00    4.80
   5   4 -13   24.80    5.10
  -5   4  13   22.70    4.10
   4  -4 -13    8.40    4.00
   4  -4 -13   11.00    4.90
  -4  -4  13   10.50    2.90
   4  -4 -13    9.70    3.90
  -4   4  13   11.90    4.30
   4   4 -13   17.70    4.50
   4   4 -13   14.40    3.30
   4   4 -13   13.30    4.40
  -4   4  13    9.20    2.70
  -3  -4  13  191.58   13.00
   3  -4 -13  195.88   14.20
   3  -4 -13  209.88   15.30
   3  -4 -13  224.08   14.60
  -3   4  13  199.18   15.00
   3   4 -13  175.68   14.40
  -3   4  13  218.78   13.50
   3   4 -13  236.18   15.00
   3   4 -13  214.28   13.70
   2  -4 -13   17.60    4.60
  -2  -4  13    8.90    2.60
   2  -4 -13   14.70    3.90
   2  -4 -13   20.40    5.20
   2   4 -13    9.70    3.70
  -2   4  13   11.30    2.80
   2   4 -13   19.80    3.40
  -2   4  13    8.50    4.30
   2   4 -13   13.00    4.10
   1  -4 -13    7.90    4.30
   1  -4 -13   14.50    3.90
   1  -4 -13   16.60    3.00
   1   4 -13    5.80    4.00
  -1   4  13   15.20    4.50
  -1   4  13   23.50    4.40
   1   4 -13    9.90    3.10
   0  -4 -13   71.69    8.70
   0  -4 -13   72.89    6.50
   0  -4 -13   77.69    8.10
   0   4 -13   73.99    7.40
   0   4 -13   72.99    8.50
   0   4  13   85.69    6.80
   0   4  13   83.49    8.10
  -1  -4 -13    4.50    4.00
  -1  -4 -13    3.80    2.70
  -1  -4 -13    2.10    3.40
  -1   4 -13    2.70    3.00
  -1   4 -13    2.80    3.70
  -1   4 -13    3.30    2.50
   1   4  13    2.60    3.00
  -2  -4 -13   56.89    6.80
  -2  -4 -13   50.29    7.70
  -2  -4 -13   42.50    5.70
  -2   4 -13   46.70    6.10
   2   4  13   45.40    5.80
  -2   4 -13   49.60    5.30
  -2   4 -13   41.20    6.90
  -3  -4 -13    0.50    2.50
  -3  -4 -13    2.70    3.10
  -3  -4 -13    2.30    3.80
  -3   4 -13    1.80    2.60
   3   4  13    1.40    2.90
  -3   4 -13    3.50    3.20
  -3   4 -13   -1.10    2.70
  -4  -4 -13   33.80    5.00
  -4  -4 -13   31.00    4.50
  -4   4 -13   33.20    4.60
  -4   4 -13   33.10    5.30
   4   4  13   42.40    5.20
  -5  -4 -13   -3.70    2.80
  -5  -4 -13    3.30    2.40
  -5   4 -13    4.30    2.70
  -5   4 -13    2.60    2.30
   5   4  13    2.50    2.70
  -6  -4 -13    1.20    2.10
  -6  -4 -13    6.20    2.50
  -6   4 -13    1.60    2.20
  -6   4 -13    3.60    2.40
   6   4  13    5.70    2.50
  -7  -4 -13    2.60    1.90
  -7   4 -13    0.10    1.70
  -7   4 -13   -0.20    1.70
   7   4  13   -0.90    2.80
  11   5 -13   46.30    7.60
  10  -5 -13    1.80    2.90
 -10  -5  13    2.40    2.00
  10  -5 -13   -1.40    2.30
  10   5 -13    1.30    3.80
  -9  -5  13   65.59    5.80
   9  -5 -13   75.29    7.30
   9  -5 -13   71.49    7.30
   9   5 -13   75.49    8.70
   9   5 -13   65.39    7.00
  -9   5  13   71.19    5.60
   8  -5 -13   14.20    4.20
  -8  -5  13   12.00    3.00
   8  -5 -13   11.20    4.30
   8   5 -13    9.70    3.90
  -8   5  13    6.60    2.10
   8   5 -13   13.40    4.80
   7  -5 -13   10.80    4.60
  -7  -5  13    5.80    2.90
   7  -5 -13    6.80    4.30
  -7   5  13    7.40    2.40
   7   5 -13   13.40    5.00
   7   5 -13    2.90    4.10
  -6  -5  13   45.30    5.40
   6  -5 -13   45.50    7.80
   6  -5 -13   35.70    7.40
   6   5 -13   45.80    8.10
  -6   5  13   49.20    4.90
   6   5 -13   47.10    7.80
   5  -5 -13   49.90    6.60
   5  -5 -13   57.09    8.30
  -5  -5  13   51.49    5.90
   5  -5 -13   49.99    7.60
   5   5 -13   51.89    5.90
  -5   5  13   61.39    7.60
  -5   5  13   58.09    5.40
   5   5 -13   54.19    8.10
   5   5 -13   64.79    8.10
   4  -5 -13  142.39   11.90
   4  -5 -13  118.49   10.90
  -4  -5  13  136.49    9.40
   4  -5 -13  140.59   10.70
   4   5 -13  143.29   11.40
  -4   5  13  132.39   11.60
   4   5 -13  136.99   11.20
  -4   5  13  131.89    9.50
   4   5 -13  136.59    9.90
  -3  -5  13   22.90    3.30
   3  -5 -13   14.30    4.70
   3  -5 -13   24.30    4.50
   3  -5 -13   19.60    4.20
  -3   5  13   31.30    5.40
   3   5 -13   21.90    4.40
  -3   5  13   23.60    4.30
   3   5 -13   21.60    4.60
   3   5 -13   17.20    3.70
   2  -5 -13   73.39    8.60
   2  -5 -13   64.09    7.70
  -2  -5  13   55.29    6.00
  -2   5  13   72.99    6.30
   2   5 -13   78.09    8.90
   2   5 -13   72.69    7.10
  -2   5  13   74.69    8.40
   1  -5 -13    8.90    4.60
   1  -5 -13   10.70    3.80
  -1  -5  13    8.90    2.50
   1   5 -13    6.70    3.00
  -1   5  13    7.60    4.60
   1   5 -13    1.40    3.70
  -1   5  13   12.70    3.40
   0  -5 -13   32.70    4.90
   0  -5 -13   40.50    5.60
   0  -5 -13   34.00    6.80
   0   5 -13   32.90    5.80
   0   5  13   33.80    5.10
   0   5 -13   36.00    4.80
   0   5  13   34.40    5.40
   0   5 -13   38.80    7.50
  -1  -5 -13   60.39    8.40
  -1  -5 -13   56.59    7.40
  -1  -5 -13   51.39    5.90
  -1   5 -13   48.00    6.30
  -1   5 -13   42.70    7.50
   1   5  13   59.69    6.00
  -1   5 -13   65.49    5.70
  -2  -5 -13   12.00    3.70
  -2  -5 -13    8.10    4.20
  -2  -5 -13    7.20    3.00
   2   5  13    5.00    3.00
  -2   5 -13    3.20    2.60
  -2   5 -13    2.00    3.60
  -2   5 -13    3.40    2.80
  -3  -5 -13   11.50    3.10
  -3  -5 -13   10.00    3.50
  -3  -5 -13   16.10    4.20
  -3   5 -13   15.20    3.60
  -3   5 -13    9.80    3.10
   3   5  13   16.70    3.70
  -3   5 -13   13.80    2.90
  -4  -5 -13   -1.20    2.90
  -4  -5 -13    0.80    3.40
  -4  -5 -13    1.70    2.50
  -4   5 -13    4.10    2.60
  -4   5 -13    3.20    2.60
   4   5  13   -1.70    2.80
  -5  -5 -13   17.80    3.60
  -5  -5 -13   24.00    3.30
  -5   5 -13   22.00    3.80
   5   5  13   21.20    4.50
  -5   5 -13   20.90    3.30
  -6  -5 -13   -0.30    2.10
  -6  -5 -13    2.90    2.10
  -6   5 -13    0.30    2.00
  -6   5 -13    1.10    2.00
   6   5  13    2.50    2.40
  -7  -5 -13   11.70    2.20
  10  -6 -13   25.60    4.80
 -10  -6  13   27.70    3.40
  10   6 -13   34.50    5.90
   9  -6 -13    3.20    3.10
   9  -6 -13    1.80    2.80
  -9  -6  13    2.40    2.10
  -9   6  13    4.10    1.90
   9   6 -13    4.60    3.30
   9   6 -13   -2.10    3.80
   8  -6 -13   27.60    4.70
   8  -6 -13   18.00    4.10
  -8  -6  13   17.90    3.10
  -8   6  13   18.80    3.30
   8   6 -13   21.10    4.80
   8   6 -13   29.60    4.50
   7  -6 -13   64.89    8.00
  -7  -6  13   57.39    6.10
   7   6 -13   61.09    8.40
  -7   6  13   65.19    5.50
   7   6 -13   82.19    8.30
   6  -6 -13   40.70    5.90
   6  -6 -13   44.90    7.50
  -6  -6  13   33.70    5.20
   6   6 -13   40.30    7.20
   6   6 -13   41.90    7.80
  -6   6  13   38.80    4.60
  -5  -6  13    0.20    2.80
   5  -6 -13    1.70    3.20
   5  -6 -13    1.10    3.60
   5  -6 -13   -0.70    4.00
  -5   6  13    2.10    2.40
   5   6 -13    3.90    4.00
   5   6 -13   -1.40    2.60
   5   6 -13   -0.40    4.10
   4  -6 -13   31.60    4.50
  -4  -6  13   20.90    3.50
   4  -6 -13   39.00    7.80
   4  -6 -13   32.20    4.90
   4   6 -13   46.00    7.60
   4   6 -13   32.80    6.60
  -4   6  13   28.80    4.40
   4   6 -13   37.50    5.40
  -4   6  13   40.40    6.30
  -3  -6  13    6.60    2.60
   3  -6 -13    2.40    4.60
   3  -6 -13    4.20    3.80
   3  -6 -13    2.00    3.60
   3   6 -13    5.60    4.00
  -3   6  13   -0.70    4.30
   3   6 -13    8.90    3.90
   3   6 -13    8.90    3.20
  -3   6  13    8.70    2.80
  -2  -6  13    5.80    2.80
   2  -6 -13    2.40    4.20
   2  -6 -13    6.40    3.80
   2   6 -13   11.90    4.40
   2   6 -13    6.60    3.40
  -2   6  13    6.50    2.90
  -2   6  13   10.10    4.60
  -1  -6  13   35.00    4.40
  -1  -6  13   30.80    4.60
   1  -6 -13   39.30    7.70
   1  -6 -13   49.80    6.80
  -1   6  13   42.80    5.20
   1   6 -13   36.40    6.00
   1   6 -13   47.70    7.80
  -1   6  13   41.80    7.00
   1   6 -13   38.70    5.30
   0  -6 -13   16.80    4.20
   0  -6 -13   24.60    4.60
   0  -6  13   25.40    3.50
   0  -6  13   16.00    2.80
   0  -6 -13   18.70    4.80
   0   6  13   22.40    4.70
   0   6 -13   17.20    4.40
   0   6 -13   18.20    3.20
   0   6 -13   15.10    3.40
   1  -6  13    2.10    2.70
  -1  -6 -13   -0.20    2.50
  -1  -6 -13    5.30    3.70
  -1  -6 -13    2.30    4.20
   1   6  13   -0.10    2.90
  -1   6 -13   -2.30    2.90
  -1   6 -13    1.80    2.50
   1   6  13    2.50    3.00
  -1   6 -13    1.10    3.60
  -2  -6 -13   30.00    4.90
  -2  -6 -13   31.80    5.10
  -2  -6 -13   34.40    6.80
  -2   6 -13   32.80    4.60
   2   6  13   36.30    5.20
  -2   6 -13   25.90    4.50
  -2   6 -13   34.10    5.60
   2   6  13   36.80    5.30
  -3  -6 -13    1.60    3.70
  -3  -6 -13    2.10    3.20
  -3  -6 -13    2.30    2.70
   3   6  13    0.50    2.60
  -3   6 -13   -0.10    2.70
  -3   6 -13    1.40    2.40
  -4  -6 -13    7.50    2.60
  -4  -6 -13   13.40    3.50
   4   6  13   14.30    3.40
  -4   6 -13   13.20    3.00
  -4   6 -13    8.20    2.70
  -5  -6 -13    2.40    3.00
  -5  -6 -13    4.00    2.30
   5   6  13    3.60    2.50
  -5   6 -13    2.00    2.20
  -5   6 -13    5.20    2.20
  -6  -6 -13    5.80    2.20
  -6   6 -13    3.30    2.40
  -6   6 -13    3.00    1.90
   6   6  13    4.60    2.20
   9  -7 -13   38.70    5.40
  -9  -7  13   36.20    4.10
   9   7 -13   42.20    6.30
  -9   7  13   42.90    3.70
  -8  -7  13   17.70    2.90
   8  -7 -13   35.70    5.30
   8  -7 -13   25.00    4.10
   8   7 -13   23.40    4.60
  -8   7  13   25.20    3.40
   8   7 -13   32.80    5.70
   7  -7 -13    6.00    3.60
  -7  -7  13    6.00    2.70
  -7   7  13    2.80    2.00
   7   7 -13    9.90    3.90
   7   7 -13    6.00    3.90
   6  -7 -13   71.39    7.70
  -6  -7  13   53.69    5.90
   6  -7 -13   78.19    7.80
  -6   7  13   68.79    5.80
   6   7 -13   66.99    7.90
   6   7 -13   79.99    8.50
  -5  -7  13   10.00    2.90
   5  -7 -13   12.30    4.60
   5   7 -13   18.10    3.40
   5   7 -13   10.00    4.40
   5   7 -13    9.80    4.00
   4  -7 -13   35.80    5.70
   4  -7 -13   41.30    5.90
  -4  -7  13   34.80    4.90
   4  -7 -13   38.20    6.70
   4   7 -13   36.10    5.20
   4   7 -13   24.70    4.70
   4   7 -13   40.50    6.10
  -4   7  13   41.50    4.70
   3  -7 -13   18.60    4.30
  -3  -7  13    8.10    2.80
   3  -7 -13    5.10    4.80
   3  -7 -13    3.50    3.50
  -3   7  13    7.80    2.90
   3   7 -13    9.70    4.60
   3   7 -13    6.40    3.20
   2  -7 -13   25.20    4.50
   2  -7 -13   31.50    6.70
  -2  -7  13   21.30    3.40
   2   7 -13   15.10    3.80
   2   7 -13   25.90    5.10
   2   7 -13   25.00    4.00
  -2   7  13   24.20    4.40
  -1  -7  13   23.40    3.60
   1  -7 -13   33.10    6.60
   1  -7 -13   36.80    5.10
  -1  -7  13   26.00    4.40
   1   7 -13   30.50    4.20
  -1   7  13   30.30    4.80
   1   7 -13   23.40    4.70
   1   7 -13   22.70    4.60
   0  -7 -13    5.40    3.90
   0  -7  13    8.60    2.50
   0  -7 -13   -0.60    4.00
   0  -7  13    7.40    2.00
   0   7 -13    5.00    3.10
   0   7 -13    5.10    3.20
   0   7  13    5.10    3.10
   0   7 -13    4.50    3.90
  -1  -7 -13    6.80    3.70
   1  -7  13    4.00    1.80
   1  -7  13    6.50    2.30
  -1  -7 -13    6.70    4.10
  -1  -7 -13    6.80    2.60
  -1   7 -13    9.50    2.90
  -1   7 -13    2.10    3.50
  -1   7 -13    3.50    3.00
   1   7  13    6.20    3.10
   1   7  13    8.90    3.00
  -2  -7 -13   -1.10    2.20
   2  -7  13    0.40    1.90
  -2  -7 -13    2.70    3.80
  -2  -7 -13    4.40    3.50
   2   7  13   -2.40    2.60
   2   7  13    0.90    2.80
  -2   7 -13    4.60    2.50
  -2   7 -13    1.40    2.90
  -2   7 -13    1.40    3.40
  -3  -7 -13    8.50    2.90
  -3  -7 -13   16.20    4.10
  -3  -7 -13   13.30    3.60
  -3   7 -13   14.10    2.70
  -3   7 -13    9.80    2.90
   3   7  13   18.90    3.40
  -4  -7 -13    2.20    2.30
  -4  -7 -13   -2.20    2.90
  -4  -7 -13    0.90    2.80
  -4   7 -13    1.80    2.10
  -4   7 -13    6.80    2.40
   4   7  13   -0.50    2.10
  -5  -7 -13   29.40    3.70
  -5  -7 -13   24.50    4.40
  -5   7 -13   29.10    3.60
  -5   7 -13   27.90    3.90
   5   7  13   36.70    4.20
  -8  -8  13    3.70    1.90
   8  -8 -13    3.10    2.70
  -8   8  13    3.00    1.70
   8   8 -13    5.60    3.10
  -7  -8  13    3.50    2.30
   7  -8 -13    4.70    3.10
   7  -8 -13    4.00    3.20
  -7   8  13    5.10    1.80
   7   8 -13    2.80    3.20
   7   8 -13    5.80    3.70
   6  -8 -13    3.80    3.20
  -6  -8  13    5.10    2.40
   6  -8 -13    7.60    3.40
   6   8 -13    4.10    3.80
  -6   8  13    3.10    1.90
   6   8 -13    8.30    3.40
   5  -8 -13    5.10    3.30
  -5  -8  13    7.00    2.70
   5  -8 -13    5.40    3.80
  -5   8  13    5.30    2.30
   5   8 -13    7.00    2.90
   5   8 -13    5.00    4.00
   5   8 -13    1.70    4.00
  -4  -8  13    0.90    2.40
   4  -8 -13    5.10    3.50
   4  -8 -13   -2.10    3.50
  -4   8  13    0.90    2.00
   4   8 -13    2.40    2.70
   4   8 -13   -0.80    3.70
  -3  -8  13    1.80    2.20
   3  -8 -13    4.70    4.20
   3  -8 -13    0.00    3.30
   3  -8 -13    2.30    3.10
  -3  -8  13    1.60    1.60
  -3   8  13    1.00    2.20
   3   8 -13    2.90    4.00
   3   8 -13   -0.60    2.50
  -2  -8  13   11.30    2.80
   2  -8 -13   15.80    4.00
   2  -8 -13   13.00    3.60
  -2  -8  13   15.30    3.10
  -2   8  13   17.50    3.30
   2   8 -13   11.40    3.30
   2   8 -13   15.00    3.20
   2   8 -13   17.30    4.50
   1  -8 -13   14.10    3.80
   1  -8 -13   13.60    3.90
  -1  -8  13   11.20    2.10
  -1  -8  13   17.40    2.80
   1   8 -13    9.60    2.90
   1   8 -13   12.80    3.30
   1   8 -13   23.20    4.40
  -1   8  13   20.70    4.00
   0  -8  13   16.20    2.70
   0  -8  13   19.00    3.10
   0  -8 -13   16.20    4.20
   0  -8 -13   13.90    3.80
   0   8 -13   39.50    6.20
   0   8 -13    7.30    2.80
   0   8  13   13.00    2.80
   0   8 -13   16.70    2.80
   1  -8  13    5.40    1.80
   1  -8  13    3.20    2.10
  -1  -8 -13   -4.70    3.60
  -1  -8 -13    3.50    3.40
  -1   8 -13    4.40    2.50
   1   8  13    2.20    2.40
  -1   8 -13   -0.90    3.20
  -1   8 -13    4.00    2.70
   1   8  13    3.90    2.90
   2  -8  13   55.49    4.70
  -2  -8 -13   58.49    6.90
  -2  -8 -13   50.09    5.30
  -2  -8 -13   70.39    7.10
  -2   8 -13   66.29    5.80
   2   8  13   67.29    5.70
   2   8  13   67.39    6.00
  -2   8 -13   61.39    5.30
  -3  -8 -13   12.60    3.30
  -3  -8 -13   12.40    2.30
  -3  -8 -13   11.90    3.30
  -3   8 -13    8.80    2.50
  -3   8 -13    7.30    2.40
   3   8  13   18.30    3.00
  -4  -8 -13   77.29    6.30
  -4   8 -13   71.49    5.40
  -4   8 -13   62.09    5.70
   7  -9 -13    7.00    2.70
   6  -9 -13   32.90    5.30
  -6  -9  13   26.10    3.70
  -6   9  13   28.70    3.30
   6   9 -13   18.90    3.90
   5  -9 -13    6.00    2.80
  -5  -9  13    2.70    2.10
   5  -9 -13    2.50    2.90
   5   9 -13    1.50    2.40
   5   9 -13    0.50    3.30
  -5   9  13   -0.80    1.90
   4  -9 -13   18.40    3.60
   4  -9 -13   17.80    4.00
  -4  -9  13   20.90    3.70
  -4   9  13   18.20    3.40
   4   9 -13   16.50    3.20
   4   9 -13   16.80    3.90
   3  -9 -13   17.60    4.30
  -3  -9  13   10.90    2.60
   3  -9 -13   16.00    3.50
  -3  -9  13    9.90    1.90
   3   9 -13   13.80    3.00
  -3   9  13   14.10    2.70
   3   9 -13   10.60    3.80
  -2  -9  13   15.00    2.80
  -2  -9  13   14.80    2.50
   2  -9 -13   21.40    3.80
   2  -9 -13   24.60    4.80
   2  -9 -13   14.30    3.10
   2   9 -13   19.10    4.00
   2   9 -13   10.50    3.00
   2   9 -13    7.50    3.20
  -2   9  13   20.50    3.50
  -1  -9  13    2.50    2.20
  -1  -9  13    6.60    1.70
   1  -9 -13    6.10    3.30
   1  -9 -13   14.10    3.50
  -1   9  13   11.80    2.60
   1   9 -13    7.00    2.50
   1   9 -13    7.30    3.30
   1   9 -13    8.00    2.80
   0  -9 -13   56.59    6.10
   0  -9  13   53.99    4.10
   0  -9 -13   63.49    6.30
   0  -9  13   41.40    4.60
   0   9 -13   39.70    4.70
   0   9 -13   56.49    6.20
   0   9 -13   48.70    5.40
  -1  -9 -13    1.90    3.00
   1  -9  13    1.50    1.80
  -1   9 -13    0.70    2.30
  -1   9 -13    2.10    2.10
   1   9  13    3.50    2.10
  -2  -9 -13   -0.90    2.90
  -2  -9 -13    3.20    2.80
  -2   9 -13    1.30    2.10
   2   9  13    0.60    1.70
  -2   9 -13    3.20    2.10
  -3  -9 -13    2.80    3.10
   3   9  13    1.80    2.60
   4 -10 -13    5.80    2.50
  -4  10  13    7.10    2.10
  -3 -10  13   23.90    3.80
   3 -10 -13   23.70    4.60
   3 -10 -13   20.90    3.70
   3  10 -13   23.40    3.50
  -3  10  13   23.10    3.20
  -2 -10  13   38.80    5.10
   2 -10 -13   34.60    5.40
   2 -10 -13   35.00    5.10
   2  10 -13   28.70    4.30
  -2  10  13   41.70    3.80
   1 -10 -13    0.80    2.60
   1 -10 -13    1.30    3.20
   1  10 -13    1.90    2.10
  -1  10  13    1.30    1.60
   0 -10 -13   14.90    2.90
   0  10 -13    7.00    2.00
   0  10  13    7.80    1.90
  11   0 -14   -3.30    3.00
  10   0 -14   41.80    6.80
   9   0 -14    4.30    4.10
   8   0 -14   31.30    5.70
   8   0 -14   24.50    5.50
   7   0 -14    3.70    4.80
   7   0 -14    0.50    3.60
   6   0 -14    0.50    4.00
   6   0 -14    9.10    5.00
   5   0 -14   -4.30    4.10
   5   0 -14   -1.50    3.90
   4   0 -14  256.67   18.40
   4   0 -14  291.37   18.10
   3   0 -14    1.80    3.90
   3   0 -14    4.90    3.60
   2   0 -14  589.24   33.60
   2   0 -14  577.84   32.80
   2   0 -14  492.35   33.60
   1   0 -14    2.40    3.70
   1   0 -14    1.40    2.40
   1   0 -14    3.70    3.40
   0   0 -14  116.69    8.30
   0   0 -14  119.49    9.40
   0   0 -14   93.29    8.80
  -1   0 -14   -0.10    2.30
  -1   0 -14   -1.10    3.30
  -2   0 -14   67.79    7.30
  -2   0 -14   60.49    6.10
  -3   0 -14    0.50    2.50
  -3   0 -14   -3.00    2.80
  -4   0 -14    3.90    2.30
  -4   0 -14    5.10    2.80
  -5   0 -14   -0.90    2.00
  -5   0 -14    1.80    2.60
  -6   0 -14   -0.80    2.00
  -7   0 -14    1.10    1.80
  11  -1 -14    4.90    3.20
  11   1 -14   -3.10    3.10
  10  -1 -14   50.29    6.70
 -10  -1  14   39.80    4.30
  10   1 -14   57.89    7.30
   9  -1 -14    1.50    3.80
  -9  -1  14   -0.10    2.00
   9   1 -14    0.10    4.10
   8  -1 -14  198.38   14.40
   8   1 -14  185.98   14.30
   8   1 -14  178.88   12.90
   7  -1 -14    8.10    3.70
   7  -1 -14   20.10    5.20
   7   1 -14    9.50    3.80
   7   1 -14   11.40    5.10
   6  -1 -14   24.60    4.50
   6  -1 -14   18.20    5.30
   6   1 -14   18.30    4.50
   6   1 -14   13.30    4.90
  -6   1  14   17.30    6.50
   5  -1 -14   -1.30    4.00
   5  -1 -14    3.70    3.60
   5   1 -14    0.60    4.00
   5   1 -14   -2.20    4.00
   4  -1 -14   11.30    4.60
   4  -1 -14   19.20    4.30
   4   1 -14   10.40    4.50
   4   1 -14   16.80    4.50
   3  -1 -14    2.70    3.80
   3  -1 -14    1.90    4.20
   3   1 -14    0.60    2.50
   3   1 -14    9.40    4.10
   3   1 -14    5.20    4.00
   2  -1 -14   28.40    4.60
   2  -1 -14   36.60    6.90
   2  -1 -14   19.60    4.40
   2   1 -14   21.20    4.20
   2   1 -14   19.50    4.40
   2   1 -14   33.90    4.90
   1  -1 -14   20.50    4.30
   1  -1 -14   16.10    3.00
   1  -1 -14   15.60    3.90
   1   1 -14    9.50    2.80
   1   1 -14   14.40    3.80
   1   1 -14   18.50    4.40
   0  -1 -14    8.90    2.50
   0  -1 -14   10.40    3.40
   0  -1 -14    9.30    3.60
   0   1 -14   12.00    3.90
   0   1 -14    8.00    3.40
   0   1 -14    8.30    2.90
  -1  -1 -14    1.60    3.20
  -1  -1 -14    4.50    3.00
  -1  -1 -14    4.30    2.60
  -1   1 -14    2.90    2.70
  -1   1 -14    2.80    3.30
  -2  -1 -14   28.50    4.80
  -2  -1 -14   27.70    5.60
  -2   1 -14   19.40    3.30
  -2   1 -14   23.30    4.00
  -3  -1 -14   11.80    3.30
  -3  -1 -14   12.50    2.70
  -3   1 -14   14.00    3.10
  -3   1 -14   14.00    3.50
  -4  -1 -14    7.30    2.60
  -4  -1 -14   15.30    3.10
  -4   1 -14   10.60    2.60
  -4   1 -14   11.70    3.20
  -5  -1 -14   20.80    3.20
  -5  -1 -14   20.30    3.10
  -5   1 -14   19.60    3.00
  -5   1 -14   16.20    3.00
  -6  -1 -14   34.30    4.20
  -6   1 -14   31.80    4.10
  -7  -1 -14    1.10    1.70
  -7   1 -14    3.40    1.60
  11   2 -14    5.20    3.40
 -10  -2  14    4.20    1.90
  10  -2 -14    8.70    3.70
  10   2 -14    3.20    3.60
  -9  -2  14    4.70    2.10
   9  -2 -14    4.30    4.20
   9   2 -14    4.50    4.20
   8  -2 -14   -0.50    4.20
  -8  -2  14    3.90    2.20
  -7  -2  14    0.10    2.10
   7  -2 -14   -0.80    3.40
   7  -2 -14    3.60    4.60
   7   2 -14    4.70    4.60
   7   2 -14    4.20    3.60
   6  -2 -14   58.09    7.40
   6  -2 -14   52.09    7.30
   6  -2 -14   57.29    8.60
  -6   2  14   40.10    6.60
   6   2 -14   54.29    7.80
   6   2 -14   43.10    8.40
   5  -2 -14    2.70    3.60
   5  -2 -14    1.00    4.60
   5  -2 -14    1.50    3.60
   5   2 -14    1.10    4.20
  -5   2  14    4.60    4.20
   5   2 -14    1.90    4.10
   4  -2 -14   84.39    8.20
  -4   2  14   65.29    8.50
   3  -2 -14   44.30    7.50
   3  -2 -14   43.30    7.30
   3   2 -14   48.70    7.60
   3   2 -14   36.70    6.90
   3   2 -14   34.90    5.20
   2  -2 -14   74.79    8.00
   2  -2 -14   50.09    7.10
   2  -2 -14   60.19    7.70
   2   2 -14   67.19    8.10
   2   2 -14   66.19    6.10
   2   2 -14   49.90    7.10
   1  -2 -14   -2.00    3.40
   1  -2 -14    4.00    3.70
   1  -2 -14    1.30    3.30
   1  -2 -14    1.40    2.10
   1   2 -14   -0.40    3.70
   1   2 -14    1.20    3.10
   1   2 -14    4.00    2.70
   0  -2 -14  118.59   10.50
   0  -2 -14  153.28    9.40
   0  -2 -14  132.89   10.20
   0   2 -14  120.09   10.60
   0   2 -14  126.29    9.70
  -1  -2 -14    1.40    3.00
  -1  -2 -14    4.80    2.60
  -1  -2 -14    5.90    3.60
  -1   2 -14    7.00    3.60
  -1   2 -14   -0.20    2.50
  -2  -2 -14   39.10    5.10
  -2  -2 -14   35.20    5.70
  -2  -2 -14   36.60    4.80
  -2   2 -14   35.10    6.20
  -2   2 -14   36.20    5.20
  -3  -2 -14    2.50    2.40
  -3  -2 -14    3.50    3.00
  -3   2 -14    4.10    3.10
  -3   2 -14    1.70    2.60
  -4  -2 -14   16.10    2.90
  -4  -2 -14   15.00    3.10
  -4   2 -14   22.00    3.50
  -4   2 -14   15.60    2.90
  -4   2 -14   22.90    3.40
  -5  -2 -14   49.99    5.00
  -5  -2 -14   39.60    5.00
  -5   2 -14   46.60    5.00
  -5   2 -14   50.39    4.60
  -6  -2 -14    6.00    2.20
  -6   2 -14    7.90    2.20
  -6   2 -14    5.20    2.10
  -7  -2 -14    2.20    1.70
  11   3 -14    1.50    4.50
  10  -3 -14   43.40    5.80
 -10  -3  14   46.10    4.30
  10   3 -14   43.10    6.70
  -9  -3  14    4.80    2.10
   9  -3 -14    8.30    3.90
   9   3 -14    7.20    4.30
   9   3 -14    6.90    3.70
  -8  -3  14   37.20    4.60
   8  -3 -14   53.89    7.90
   8  -3 -14   33.80    6.40
   8   3 -14   39.20    5.30
   8   3 -14   41.20    7.50
   7  -3 -14   31.70    5.60
  -7  -3  14   27.60    4.30
   7  -3 -14   32.50    6.60
   7   3 -14   31.50    5.60
   7   3 -14   27.10    4.50
   6  -3 -14   11.90    4.90
  -6  -3  14    9.40    2.60
   6  -3 -14    8.50    4.10
   6  -3 -14    5.10    3.50
   6   3 -14   10.10    4.50
   6   3 -14    7.10    3.80
  -5  -3  14    2.00    2.40
   5  -3 -14    7.70    3.80
   5  -3 -14   11.10    4.90
   5   3 -14    1.70    4.10
  -5   3  14    2.00    4.40
   5   3 -14    5.20    4.00
   4  -3 -14   66.89    8.50
   4  -3 -14   49.60    7.70
   4  -3 -14   73.79    7.80
   4   3 -14   53.39    8.00
  -4   3  14   59.69    6.40
   4   3 -14   66.99    6.40
  -4   3  14   55.69    7.60
   4   3 -14   44.00    7.80
   3  -3 -14    4.90    3.70
   3  -3 -14    0.30    3.80
   3  -3 -14    9.20    4.20
  -3   3  14   14.80    2.80
   3   3 -14    7.20    3.60
   3   3 -14    8.60    4.20
   3   3 -14    6.30    2.90
   2  -3 -14   10.80    4.30
   2  -3 -14    7.60    4.00
   2  -3 -14    9.00    3.70
   2   3 -14   13.40    2.90
   2   3 -14    9.70    4.40
  -2   3  14   21.50    3.60
   2   3 -14    9.50    3.60
   1  -3 -14    8.50    4.00
   1  -3 -14    4.70    2.40
   1  -3 -14   -0.30    3.40
   1  -3 -14    6.90    4.00
   1   3 -14    4.50    2.60
  -1   3  14    6.90    2.50
   1   3 -14    5.10    3.70
   0  -3 -14   43.60    7.10
   0  -3 -14   40.60    5.10
   0  -3 -14   34.90    6.50
   0  -3 -14   36.90    6.60
   0   3 -14   46.60    5.90
   0   3 -14   38.40    7.20
   0   3  14   42.90    4.80
  -1  -3 -14   26.00    4.50
  -1  -3 -14   29.90    4.70
  -1  -3 -14   26.30    3.50
  -1  -3 -14   27.40    4.30
  -1   3 -14   18.10    3.40
  -1   3 -14   21.10    4.20
   1   3  14   29.70    4.30
  -2  -3 -14   15.70    3.10
  -2  -3 -14   16.10    3.70
  -2  -3 -14   16.00    3.90
   2   3  14   28.50    4.20
  -2   3 -14   25.90    3.80
  -2   3 -14   19.10    4.00
  -3  -3 -14    2.70    3.30
  -3  -3 -14    3.80    2.30
  -3   3 -14   -1.60    2.70
   3   3  14   -0.40    2.40
  -3   3 -14    0.00    2.40
  -3   3 -14    2.90    3.10
  -4  -3 -14   32.20    4.60
  -4  -3 -14   30.10    4.10
  -4   3 -14   33.70    5.10
  -4   3 -14   33.70    4.20
   4   3  14   42.50    4.90
  -5  -3 -14    6.30    2.10
  -5  -3 -14    4.80    2.30
  -5   3 -14    2.30    2.40
  -5   3 -14    6.00    2.20
  -6  -3 -14   28.90    3.80
  -6   3 -14   27.00    3.60
  -6   3 -14   24.30    4.00
 -10  -4  14    2.90    2.20
  10  -4 -14    3.00    3.60
  10   4 -14    4.50    3.70
  -9  -4  14    5.80    2.00
   9  -4 -14    4.10    3.30
   9  -4 -14    1.60    3.50
   9   4 -14    4.70    3.10
   9   4 -14    6.10    4.00
  -8  -4  14    1.20    2.20
   8  -4 -14    3.60    3.80
   8  -4 -14    2.70    3.40
   8   4 -14   -0.40    3.40
  -8   4  14    1.30    2.80
   8   4 -14    3.10    4.10
  -7  -4  14   18.80    3.10
   7  -4 -14   32.20    6.90
   7  -4 -14   24.50    5.10
  -7   4  14   25.00    3.60
   7   4 -14   23.50    5.10
   7   4 -14   28.20    4.60
   6  -4 -14   12.80    4.70
  -6  -4  14    9.70    2.80
   6  -4 -14    9.50    3.60
   6  -4 -14   13.90    4.40
   6   4 -14   11.90    4.10
  -6   4  14   13.70    2.60
   6   4 -14    8.30    4.20
   5  -4 -14   70.99    9.00
   5  -4 -14   73.79    7.60
  -5  -4  14   68.79    6.00
   5  -4 -14   57.89    8.30
   5   4 -14   91.59    8.70
   5   4 -14   59.59    7.90
  -5   4  14   66.99    5.80
   4  -4 -14   52.49    8.00
  -4  -4  14   58.09    5.50
   4  -4 -14   69.89    7.40
   4  -4 -14   61.39    8.60
   4   4 -14   63.09    7.50
   4   4 -14   72.29    8.40
  -4   4  14   51.89    8.10
   4   4 -14   59.79    6.30
  -4   4  14   62.79    5.50
   3  -4 -14    6.60    3.70
   3  -4 -14    2.40    3.80
   3  -4 -14   11.40    4.90
   3   4 -14    0.90    3.90
   3   4 -14    4.20    3.50
   3   4 -14    6.30    3.00
  -3   4  14    8.00    4.60
  -3   4  14    5.20    2.30
   2  -4 -14  107.69   10.20
   2  -4 -14  121.19   10.10
   2  -4 -14  107.59   10.70
  -2   4  14  134.49    8.60
   2   4 -14  116.89   10.10
  -2   4  14  112.89   13.10
   2   4 -14  110.39    8.90
   1  -4 -14   58.29    8.00
   1  -4 -14   67.89    8.10
   1  -4 -14   56.79    7.60
   1   4 -14   68.99    6.60
  -1   4  14   66.19    5.80
   1   4 -14   60.99    7.70
   0  -4 -14   17.10    2.80
   0  -4 -14   17.20    4.50
   0  -4 -14   22.50    4.70
   0  -4 -14   22.30    4.00
   0   4  14   21.80    4.20
   0   4 -14   11.60    3.10
   0   4 -14   15.40    4.10
  -1  -4 -14    2.90    3.40
  -1  -4 -14    5.20    3.90
  -1  -4 -14    7.70    3.90
  -1  -4 -14    6.80    2.60
  -1   4 -14    4.60    3.60
  -1   4 -14    4.00    2.70
   1   4  14    9.70    2.80
  -2  -4 -14    7.00    2.60
  -2  -4 -14    8.60    3.60
  -2  -4 -14    4.50    3.50
  -2  -4 -14   16.50    3.90
  -2   4 -14    7.30    2.60
   2   4  14    7.50    2.70
  -2   4 -14    5.30    2.90
  -2   4 -14    6.80    3.50
  -3  -4 -14   11.20    3.50
  -3  -4 -14    4.20    2.40
  -3  -4 -14    5.60    3.10
  -3   4 -14    5.10    2.20
  -3   4 -14    0.60    3.00
  -3   4 -14    1.40    2.70
   3   4  14    2.90    2.60
  -4  -4 -14   22.20    3.70
  -4  -4 -14   22.60    3.20
  -4   4 -14   14.00    3.00
  -4   4 -14   20.00    3.60
   4   4  14   30.30    4.30
  -5  -4 -14   24.30    3.90
  -5  -4 -14   34.80    4.60
  -5   4 -14   20.10    3.60
   5   4  14   35.50    3.90
  -5   4 -14   25.10    4.30
  -6  -4 -14    7.60    2.10
  -6   4 -14    6.10    1.90
  10   5 -14   55.89    7.10
   9  -5 -14    2.60    2.80
   9  -5 -14    1.90    3.00
  -9  -5  14    2.30    1.90
   9   5 -14    5.00    3.00
   9   5 -14    1.90    3.50
   8  -5 -14    9.70    3.90
   8  -5 -14    4.90    3.50
  -8  -5  14    8.60    2.30
   8   5 -14   17.60    4.40
   8   5 -14    6.50    3.40
  -8   5  14    8.00    1.90
   7  -5 -14   -2.00    3.90
   7  -5 -14   -0.20    3.70
  -7  -5  14    5.10    2.40
   7   5 -14    8.10    4.10
   7   5 -14    8.50    3.90
  -7   5  14    3.30    1.90
  -6  -5  14   42.80    5.10
   6  -5 -14   56.99    8.20
   6   5 -14   51.19    7.50
  -6   5  14   52.39    4.70
   6   5 -14   64.29    7.80
   5  -5 -14   59.39    6.80
   5  -5 -14   63.39    8.40
   5  -5 -14   56.59    7.80
  -5  -5  14   56.09    5.60
  -5   5  14   64.89    5.40
   5   5 -14   69.99    8.00
   5   5 -14   55.09    7.60
   4  -5 -14   38.80    7.50
   4  -5 -14   42.10    7.20
  -4  -5  14   39.50    4.60
   4  -5 -14   49.00    6.40
   4   5 -14   36.60    5.40
   4   5 -14   32.20    6.60
   4   5 -14   38.30    7.40
  -4   5  14   48.80    4.60
   3  -5 -14   60.79    7.60
  -3  -5  14   49.00    5.50
   3  -5 -14   64.29    7.30
   3  -5 -14   62.89    8.40
   3   5 -14   41.50    7.20
  -3   5  14   65.69    5.60
   3   5 -14   64.79    6.40
   3   5 -14   69.39    8.30
   2  -5 -14   46.00    7.60
   2  -5 -14   49.90    7.60
   2  -5 -14   54.79    8.50
   2   5 -14   48.90    6.00
  -2   5  14   57.79    5.30
   2   5 -14   48.70    7.70
   1  -5 -14   87.39    9.20
   1  -5 -14  102.69    8.90
   1  -5 -14   83.09    8.70
   1   5 -14   83.39    7.60
   1   5 -14   82.79    8.80
  -1   5  14   90.49    7.10
   0  -5 -14   25.30    4.50
   0  -5 -14   29.40    4.50
   0  -5 -14   23.40    5.10
   0  -5 -14   26.60    4.70
   0   5  14   30.70    4.50
   0   5 -14   33.80    6.40
   0   5 -14   27.60    5.30
  -1  -5 -14    4.90    3.90
  -1  -5 -14    0.00    2.20
  -1  -5 -14    3.00    3.50
  -1  -5 -14    1.40    3.90
   1   5  14    3.70    2.60
  -1   5 -14    2.40    3.00
  -1   5 -14    4.10    3.30
  -1   5 -14    2.50    3.30
  -2  -5 -14   29.30    4.70
  -2  -5 -14   22.20    4.30
  -2  -5 -14   28.80    4.80
  -2  -5 -14   28.10    5.80
  -2   5 -14   33.40    5.10
  -2   5 -14   41.40    5.80
   2   5  14   30.00    4.50
  -2   5 -14   37.90    4.30
  -3  -5 -14    5.60    3.30
  -3  -5 -14    6.90    3.50
  -3  -5 -14    3.90    2.30
  -3   5 -14    3.00    2.30
  -3   5 -14    6.10    2.60
   3   5  14    7.60    2.70
  -4  -5 -14   32.70    4.20
  -4  -5 -14   35.00    5.20
  -4   5 -14   37.80    4.50
  -4   5 -14   31.60    3.80
   4   5  14   42.30    4.60
  -5  -5 -14    0.80    1.70
  -5  -5 -14    0.10    2.30
  -5   5 -14    1.90    2.00
  -5   5 -14    1.20    1.80
   5   5  14    0.70    2.10
   9   6 -14    9.90    3.40
   8  -6 -14   -0.50    3.00
  -8  -6  14    0.40    2.00
   8  -6 -14    0.90    2.90
   8   6 -14    3.70    2.90
  -8   6  14    1.30    1.60
   8   6 -14    1.00    3.40
   7  -6 -14   77.79    8.20
   7  -6 -14   79.09    8.30
  -7  -6  14   78.59    6.30
   7   6 -14   90.49    8.20
  -7   6  14   80.69    5.90
   7   6 -14   72.99    7.90
   6  -6 -14   32.00    5.00
  -6  -6  14   21.90    4.30
   6   6 -14   27.10    4.70
  -6   6  14   29.50    3.70
   6   6 -14   30.00    4.70
   5  -6 -14   42.90    7.50
   5  -6 -14   39.00    7.20
   5  -6 -14   51.79    7.20
  -5  -6  14   46.70    4.80
   5   6 -14   53.09    7.50
   5   6 -14   29.50    4.90
  -5   6  14   38.10    4.30
   5   6 -14   40.60    5.10
  -4  -6  14    1.80    2.30
   4  -6 -14    2.80    3.70
   4  -6 -14    9.10    4.10
   4  -6 -14    5.40    3.20
   4   6 -14    1.80    3.70
  -4   6  14    2.70    2.10
   4   6 -14    2.80    3.40
   4   6 -14    2.60    2.60
   3  -6 -14   30.80    6.10
  -3  -6  14   31.80    4.40
   3  -6 -14   38.10    7.10
   3  -6 -14   35.00    5.70
   3   6 -14   37.40    7.40
   3   6 -14   31.40    5.20
  -3   6  14   40.90    4.60
   2  -6 -14    6.40    3.70
   2  -6 -14    7.50    4.10
  -2  -6  14   -1.80    2.10
  -2   6  14    6.00    2.40
   2   6 -14    4.00    3.00
   2   6 -14    4.10    3.80
   1  -6 -14   -0.30    3.70
   1  -6 -14   -0.30    3.90
   1  -6 -14    2.40    4.30
   1   6 -14   -0.80    3.60
   1   6 -14   -1.30    2.80
  -1   6  14    1.40    2.40
   0  -6 -14   -1.10    4.10
   0  -6 -14    0.00    3.80
   0  -6 -14   -2.70    3.50
   0   6 -14   -0.90    3.40
   0   6  14    5.10    2.50
   0   6 -14    3.70    2.90
  -1  -6 -14   16.30    3.80
  -1  -6 -14   12.20    3.90
  -1  -6 -14   15.00    2.60
  -1  -6 -14    9.70    4.30
   1   6  14   13.40    3.10
  -1   6 -14   13.10    2.90
  -1   6 -14   13.90    3.60
  -1   6 -14   14.30    3.10
  -2  -6 -14    2.60    3.40
  -2  -6 -14    5.30    3.70
  -2  -6 -14    2.00    2.10
  -2  -6 -14    0.80    3.30
  -2   6 -14    2.90    2.30
  -2   6 -14    1.60    2.60
   2   6  14    1.60    2.30
  -2   6 -14    4.30    3.20
  -3  -6 -14   53.49    6.00
  -3  -6 -14   53.39    6.30
  -3  -6 -14   45.20    6.40
  -3  -6 -14   57.89    4.90
  -3   6 -14   52.59    5.30
   3   6  14   58.59    5.20
  -3   6 -14   45.20    4.60
  -4  -6 -14    2.50    1.90
  -4  -6 -14    5.90    3.00
  -4   6 -14    2.70    2.10
  -4   6 -14    2.70    1.90
   4   6  14    5.00    2.00
   8  -7 -14   19.20    3.40
   7  -7 -14   17.80    3.70
  -7  -7  14   15.10    2.50
   7  -7 -14   14.90    3.60
   7   7 -14    8.50    3.40
  -7   7  14   14.30    2.80
   7   7 -14   17.00    3.80
   6  -7 -14   -0.60    3.40
  -6  -7  14    0.90    2.20
   6   7 -14    3.30    3.50
  -6   7  14    2.50    2.00
   6   7 -14    3.70    3.10
   5  -7 -14   40.80    6.60
  -5  -7  14   38.90    4.50
   5  -7 -14   52.69    6.70
   5   7 -14   44.80    7.00
   5   7 -14   37.10    4.90
   5   7 -14   25.90    4.80
  -5   7  14   48.40    4.40
   4  -7 -14    4.80    3.50
  -4  -7  14    2.40    2.30
   4  -7 -14   13.20    3.10
   4  -7 -14    8.40    4.10
   4   7 -14    7.80    2.70
  -4   7  14   11.20    2.60
   4   7 -14   12.90    4.20
   3  -7 -14   33.90    6.30
   3  -7 -14   25.70    5.00
   3  -7 -14   28.20    5.60
  -3  -7  14   21.40    3.90
   3   7 -14   15.80    3.10
   3   7 -14   24.30    4.90
  -3   7  14   25.60    3.90
   2  -7 -14   40.90    6.40
  -2  -7  14   28.80    4.20
   2  -7 -14   29.20    5.40
   2  -7 -14   36.60    5.90
   2   7 -14   36.20    5.10
  -2   7  14   39.20    4.40
   2   7 -14   33.90    6.60
   1  -7 -14   10.10    3.60
   1  -7 -14    7.60    3.80
   1  -7 -14    3.80    4.30
  -1  -7  14    6.10    2.10
   1   7 -14    8.10    3.90
   1   7 -14    6.10    2.70
  -1   7  14    8.30    2.60
   0  -7 -14   -4.80    3.80
   0  -7 -14    1.20    3.60
   0  -7 -14   -1.80    3.30
   0   7 -14    0.70    3.20
   0   7  14    1.00    2.20
   0   7 -14   -2.60    2.60
  -1  -7 -14   45.70    6.10
  -1  -7 -14   37.10    4.70
   1   7  14   41.50    4.40
  -1   7 -14   38.90    5.10
  -1   7 -14   31.70    4.30
  -1   7 -14   30.90    5.50
  -2  -7 -14   -1.80    2.80
  -2  -7 -14    3.90    3.50
  -2  -7 -14    0.30    3.00
   2   7  14    0.90    2.10
  -2   7 -14    6.60    2.50
  -2   7 -14    1.90    2.00
  -3  -7 -14    0.90    2.80
  -3  -7 -14    3.50    2.20
  -3   7 -14    2.10    2.20
   3   7  14    0.10    1.80
  -3   7 -14    2.30    2.90
   7  -8 -14   36.40    6.10
  -6  -8  14    0.20    1.90
   6  -8 -14    1.10    2.80
   6   8 -14    2.60    3.20
  -6   8  14    3.10    1.80
  -5  -8  14    8.70    2.20
   5  -8 -14    4.80    3.30
   5  -8 -14    8.80    3.30
   5   8 -14    8.50    3.40
  -5   8  14    8.70    2.10
   4  -8 -14    0.50    3.00
   4  -8 -14    0.20    3.30
  -4  -8  14    3.50    2.00
   4   8 -14    0.40    3.10
   4   8 -14    0.40    2.50
  -4   8  14   -1.10    2.00
  -3  -8  14    1.60    2.10
   3  -8 -14    5.70    2.80
   3  -8 -14    2.80    3.30
   3  -8 -14    1.10    3.30
  -3   8  14    1.30    1.80
   3   8 -14    1.60    2.40
   3   8 -14    4.50    3.50
   2  -8 -14    2.70    3.70
   2  -8 -14    0.70    3.20
   2  -8 -14    4.50    2.90
  -2  -8  14    1.90    2.00
   2   8 -14    2.20    3.30
  -2   8  14    0.00    2.00
   2   8 -14    0.40    2.20
   1  -8 -14   13.60    4.00
  -1  -8  14   12.90    2.20
   1  -8 -14   15.60    3.30
   1  -8 -14   15.70    3.70
   1   8 -14   11.80    3.50
   1   8 -14    8.00    2.60
  -1   8  14   16.60    3.40
   0  -8 -14    8.80    3.90
   0  -8 -14    5.70    3.20
   0  -8 -14    7.80    3.40
   0   8 -14    5.60    2.40
   0   8  14    6.80    2.40
   0   8 -14    2.70    2.90
  -1  -8 -14    5.40    3.00
  -1  -8 -14    6.10    3.20
  -1  -8 -14    3.20    3.50
  -1   8 -14    7.50    2.40
   1   8  14    4.90    2.10
  -2  -8 -14    0.70    2.70
  -2  -8 -14    4.90    3.10
  -2  -8 -14    2.70    5.20
   2   8  14    0.00    1.80
  -2   8 -14    1.90    2.00
   4  -9 -14    6.10    2.70
   4  -9 -14    4.10    3.60
   4   9 -14    0.30    3.00
  -4   9  14    1.60    1.80
   3  -9 -14    1.90    2.70
   3  -9 -14    0.10    2.90
   3   9 -14    5.20    3.10
  -3   9  14    4.80    2.00
   2  -9 -14   -0.70    2.80
   2  -9 -14   -1.90    2.70
   2   9 -14   -1.70    2.10
  -2   9  14    0.10    1.70
   1  -9 -14   23.50    4.00
   1  -9 -14   28.40    5.10
  -1   9  14   28.70    3.40
   1   9 -14   28.90    4.00
   0  -9 -14    2.00    2.80
   0  -9 -14    4.00    4.10
   0   9  14    1.90    2.20
   0   9 -14    2.80    2.00
  10   0 -15    0.70    3.10
   9   0 -15   41.70    6.50
   8   0 -15    3.40    4.00
   7   0 -15   11.70    4.40
   7   0 -15    7.90    3.50
   6   0 -15   -0.70    3.70
   6   0 -15   -1.10    4.30
   5   0 -15  136.39   10.50
   5   0 -15   95.99   10.50
   4   0 -15   -1.90    3.90
   4   0 -15    6.00    4.10
   3   0 -15   60.29    8.00
   3   0 -15   58.69    7.60
   2   0 -15    3.00    3.80
   2   0 -15   -0.70    2.40
   2   0 -15   -1.30    3.40
   1   0 -15   86.39    6.90
   1   0 -15   58.29    7.30
   1   0 -15   87.69    8.30
   0   0 -15   -0.90    3.20
   0   0 -15   -2.50    3.10
   0   0 -15   -0.30    2.40
  -1   0 -15   90.59    8.20
  -1   0 -15   82.89    7.00
  -2   0 -15   -2.40    2.90
  -2   0 -15   -0.70    2.30
  -3   0 -15   17.60    3.50
  -3   0 -15   18.90    3.10
  -4   0 -15    0.10    2.10
  -4   0 -15   -1.40    2.50
  -5   0 -15   37.10    4.20
  -6   0 -15    0.50    2.00
  10  -1 -15   -0.10    3.00
  10   1 -15    0.40    3.00
   9  -1 -15   44.70    6.20
   9   1 -15   39.70    6.60
   8  -1 -15    6.10    4.00
   8   1 -15    3.90    3.00
   8   1 -15   10.00    4.30
   7  -1 -15  113.59   10.30
   7  -1 -15  119.69    8.90
   7   1 -15  100.59   10.00
   7   1 -15  104.69    9.00
   6  -1 -15   24.40    4.50
   6  -1 -15   19.10    5.00
   6   1 -15   21.30    4.80
   6   1 -15   28.20    4.70
   5  -1 -15    7.30    3.90
   5  -1 -15    0.70    4.30
   5   1 -15    5.00    4.00
   5   1 -15    9.30    4.20
   4  -1 -15    3.60    3.90
   4  -1 -15   -1.00    4.00
   4   1 -15    7.00    3.90
   4   1 -15    7.30    4.10
   3  -1 -15   71.99    8.50
   3  -1 -15   80.19    8.50
   3   1 -15   84.39    8.50
   3   1 -15  106.19    9.20
   2  -1 -15    4.90    3.90
   2  -1 -15    1.20    3.50
   2   1 -15    8.60    3.60
   2   1 -15   -0.40    3.80
   2   1 -15    0.50    2.30
   1  -1 -15    4.60    3.40
   1  -1 -15   -2.20    3.40
   1  -1 -15    0.60    2.20
   1   1 -15    3.40    3.30
   1   1 -15    3.80    2.70
   1   1 -15    8.80    3.80
   0  -1 -15    1.70    3.40
   0  -1 -15    0.20    2.30
   0  -1 -15    0.00    2.90
   0   1 -15   -0.40    3.40
   0   1 -15    1.80    2.60
  -1  -1 -15    1.00    3.30
  -1  -1 -15    0.00    2.20
  -1   1 -15    3.30    3.40
  -1   1 -15    3.20    2.50
  -2  -1 -15   21.20    3.90
  -2  -1 -15   24.20    4.20
  -2   1 -15   21.00    3.80
  -2   1 -15   17.90    3.00
  -3  -1 -15    0.90    2.20
  -3  -1 -15    6.20    2.90
  -3   1 -15    3.50    2.50
  -3   1 -15    1.60    2.80
  -4  -1 -15    1.10    2.00
  -4  -1 -15    1.30    2.50
  -4   1 -15    0.40    2.00
  -4   1 -15    8.00    2.70
  -5  -1 -15   15.20    2.60
  -5   1 -15   15.80    2.50
  10  -2 -15   10.70    4.00
  10   2 -15    3.50    3.10
   9  -2 -15   29.60    4.60
   9   2 -15   18.40    4.10
   8  -2 -15    1.90    3.80
   8   2 -15    2.30    3.10
   8   2 -15    2.30    3.80
   7  -2 -15    4.40    4.40
   7  -2 -15   10.10    4.60
   7   2 -15    9.90    3.50
   7   2 -15    6.20    3.90
   6  -2 -15    3.70    4.60
   6  -2 -15    4.10    3.40
   6   2 -15    5.50    3.60
   6   2 -15    1.20    3.90
   5  -2 -15    2.50    4.00
   5  -2 -15   -2.50    3.60
   5   2 -15   -4.70    3.70
   5   2 -15    5.60    4.00
   4  -2 -15   -0.90    4.20
   4  -2 -15    3.50    3.70
   4   2 -15    2.10    3.60
   4   2 -15    0.70    3.90
   3  -2 -15   25.00    4.50
   3  -2 -15   26.70    5.10
   3   2 -15   21.00    4.20
   3   2 -15   31.70    5.10
   3   2 -15   35.70    4.80
   2  -2 -15   -0.60    3.70
   2  -2 -15    1.30    3.70
   2   2 -15    0.40    3.80
   2   2 -15    3.40    2.60
   2   2 -15    1.60    3.10
   1  -2 -15   24.90    4.30
   1  -2 -15   17.30    4.10
   1  -2 -15   35.60    4.90
   1   2 -15   34.60    6.60
   1   2 -15   25.40    4.90
   0  -2 -15   -0.20    3.00
   0  -2 -15    0.70    3.30
   0  -2 -15    0.30    2.20
   0   2 -15   -1.20    2.50
   0   2 -15    4.00    3.50
  -1  -2 -15   56.29    6.60
  -1  -2 -15   48.50    6.10
  -1  -2 -15   51.89    5.30
  -1   2 -15   60.79    6.00
  -1   2 -15   56.89    6.90
  -2  -2 -15    0.90    2.10
  -2  -2 -15   -0.30    3.00
  -2   2 -15    2.70    2.60
  -2   2 -15    0.40    3.00
  -3  -2 -15   37.30    4.30
  -3  -2 -15   23.80    3.80
  -3   2 -15   30.20    4.60
  -3   2 -15   29.60    4.90
  -4  -2 -15   60.59    5.20
  -4  -2 -15   59.89    5.60
  -4   2 -15   57.29    5.50
  -5  -2 -15    1.20    1.90
  -5   2 -15    3.10    2.00
   9  -3 -15   42.40    5.80
   9   3 -15   43.40    6.40
   8  -3 -15   20.90    4.60
   8   3 -15   25.80    4.60
   8   3 -15   29.70    5.50
   7  -3 -15    8.60    4.20
   7   3 -15   10.10    4.00
   7   3 -15    9.10    3.60
   6  -3 -15    0.40    4.00
   6  -3 -15   -3.30    3.80
   6  -3 -15    2.80    3.30
   6   3 -15   -0.40    3.50
   6   3 -15    2.00    3.60
   5  -3 -15   72.89    8.60
   5  -3 -15   66.89    7.90
   5  -3 -15   76.49    7.80
   5   3 -15   71.09    8.00
   5   3 -15   64.49    7.80
   4  -3 -15    0.80    3.70
   4  -3 -15    1.80    3.50
   4  -3 -15    0.70    4.30
   4   3 -15   -0.40    3.60
   4   3 -15    2.60    3.30
   3  -3 -15   30.40    5.30
   3  -3 -15   33.50    6.60
   3   3 -15   50.29    7.30
   3   3 -15   45.00    5.20
   3   3 -15   52.69    6.10
   2  -3 -15    0.20    3.50
   2  -3 -15    2.60    3.60
   2  -3 -15    3.10    3.90
   2   3 -15    0.20    2.50
   2   3 -15   -0.40    3.70
   2   3 -15    2.70    4.20
   1  -3 -15    8.70    3.70
   1  -3 -15   13.30    3.80
   1   3 -15    4.60    2.70
   1   3 -15    6.30    3.70
   0  -3 -15    3.30    3.20
   0  -3 -15    4.30    2.30
   0  -3 -15    6.20    3.80
   0   3 -15    2.90    2.60
   0   3 -15    8.60    3.70
  -1  -3 -15   13.40    3.50
  -1  -3 -15   17.30    3.60
  -1  -3 -15   19.80    3.80
  -1   3 -15   13.40    3.70
  -1   3 -15   10.60    2.80
  -2  -3 -15   14.70    2.80
  -2  -3 -15   13.10    3.30
  -2   3 -15   12.70    3.00
  -2   3 -15   10.90    3.40
  -3  -3 -15    4.00    2.20
  -3  -3 -15    3.40    2.70
  -3   3 -15    6.80    2.50
  -3   3 -15    4.80    2.80
  -4  -3 -15    1.80    2.00
  -4  -3 -15    2.20    2.40
  -4   3 -15    2.80    2.30
  -5  -3 -15    9.20    2.20
  -5   3 -15    5.10    2.00
   9  -4 -15    3.40    2.80
   9   4 -15    2.10    3.40
   8  -4 -15   36.90    6.10
   8   4 -15   39.20    5.70
   8   4 -15   31.90    5.00
  -7  -4  15    3.90    3.00
   7  -4 -15    0.60    3.30
   7  -4 -15   -0.50    3.70
   7   4 -15    5.30    3.70
   7   4 -15    4.60    3.50
   6  -4 -15   41.10    7.30
   6  -4 -15   47.20    7.00
   6   4 -15   47.00    6.50
   6   4 -15   51.19    6.70
   5  -4 -15    6.20    3.80
   5  -4 -15    4.90    3.30
   5  -4 -15    4.40    4.20
   5   4 -15    1.90    3.40
   5   4 -15    0.80    3.60
   4  -4 -15   14.40    4.50
   4  -4 -15   22.70    4.00
   4   4 -15   12.20    4.00
   4   4 -15   18.40    3.90
   3  -4 -15   38.40    4.90
   3  -4 -15   37.30    6.90
   3  -4 -15   30.60    6.40
   3   4 -15   36.50    5.00
  -3   4  15   28.90    6.30
   3   4 -15   44.00    7.10
   3   4 -15   28.80    4.60
   2  -4 -15    7.00    4.30
   2  -4 -15   15.00    3.90
   2  -4 -15   11.60    3.70
  -2   4  15   16.40    3.40
   2   4 -15   10.00    2.90
   2   4 -15    5.00    3.90
   1  -4 -15   94.29    8.80
   1  -4 -15  105.79    9.30
   1  -4 -15  110.39    9.50
  -1   4  15  120.39    7.90
   1   4 -15  109.49    8.30
   1   4 -15  110.09    9.40
   0  -4 -15    1.50    3.20
   0  -4 -15    7.60    3.70
   0  -4 -15   -0.80    2.30
   0  -4 -15    4.10    3.40
   0   4 -15    5.20    2.80
   0   4 -15    7.40    3.50
   0   4  15    5.00    2.30
  -1  -4 -15   14.40    3.70
  -1  -4 -15    9.10    3.40
  -1  -4 -15    8.20    2.20
  -1   4 -15    9.80    2.80
   1   4  15    9.00    2.40
  -1   4 -15    9.90    3.50
  -2  -4 -15   11.00    3.40
  -2  -4 -15    0.30    3.00
  -2  -4 -15    2.20    2.00
  -2   4 -15    2.90    2.90
  -2   4 -15    1.20    2.40
   2   4  15    9.50    2.40
  -3  -4 -15   27.30    4.70
  -3  -4 -15   21.90    3.70
  -3   4 -15   21.00    4.10
  -4  -4 -15   10.70    2.60
  -4  -4 -15   10.80    2.20
  -4   4 -15   12.10    2.40
   8  -5 -15   19.30    3.70
   8   5 -15   21.20    3.90
   8   5 -15   21.30    4.10
  -7  -5  15    7.70    2.10
   7  -5 -15    4.20    3.30
   7  -5 -15    8.50    3.80
   7   5 -15    6.30    3.40
   7   5 -15    9.60    3.70
  -6  -5  15   -2.30    1.90
   6  -5 -15   -0.20    3.60
   6  -5 -15    1.70    3.60
  -6   5  15    1.10    1.80
   6   5 -15    7.70    3.60
   6   5 -15    0.80    3.40
   5  -5 -15   81.59    8.20
   5  -5 -15   82.09    7.10
   5   5 -15   85.19    8.00
  -5   5  15   72.09    5.70
   5   5 -15   62.59    7.30
   4  -5 -15   29.70    5.40
   4  -5 -15   27.10    4.40
   4  -5 -15   28.30    5.30
   4   5 -15   27.70    4.40
   4   5 -15   17.70    4.20
  -4   5  15   27.30    3.50
   4   5 -15   32.90    6.40
   3  -5 -15   28.40    5.20
   3  -5 -15   27.60    5.40
   3  -5 -15   20.20    4.10
   3   5 -15   27.50    4.70
  -3   5  15   26.40    3.70
   3   5 -15   21.80    4.40
   2  -5 -15   77.69    8.20
   2  -5 -15   95.29    8.10
   2  -5 -15   94.69    9.00
   2   5 -15   86.49    7.30
   2   5 -15   84.69    8.50
  -2   5  15   99.39    6.90
   1  -5 -15    2.90    3.60
   1  -5 -15    5.20    3.60
   1  -5 -15    4.80    3.50
   1   5 -15    4.10    2.80
   1   5 -15    4.30    3.50
  -1   5  15    4.40    2.20
   0  -5 -15   22.10    4.40
   0  -5 -15   33.70    4.90
   0  -5 -15   28.30    4.20
   0   5  15   32.70    4.00
   0   5 -15   24.60    4.70
   0   5 -15   37.00    6.00
  -1  -5 -15    2.50    3.20
  -1  -5 -15   -1.00    3.30
  -1  -5 -15    2.30    2.00
  -1  -5 -15   -0.50    3.10
   1   5  15    3.10    2.00
  -1   5 -15   -4.40    2.80
  -1   5 -15    1.30    2.40
  -2  -5 -15   17.90    3.30
  -2  -5 -15   13.10    3.40
  -2  -5 -15   17.80    3.60
   2   5  15   19.50    3.20
  -2   5 -15   15.80    2.80
  -2   5 -15   15.40    3.30
  -3  -5 -15   10.40    2.20
  -3  -5 -15   13.80    3.10
  -3   5 -15   15.00    2.60
   3   5  15   25.20    4.80
  -4   5 -15   12.50    2.20
   7  -6 -15    9.50    3.40
   7  -6 -15   10.60    3.50
   7   6 -15    2.40    2.80
   6  -6 -15   72.19    7.20
  -6  -6  15   56.69    6.20
   6  -6 -15   68.69    7.40
   6   6 -15   56.49    8.10
  -6   6  15   63.49    5.00
   6   6 -15   75.19    7.20
   5  -6 -15   -0.50    3.50
  -5  -6  15    0.90    2.20
   5   6 -15   -1.70    4.20
   5   6 -15    2.40    3.40
  -5   6  15    2.70    1.60
   4  -6 -15   29.40    6.20
   4  -6 -15   30.00    5.10
   4  -6 -15   38.20    5.30
  -4   6  15   33.30    3.70
   4   6 -15   29.90    4.20
   4   6 -15   35.10    6.30
   3  -6 -15    0.60    3.30
   3  -6 -15    2.90    2.90
   3  -6 -15    8.00    3.90
  -3   6  15    3.90    2.10
   3   6 -15    6.60    2.30
   3   6 -15    4.30    3.50
   2  -6 -15   14.00    3.70
   2  -6 -15   14.50    3.60
   2  -6 -15   13.50    4.30
  -2   6  15   21.50    3.40
   2   6 -15   15.80    3.90
   2   6 -15    7.00    2.70
   1  -6 -15    0.90    3.50
   1  -6 -15    5.10    3.30
   1  -6 -15   -1.90    3.20
   1   6 -15    1.80    3.20
   1   6 -15    5.90    2.60
  -1   6  15   -0.80    1.90
   0  -6 -15    2.60    3.20
   0  -6 -15    0.50    3.20
   0  -6 -15    8.50    3.40
   0   6 -15   -2.40    2.90
   0   6 -15    2.70    2.50
   0   6  15    0.50    1.90
  -1  -6 -15   -3.80    2.90
  -1  -6 -15   -1.20    3.10
  -1  -6 -15   -1.10    3.00
   1   6  15    1.60    1.90
  -1   6 -15    5.30    2.50
  -1   6 -15   -1.00    2.80
  -2  -6 -15   50.59    5.40
  -2   6 -15   41.80    4.80
   2   6  15   52.89    4.30
  -3  -6 -15    8.60    2.70
  -3   6 -15    2.40    2.00
   6  -7 -15    9.20    3.40
   6  -7 -15   11.10    3.60
   6   7 -15   13.30    3.30
   5  -7 -15    5.50    3.40
   5   7 -15    4.00    3.10
  -5   7  15    3.10    1.90
   4  -7 -15   21.30    3.80
   4  -7 -15   19.20    4.00
   4   7 -15   20.40    3.80
  -4   7  15   21.70    3.10
   3  -7 -15    0.70    2.50
   3  -7 -15    3.80    3.60
   3  -7 -15    1.00    3.10
   3   7 -15   -1.80    3.10
   3   7 -15    0.30    2.00
  -3   7  15    1.20    1.90
   2  -7 -15   28.50    5.50
   2  -7 -15   22.20    3.60
   2  -7 -15   33.80    4.80
   2   7 -15   26.30    4.10
   2   7 -15   27.80    5.50
  -2   7  15   29.50    3.50
   1  -7 -15   -0.20    3.10
   1  -7 -15    0.00    3.00
   1  -7 -15    2.60    2.90
  -1   7  15    2.20    1.70
   1   7 -15   -1.90    2.10
   1   7 -15   -1.10    2.90
   0  -7 -15   50.29    5.90
   0  -7 -15   47.80    6.10
   0  -7 -15   56.09    6.10
   0   7 -15   51.59    5.10
   0   7 -15   55.39    8.10
   0   7  15   63.89    4.80
  -1  -7 -15   10.90    3.10
  -1  -7 -15    8.20    4.40
   1   7  15    7.20    2.50
  -1   7 -15    7.90    2.20
  -2  -7 -15    6.60    3.10
  -2   7 -15    2.60    2.50
   4  -8 -15    6.90    4.40
   3  -8 -15    0.50    2.90
   3  -8 -15   -0.10    2.70
   2  -8 -15    2.10    3.00
   2  -8 -15   -0.40    2.60
   1  -8 -15    1.80    3.70
   9   0 -16    0.60    2.80
   8   0 -16   38.50    5.80
   7   0 -16   -2.20    2.60
   7   0 -16    2.80    3.50
   6   0 -16    6.70    3.80
   6   0 -16    1.80    3.20
   5   0 -16   -4.00    3.50
   5   0 -16    1.20    3.60
   4   0 -16    5.50    4.00
   4   0 -16   11.90    4.10
   3   0 -16    0.70    3.60
   3   0 -16    1.60    3.40
   2   0 -16   17.30    3.70
   2   0 -16   26.30    4.60
   1   0 -16   -0.20    2.10
   1   0 -16    6.90    3.20
   1   0 -16    2.40    3.50
   0   0 -16   42.60    6.60
   0   0 -16   48.40    5.10
  -1   0 -16   -1.60    3.00
  -1   0 -16    1.50    2.30
  -2   0 -16   20.90    3.80
  -2   0 -16   16.50    3.40
  -3   0 -16    2.60    2.40
  -3   0 -16    0.90    2.00
  -4   0 -16  106.99    7.50
   9  -1 -16    2.80    2.90
   9   1 -16    1.60    3.10
   8  -1 -16   65.29    6.80
   8   1 -16   58.29    6.70
   7  -1 -16    5.20    3.70
   7   1 -16   11.00    3.80
   7   1 -16    2.10    2.80
   6  -1 -16    4.90    4.00
   6  -1 -16   11.20    3.40
   6   1 -16    6.10    3.80
   6   1 -16    5.00    3.30
   5  -1 -16   -2.60    3.50
   5  -1 -16    0.50    3.40
   5   1 -16    1.20    3.40
   5   1 -16    0.20    3.50
   4  -1 -16   23.80    4.70
   4  -1 -16   35.90    6.50
   4   1 -16   39.30    6.70
   4   1 -16   30.80    5.70
   3  -1 -16   -1.40    3.40
   3  -1 -16   -3.90    3.30
   3   1 -16    0.20    3.00
   3   1 -16    2.40    3.80
   2  -1 -16   74.19    7.60
   2  -1 -16   59.09    7.00
   2   1 -16   50.09    6.60
   2   1 -16   72.09    6.10
   2   1 -16   84.89    7.80
   1  -1 -16   12.80    3.80
   1  -1 -16    2.40    2.30
   1  -1 -16    5.70    3.30
   1   1 -16    7.80    3.60
   1   1 -16    4.20    2.40
   0  -1 -16    7.20    3.40
   0  -1 -16   11.90    2.60
   0   1 -16   16.80    2.80
   0   1 -16    5.80    3.40
  -1  -1 -16    1.50    2.20
  -1  -1 -16    0.80    2.90
  -1   1 -16    3.10    3.00
  -1   1 -16    5.80    2.40
  -2  -1 -16    2.00    2.80
  -2  -1 -16    1.50    2.00
  -2   1 -16    4.20    2.70
  -2   1 -16    0.80    2.30
  -3  -1 -16    4.30    2.20
  -3  -1 -16    1.60    2.50
  -3   1 -16    6.10    2.20
  -3   1 -16    0.60    2.90
  -4  -1 -16    0.80    1.80
  -4   1 -16   -0.50    1.90
   8  -2 -16   26.10    5.30
   8   2 -16   26.50    4.40
   7  -2 -16   -1.60    3.50
   7   2 -16    0.10    2.70
   7   2 -16   -0.50    3.20
   6  -2 -16   44.60    5.90
   6  -2 -16   50.29    7.00
   6   2 -16   56.69    6.30
   6   2 -16   30.20    6.10
   5  -2 -16   33.20    6.50
   5  -2 -16   23.60    4.00
   5   2 -16   27.60    4.50
   5   2 -16   24.10    4.20
   4  -2 -16   -2.80    3.30
   4  -2 -16   -1.10    3.60
   4   2 -16   -2.30    3.40
   4   2 -16    0.70    3.30
   3  -2 -16    6.40    3.70
   3  -2 -16   -1.60    3.40
   3   2 -16    4.80    3.10
   3   2 -16    5.10    3.70
   2  -2 -16   37.70    5.80
   2  -2 -16   43.70    6.40
   2   2 -16   35.60    4.60
   2   2 -16   38.60    6.50
   1  -2 -16    9.20    3.40
   1  -2 -16   17.00    4.10
   1   2 -16   18.50    3.90
   1   2 -16   18.20    3.00
   0  -2 -16   14.20    3.60
   0  -2 -16   13.10    2.50
   0  -2 -16    9.00    3.30
   0   2 -16   13.80    3.50
   0   2 -16   19.00    2.90
  -1  -2 -16    1.70    2.00
  -1  -2 -16    1.60    3.00
  -1   2 -16    6.60    3.00
  -1   2 -16   -0.10    2.30
  -2  -2 -16   20.60    3.70
  -2  -2 -16   22.20    3.70
  -2   2 -16   27.50    4.10
  -2   2 -16   22.20    3.50
  -3  -2 -16   11.20    2.20
  -3  -2 -16   15.10    2.90
  -3   2 -16   13.40    2.50
  -4   2 -16    1.80    1.80
   8  -3 -16    8.60    3.10
   8   3 -16    6.80    3.30
   7  -3 -16   73.39    7.40
   7   3 -16   76.59    7.40
   7   3 -16   73.49    6.90
   6  -3 -16   21.20    4.40
   6  -3 -16   21.70    5.50
   6   3 -16   14.90    3.70
   6   3 -16   31.10    5.30
   5  -3 -16    2.50    3.00
   5  -3 -16   -1.60    3.60
   5   3 -16    3.80    3.30
   5   3 -16    5.50    3.20
   4  -3 -16   49.80    6.90
   4  -3 -16   51.59    6.70
   4   3 -16   53.19    6.60
   4   3 -16   41.70    5.90
   3  -3 -16    3.50    3.20
   3  -3 -16   -1.10    3.60
   3   3 -16    1.50    3.10
   2  -3 -16   57.69    7.10
   2  -3 -16   72.29    6.90
   2   3 -16   56.39    5.40
   2   3 -16   50.29    6.90
   1  -3 -16    0.20    3.10
   1  -3 -16    6.10    3.20
   1   3 -16    2.30    3.20
   1   3 -16    0.40    2.40
   0  -3 -16    7.10    3.30
   0  -3 -16   10.70    3.20
   0   3 -16    8.20    2.50
   0   3 -16   10.00    3.30
  -1  -3 -16    0.60    2.00
  -1  -3 -16    1.50    2.80
  -1   3 -16    3.00    2.30
  -1   3 -16    1.20    2.80
  -2  -3 -16   -1.40    2.40
  -2  -3 -16   -0.10    1.90
  -2   3 -16   -1.00    2.00
  -2   3 -16   -0.40    2.30
  -3  -3 -16   18.50    3.10
  -3  -3 -16    8.80    2.60
  -3   3 -16   10.10    2.40
   7  -4 -16   61.59    6.60
   7   4 -16   58.99    6.30
   7   4 -16   82.29   10.40
   6  -4 -16    5.20    3.80
   6   4 -16    3.80    3.20
   6   4 -16    4.10    2.90
   5  -4 -16   11.40    3.80
   5  -4 -16   22.00    3.50
   5   4 -16   10.60    3.30
   5   4 -16   19.60    4.00
   4  -4 -16    9.10    3.30
   4  -4 -16    9.20    3.80
   4   4 -16    6.40    3.60
   3  -4 -16    8.90    3.40
   3  -4 -16    8.40    3.90
   3   4 -16    7.40    3.10
   3   4 -16   22.40    3.90
   2  -4 -16    1.50    3.00
   2  -4 -16    3.30    3.50
   2   4 -16    2.90    3.00
   2   4 -16    2.20    2.30
   1  -4 -16    3.60    3.30
   1  -4 -16    1.30    3.00
   1   4 -16    9.30    3.20
   1   4 -16    3.70    2.40
   0  -4 -16   23.40    3.80
   0  -4 -16   25.80    5.00
   0   4 -16   28.00    4.10
   0   4 -16   32.90    4.90
  -1  -4 -16    0.70    2.60
  -1   4 -16    0.20    2.20
  -1   4 -16    3.10    2.50
  -2  -4 -16   20.20    4.00
  -2   4 -16   14.60    2.50
  -3   4 -16   -1.40    2.40
   6  -5 -16   33.70    5.30
   6   5 -16   36.60    5.40
   5  -5 -16    0.90    3.40
   5   5 -16   -1.20    2.90
   4  -5 -16   30.30    5.90
   4  -5 -16   32.80    5.00
   4   5 -16   36.80    5.30
   3  -5 -16   26.50    4.80
   3  -5 -16   17.30    4.00
   3   5 -16   12.60    3.20
   2  -5 -16    2.90    2.90
   2  -5 -16    3.10    3.50
   2   5 -16    1.40    2.80
   2   5 -16    4.20    2.30
   1  -5 -16    6.90    3.00
   1  -5 -16    1.90    3.30
   1   5 -16    9.10    3.00
   1   5 -16    7.00    2.50
   0  -5 -16   -0.60    2.80
   0  -5 -16   -1.10    2.50
   0   5 -16    1.10    2.40
   0   5 -16   -1.50    2.60
  -1  -5 -16   48.80    5.10
  -1   5 -16   43.90    4.60
  -2  -5 -16    1.90    2.60
  -2   5 -16    0.60    2.60
   5  -6 -16   72.79    7.20
   5   6 -16   82.69    7.10
   4  -6 -16   -0.40    2.90
   4   6 -16    1.30    2.80
   3  -6 -16   23.10    4.00
   3  -6 -16   22.50    4.40
   3   6 -16   14.60    3.40
   2  -6 -16   -0.20    2.50
   2  -6 -16    2.60    3.20
   2   6 -16    0.60    2.80
   1  -6 -16    1.90    2.40
   1  -6 -16    1.00    2.90
   1   6 -16    2.80    3.00
   1   6 -16    1.90    2.00
   0  -6 -16    1.20    2.40
   0   6 -16   -0.50    3.50
   7   0 -17    4.20    3.40
   6   0 -17    1.20    2.50
   6   0 -17    2.30    3.20
   5   0 -17    6.90    3.20
   5   0 -17    3.10    2.90
   4   0 -17   -0.70    2.90
   4   0 -17    0.20    3.00
   3   0 -17    6.40    3.30
   3   0 -17    4.50    2.90
   2   0 -17    2.80    3.10
   1   0 -17   -0.50    2.80
   0   0 -17    1.20    2.80
  -1   0 -17   36.10    4.70
  -1   0 -17   33.70    5.30
   7  -1 -17    3.90    3.30
   6  -1 -17   -1.70    2.70
   6   1 -17    2.50    2.60
   6   1 -17    3.50    2.90
   5  -1 -17   17.20    3.70
   5  -1 -17   14.20    3.30
   5   1 -17   15.60    3.60
   5   1 -17   14.00    3.50
   4  -1 -17   -1.80    2.90
   4  -1 -17   -1.40    2.90
   4   1 -17   -3.30    3.10
   4   1 -17   -0.40    2.70
   3  -1 -17   61.49    6.50
   3  -1 -17   54.19    6.30
   3   1 -17   64.29    6.40
   2  -1 -17    3.00    2.80
   2  -1 -17    3.10    3.10
   2   1 -17    0.00    3.00
   1  -1 -17   26.50    4.00
   1   1 -17   28.60    5.30
   0  -1 -17    0.20    2.80
   0   1 -17   -1.70    2.80
   0   1 -17   -0.60    1.90
  -1  -1 -17   11.10    2.90
  -1   1 -17   20.50    3.50
  -1   1 -17   16.00    3.10
   6  -2 -17   41.80    5.50
   6   2 -17   49.90    5.40
   5  -2 -17    1.60    2.70
   5  -2 -17    1.30    3.20
   5   2 -17    4.60    2.90
   4  -2 -17    8.30    3.40
   4  -2 -17    7.20    3.20
   4   2 -17    4.90    2.90
   3  -2 -17    2.40    3.10
   3  -2 -17    6.50    3.00
   3   2 -17    5.60    3.10
   2  -2 -17   16.00    3.60
   2  -2 -17   10.90    3.20
   2   2 -17    7.00    3.10
   1  -2 -17   18.40    3.40
   1   2 -17   18.30    3.30
   0  -2 -17    6.60    3.00
   0   2 -17    8.30    2.50
   0   2 -17    4.00    2.70
  -1  -2 -17    8.90    2.80
   6  -3 -17   25.00    4.30
   5  -3 -17   15.30    3.90
   5   3 -17   20.00    3.50
   4  -3 -17   -0.40    3.10
   4  -3 -17   -3.60    2.50
   4   3 -17   -1.50    2.70
   3  -3 -17   54.59    6.40
   3  -3 -17   68.39    6.30
   3   3 -17   58.29    6.00
   2  -3 -17   13.20    3.50
   2  -3 -17   15.20    3.50
   2   3 -17   13.00    3.00
   1  -3 -17    1.70    2.80
   1   3 -17    0.20    2.60
   0  -3 -17    0.90    2.50
   0   3 -17    1.10    2.30
  -1  -3 -17    0.20    2.90
   5  -4 -17   22.10    5.80
   5   4 -17   28.10    5.40
   4  -4 -17   13.10    3.50
   4   4 -17   19.60    3.30
   3  -4 -17   15.90    3.20
   3  -4 -17   15.50    3.70
   3   4 -17   18.80    3.30
   2  -4 -17   15.20    3.20
   2   4 -17   22.90    4.40
   1  -4 -17   -0.60    2.50
   1   4 -17   -0.30    2.80
   0  -4 -17   27.40    4.20
   0   0   0    0.00    0.00

_computing_structure_solution     'SHELXT 2018/2 (Sheldrick, 2018)'
;
_shelx_hkl_checksum              12373
_olex2_exptl_crystal_mounting_method 'Mounted in Parabar oil'
_olex2_submission_special_instructions 'No special instructions were received'
loop_
_space_group_symop_operation_xyz
'x, y, z'
'-x+1/2, y+1/2, -z+1/2'
'-x, -y, -z'
'x-1/2, -y-1/2, z-1/2'
loop_
_atom_site_label
_atom_site_type_symbol
_atom_site_fract_x
_atom_site_fract_y
_atom_site_fract_z
_atom_site_U_iso_or_equiv
_atom_site_adp_type
_atom_site_occupancy
_atom_site_site_symmetry_order
_atom_site_calc_flag
_atom_site_refinement_flags_posn
_atom_site_refinement_flags_adp
_atom_site_refinement_flags_occupancy
_atom_site_disorder_assembly
_atom_site_disorder_group
Mn01 Mn 0.46339(3) 0.72186(3) 0.56675(2) 0.04245(13) Uani 1 1 d . . . . .
O002 O 0.37934(11) 0.60478(11) 0.58707(10) 0.0493(4) Uani 1 1 d . . . . .
O003 O 0.34379(11) 0.76102(12) 0.48538(10) 0.0507(4) Uani 1 1 d . . . . .
N004 N 0.58548(13) 0.63077(14) 0.57585(11) 0.0448(4) Uani 1 1 d . . . . .
N005 N 0.54809(14) 0.81059(14) 0.50488(12) 0.0468(4) Uani 1 1 d . . . . .
N006 N 0.47465(16) 0.78234(15) 0.65282(13) 0.0576(5) Uani 1 1 d . . . . .
C007 C 0.41040(17) 0.51996(16) 0.63222(13) 0.0435(5) Uani 1 1 d . . . . .
C008 C 0.51011(17) 0.47771(16) 0.63273(14) 0.0435(5) Uani 1 1 d . . . . .
C009 C 0.58837(17) 0.53310(18) 0.59754(14) 0.0475(5) Uani 1 1 d . . . . .
H009 H 0.646451 0.495333 0.589614 0.057 Uiso 1 1 calc R U . . .
C00A C 0.32889(17) 0.83897(17) 0.42851(14) 0.0462(5) Uani 1 1 d . . . . .
C00B C 0.41167(18) 0.89603(17) 0.40418(15) 0.0490(5) Uani 1 1 d . . . . .
C00C C 0.22525(18) 0.86465(17) 0.38809(14) 0.0489(5) Uani 1 1 d . . . . .
C00D C 0.34168(18) 0.46733(17) 0.68035(14) 0.0482(5) Uani 1 1 d . . . . .
C00E C 0.51718(18) 0.87574(18) 0.44242(15) 0.0519(6) Uani 1 1 d . . . . .
H00E H 0.567544 0.912973 0.420042 0.062 Uiso 1 1 calc R U . . .
C00F C 0.53715(19) 0.37915(17) 0.67125(15) 0.0536(6) Uani 1 1 d . . . . .
H00F H 0.600903 0.349570 0.667805 0.064 Uiso 1 1 calc R U . . .
C00G C 0.2126(2) 0.94214(19) 0.32466(15) 0.0570(6) Uani 1 1 d . . . . .
H00G H 0.145744 0.958962 0.297264 0.068 Uiso 1 1 calc R U . . .
C00H C 0.13324(18) 0.8080(2) 0.41530(16) 0.0545(6) Uani 1 1 d . . . . .
C00I C 0.2943(2) 0.9965(2) 0.29940(16) 0.0609(6) Uani 1 1 d . . . . .
H00I H 0.281521 1.047671 0.255792 0.073 Uiso 1 1 calc R U . . .
C00J C 0.67530(17) 0.67748(19) 0.54228(16) 0.0521(5) Uani 1 1 d . . . . .
H00J H 0.672253 0.654689 0.481022 0.062 Uiso 1 1 calc R U . . .
C00K C 0.3923(2) 0.97458(19) 0.33867(16) 0.0577(6) Uani 1 1 d . . . . .
H00K H 0.447057 1.011283 0.322509 0.069 Uiso 1 1 calc R U . . .
C00L C 0.3747(2) 0.37280(18) 0.71901(16) 0.0588(6) Uani 1 1 d . . . . .
H00L H 0.331087 0.337529 0.750456 0.071 Uiso 1 1 calc R U . . .
C00M C 0.65851(17) 0.79474(18) 0.54230(16) 0.0504(5) Uani 1 1 d . . . . .
H00M H 0.667902 0.816346 0.604362 0.061 Uiso 1 1 calc R U . . .
C00N C 0.23785(19) 0.51544(18) 0.69048(17) 0.0566(6) Uani 1 1 d . . . . .
C00O C 0.73843(18) 0.8532(2) 0.50174(17) 0.0583(6) Uani 1 1 d . . . . .
H00A H 0.726013 0.927912 0.503478 0.070 Uiso 1 1 calc R U . . .
H00B H 0.734339 0.832465 0.440536 0.070 Uiso 1 1 calc R U . . .
C00P C 0.4695(2) 0.32743(19) 0.71356(17) 0.0616(6) Uani 1 1 d . . . . .
H00P H 0.486592 0.262148 0.738639 0.074 Uiso 1 1 calc R U . . .
C00Q C 0.78142(18) 0.6504(2) 0.59407(19) 0.0634(7) Uani 1 1 d . . . . .
H00C H 0.793757 0.575986 0.589346 0.076 Uiso 1 1 calc R U . . .
H00D H 0.784084 0.667005 0.655985 0.076 Uiso 1 1 calc R U . . .
C00R C 0.1366(2) 0.8213(2) 0.51523(17) 0.0649(7) Uani 1 1 d . . . . .
H00H H 0.200739 0.794297 0.546870 0.097 Uiso 1 1 calc R U . . .
H00N H 0.080179 0.783787 0.532447 0.097 Uiso 1 1 calc R U . . .
H00O H 0.131087 0.894202 0.528698 0.097 Uiso 1 1 calc R U . . .
C00S C 0.1680(2) 0.5301(2) 0.6005(2) 0.0754(8) Uani 1 1 d . . . . .
H00Q H 0.202587 0.573104 0.563636 0.113 Uiso 1 1 calc R U . . .
H00R H 0.104882 0.563374 0.608473 0.113 Uiso 1 1 calc R U . . .
H00S H 0.152828 0.463172 0.573028 0.113 Uiso 1 1 calc R U . . .
C00T C 0.0295(2) 0.8521(2) 0.3677(2) 0.0752(8) Uani 1 1 d . . . . .
H00T H 0.024740 0.924730 0.382326 0.113 Uiso 1 1 calc R U . . .
H00U H -0.026057 0.814265 0.386105 0.113 Uiso 1 1 calc R U . . .
H00V H 0.025085 0.844842 0.305032 0.113 Uiso 1 1 calc R U . . .
C00U C 0.84540(19) 0.8273(2) 0.5545(2) 0.0705(7) Uani 1 1 d . . . . .
H00W H 0.897662 0.861404 0.527232 0.085 Uiso 1 1 calc R U . . .
H00X H 0.850820 0.854425 0.614011 0.085 Uiso 1 1 calc R U . . .
C00V C 0.2569(2) 0.6219(2) 0.7356(2) 0.0791(8) Uani 1 1 d . . . . .
H00Y H 0.299248 0.613065 0.792805 0.119 Uiso 1 1 calc R U . . .
H H 0.192101 0.652517 0.742173 0.119 Uiso 1 1 calc R U . . .
HA H 0.291493 0.666956 0.700286 0.119 Uiso 1 1 calc R U . . .
C00W C 0.1355(2) 0.6917(2) 0.3904(2) 0.0713(7) Uani 1 1 d . . . . .
H00Z H 0.128781 0.685154 0.327473 0.107 Uiso 1 1 calc R U . . .
HB H 0.079292 0.655977 0.409781 0.107 Uiso 1 1 calc R U . . .
HC H 0.199728 0.661363 0.418461 0.107 Uiso 1 1 calc R U . . .
C00X C 0.8654(2) 0.7117(2) 0.5587(2) 0.0743(8) Uani 1 1 d . . . . .
H00 H 0.931501 0.698751 0.596396 0.089 Uiso 1 1 calc R U . . .
HD H 0.869738 0.686520 0.499928 0.089 Uiso 1 1 calc R U . . .
C00Y C 0.1790(3) 0.4474(3) 0.7470(3) 0.0949(11) Uani 1 1 d . . . . .
H1 H 0.167567 0.379314 0.720806 0.142 Uiso 1 1 calc R U . . .
HE H 0.113802 0.479439 0.750280 0.142 Uiso 1 1 calc R U . . .
HF H 0.218893 0.440878 0.805457 0.142 Uiso 1 1 calc R U . . .
loop_
_atom_site_aniso_label
_atom_site_aniso_U_11
_atom_site_aniso_U_22
_atom_site_aniso_U_33
_atom_site_aniso_U_23
_atom_site_aniso_U_13
_atom_site_aniso_U_12
Mn01 0.0417(2) 0.0449(2) 0.0429(2) 0.00291(14) 0.01322(15) 0.00101(14)
O002 0.0448(8) 0.0480(8) 0.0566(9) 0.0102(7) 0.0132(7) 0.0016(7)
O003 0.0435(9) 0.0523(9) 0.0571(10) 0.0142(7) 0.0112(7) 0.0015(7)
N004 0.0416(10) 0.0493(11) 0.0444(10) 0.0000(8) 0.0100(8) -0.0008(8)
N005 0.0448(10) 0.0489(10) 0.0486(11) 0.0020(9) 0.0132(8) 0.0001(8)
N006 0.0634(13) 0.0595(12) 0.0547(12) -0.0065(9) 0.0235(10) -0.0038(10)
C007 0.0526(13) 0.0399(11) 0.0382(11) -0.0020(9) 0.0089(9) -0.0024(10)
C008 0.0481(13) 0.0429(11) 0.0390(11) -0.0030(9) 0.0063(9) -0.0008(9)
C009 0.0465(13) 0.0517(13) 0.0440(12) -0.0037(10) 0.0074(10) 0.0052(10)
C00A 0.0506(13) 0.0462(12) 0.0435(12) 0.0020(9) 0.0132(10) 0.0051(10)
C00B 0.0546(14) 0.0467(12) 0.0476(13) 0.0040(10) 0.0143(11) 0.0032(10)
C00C 0.0530(13) 0.0499(13) 0.0439(12) -0.0021(10) 0.0088(10) 0.0072(10)
C00D 0.0578(14) 0.0422(12) 0.0467(12) -0.0016(10) 0.0149(10) -0.0049(10)
C00E 0.0553(14) 0.0497(13) 0.0549(14) 0.0043(11) 0.0213(11) -0.0029(11)
C00F 0.0569(14) 0.0449(12) 0.0563(14) -0.0028(10) 0.0029(11) 0.0049(11)
C00G 0.0624(16) 0.0604(15) 0.0460(13) 0.0020(11) 0.0032(11) 0.0108(12)
C00H 0.0448(13) 0.0641(14) 0.0532(14) 0.0005(11) 0.0050(11) 0.0039(11)
C00I 0.0768(18) 0.0574(15) 0.0486(14) 0.0132(11) 0.0112(13) 0.0073(13)
C00J 0.0444(13) 0.0570(14) 0.0570(14) 0.0007(11) 0.0150(11) 0.0009(10)
C00K 0.0707(17) 0.0528(14) 0.0526(14) 0.0084(11) 0.0189(13) 0.0004(12)
C00L 0.0736(17) 0.0465(13) 0.0593(15) 0.0059(11) 0.0206(13) -0.0056(12)
C00M 0.0415(13) 0.0579(14) 0.0536(13) 0.0001(10) 0.0130(10) -0.0024(10)
C00N 0.0591(15) 0.0512(13) 0.0658(16) 0.0027(11) 0.0280(12) -0.0036(11)
C00O 0.0535(14) 0.0608(15) 0.0638(15) -0.0016(12) 0.0192(12) -0.0088(11)
C00P 0.0754(18) 0.0435(13) 0.0655(16) 0.0083(11) 0.0114(13) 0.0021(12)
C00Q 0.0450(14) 0.0705(16) 0.0762(17) 0.0058(13) 0.0150(12) 0.0047(12)
C00R 0.0521(15) 0.0867(18) 0.0583(15) 0.0023(13) 0.0168(12) 0.0036(13)
C00S 0.0548(16) 0.084(2) 0.089(2) -0.0023(16) 0.0155(15) -0.0005(14)
C00T 0.0530(16) 0.095(2) 0.0749(18) 0.0073(15) 0.0037(13) 0.0072(14)
C00U 0.0481(15) 0.0764(19) 0.090(2) -0.0079(15) 0.0210(14) -0.0081(13)
C00V 0.0776(19) 0.0686(17) 0.099(2) -0.0241(16) 0.0363(17) 0.0017(15)
C00W 0.0680(17) 0.0659(16) 0.0779(19) -0.0050(14) 0.0073(14) -0.0076(14)
C00X 0.0495(15) 0.0777(19) 0.099(2) -0.0025(15) 0.0218(15) -0.0022(13)
C00Y 0.087(2) 0.086(2) 0.128(3) 0.032(2) 0.062(2) 0.0054(18)
loop_
_atom_type_symbol
_atom_type_description
_atom_type_scat_dispersion_real
_atom_type_scat_dispersion_imag
_atom_type_scat_source
C C 0.0181 0.0091 'International Tables Vol C Tables 4.2.6.8 and 6.1.1.4'
H H 0.0000 0.0000 'International Tables Vol C Tables 4.2.6.8 and 6.1.1.4'
Mn Mn -0.5299 2.8052 'International Tables Vol C Tables 4.2.6.8 and 6.1.1.4'
N N 0.0311 0.0180 'International Tables Vol C Tables 4.2.6.8 and 6.1.1.4'
O O 0.0492 0.0322 'International Tables Vol C Tables 4.2.6.8 and 6.1.1.4'
loop_
_geom_angle_atom_site_label_1
_geom_angle_atom_site_label_2
_geom_angle_atom_site_label_3
_geom_angle
_geom_angle_site_symmetry_1
_geom_angle_site_symmetry_3
_geom_angle_publ_flag
O002 Mn01 N004 90.78(7) . . ?
O002 Mn01 N005 158.10(7) . . ?
O003 Mn01 O002 83.04(6) . . ?
O003 Mn01 N004 140.75(7) . . ?
O003 Mn01 N005 90.20(7) . . ?
N005 Mn01 N004 81.33(8) . . ?
N006 Mn01 O002 103.01(9) . . ?
N006 Mn01 O003 112.48(10) . . ?
N006 Mn01 N004 106.70(10) . . ?
N006 Mn01 N005 98.82(9) . . ?
C007 O002 Mn01 126.58(14) . . ?
C00A O003 Mn01 130.26(14) . . ?
C009 N004 Mn01 125.21(15) . . ?
C009 N004 C00J 119.11(19) . . ?
C00J N004 Mn01 115.09(14) . . ?
C00E N005 Mn01 127.60(16) . . ?
C00E N005 C00M 122.68(19) . . ?
C00M N005 Mn01 109.70(14) . . ?
O002 C007 C008 121.22(19) . . ?
O002 C007 C00D 119.7(2) . . ?
C008 C007 C00D 119.09(19) . . ?
C007 C008 C009 122.42(19) . . ?
C00F C008 C007 120.5(2) . . ?
C00F C008 C009 117.1(2) . . ?
N004 C009 C008 125.8(2) . . ?
N004 C009 H009 117.1 . . ?
C008 C009 H009 117.1 . . ?
O003 C00A C00B 122.3(2) . . ?
O003 C00A C00C 118.6(2) . . ?
C00B C00A C00C 119.0(2) . . ?
C00A C00B C00E 122.2(2) . . ?
C00K C00B C00A 120.3(2) . . ?
C00K C00B C00E 117.4(2) . . ?
C00A C00C C00H 120.70(19) . . ?
C00G C00C C00A 117.2(2) . . ?
C00G C00C C00H 122.1(2) . . ?
C007 C00D C00N 121.32(19) . . ?
C00L C00D C007 117.0(2) . . ?
C00L C00D C00N 121.7(2) . . ?
N005 C00E C00B 125.5(2) . . ?
N005 C00E H00E 117.2 . . ?
C00B C00E H00E 117.2 . . ?
C008 C00F H00F 120.1 . . ?
C00P C00F C008 119.7(2) . . ?
C00P C00F H00F 120.1 . . ?
C00C C00G H00G 118.2 . . ?
C00C C00G C00I 123.6(2) . . ?
C00I C00G H00G 118.2 . . ?
C00C C00H C00R 109.6(2) . . ?
C00C C00H C00T 112.0(2) . . ?
C00C C00H C00W 109.8(2) . . ?
C00T C00H C00R 107.5(2) . . ?
C00W C00H C00R 111.0(2) . . ?
C00W C00H C00T 106.9(2) . . ?
C00G C00I H00I 120.2 . . ?
C00K C00I C00G 119.6(2) . . ?
C00K C00I H00I 120.2 . . ?
N004 C00J H00J 108.3 . . ?
N004 C00J C00M 105.71(17) . . ?
N004 C00J C00Q 115.91(19) . . ?
C00M C00J H00J 108.3 . . ?
C00M C00J C00Q 110.2(2) . . ?
C00Q C00J H00J 108.3 . . ?
C00B C00K H00K 119.9 . . ?
C00I C00K C00B 120.2(2) . . ?
C00I C00K H00K 119.9 . . ?
C00D C00L H00L 118.1 . . ?
C00D C00L C00P 123.7(2) . . ?
C00P C00L H00L 118.1 . . ?
N005 C00M C00J 105.59(18) . . ?
N005 C00M H00M 106.6 . . ?
N005 C00M C00O 118.6(2) . . ?
C00J C00M H00M 106.6 . . ?
C00O C00M C00J 112.13(19) . . ?
C00O C00M H00M 106.6 . . ?
C00D C00N C00Y 112.3(2) . . ?
C00S C00N C00D 111.1(2) . . ?
C00S C00N C00Y 107.5(2) . . ?
C00V C00N C00D 109.0(2) . . ?
C00V C00N C00S 109.0(2) . . ?
C00V C00N C00Y 107.8(2) . . ?
C00M C00O H00A 110.0 . . ?
C00M C00O H00B 110.0 . . ?
C00M C00O C00U 108.4(2) . . ?
H00A C00O H00B 108.4 . . ?
C00U C00O H00A 110.0 . . ?
C00U C00O H00B 110.0 . . ?
C00F C00P C00L 119.7(2) . . ?
C00F C00P H00P 120.2 . . ?
C00L C00P H00P 120.2 . . ?
C00J C00Q H00C 109.5 . . ?
C00J C00Q H00D 109.5 . . ?
C00J C00Q C00X 110.5(2) . . ?
H00C C00Q H00D 108.1 . . ?
C00X C00Q H00C 109.5 . . ?
C00X C00Q H00D 109.5 . . ?
C00H C00R H00H 109.5 . . ?
C00H C00R H00N 109.5 . . ?
C00H C00R H00O 109.5 . . ?
H00H C00R H00N 109.5 . . ?
H00H C00R H00O 109.5 . . ?
H00N C00R H00O 109.5 . . ?
C00N C00S H00Q 109.5 . . ?
C00N C00S H00R 109.5 . . ?
C00N C00S H00S 109.5 . . ?
H00Q C00S H00R 109.5 . . ?
H00Q C00S H00S 109.5 . . ?
H00R C00S H00S 109.5 . . ?
C00H C00T H00T 109.5 . . ?
C00H C00T H00U 109.5 . . ?
C00H C00T H00V 109.5 . . ?
H00T C00T H00U 109.5 . . ?
H00T C00T H00V 109.5 . . ?
H00U C00T H00V 109.5 . . ?
C00O C00U H00W 109.2 . . ?
C00O C00U H00X 109.2 . . ?
H00W C00U H00X 107.9 . . ?
C00X C00U C00O 112.0(2) . . ?
C00X C00U H00W 109.2 . . ?
C00X C00U H00X 109.2 . . ?
C00N C00V H00Y 109.5 . . ?
C00N C00V H 109.5 . . ?
C00N C00V HA 109.5 . . ?
H00Y C00V H 109.5 . . ?
H00Y C00V HA 109.5 . . ?
H C00V HA 109.5 . . ?
C00H C00W H00Z 109.5 . . ?
C00H C00W HB 109.5 . . ?
C00H C00W HC 109.5 . . ?
H00Z C00W HB 109.5 . . ?
H00Z C00W HC 109.5 . . ?
HB C00W HC 109.5 . . ?
C00Q C00X H00 109.0 . . ?
C00Q C00X HD 109.0 . . ?
C00U C00X C00Q 112.8(2) . . ?
C00U C00X H00 109.0 . . ?
C00U C00X HD 109.0 . . ?
H00 C00X HD 107.8 . . ?
C00N C00Y H1 109.5 . . ?
C00N C00Y HE 109.5 . . ?
C00N C00Y HF 109.5 . . ?
H1 C00Y HE 109.5 . . ?
H1 C00Y HF 109.5 . . ?
HE C00Y HF 109.5 . . ?
loop_
_geom_bond_atom_site_label_1
_geom_bond_atom_site_label_2
_geom_bond_distance
_geom_bond_site_symmetry_2
_geom_bond_publ_flag
Mn01 O002 1.9190(15) . ?
Mn01 O003 1.8954(16) . ?
Mn01 N004 1.9685(18) . ?
Mn01 N005 1.9518(18) . ?
Mn01 N006 1.517(2) . ?
O002 C007 1.313(2) . ?
O003 C00A 1.317(3) . ?
N004 C009 1.291(3) . ?
N004 C00J 1.495(3) . ?
N005 C00E 1.282(3) . ?
N005 C00M 1.478(3) . ?
C007 C008 1.417(3) . ?
C007 C00D 1.434(3) . ?
C008 C009 1.432(3) . ?
C008 C00F 1.411(3) . ?
C009 H009 0.9300 . ?
C00A C00B 1.415(3) . ?
C00A C00C 1.433(3) . ?
C00B C00E 1.432(3) . ?
C00B C00K 1.413(3) . ?
C00C C00G 1.379(3) . ?
C00C C00H 1.531(3) . ?
C00D C00L 1.382(3) . ?
C00D C00N 1.531(3) . ?
C00E H00E 0.9300 . ?
C00F H00F 0.9300 . ?
C00F C00P 1.363(3) . ?
C00G H00G 0.9300 . ?
C00G C00I 1.392(3) . ?
C00H C00R 1.539(3) . ?
C00H C00T 1.536(3) . ?
C00H C00W 1.536(4) . ?
C00I H00I 0.9300 . ?
C00I C00K 1.353(4) . ?
C00J H00J 0.9800 . ?
C00J C00M 1.515(3) . ?
C00J C00Q 1.519(3) . ?
C00K H00K 0.9300 . ?
C00L H00L 0.9300 . ?
C00L C00P 1.391(4) . ?
C00M H00M 0.9800 . ?
C00M C00O 1.512(3) . ?
C00N C00S 1.530(4) . ?
C00N C00V 1.528(4) . ?
C00N C00Y 1.533(3) . ?
C00O H00A 0.9700 . ?
C00O H00B 0.9700 . ?
C00O C00U 1.530(4) . ?
C00P H00P 0.9300 . ?
C00Q H00C 0.9700 . ?
C00Q H00D 0.9700 . ?
C00Q C00X 1.532(4) . ?
C00R H00H 0.9600 . ?
C00R H00N 0.9600 . ?
C00R H00O 0.9600 . ?
C00S H00Q 0.9600 . ?
C00S H00R 0.9600 . ?
C00S H00S 0.9600 . ?
C00T H00T 0.9600 . ?
C00T H00U 0.9600 . ?
C00T H00V 0.9600 . ?
C00U H00W 0.9700 . ?
C00U H00X 0.9700 . ?
C00U C00X 1.499(4) . ?
C00V H00Y 0.9600 . ?
C00V H 0.9600 . ?
C00V HA 0.9600 . ?
C00W H00Z 0.9600 . ?
C00W HB 0.9600 . ?
C00W HC 0.9600 . ?
C00X H00 0.9700 . ?
C00X HD 0.9700 . ?
C00Y H1 0.9600 . ?
C00Y HE 0.9600 . ?
C00Y HF 0.9600 . ?
loop_
_geom_torsion_atom_site_label_1
_geom_torsion_atom_site_label_2
_geom_torsion_atom_site_label_3
_geom_torsion_atom_site_label_4
_geom_torsion
_geom_torsion_site_symmetry_1
_geom_torsion_site_symmetry_2
_geom_torsion_site_symmetry_3
_geom_torsion_site_symmetry_4
_geom_torsion_publ_flag
Mn01 O002 C007 C008 -33.9(3) . . . . ?
Mn01 O002 C007 C00D 147.64(16) . . . . ?
Mn01 O003 C00A C00B 15.2(3) . . . . ?
Mn01 O003 C00A C00C -166.69(15) . . . . ?
Mn01 N004 C009 C008 -11.0(3) . . . . ?
Mn01 N004 C00J C00M 20.4(2) . . . . ?
Mn01 N004 C00J C00Q 142.80(18) . . . . ?
Mn01 N005 C00E C00B -0.6(3) . . . . ?
Mn01 N005 C00M C00J 51.10(19) . . . . ?
Mn01 N005 C00M C00O 177.81(17) . . . . ?
O002 Mn01 O003 C00A -174.73(19) . . . . ?
O002 C007 C008 C009 10.9(3) . . . . ?
O002 C007 C008 C00F -171.19(19) . . . . ?
O002 C007 C00D C00L 173.5(2) . . . . ?
O002 C007 C00D C00N -8.2(3) . . . . ?
O003 C00A C00B C00E -2.6(3) . . . . ?
O003 C00A C00B C00K 175.9(2) . . . . ?
O003 C00A C00C C00G -175.93(19) . . . . ?
O003 C00A C00C C00H 4.3(3) . . . . ?
N004 Mn01 O003 C00A -92.1(2) . . . . ?
N004 C00J C00M N005 -44.1(2) . . . . ?
N004 C00J C00M C00O -174.67(19) . . . . ?
N004 C00J C00Q C00X -174.3(2) . . . . ?
N005 Mn01 O003 C00A -15.61(19) . . . . ?
N005 C00M C00O C00U 177.5(2) . . . . ?
N006 Mn01 O003 C00A 84.0(2) . . . . ?
C007 C008 C009 N004 12.4(3) . . . . ?
C007 C008 C00F C00P -4.5(3) . . . . ?
C007 C00D C00L C00P 0.1(4) . . . . ?
C007 C00D C00N C00S 61.6(3) . . . . ?
C007 C00D C00N C00V -58.6(3) . . . . ?
C007 C00D C00N C00Y -178.0(2) . . . . ?
C008 C007 C00D C00L -5.0(3) . . . . ?
C008 C007 C00D C00N 173.3(2) . . . . ?
C008 C00F C00P C00L -0.6(4) . . . . ?
C009 N004 C00J C00M -167.94(19) . . . . ?
C009 N004 C00J C00Q -45.5(3) . . . . ?
C009 C008 C00F C00P 173.5(2) . . . . ?
C00A C00B C00E N005 -4.5(4) . . . . ?
C00A C00B C00K C00I 0.7(4) . . . . ?
C00A C00C C00G C00I -0.9(3) . . . . ?
C00A C00C C00H C00R 57.4(3) . . . . ?
C00A C00C C00H C00T 176.6(2) . . . . ?
C00A C00C C00H C00W -64.7(3) . . . . ?
C00B C00A C00C C00G 2.3(3) . . . . ?
C00B C00A C00C C00H -177.4(2) . . . . ?
C00C C00A C00B C00E 179.3(2) . . . . ?
C00C C00A C00B C00K -2.2(3) . . . . ?
C00C C00G C00I C00K -0.7(4) . . . . ?
C00D C007 C008 C009 -170.59(19) . . . . ?
C00D C007 C008 C00F 7.3(3) . . . . ?
C00D C00L C00P C00F 2.8(4) . . . . ?
C00E N005 C00M C00J -130.3(2) . . . . ?
C00E N005 C00M C00O -3.6(3) . . . . ?
C00E C00B C00K C00I 179.3(2) . . . . ?
C00F C008 C009 N004 -165.6(2) . . . . ?
C00G C00C C00H C00R -122.3(2) . . . . ?
C00G C00C C00H C00T -3.1(3) . . . . ?
C00G C00C C00H C00W 115.6(2) . . . . ?
C00G C00I C00K C00B 0.8(4) . . . . ?
C00H C00C C00G C00I 178.8(2) . . . . ?
C00J N004 C009 C008 178.3(2) . . . . ?
C00J C00M C00O C00U -58.9(3) . . . . ?
C00J C00Q C00X C00U 52.9(3) . . . . ?
C00K C00B C00E N005 176.9(2) . . . . ?
C00L C00D C00N C00S -120.2(3) . . . . ?
C00L C00D C00N C00V 119.6(3) . . . . ?
C00L C00D C00N C00Y 0.2(3) . . . . ?
C00M N005 C00E C00B -179.0(2) . . . . ?
C00M C00J C00Q C00X -54.3(3) . . . . ?
C00M C00O C00U C00X 55.9(3) . . . . ?
C00N C00D C00L C00P -178.3(2) . . . . ?
C00O C00U C00X C00Q -54.3(3) . . . . ?
C00Q C00J C00M N005 -170.08(19) . . . . ?
C00Q C00J C00M C00O 59.4(3) . . . . ?
