#------------------------------------------------------------------------------
#$Date: 2024-02-05 14:09:55 +0200 (Mon, 05 Feb 2024) $
#$Revision: 289697 $
#$URL: file:///home/coder/svn-repositories/cod/cif/1/57/04/1570449.cif $
#------------------------------------------------------------------------------
#
# This file is available in the Crystallography Open Database (COD),
# http://www.crystallography.net/
#
# All data on this site have been placed in the public domain by the
# contributors.
#
data_1570449
loop_
_publ_author_name
'Sacharczuk, Natalia'
'Olejniczak, Anna'
'Bujak, Maciej'
'Dziubek, Kamil Filip'
'Katrusiak, Andrzej'
'Podsiad&#x142;o, Marcin'
_publ_section_title
;
 Conformation-aggregation interplay in the simplest aliphatic ethers
 probed under high pressure.
;
_journal_issue                   'Pt 1'
_journal_name_full               IUCrJ
_journal_page_first              57
_journal_page_last               61
_journal_paper_doi               10.1107/S2052252523009995
_journal_volume                  11
_journal_year                    2024
_chemical_formula_moiety         'C6 H14 O'
_chemical_formula_sum            'C6 H14 O'
_chemical_formula_weight         102.17
_chemical_name_systematic        'dipropyl ether'
_space_group_crystal_system      monoclinic
_space_group_IT_number           14
_space_group_name_Hall           '-P 2ybc'
_space_group_name_H-M_alt        'P 1 21/c 1'
_atom_sites_solution_hydrogens   geom
_atom_sites_solution_primary     dual
_audit_creation_method
; Olex2 1.5
(compiled 2022.04.07 svn.rca3783a0 for OlexSys, GUI svn.r6498)
;
_cell_angle_alpha                90
_cell_angle_beta                 100.84(6)
_cell_angle_gamma                90
_cell_formula_units_Z            4
_cell_length_a                   9.368(8)
_cell_length_b                   4.1229(4)
_cell_length_c                   15.434(4)
_cell_measurement_reflns_used    1024
_cell_measurement_temperature    295(2)
_cell_measurement_theta_max      24.5000
_cell_measurement_theta_min      5.0860
_cell_volume                     585.5(5)
_computing_cell_refinement       'CrysAlisPro 1.171.42.49 (Rigaku OD, 2022)'
_computing_data_collection       'CrysAlisPro 1.171.42.49 (Rigaku OD, 2022)'
_computing_data_reduction        'CrysAlisPro 1.171.42.49 (Rigaku OD, 2022)'
_computing_molecular_graphics    'Olex2 1.5 (Dolomanov et al., 2009)'
_computing_publication_material  'Olex2 1.5 (Dolomanov et al., 2009)'
_computing_structure_refinement  'SHELXL 2018/3 (Sheldrick, 2015)'
_computing_structure_solution    'SHELXT 2018/2 (Sheldrick, 2018)'
_diffrn_ambient_environment      'diamond-anvil cell'
_diffrn_ambient_pressure         2100000
_diffrn_ambient_temperature      295(2)
_diffrn_measured_fraction_theta_full 0.346
_diffrn_measured_fraction_theta_max 0.314
_diffrn_measurement_device_type  'KUMA KM4-CCD, Eos'
_diffrn_measurement_method       '\f- and \w-scans'
_diffrn_radiation_type           MoK\a
_diffrn_radiation_wavelength     0.71073
_diffrn_reflns_av_R_equivalents  0.0297
_diffrn_reflns_av_unetI/netI     0.0216
_diffrn_reflns_Laue_measured_fraction_full 0.346
_diffrn_reflns_Laue_measured_fraction_max 0.314
_diffrn_reflns_limit_h_max       6
_diffrn_reflns_limit_h_min       -6
_diffrn_reflns_limit_k_max       5
_diffrn_reflns_limit_k_min       -5
_diffrn_reflns_limit_l_max       16
_diffrn_reflns_limit_l_min       -16
_diffrn_reflns_number            2850
_diffrn_reflns_point_group_measured_fraction_full 0.346
_diffrn_reflns_point_group_measured_fraction_max 0.314
_diffrn_reflns_theta_full        25.242
_diffrn_reflns_theta_max         26.530
_diffrn_reflns_theta_min         5.125
_exptl_absorpt_coefficient_mu    0.075
_exptl_absorpt_correction_T_max  1.00000
_exptl_absorpt_correction_T_min  0.51647
_exptl_absorpt_correction_type   multi-scan
_exptl_absorpt_process_details
;  
CrysAlisPro 1.171.42.49 (Rigaku Oxford Diffraction, 2022)
Empirical absorption correction using spherical harmonics,
implemented in SCALE3 ABSPACK scaling algorithm.
;
_exptl_crystal_colour            colourless
_exptl_crystal_density_diffrn    1.159
_exptl_crystal_description       disc
_exptl_crystal_F_000             232
_exptl_crystal_size_max          0.39
_exptl_crystal_size_mid          0.38
_exptl_crystal_size_min          0.24
_refine_diff_density_max         0.101
_refine_diff_density_min         -0.096
_refine_diff_density_rms         0.023
_refine_ls_extinction_method     none
_refine_ls_goodness_of_fit_ref   1.053
_refine_ls_hydrogen_treatment    constr
_refine_ls_matrix_type           full
_refine_ls_number_parameters     66
_refine_ls_number_reflns         383
_refine_ls_number_restraints     0
_refine_ls_restrained_S_all      1.053
_refine_ls_R_factor_all          0.0723
_refine_ls_R_factor_gt           0.0524
_refine_ls_shift/su_max          0.000
_refine_ls_shift/su_mean         0.000
_refine_ls_structure_factor_coef Fsqd
_refine_ls_weighting_details
'w=1/[\s^2^(Fo^2^)+(0.0676P)^2^+0.3061P] where P=(Fo^2^+2Fc^2^)/3'
_refine_ls_weighting_scheme      calc
_refine_ls_wR_factor_gt          0.1255
_refine_ls_wR_factor_ref         0.1416
_reflns_Friedel_coverage         0.000
_reflns_number_gt                287
_reflns_number_total             383
_reflns_threshold_expression     'I > 2\s(I)'
_cod_data_source_file            lq5055.cif
_cod_data_source_block           dipropyl_ether_phase_alpha_2_10GPa
_cod_depositor_comments
'Adding full bibliography for 1570433--1570452.cif.'
_cod_original_cell_volume        585.5(6)
_cod_database_code               1570449
_shelx_shelxl_version_number     2018/3
_shelx_space_group_comment
;
The symmetry employed for this shelxl refinement is uniquely defined
by the following loop, which should always be used as a source of
symmetry information in preference to the above space-group names.
They are only intended as comments.
;
_exptl_absorpt_special_details
; 
Data were collected at room temperature (295(2) K) and pressure of 2.10(2) GPa
(2100000 kPa).
;
_olex2_refinement_description
;
1. Fixed Uiso
 At 1.2 times of:
  All C(H,H) groups
 At 1.5 times of:
  All C(H,H,H) groups
2.a Secondary CH2 refined with riding coordinates:
 C1(H11,H12), C2(H22,H21), C4(H41,H42), C5(H52,H51)
2.b Idealised Me refined as rotating group:
 C3(H33,H31,H32), C6(H63,H61,H62)
;
_shelx_res_file
;
TITL 2edp_a.res in P2(1)/c
    2edp.res
    created by SHELXL-2018/3 at 13:59:31 on 21-Dec-2022
REM Old TITL 2edp in P2(1)/c
REM SHELXT solution in P2(1)/c: R1 0.204, Rweak 0.474, Alpha 0.100
REM <I/s> 0.784 for 33 systematic absences, Orientation as input
REM Formula found by SHELXT: C6 O
CELL 0.71073 9.3679 4.1229 15.4343 90 100.836 90
ZERR 4 0.0082 0.0004 0.0043 0 0.055 0
LATT 1
SYMM -X,0.5+Y,0.5-Z
SFAC C H O
UNIT 24 56 4

L.S. 50
PLAN  10
CONF
BOND
list 4
MORE -1
BOND $H
fmap 2 53
acta
REM <olex2.extras>
REM <HklSrc "%.\\2edp.hkl">
REM </olex2.extras>

WGHT    0.067600    0.306100
FVAR       1.79120
O1    3    0.458397    0.847913    0.131832    11.00000    0.07148    0.04345 =
         0.05198   -0.00832   -0.01879    0.00614
C1    1    0.374458    0.712690    0.054348    11.00000    0.06263    0.03850 =
         0.04060    0.00004   -0.01130    0.00246
AFIX  23
H11   2    0.379792    0.477886    0.057313    11.00000   -1.20000
H12   2    0.412771    0.782871    0.003253    11.00000   -1.20000
AFIX   0
C2    1    0.219970    0.818939    0.045396    11.00000    0.06255    0.04226 =
         0.04346   -0.00008   -0.00316   -0.00050
AFIX  23
H22   2    0.216710    1.052744    0.051755    11.00000   -1.20000
H21   2    0.178157    0.722236    0.092211    11.00000   -1.20000
AFIX   0
C3    1    0.129300    0.720746   -0.044271    11.00000    0.09133    0.04980 =
         0.04746   -0.00134   -0.01620    0.00207
AFIX 137
H33   2    0.030640    0.790486   -0.047620    11.00000   -1.50000
H31   2    0.131747    0.489262   -0.050547    11.00000   -1.50000
H32   2    0.168837    0.821113   -0.090695    11.00000   -1.50000
AFIX   0
C4    1    0.601870    0.721777    0.148860    11.00000    0.05943    0.03932 =
         0.04750    0.00456   -0.01246   -0.00051
AFIX  23
H41   2    0.652655    0.790134    0.102695    11.00000   -1.20000
H42   2    0.598404    0.486637    0.148855    11.00000   -1.20000
AFIX   0
C5    1    0.682388    0.840223    0.236699    11.00000    0.06880    0.04186 =
         0.05064    0.00028   -0.01551   -0.00088
AFIX  23
H52   2    0.636847    0.753664    0.283253    11.00000   -1.20000
H51   2    0.676855    1.074957    0.238738    11.00000   -1.20000
AFIX   0
C6    1    0.841141    0.736190    0.252206    11.00000    0.08257    0.05103 =
         0.05521    0.00277   -0.02332   -0.00252
AFIX 137
H63   2    0.891490    0.826082    0.306852    11.00000   -1.50000
H61   2    0.885090    0.813085    0.204682    11.00000   -1.50000
H62   2    0.846918    0.503821    0.254860    11.00000   -1.50000
AFIX   0
HKLF 4




REM  2edp_a.res in P2(1)/c
REM wR2 = 0.1416, GooF = S = 1.053, Restrained GooF = 1.053 for all data
REM R1 = 0.0524 for 287 Fo > 4sig(Fo) and 0.0723 for all 383 data
REM 66 parameters refined using 0 restraints

END

WGHT      0.0676      0.3060

REM Highest difference peak  0.101,  deepest hole -0.096,  1-sigma level  0.023
Q1    1   0.6860  0.7807  0.1808  11.00000  0.05    0.10
Q2    1   0.9222  0.8395  0.3217  11.00000  0.05    0.09
Q3    1   0.8889  0.8405  0.3379  11.00000  0.05    0.09
Q4    1   0.9501  0.8297  0.2992  11.00000  0.05    0.09
Q5    1   0.1751  0.7760  0.0003  11.00000  0.05    0.07
Q6    1   0.0754  0.8813 -0.0817  11.00000  0.05    0.07
Q7    1   0.8989  0.5662  0.3174  11.00000  0.05    0.07
Q8    1  -0.0017  0.8288 -0.0581  11.00000  0.05    0.07
Q9    1   0.4926  0.7921  0.0823  11.00000  0.05    0.07
Q10   1  -0.0488  0.8038 -0.0458  11.00000  0.05    0.07
;
_shelx_res_checksum              14387
_shelx_hkl_file
;
   0   0  -4 1039.60   17.93
   0   0   4 1041.97   18.24
   0   0   4 1092.95   18.53
   0   0  -4 1082.78   18.21
   0   0   5    1.20    1.49
   0   0   5    2.20    1.56
   0   0  -5    4.44    1.91
   0   0   5    3.84    1.97
   0   0  -5    3.35    1.57
   0   0  -6 1755.11   29.68
   0   0  -6 1800.83   29.71
   0   0  -6 1813.14   29.54
   0   0   6 1829.00   29.04
   0   0  -7   -1.02    2.02
   0   0   7   -1.90    2.62
   0   0  -7   -0.60    2.33
   0   0  -7   -4.00    3.61
   0   0   7    0.56    2.19
   0   0  -8  268.40   14.08
   0   0   8  269.14   13.76
   0   0   8  250.08   13.46
   0  -1   0    5.60    1.48
   0  -1   0    5.58    1.44
   0  -1  -1  178.80    6.48
   0  -1   1  179.85    6.14
   0   1   1  183.52    6.58
   0  -1   1  187.42    6.52
   0  -1  -1  183.17    6.57
   0   1   1  181.08    6.65
   0  -1   1  183.65    6.41
   0  -1  -1  179.08    6.47
   0  -1   2 7141.74   40.01
   0  -1   2 7131.51   40.92
   0  -1  -2 7034.60   43.22
   0  -1  -2 7072.86   43.55
   0  -1  -2 7077.95   44.74
   0   1   2 7064.58   43.63
   0  -1  -2 7057.07   42.51
   0   1   2 7034.00   41.97
   0   1   2 7125.03   44.95
   0   1  -2 7085.61   41.82
   0   1   3  210.22    8.47
   0  -1  -3  204.73    8.51
   0   1  -3  220.51    7.26
   0  -1  -3  215.86    9.11
   0   1  -3  215.38    8.22
   0  -1   3  212.92    7.53
   0  -1   3  216.52    8.33
   0   1   3  202.35    8.40
   0   1  -3  222.44    7.72
   0  -1   3  226.55    7.76
   0  -1   3  214.09    7.44
   0  -1   4   -0.22    1.44
   0  -1  -4    0.30    1.41
   0   1  -4   -1.70    1.65
   0   1   4   -0.50    1.37
   0   1  -4    0.53    0.98
   0  -1   4   -0.25    0.93
   0   1  -4    0.09    1.18
   0  -1  -4    0.81    1.41
   0  -1   4    0.65    1.07
   0   1  -4    2.53    1.58
   0   1   4   -0.17    1.77
   0   1  -4    1.76    1.33
   0  -1   4    1.39    1.34
   0  -1   4   -0.77    1.50
   0   1  -5   12.86    2.89
   0  -1  -5   11.39    3.08
   0  -1  -5   16.13    3.21
   0  -1   5   14.22    2.91
   0  -1   5   15.97    2.52
   0   1   5   13.54    3.16
   0   1  -5   11.32    2.53
   0   1  -5   14.28    2.41
   0  -1   5   12.50    2.30
   0   1  -5    9.65    2.27
   0  -1   5   12.11    2.14
   0  -1   5   14.32    2.81
   0  -1   5   14.36    2.69
   0   1  -6  466.22   13.87
   0  -1  -6  506.65   19.68
   0  -1   6  474.93   15.35
   0   1  -6  447.27   14.50
   0  -1   6  446.83   12.21
   0  -1  -6  440.51   16.76
   0  -1   6  479.38   15.34
   0  -1  -6  400.18   16.59
   0  -1   6  465.63   13.23
   0   1  -6  453.61   15.25
   0   1  -6  467.20   15.37
   0   1  -7   20.31    3.56
   0  -1   7   16.80    3.64
   0  -1   7   21.03    3.38
   0  -1   7   27.73    4.57
   0  -1  -7   14.27    4.31
   0   1  -7   18.87    2.74
   0   1  -7   18.29    3.91
   0   1   7   13.82    3.75
   0  -1   7   19.31    3.04
   0  -1  -7    8.47    3.48
   0   1  -7   22.72    4.22
   0   1  -8  249.96   13.05
   0  -1   8  285.57   12.67
   0  -1   8  295.49   13.77
   0  -1   8  265.45   10.37
   0   1  -8  282.58   13.03
   0   1  -8  270.22   13.74
   0  -1   8  277.57   13.93
   0   1  -9  221.99   14.70
   0  -1   9  210.66   12.60
   0  -1   9  208.30   12.01
   0   1  -9  188.73   11.66
   0  -1   9  210.36   13.38
   0  -1  10  131.83   10.83
   0   1 -10  134.42   10.73
   0  -1  10  137.08   11.87
   0  -1  10  132.99   10.57
   0  -1  11   45.38    7.52
   0  -1  11   49.24    8.63
   0  -2   0 9832.99   67.14
   0   2   0 9999.00   71.03
   0  -2   0 9653.52   66.88
   0  -2   0 9819.60   47.79
   0  -2   0 9814.19   58.95
   0   2   0 9751.81   66.09
   0  -2   0 9860.70   62.87
   0   2   0 9804.74   57.04
   0  -2  -1  967.43   21.81
   0   2   1 1035.71   23.19
   0  -2   1  983.35   15.34
   0   2   1 1018.04   22.36
   0  -2   1 1003.71   19.19
   0   2   1  974.71   20.49
   0   2  -1 1003.00   20.38
   0  -2   1  975.84   21.60
   0  -2  -1  958.34   17.64
   0  -2   1 1014.71   22.10
   0   2  -1  918.09   15.63
   0  -2  -1  935.90   21.23
   0  -2  -1  974.50   18.48
   0  -2   1  982.59   19.84
   0   2  -1  985.48   22.00
   0  -2  -1  992.64   21.38
   0   2  -2   36.28    4.40
   0  -2   2   39.47    4.44
   0  -2  -2   36.15    4.44
   0   2  -2   35.03    3.84
   0   2   2   37.51    4.83
   0  -2  -2   33.14    4.50
   0  -2   2   37.14    3.69
   0  -2   2   40.34    3.53
   0  -2  -2   38.69    4.94
   0   2   2   27.95    3.90
   0   2   2   37.43    4.98
   0  -2   2   37.61    4.52
   0  -2  -2   32.08    4.10
   0  -2   2   35.90    4.36
   0   2  -2   37.27    3.48
   0  -2   3   44.61    4.18
   0  -2  -3   40.04    5.03
   0  -2   3   38.41    4.70
   0  -2  -3   37.06    4.65
   0  -2   3   40.59    4.61
   0  -2   3   42.42    4.01
   0   2  -3   38.75    4.54
   0  -2  -3   38.50    4.61
   0   2   3   40.78    5.13
   0   2   3   37.77    3.31
   0  -2  -3   40.17    4.92
   0   2   3   35.69    4.77
   0   2   3   38.19    5.35
   0   2  -3   42.60    4.38
   0   2  -3   40.21    5.02
   0  -2   3   40.99    4.74
   0   2  -3   45.96    4.49
   0  -2   4  151.71    9.02
   0  -2  -4  148.06    9.89
   0   2   4  158.84   10.15
   0  -2   4  154.53    8.13
   0  -2   4  146.81    7.21
   0  -2   4  149.89    9.21
   0  -2  -4  146.35    8.86
   0   2  -4  155.31    7.52
   0   2   4  156.02    9.87
   0   2  -4  146.52    8.40
   0   2  -4  150.52    8.64
   0   2   4  138.01    6.87
   0  -2   4  154.11    8.81
   0  -2  -4  155.36    9.66
   0  -2  -4  169.12    8.66
   0  -2  -4  135.54    8.90
   0   2  -4  152.43    9.36
   0  -2   5    2.66    2.57
   0  -2   5    3.78    2.30
   0  -2  -5    0.79    2.53
   0   2   5    1.11    2.29
   0   2  -5    0.62    2.36
   0   2  -5    2.26    2.63
   0   2   5   -0.27    2.82
   0  -2  -5    3.24    3.06
   0  -2   5    3.66    2.64
   0   2  -5    4.23    2.96
   0  -2   5    3.23    2.28
   0  -2  -5    2.44    2.76
   0  -2  -5    7.77    3.02
   0   2   6   88.15    6.79
   0  -2  -6   97.45    9.17
   0  -2  -6  104.33    9.72
   0  -2  -6  107.57    9.17
   0  -2   6  101.34    7.66
   0  -2   6  101.80    8.45
   0   2  -6  106.67    7.88
   0  -2  -6   87.11    7.59
   0  -2   6  100.61    7.72
   0   2  -6   94.15    8.11
   0  -2   6  107.82    7.93
   0   2  -6  109.25    8.47
   0   2  -7   44.05    5.53
   0  -2   7   49.10    6.32
   0  -2   7   44.86    5.63
   0   2  -7   42.39    6.25
   0  -2  -7   42.87    7.48
   0  -2   7   47.52    6.14
   0   2  -7   48.40    6.49
   0  -2   7   48.58    5.56
   0  -2   8   14.66    3.88
   0   2  -8   17.20    4.73
   0   2  -8    8.23    4.19
   0  -2   8    9.46    3.69
   0  -2   8    8.61    3.68
   0  -2   9  348.42   17.20
   0   2  -9  340.80   17.50
   0  -2   9  333.00   17.33
   0   2  -9  324.09   17.56
   0  -2  10 1092.03   32.48
   0   2 -10 1094.62   33.59
   0   2 -10 1063.18   32.32
   0  -2  10 1100.60   32.85
   0  -2  11   25.25    6.96
   0  -2  11   35.75    7.58
   0  -2  12   20.03    7.10
   0  -2  12   27.46    7.31
   0  -3   0    1.79    3.26
   0   3   0   -4.23    4.44
   0  -3   0    1.71    3.27
   0   3   0    0.92    3.68
   0  -3   0   -0.42    2.57
   0  -3   0   -3.67    3.39
   0  -3   1   89.72    7.78
   0   3  -1   94.86   10.00
   0  -3   1   85.25    8.68
   0   3  -1   88.07    8.19
   0   3   1   89.80    9.50
   0  -3   1   89.47    8.72
   0  -3   1   92.82    8.05
   0  -3  -1   73.96    7.11
   0   3  -1  104.30    9.63
   0  -3  -1   96.41    9.05
   0  -3  -1   76.48    8.25
   0   3   1   92.08    9.16
   0  -3  -1   78.45    8.18
   0   3  -2   67.95    8.18
   0  -3   2   60.88    8.26
   0  -3  -2   69.33    7.67
   0  -3   2   55.91    5.52
   0  -3   2   61.53    6.86
   0   3   2   62.40    8.23
   0  -3  -2   64.73    8.10
   0  -3  -2   66.63    7.50
   0   3  -2   69.31    7.61
   0   3  -2   60.58    8.54
   0   3   2   64.15    8.07
   0  -3   2   66.80    7.76
   0  -3  -3   60.24    7.24
   0   3  -3   62.75    8.20
   0  -3  -3   60.40    7.55
   0  -3   3   65.47    7.29
   0   3  -3   67.52    7.85
   0   3   3   66.57    8.22
   0  -3   3   73.32    8.14
   0   3  -3   71.73    7.88
   0  -3   3   65.97    7.58
   0   3   3   83.18    9.30
   0  -3  -3   64.87    7.86
   0  -3  -4    0.13    3.91
   0  -3   4   -2.28    3.14
   0   3  -4   -1.09    4.51
   0  -3  -4   -0.02    3.57
   0  -3  -4    5.91    3.72
   0  -3   4   -4.98    3.93
   0  -3  -4    5.61    4.04
   0   3   4   -8.60    4.52
   0  -3   4   -0.13    3.64
   0   3  -4    0.99    3.82
   0   3  -4   -0.25    3.83
   0  -3  -5    7.04    4.04
   0  -3  -5    7.96    4.82
   0  -3   5    4.18    4.68
   0   3  -5    2.28    4.41
   0  -3   5    4.13    3.71
   0  -3   5    1.05    3.47
   0   3   5   -3.10    4.33
   0  -3  -5   -2.02    4.49
   0   3  -5   -5.11    4.85
   0   3  -5    6.47    4.46
   0  -3  -6    3.89    4.32
   0  -3   6  -10.65    4.23
   0  -3  -6    2.11    3.93
   0   3  -6   -3.13    4.55
   0  -3  -6    1.96    4.28
   0   3  -6   -3.39    4.84
   0   3  -6    4.70    4.77
   0  -3   6   -0.50    3.52
   0  -3   6    1.46    3.86
   0  -3   7    4.70    4.82
   0  -3   7   13.41    4.52
   0  -3   7    4.12    4.92
   0   3  -7   17.32    5.91
   0   3  -7   12.97    5.74
   0   3  -7   17.87    5.86
   0  -3  10   38.85    7.88
   0   3 -10   47.06    8.74
   0  -3  11   31.48   10.53
   0  -3  11   65.85    9.98
   0   3 -11   49.06    9.01
   0  -3  12   20.08    7.38
   0  -3  12    5.05    7.24
   0   4   0   61.86    9.39
   0  -4   0   59.61    8.70
   0   4   0   58.77    9.64
   0  -4   0   60.21    9.57
   0  -4   0   63.94    9.48
   0   4  -1   20.29    6.81
   0  -4   1   19.10    5.90
   0  -4  -1   21.90    6.46
   0  -4  -1   18.37    5.94
   0  -4  -1   13.34    5.82
   0   4  -1   14.62    6.92
   0  -4   1   22.58    7.42
   0   4   1   29.73    7.42
   0   4   1   24.51    6.97
   0  -4  -2   13.44    5.57
   0   4  -2    3.83    5.04
   0  -4  -2   19.20    6.65
   0   4   2   17.66    6.96
   0  -4   2   17.31    6.24
   0  -4   2    3.38    4.65
   0   4  -2   18.49    6.83
   0  -4  -2   10.04    5.20
   0  -4   2    4.87    4.27
   0   4   2   12.86    5.67
   0   4  -2    1.03    7.24
   0  -4   3   -2.70    5.04
   0   4  -3    1.26    5.53
   0  -4   3   -1.40    5.25
   0  -4  -3   -9.07    5.96
   0  -4  -3    1.93    5.30
   0   4  -3   -1.33    5.49
   0   4  -3    4.35    5.25
   0  -4   3    0.19    3.96
   0  -4  -3   -0.49    4.05
   0  -4   4   30.82    7.56
   0   4  -4   11.63    5.25
   0   4  -4   32.13    8.69
   0  -4  -4   20.43    6.79
   0  -4   4   20.93    6.70
   0   4  -4   28.12    7.28
   0  -4   4   28.30    6.66
   0  -4  -4   35.40    8.39
   0   4  -5   38.28    8.66
   0  -4   5   35.85    8.05
   0   4  -5   32.03    8.71
   0  -4   5    3.54    8.43
   0  -4   5   22.52    6.50
   0   4  -5   30.26    7.61
   0  -4   6    5.69    5.09
   0  -4   6    7.32    4.94
   0   4  -6   -5.48    6.61
   0  -4   6   -0.41    5.62
   0   4  -6   -3.95    6.05
   0   4  -6   -1.74    6.79
   0  -4   7   -2.94    4.82
   0   4  -7    9.29    7.94
   0   4  -7   -5.69    6.31
   0  -4   7   -2.76    6.44
   0  -4   7    1.34    4.99
   0   4  -7    7.34    6.89
   0   4  -8   51.41   11.27
   0   4  -8   41.54    9.79
   0   4  -8   36.81    9.45
   0  -4   8   36.00    7.45
   0  -4   8   14.05    9.01
   0  -4   8   10.97    9.31
   0  -4   9    4.03    8.12
   0   4  -9   16.85    6.93
   0  -4   9    2.46    7.33
   0   4 -10   49.90   10.89
   0  -4  10    6.93    9.24
   0  -5   5   -4.36    6.58
   1   0   3    3.75    1.41
  -1   0  -3    5.17    1.48
   1   0   3    2.68    1.26
  -1   0  -3    4.02    1.36
   1   0   4  833.57   15.33
   1   0   4  805.16   14.79
  -1   0  -4  832.92   14.09
  -1   0  -4  847.02   15.30
   1   0   4  840.70   13.85
  -1   0  -4  837.71   14.46
  -1   0  -4  817.63   14.74
   1   0   4  822.11   14.27
  -1   0  -5    0.61    1.32
   1   0   5    0.73    1.29
  -1   0  -5    0.59    1.09
   1   0   5   -1.17    1.46
  -1   0  -5   -2.06    1.69
   1   0   5    0.22    1.16
   1   0   5    1.07    1.39
  -1   0  -5   -0.22    1.23
   1   0   6 1609.67   23.90
   1   0   6 1650.73   25.50
   1   0   6 1637.73   26.04
  -1   0  -6 1627.30   25.47
  -1   0  -6 1593.23   24.02
  -1   0  -6 1601.18   26.00
  -1   0  -6 1558.98   26.10
  -1   0  -6 1622.71   22.77
   1   0   6 1586.63   20.26
   1   0   6 1629.91   25.97
  -1   0  -7   -0.36    2.14
   1   0   7   -1.13    1.58
   1   0   7   -1.39    2.48
  -1   0  -7   -0.85    1.40
   1   0   7   -1.34    2.12
  -1   0  -7    0.25    1.78
  -1   0  -7    0.88    2.29
   1   0   7   -0.72    2.46
  -1   0  -7   -0.32    2.32
   1   0   7    0.86    2.38
   1   0   8 1368.72   26.95
   1   0   8 1356.28   28.25
   1   0   8 1351.98   27.64
  -1   0  -8 1351.88   29.15
  -1   0  -8 1336.18   27.90
   1   0   8 1351.94   22.45
  -1   0  -8 1350.91   26.26
   1   0   8 1356.21   28.24
  -1   0  -8 1324.22   27.94
  -1   0  -9   -3.51    3.56
  -1   0  -9    3.14    3.25
   1   0   9    2.94    3.24
  -1   0  -9   -0.54    2.68
   1   0   9    3.06    3.15
  -1   0  -9   -1.43    2.91
   1   0   9   -0.61    3.22
   1   0   9    1.92    3.93
   1   0  10  264.31   14.32
   1   0  10  252.47   14.85
  -1   0 -10  276.72   15.34
  -1   0 -10  281.83   13.88
   1   0  10  286.83   15.27
  -1   0 -10  280.23   15.28
  -1   0 -10  273.90   15.01
  -1   0 -11    7.10    4.33
   1   0  11   -2.89    3.83
  -1   0 -11    0.31    3.27
   1   0  11   -4.93    5.30
  -1   0 -11   -5.28    4.36
   1   0  11    2.01    4.17
  -1   0 -12   29.96    7.28
   1   0  12   24.75    6.30
  -1   0 -12   23.94    6.40
   1   0  12   29.37    7.43
  -1   0 -12   16.25    4.97
  -1   0 -13   -1.81    3.81
  -1   0 -13   -7.28    5.49
   1   0  13   -0.58    6.41
   1   0  13   -3.34    5.63
   1   1  -3 1483.65   24.74
  -1  -1   1  129.69    6.07
  -1  -1   1  131.15    5.66
  -1  -1   1  132.81    6.15
   1   1  -1  141.32    6.12
   1  -1   0  137.58    6.52
   1   1   0  125.51    5.41
  -1  -1   0  122.21    5.66
  -1  -1   0  127.24    5.64
   1  -1   0  109.35    5.41
  -1  -1   0  125.26    5.39
   1   1   1   29.01    2.63
  -1  -1  -1   26.75    2.49
  -1  -1  -1   24.46    2.25
  -1  -1  -1   25.37    2.59
   1  -1   1   29.86    2.92
  -1   1  -1   32.52    3.04
   1   1   1   27.43    2.58
   1  -1   1   29.12    2.93
  -1  -1  -1   24.36    2.58
   1  -1   1   27.44    2.70
   1  -1   2  939.01   15.97
   1  -1   2  901.77   14.61
  -1   1  -2  900.76   14.11
   1  -1   2  896.76   15.68
  -1  -1  -2  871.60   14.91
  -1  -1  -2  883.50   15.63
  -1  -1  -2  861.86   14.05
   1  -1   2  936.37   14.59
   1   1   2  868.46   15.03
  -1   1  -2  973.65   16.14
   1   1   3   94.09    4.67
  -1  -1  -3   93.28    5.52
  -1  -1  -3   88.61    4.59
  -1  -1  -3   94.95    4.88
  -1   1  -3   97.49    5.19
   1   1   3   91.54    5.56
   1   1   3   90.39    5.38
   1  -1   3   97.48    4.80
   1  -1   3   99.10    4.49
  -1  -1  -3   88.60    5.39
   1   1   3   93.79    4.89
  -1  -1  -3   97.09    4.73
  -1   1  -3   97.94    5.14
   1  -1   3   93.01    5.11
   1  -1   3   99.78    5.38
   1   1   3   91.30    4.56
   1  -1   3   91.83    5.47
  -1   1  -3  101.25    4.48
   1  -1   4  700.33   13.52
  -1   1  -4  700.34   13.22
  -1  -1  -4  701.53   16.22
   1   1   4  661.43   14.06
  -1  -1  -4  685.81   14.33
  -1   1  -4  692.82   13.25
   1  -1   4  677.63   13.54
   1   1   4  648.95   14.83
   1  -1   4  691.13   15.40
   1   1   4  660.83   15.31
   1  -1   4  711.60   13.74
   1  -1   4  688.62   12.63
   1   1   4  670.65   12.62
  -1   1  -4  674.08   14.80
  -1   1  -4  712.93   13.46
  -1  -1  -4  653.24   14.56
   1  -1   4  692.60   15.48
   1   1   4  672.61   14.74
  -1  -1  -4  664.90   15.06
  -1  -1  -5  131.08    7.21
   1   1   5  131.59    7.17
   1   1   5  131.92    5.61
  -1   1  -5  117.64    7.20
  -1  -1  -5  126.27    7.22
   1   1   5  120.07    7.09
   1  -1   5  138.02    6.83
  -1   1  -5  137.13    6.85
  -1  -1  -5  130.43    7.77
   1   1   5  131.31    7.54
   1  -1   5  138.00    5.92
   1  -1   5  133.13    7.51
  -1   1  -5  126.49    5.76
  -1   1  -5  131.45    6.56
  -1  -1  -5  119.01    5.38
  -1  -1  -5  128.95    7.31
   1  -1   5  135.94    6.73
   1   1   5  128.90    7.39
   1  -1   5  123.18    6.01
  -1   1  -5  135.11    7.42
   1  -1   5  127.40    7.12
  -1  -1  -6  262.72    8.12
   1   1   6  284.60   12.04
  -1  -1  -6  293.72   11.31
  -1  -1  -6  277.63   11.73
   1   1   6  275.91   11.16
  -1   1  -6  297.50    8.15
   1  -1   6  304.40   12.17
   1  -1   6  306.51   11.14
   1   1   6  284.88   11.39
   1  -1   6  293.14   11.17
   1  -1   6  292.53    8.99
  -1   1  -6  294.69    9.47
   1   1   6  281.72   11.67
  -1  -1  -6  282.04   12.21
   1  -1   6  333.72   10.30
   1  -1   6  303.48   11.58
  -1   1  -6  289.64   10.83
  -1   1  -6  278.06   10.80
  -1  -1  -6  303.88   12.18
  -1   1  -6  307.26   12.04
   1  -1   6  293.68    9.26
  -1   1  -6  288.22   11.34
   1   1   6  292.56    9.58
   1   1   7  447.27   15.83
  -1  -1  -7  464.79   16.54
  -1   1  -7  482.22   15.27
  -1   1  -7  470.19   15.30
   1  -1   7  481.19   11.75
  -1   1  -7  481.23   16.22
   1  -1   7  472.20   15.06
   1  -1   7  461.05   16.01
   1   1   7  464.29   15.92
   1   1   7  455.37   15.16
  -1   1  -7  483.41   11.80
   1   1   7  473.99   16.93
  -1  -1  -7  476.18   17.27
  -1   1  -7  449.34   14.96
  -1  -1  -7  466.15   16.62
   1   1   7  472.59   13.61
   1  -1   7  483.48   15.51
   1  -1   7  462.84   15.34
  -1  -1  -7  466.17   15.22
   1  -1   8 3507.39   44.01
  -1  -1  -8 3499.98   44.07
   1  -1   8 3571.39   47.13
   1   1   8 3465.11   47.19
  -1  -1  -8 3494.97   49.12
  -1  -1  -8 3432.02   48.02
  -1   1  -8 3493.17   44.09
  -1   1  -8 3582.78   45.41
   1  -1   8 3562.20   45.42
  -1   1  -8 3528.96   44.52
  -1   1  -8 3498.45   46.52
   1  -1   8 3454.52   43.73
   1   1   8 3385.77   40.43
   1   1   8 3531.02   49.27
  -1  -1  -8 3554.46   50.62
   1   1   8 3562.48   47.72
  -1   1  -9  250.89   13.41
   1  -1   9  229.52   13.03
  -1  -1  -9  260.32   13.06
   1   1   9  247.14   13.93
   1  -1   9  250.85   13.16
   1  -1   9  259.30   13.75
   1  -1   9  239.96   12.40
  -1  -1  -9  253.52   14.85
   1   1   9  271.35   12.73
  -1   1  -9  251.65   13.10
  -1   1  -9  244.21   13.00
  -1   1  -9  253.45   13.75
  -1  -1  -9  255.39   14.72
   1   1   9  235.20   14.30
  -1  -1  -9  267.01   15.20
   1   1   9  241.42   13.58
   1  -1  10  310.71   16.46
  -1   1 -10  350.80   17.15
  -1   1 -10  330.79   16.39
  -1  -1 -10  370.33   19.10
   1  -1  10  332.70   16.23
  -1  -1 -10  356.22   18.56
  -1   1 -10  333.52   16.03
  -1   1 -10  345.61   16.81
   1  -1  10  345.61   17.53
   1   1  10  345.08   17.47
   1   1  10  348.13   15.61
   1   1  10  329.33   16.69
  -1  -1 -10  298.80   16.75
   1  -1  10  332.50   15.29
  -1  -1 -10  356.71   16.14
  -1   1 -11   11.24    4.68
   1  -1  11    8.70    4.40
   1   1  11   13.67    5.24
  -1  -1 -11   14.74    5.59
   1  -1  11    8.97    4.76
  -1  -1 -11   13.00    5.79
  -1   1 -11   13.23    5.81
   1  -1  11    6.64    4.97
   1  -1  11   10.55    4.17
  -1   1 -11   13.20    4.75
  -1  -1 -12   27.41    7.20
   1  -1  12   66.45    9.40
  -1  -1 -12   45.27    8.81
  -1   1 -12   59.83    8.49
   1   1  12   40.89    8.17
   1  -1  12   66.02    9.40
  -1   1 -12   52.80    8.36
  -1   1 -12   56.60    8.75
  -1   1 -13   10.74    5.21
  -1   1 -13   33.05    7.85
   1  -1  13   26.54    7.34
   1  -1  13   36.58    7.99
   1  -1  14   17.54    6.79
  -1   1 -14    2.60    4.83
   1  -1  14   14.99    7.25
  -1  -2   8   18.86    5.30
  -1  -2   8   18.39    5.54
  -1  -2   8   15.55    4.28
  -1  -2   7   68.11    7.87
  -1  -2   7   79.09    7.81
  -1  -2   7   72.90    7.51
   1   2  -7   58.04    7.66
  -1  -2   6    8.00    3.21
  -1  -2   6   13.44    3.95
   1   2  -6    5.43    3.68
  -1  -2   6   11.50    3.62
  -1  -2   5  433.18   17.06
  -1  -2   5  451.80   15.12
  -1  -2   5  441.68   16.27
  -1  -2   5  426.06   16.11
   1   2  -5  436.12   17.10
   1   2  -5  430.44   15.79
   1   2  -4 1145.45   24.60
  -1  -2   4 1196.49   22.39
  -1  -2   4 1152.90   25.54
  -1  -2   4 1101.73   24.84
   1   2  -4 1163.40   26.05
  -1  -2   4 1158.72   26.00
  -1  -2   3    0.44    1.97
  -1  -2   3    0.58    1.85
  -1  -2   3   -1.80    2.28
  -1  -2   3    0.35    2.32
   1   2  -3    1.60    2.38
  -1  -2   3   -1.06    2.19
   1   2  -3   -0.60    2.21
   1  -2  -2   -0.34    2.06
  -1  -2   2   -1.01    1.90
  -1  -2   2   -0.92    1.91
  -1  -2   2   -0.55    2.39
  -1  -2   2   -1.98    2.40
   1   2  -2   -0.65    2.48
   1   2  -2   -0.43    2.20
   1  -2  -2    0.83    2.05
  -1  -2   2    0.74    1.93
   1   2  -1  691.37   13.80
  -1  -2   1  694.46   18.57
   1   2  -1  734.58   17.87
  -1  -2   1  681.61   13.55
  -1  -2   1  709.69   17.13
  -1  -2   1  718.18   17.19
   1   2  -1  704.44   18.24
  -1   2   1  698.85   18.82
   1  -2  -1  720.95   20.01
   1  -2  -1  729.98   19.14
  -1  -2   1  690.43   18.68
   1  -2  -1  706.95   19.88
   1   2   0  153.96    7.34
   1  -2   0  154.09    9.14
  -1  -2   0  150.22    8.24
   1   2   0  158.97    8.10
   1  -2   0  163.76    9.33
   1  -2   0  171.09    7.24
  -1  -2   0  148.94    6.66
  -1  -2   0  140.01    8.36
   1   2   0  156.44    8.64
  -1   2   0  158.24    9.23
   1  -2   0  165.16    8.53
  -1  -2   0  151.88    8.78
  -1  -2   0  157.75    7.55
   1  -2   0  151.61    8.26
   1  -2   1   88.46    5.95
   1   2   1   77.42    6.54
  -1  -2  -1   79.46    6.53
  -1  -2  -1   84.11    5.27
  -1  -2  -1   80.15    5.48
  -1  -2  -1   86.01    6.57
   1  -2   1   87.23    6.89
  -1   2  -1   85.15    5.17
   1  -2   1   90.83    7.04
  -1   2  -1   90.11    7.19
  -1  -2  -1   87.77    6.69
  -1   2  -1   90.41    6.40
   1   2   1   78.60    5.80
   1   2   1   81.90    5.68
   1  -2   1   86.44    6.41
   1   2   2    2.52    2.50
   1  -2   2    1.85    2.08
   1  -2   2    1.60    1.51
  -1  -2  -2    4.64    2.42
   1   2   2    4.76    2.31
   1  -2   2    0.54    1.72
  -1   2  -2    6.82    2.49
   1   2   2    3.40    2.58
   1   2   2    3.19    1.79
  -1  -2  -2    1.57    1.95
  -1  -2  -2    1.81    1.37
  -1  -2  -2    1.29    1.86
   1  -2   2    0.98    1.86
  -1  -2  -2    3.56    2.11
  -1   2  -2    2.83    2.28
   1  -2   2    0.94    1.95
  -1   2  -2    4.10    1.99
   1  -2   3   14.38    3.34
  -1  -2  -3   13.27    2.19
   1  -2   3   14.44    2.79
  -1   2  -3   19.03    3.92
  -1  -2  -3   15.04    3.06
   1  -2   3   14.54    3.24
   1   2   3   16.91    3.94
  -1  -2  -3   16.77    3.22
   1  -2   3   17.25    3.40
   1  -2   3   16.27    2.65
   1   2   3   12.94    2.20
   1   2   3   10.93    3.29
  -1  -2  -3   17.17    3.80
  -1  -2  -3   14.64    3.50
   1   2   3   14.76    3.41
  -1   2  -3   13.69    3.04
  -1   2  -3   15.97    3.19
   1   2   3   11.23    2.24
   1  -2   4   94.83    6.96
  -1   2  -4  100.30    7.05
  -1  -2  -4   88.88    6.82
  -1  -2  -4   84.95    6.31
  -1  -2  -4   84.44    7.00
   1  -2   4   89.59    7.23
  -1  -2  -4   84.77    5.41
   1  -2   4   86.21    6.60
   1   2   4   69.86    6.75
   1   2   4   90.97    7.57
   1   2   4   90.76    5.57
   1  -2   4   93.00    7.45
  -1   2  -4   95.91    7.92
  -1  -2  -4   84.75    7.24
   1   2   4   83.58    7.07
   1  -2   5  118.96    7.97
  -1  -2  -5   99.67    8.41
  -1  -2  -5   94.18    7.34
   1  -2   5  109.29    7.87
   1  -2   5  112.56    7.53
   1   2   5  114.43    7.05
  -1  -2  -5  103.54    8.19
  -1   2  -5  104.15    8.41
  -1  -2  -5  110.69    6.85
  -1   2  -5  111.03    7.56
  -1   2  -5  109.08    7.95
  -1  -2  -5   95.32    7.15
   1   2   5  104.37    8.57
   1   2   5   80.57    7.18
  -1   2  -5  128.72    8.80
   1  -2   5  105.20    8.10
   1   2   5  108.61    8.76
  -1  -2  -6  327.46   15.47
  -1   2  -6  341.68   15.09
   1  -2   6  378.91   14.87
   1  -2   6  345.79   15.15
   1   2   6  326.48   12.64
  -1  -2  -6  339.70   15.59
  -1   2  -6  353.03   13.47
   1   2   6  341.14   15.47
   1   2   6  331.76   15.04
  -1  -2  -6  346.45   13.43
   1  -2   6  365.99   13.63
   1  -2   6  361.34   14.17
  -1  -2  -6  313.44   13.35
  -1   2  -6  375.97   14.46
  -1   2  -6  382.42   15.32
   1  -2   7  934.97   22.55
  -1  -2  -7  865.93   26.28
   1   2   7  903.10   26.25
   1   2   7  891.45   22.76
  -1  -2  -7  900.88   27.38
  -1  -2  -7  935.60   24.39
  -1   2  -7  964.78   25.63
  -1   2  -7  927.97   25.57
   1  -2   7  892.57   24.84
   1  -2   7  883.80   22.42
   1  -2   7  959.17   25.07
  -1   2  -7  963.06   23.44
   1   2   7  853.79   24.38
  -1   2  -7  890.97   21.85
   1  -2   8    8.82    3.81
   1   2   8    4.36    3.91
  -1  -2  -8    2.83    3.25
  -1   2  -8    7.12    4.65
  -1  -2  -8    6.86    4.61
   1  -2   8    2.29    3.27
  -1  -2  -8    7.91    4.56
   1   2   8   10.67    4.54
   1   2   8    8.30    4.26
  -1   2  -8    7.03    4.13
  -1  -2  -9  202.10   14.94
   1   2   9  220.87   13.70
  -1  -2  -9  222.01   16.67
  -1  -2  -9  230.05   15.08
  -1   2  -9  207.95   13.90
  -1   2  -9  203.53   13.51
   1  -2   9  207.67   13.52
   1   2   9  207.49   14.65
   1  -2   9  214.63   13.76
   1  -2  10   38.96    7.06
   1   2  10   28.63    6.84
   1  -2  10   34.10    6.90
  -1  -2 -10   38.29    7.80
  -1  -2 -10   27.86    7.03
  -1   2 -10   33.76    6.57
  -1  -2 -10   45.69    9.15
   1   2  10   29.24    6.51
  -1   2 -10   35.12    7.41
   1   2  11   10.83    5.69
   1  -2  11    9.31    4.64
   1  -2  11   12.50    5.48
  -1   2 -11  -11.42   10.15
  -1   2 -11   -9.91    7.64
   1  -2  12   -0.56    4.18
   1  -2  12    3.14    4.74
  -1   2 -12    1.66    5.02
  -1   2 -12    4.63    5.97
   1  -2  13   25.83    8.20
  -1   2 -13   14.90    6.92
   1  -2  13   10.15    5.56
   1  -2  14   17.52    7.14
   1  -2  14    5.67    6.10
  -1  -3   9    4.99    5.08
  -1  -3   9   -2.74    4.95
  -1  -3   8    6.29    5.75
   1   3  -8   16.80    5.95
  -1  -3   8    7.42    5.71
  -1  -3   7    9.36    4.09
   1   3  -7    8.75    5.43
  -1  -3   7   -3.25    4.51
  -1  -3   7    1.99    5.09
  -1  -3   6   48.90    7.49
  -1  -3   6   49.23    7.04
   1   3  -6   37.89    7.20
  -1  -3   6   23.48    7.05
   1   3  -6   47.77    7.35
  -1  -3   5   -4.37    3.77
  -1  -3   5   -3.30    3.67
   1   3  -5    3.76    4.58
  -1  -3   5    7.48    4.23
   1   3  -5    0.82    4.23
  -1  -3   4   66.48    7.52
   1   3  -4   79.18    8.79
  -1  -3   4   69.22    8.51
  -1  -3   4   64.00    7.67
   1   3  -4   75.80    8.52
  -1  -3   3  568.79   21.44
  -1  -3   3  553.18   18.76
  -1  -3   3  564.11   21.53
   1   3  -3  587.22   21.67
   1   3  -3  557.67   20.52
   1   3  -3  565.42   21.19
  -1  -3   3  566.28   20.29
   1  -3  -2  886.96   26.92
  -1  -3   2  974.10   27.82
   1   3  -2  975.58   27.74
  -1  -3   2  984.42   27.60
   1  -3  -2  910.47   28.35
  -1  -3   2  967.45   25.09
  -1  -3   2  937.63   24.34
   1  -3  -2  901.45   27.27
   1   3  -2  987.06   26.93
   1   3  -2  914.48   25.99
   1  -3  -1   48.29    6.82
  -1  -3   1   55.96    6.42
   1  -3  -1   65.35    8.05
   1  -3  -1   56.96    7.27
   1   3  -1   53.86    7.18
  -1  -3   1   57.51    7.20
   1   3  -1   63.38    7.77
  -1  -3   1   55.62    6.87
   1   3  -1   70.67    8.74
  -1   3   1   56.22    7.51
  -1  -3   1   60.85    6.48
   1   3  -1   61.87    6.87
  -1  -3   0    5.41    3.05
   1  -3   0    5.65    3.10
  -1  -3   0    1.97    2.93
   1  -3   0    4.84    3.92
   1   3   0   10.92    4.49
   1  -3   0    4.14    3.55
   1   3   0   10.74    5.00
   1   3   0    7.45    4.56
  -1  -3   0    1.54    3.09
  -1  -3   0    6.25    3.33
   1  -3   0    9.12    3.68
  -1   3   0    5.26    4.68
   1   3   0    2.49    3.37
   1  -3   1    5.85    2.96
  -1  -3  -1    7.15    3.91
   1  -3   1    9.32    3.42
   1  -3   1    6.61    3.61
  -1   3  -1   10.92    4.88
  -1  -3  -1   13.53    4.53
   1   3   1   13.56    4.57
   1   3   1    5.89    3.66
   1   3   1    6.91    3.99
  -1  -3  -1    8.51    4.02
   1  -3   1   10.90    4.53
  -1  -3  -2  152.67   11.10
  -1  -3  -2  154.00   10.98
   1  -3   2  148.70   11.48
  -1   3  -2  144.98   11.77
  -1  -3  -2  146.13   11.09
   1  -3   2  147.10   11.76
   1   3   2  143.73   12.06
   1   3   2  161.70   11.85
   1  -3   2  148.70   11.02
  -1  -3  -3    9.99    4.87
   1   3   3   11.38    4.54
  -1  -3  -3   12.90    4.64
   1   3   3    6.62    4.30
   1  -3   3    9.88    4.26
  -1  -3  -3   10.61    3.80
   1  -3   3   17.19    4.82
   1   3   3   17.32    5.67
  -1   3  -3   10.67    5.14
   1  -3   3   10.06    3.66
   1  -3   4    1.07    4.14
   1   3   4   15.55    5.44
  -1  -3  -4    7.44    4.24
  -1  -3  -4    6.10    4.39
   1  -3   4    2.80    4.19
   1   3   4   21.30    5.48
  -1  -3  -4   10.10    4.77
  -1  -3  -4    6.49    3.91
  -1   3  -4    0.66    4.47
  -1   3  -4    3.86    4.52
   1  -3   4    6.95    3.82
   1   3   4   13.71    5.52
   1   3   5   45.88    6.75
  -1  -3  -5   46.04    7.70
  -1  -3  -5   55.18    7.06
  -1   3  -5   56.80    7.81
  -1   3  -5   59.45    8.39
   1  -3   5   51.31    6.78
   1  -3   5   32.50    7.58
   1   3   5   49.66    6.86
   1   3   5   47.28   11.22
  -1   3  -5   55.32    7.78
  -1  -3  -5   49.78    7.64
   1  -3   5   25.11    7.59
  -1  -3  -5   42.09    6.24
   1   3   6   41.39    7.99
   1   3   6   54.06    8.89
  -1  -3  -6   60.65    8.72
  -1  -3  -6   55.49    7.70
   1  -3   6   64.29    7.83
   1  -3   6   75.51    8.01
   1  -3   6   51.74    8.91
   1  -3   6   73.48    8.67
  -1   3  -6   86.19   10.01
  -1   3  -6   69.53    8.48
  -1   3  -6   91.64    9.47
  -1   3  -6   66.06    9.11
  -1  -3  -6   60.87    8.47
   1  -3   7  248.04   16.28
  -1  -3  -7  240.17   17.32
  -1   3  -7  261.50   16.95
  -1   3  -7  281.24   16.21
  -1  -3  -7  251.36   16.41
   1  -3   7  286.50   15.55
  -1   3  -7  279.19   17.22
  -1   3  -7  271.53   15.38
   1  -3   7  284.23   15.26
   1   3   7  262.23   16.46
   1   3   7  253.25   17.36
  -1  -3  -8  419.90   23.52
   1  -3   8  516.68   21.37
  -1  -3  -8  482.41   24.32
  -1   3  -8  550.20   23.70
   1   3   8  418.44   20.86
  -1   3  -8  482.73   22.73
  -1  -3  -9  139.62   14.93
  -1  -3  -9  139.57   14.83
   1  -3   9  198.35   14.25
  -1   3  -9  183.40   14.92
  -1   3  -9  213.61   16.24
   1  -3  10    2.37    4.52
  -1   3 -10   -3.39    5.32
  -1   3 -10    0.58    5.55
   1  -3  10   -6.02    4.90
  -1   3 -11    1.56    5.27
   1  -3  11    3.29    5.12
   1  -3  11   -0.03    5.75
  -1   3 -11   -8.15    6.99
   1  -3  12   -1.05    6.51
  -1   3 -12    1.23    6.47
  -1   3 -12   10.75    6.18
   1  -3  12   -9.29    7.05
   1  -3  13    3.80    6.80
   1  -3  13   22.64    8.07
  -1   3 -13    8.21    6.97
  -1   3 -13   27.66    9.48
   1  -3  14  -12.35    7.71
   1  -3  14   -9.06    8.29
  -1  -4   9   -2.68    6.23
   1   4  -9    0.73    7.17
  -1  -4   9   -2.14    5.80
  -1  -4   8   -1.22    5.72
  -1  -4   8    0.85    7.03
   1   4  -8  -10.02    8.20
   1   4  -8  -17.35    8.19
  -1  -4   7    2.36    4.79
   1   4  -7    4.56    6.70
  -1  -4   7    1.03    4.60
  -1  -4   7    3.51    6.82
   1   4  -7   16.58    5.85
   1   4  -7   -4.26   10.15
  -1  -4   6    0.58    4.89
  -1  -4   6   -0.41    5.48
   1   4  -6   -1.53    6.39
   1   4  -6  -10.03    7.27
   1   4  -6    0.46    6.05
  -1  -4   6    0.82    4.72
  -1  -4   5   23.03    6.41
   1   4  -5   31.11    7.71
  -1  -4   5   36.33    8.15
   1   4  -5   35.34    8.32
   1   4  -5   38.09    9.05
  -1  -4   5   34.70    7.73
  -1  -4   4   -1.63    4.69
  -1  -4   4    6.91    5.03
   1   4  -4   -9.91    7.39
  -1  -4   4  -10.74    7.52
   1   4  -4  -14.25    7.61
   1   4  -4  -11.88    9.63
  -1  -4   3   54.28    8.36
  -1  -4   3   47.43    8.43
   1   4  -3   69.94   10.52
  -1  -4   3   57.24    9.20
   1   4  -3   52.90   10.47
   1   4  -3   62.36    9.68
   1   4  -2   46.87    9.08
  -1  -4   2   24.42    6.49
  -1  -4   2   37.74    7.93
   1   4  -2   50.33   10.10
  -1  -4   1   14.35    6.02
   1   4  -1   14.26    6.65
   1  -4  -1   16.78    4.98
   1   4  -1   12.45    7.09
  -1  -4   1   11.88    5.04
  -1  -4   1   11.44    5.66
   1  -4  -1    6.61    4.82
   1   4  -1   15.85    6.20
  -1  -4   0   25.66    6.35
   1   4   0   36.16    8.26
  -1  -4   0   23.94    6.94
   1  -4   0   18.79    6.11
  -1  -4   0   27.41    6.92
   1   4   0   33.96    7.66
   1   4   0   34.04    8.16
   1  -4   0   21.92    6.42
  -1  -4  -1   12.19    5.11
   1  -4   1    3.92    5.33
  -1  -4  -1    2.88    5.36
  -1  -4  -1   -4.72    5.81
   1  -4   1    8.20    5.75
   1   4   1   -3.40    5.81
   1   4   1    0.49    5.82
  -1   4  -1    0.95    4.91
   1   4   1   -0.24    5.32
  -1   4  -1   -1.86    5.33
  -1   4  -2    9.53    5.95
   1  -4   2   -8.99    4.98
  -1  -4  -2    0.51    4.75
  -1  -4  -2    2.58    4.74
   1   4   2   10.32    6.29
   1  -4   2    2.58    5.14
   1   4   2    7.86    6.41
   1  -4   2   -5.01    5.02
   1   4   2    2.50    5.88
  -1   4  -2    6.72    6.00
  -1  -4  -2    3.81    4.93
   1  -4   3   15.40    6.25
   1  -4   3   20.46    6.82
  -1  -4  -3   24.50    7.03
   1   4   3   12.43    6.76
   1   4   3   14.58    6.50
  -1   4  -3   12.36    5.51
  -1  -4  -3   20.06    6.99
   1   4   3   19.69    6.82
  -1   4  -3   20.85    7.65
   1  -4   3   21.61    6.98
  -1   4  -3   13.75    6.29
  -1  -4  -3   16.90    5.84
  -1  -4  -4    4.57    5.57
   1  -4   4    3.21    4.27
   1   4   4    5.24    5.43
  -1  -4  -4   -1.85    5.98
   1  -4   4    1.80    4.66
  -1  -4  -4    5.77    5.28
   1   4   4   -1.88    5.59
  -1   4  -4    0.02    5.61
  -1   4  -4   13.51    6.70
   1   4   4    6.03    6.54
   1  -4   4   -0.01    5.04
  -1   4  -4   -2.10    5.42
   1  -4   5    5.02    5.57
  -1  -4  -5    7.19    6.16
  -1   4  -5    3.03    5.58
  -1  -4  -5   19.79    7.82
   1  -4   5   -3.00    5.17
   1  -4   5    1.48    5.92
   1   4   5    9.70    6.27
  -1   4  -5    7.41    6.09
   1   4   5    9.29    6.58
  -1   4  -5   11.74    6.69
   1  -4   6    9.06    6.91
  -1  -4  -6   51.99    9.85
  -1   4  -6   56.10    9.78
   1  -4   6   23.45    9.45
  -1  -4  -6   46.20    9.70
   1   4   6   70.36   11.00
  -1   4  -6   53.57    9.69
  -1   4  -6   66.72   10.87
   1  -4   6   53.98    9.12
  -1  -4  -7  169.00   16.86
  -1   4  -7  208.32   16.99
   1  -4   7  185.44   15.59
  -1   4  -7  187.78   17.58
  -1   4  -7  176.43   16.71
  -1   4  -8  155.28   14.76
  -1   4  -8  140.13   15.75
   1  -4   9    0.99    5.57
  -1   4  -9    9.81    7.75
   1  -4  10   -0.10    5.88
  -1   4 -10   -7.55    7.09
   1   5   1   14.14    8.87
  -1  -5  -2   -6.80    7.21
   1   5   2   -2.11    8.07
  -1  -5  -3   17.62    8.80
   2   0   2  359.48    9.28
  -2   0  -2  366.10    9.59
  -2   0  -3   -0.86    1.16
  -2   0  -3   -0.05    0.89
  -2   0  -3   -0.31    1.02
   2   0   3    0.67    0.81
   2   0   3   -0.48    1.01
   2   0   3    0.05    1.21
   2   0   4  120.96    5.91
  -2   0  -4  115.63    5.91
   2   0   4  123.09    6.35
  -2   0  -4  116.23    5.68
   2   0   4  115.89    6.35
  -2   0  -4  117.73    6.24
   2   0   4  116.73    5.89
  -2   0  -4  114.23    6.00
   2   0   5   -0.05    1.17
  -2   0  -5    0.75    1.52
   2   0   5   -0.15    1.89
  -2   0  -5   -0.06    1.24
   2   0   5   -0.13    1.38
  -2   0  -5    0.61    1.41
   2   0   5   -0.48    1.62
   2   0   5    0.40    1.83
  -2   0  -5    2.09    1.66
   2   0   6 3984.31   38.67
  -2   0  -6 4049.13   40.42
   2   0   6 4072.81   43.44
   2   0   6 4034.39   42.50
  -2   0  -6 4001.48   42.57
  -2   0  -6 4016.17   41.86
   2   0   6 4050.70   29.28
  -2   0  -6 4053.71   40.54
  -2   0  -6 3989.17   33.01
   2   0   6 3945.30   40.48
   2   0   6 4046.08   32.44
   2   0   7   -0.22    1.54
  -2   0  -7   -0.10    2.48
   2   0   7    2.32    2.22
  -2   0  -7    1.94    2.22
  -2   0  -7   -0.58    2.05
   2   0   7    0.63    2.58
   2   0   7   -0.76    2.15
   2   0   7    2.94    2.68
  -2   0  -7    3.21    2.19
  -2   0  -7    3.27    2.77
  -2   0  -8  701.42   19.69
   2   0   8  727.35   21.16
   2   0   8  695.94   20.71
  -2   0  -8  679.65   20.65
   2   0   8  653.05   19.17
  -2   0  -8  691.90   20.74
  -2   0  -8  716.25   20.27
   2   0   8  700.35   19.04
  -2   0  -9    0.15    3.20
   2   0   9   -0.19    3.01
  -2   0  -9   -2.59    2.68
  -2   0  -9    1.18    2.92
   2   0   9    5.32    3.97
   2   0   9   -0.78    2.82
   2   0   9    3.81    3.14
  -2   0  -9   -3.21    3.74
  -2   0 -10   72.29    7.44
   2   0  10   73.27    8.30
   2   0  10   76.22    8.58
  -2   0 -10   71.40    7.92
   2   0  10   82.21    8.08
  -2   0 -10   67.02    7.78
  -2   0 -10   79.19    8.39
   2   0  10   72.25    7.68
  -2   0 -11    0.61    3.68
   2   0  11   -5.51    4.03
   2   0  11    1.63    4.43
  -2   0 -11    0.51    3.32
   2   0  11    7.51    5.12
   2   0  11    0.55    3.81
  -2   0 -11   -1.29    4.19
  -2   0 -11   -5.79    4.60
   2   0  12   32.68    7.01
  -2   0 -12   35.86    7.49
   2   0  12   36.03    7.68
  -2   0 -12   21.93    6.10
  -2   0 -12   23.87    5.47
   2   0  12   29.01    6.10
   2   0  12   28.15    6.80
  -2   0 -12   20.25    6.25
   2   0  13    9.51    6.45
  -2   0 -13   11.41    4.89
  -2   0 -13   -0.08    5.20
   2   0  13    0.04    5.53
  -2   0 -13    0.74    4.49
   2   0  13    5.59    5.30
  -2   0 -13    5.49    5.64
  -2   0 -14   56.98    9.57
   2   0  14   33.65    7.61
   2   0  14   59.79   10.09
  -2   0 -14   57.61    9.92
  -2   0 -15   -6.61    6.01
   2   0  15   -0.04    5.63
   2   0  15    5.20    6.70
  -2  -1   0  154.49    7.46
  -2  -1  -1   89.90    5.79
  -2  -1  -1   91.41    5.49
  -2  -1  -1   79.66    5.27
  -2  -1  -1   85.76    5.74
  -2  -1  -2  961.25   18.35
  -2  -1  -2  923.45   17.42
   2   1   2  926.35   14.83
   2   1   2  927.19   14.76
  -2  -1  -2  950.37   15.81
  -2  -1  -2  918.67   17.58
   2   1   2  898.77   17.49
   2  -1   2  966.01   17.20
  -2  -1  -2  924.27   14.81
  -2  -1  -2  936.37   15.16
   2  -1   2  939.54   19.58
   2   1   3   62.59    4.88
  -2  -1  -3   67.25    5.05
  -2  -1  -3   56.87    3.82
  -2   1  -3   66.26    4.60
  -2  -1  -3   65.96    5.05
   2   1   3   64.27    4.25
   2   1   3   65.36    4.48
   2   1   3   58.18    4.12
   2  -1   3   62.90    4.28
   2  -1   3   67.14    4.63
   2  -1   3   66.66    4.91
  -2  -1  -3   63.33    4.29
   2  -1   3   60.31    4.41
  -2  -1  -3   64.00    4.40
  -2   1  -3   60.49    4.81
  -2   1  -3   65.36    4.41
  -2  -1  -3   57.99    4.51
   2  -1   3   59.69    5.00
   2   1   4  878.11   18.79
  -2  -1  -4  890.90   18.51
  -2  -1  -4  844.41   15.58
  -2  -1  -4  889.13   18.99
   2   1   4  849.49   16.96
   2   1   4  826.86   16.86
   2  -1   4  848.62   16.50
   2  -1   4  905.52   14.49
   2  -1   4  921.42   18.78
  -2  -1  -4  880.06   17.06
  -2  -1  -4  845.53   13.28
  -2   1  -4  863.87   16.98
  -2   1  -4  865.99   17.99
  -2   1  -4  861.21   16.40
  -2  -1  -4  845.85   17.10
   2  -1   4  918.45   17.52
   2  -1   4  874.27   18.22
   2   1   5 2614.70   34.23
   2  -1   5 2598.06   23.86
  -2  -1  -5 2584.02   32.61
   2  -1   5 2707.79   24.59
  -2  -1  -5 2581.12   34.66
   2   1   5 2495.51   31.69
  -2   1  -5 2597.32   32.97
   2   1   5 2601.41   32.70
   2  -1   5 2645.08   31.52
   2  -1   5 2636.86   31.82
   2  -1   5 2677.13   34.26
   2   1   5 2541.50   25.41
  -2   1  -5 2627.13   31.43
   2   1   5 2571.24   31.59
  -2  -1  -5 2547.84   26.76
  -2  -1  -5 2561.78   32.33
  -2   1  -5 2632.11   30.73
   2  -1   5 2623.98   32.86
  -2  -1  -5 2590.31   32.18
   2  -1   6  632.93   13.20
   2   1   6  622.42   17.84
   2   1   6  593.90   15.81
   2   1   6  625.50   14.09
  -2  -1  -6  598.03   16.45
  -2  -1  -6  640.83   18.59
   2   1   6  594.84   16.78
  -2   1  -6  623.53   13.99
   2   1   6  598.94   17.15
   2  -1   6  605.75   16.45
   2  -1   6  644.13   17.17
  -2  -1  -6  629.98   17.39
   2  -1   6  624.77   18.07
   2  -1   6  636.32   14.65
  -2   1  -6  608.31   16.39
  -2  -1  -6  612.49   14.89
  -2  -1  -6  630.68   17.71
  -2   1  -6  649.15   16.86
  -2   1  -6  613.70   17.32
   2  -1   6  626.48   16.77
   2   1   7  123.74    8.79
  -2  -1  -7  134.09    8.30
   2   1   7  126.78    7.91
  -2  -1  -7  117.24    8.46
  -2  -1  -7  126.00    9.09
   2   1   7  131.43    8.83
   2   1   7  122.90    9.06
   2  -1   7  131.24    8.63
   2  -1   7  127.34    8.47
   2   1   7  131.61    7.41
   2  -1   7  132.97    9.16
  -2   1  -7  131.77    8.48
  -2  -1  -7  130.33    8.00
  -2  -1  -7  127.71    9.03
  -2   1  -7  133.16    8.60
  -2   1  -7  127.09    8.82
  -2   1  -7  127.46    8.27
   2  -1   7  120.33    8.08
   2  -1   8    4.15    2.50
  -2   1  -8    3.85    3.17
  -2  -1  -8    2.92    2.72
   2   1   8    7.00    3.60
  -2  -1  -8    5.81    3.64
  -2  -1  -8    3.30    2.94
   2   1   8    0.87    3.50
   2  -1   8    6.80    3.56
   2   1   8    4.85    2.60
   2  -1   8    7.93    3.62
   2   1   8    6.91    3.39
   2  -1   8    2.16    2.66
   2   1   8    3.08    2.75
  -2  -1  -8    8.77    3.30
  -2   1  -8    5.08    3.71
  -2   1  -8    3.72    3.13
  -2   1  -8    6.45    3.03
  -2  -1  -8    6.45    3.81
  -2   1  -9   14.87    4.81
   2  -1   9   10.87    3.50
   2   1   9    9.18    4.49
  -2  -1  -9    9.74    3.52
   2  -1   9   12.40    4.31
  -2  -1  -9   10.18    3.79
  -2  -1  -9    7.78    3.73
  -2   1  -9   11.01    3.94
   2   1   9   11.48    4.68
  -2   1  -9   13.19    4.20
   2  -1   9    9.03    3.79
   2   1   9    5.12    3.18
   2  -1   9    9.39    4.20
   2   1   9   14.87    4.51
  -2   1  -9    9.06    4.13
  -2  -1  -9   11.36    4.38
   2  -1  10    3.92    2.95
   2   1  10    1.97    3.77
  -2  -1 -10   -1.61    3.42
  -2  -1 -10   -1.74    3.64
  -2   1 -10    5.48    3.87
   2   1  10    2.57    4.69
   2  -1  10    3.96    4.25
  -2   1 -10   -6.53    4.06
   2  -1  10   -1.90    3.81
   2   1  10    3.75    4.10
   2  -1  10   -2.32    3.93
  -2   1 -10   -4.54    4.28
  -2  -1 -10   -1.12    4.11
  -2   1 -10    4.85    4.14
   2   1  11   36.86    7.03
  -2  -1 -11   34.54    6.92
  -2  -1 -11   34.37    6.83
   2   1  11   36.46    7.44
   2  -1  11   37.49    7.39
  -2   1 -11   32.37    6.50
   2  -1  11   19.59    5.22
   2   1  11   35.73    6.92
   2  -1  11   40.54    6.99
  -2   1 -11   30.47    6.49
  -2  -1 -11   39.62    7.58
  -2   1 -11   37.49    7.06
   2   1  12   24.43    6.79
  -2  -1 -12   22.48    6.83
  -2  -1 -12   31.94    7.21
   2   1  12   28.46    7.47
   2  -1  12   30.81    7.49
  -2   1 -12    5.27   10.30
   2  -1  12   37.56    7.44
   2  -1  12   32.67    7.08
  -2   1 -12   24.72    6.78
  -2  -1 -12   24.65    7.14
   2   1  12   21.86    6.55
  -2   1 -12   19.83    6.29
   2   1  13    7.83    6.00
   2   1  13   26.51    7.49
  -2   1 -13    6.84    5.19
  -2  -1 -13   11.98    6.12
  -2  -1 -13   11.48    6.13
   2  -1  13   19.00    6.54
   2  -1  13   11.58    5.41
  -2   1 -13  -11.19    6.64
  -2  -1 -13   14.49    6.93
  -2   1 -13   17.37    7.88
   2  -1  13   10.71    8.04
  -2  -1 -14    1.11    5.82
  -2  -1 -14    5.02    5.67
  -2   1 -14   16.71    6.55
   2   1  14   -2.31    5.97
   2  -1  14    8.55    6.30
   2  -1  14    5.83    6.21
  -2   1 -14    2.90    5.47
  -2   1 -14    8.62    6.27
  -2   1 -15  124.72   13.91
   2  -1  15  108.68   12.96
   2  -1  15  115.40   13.80
  -2   1 -15  114.00   13.94
  -2   1 -16    4.06    6.69
   2  -1  16   -0.89    6.63
   2  -1  16    7.13    6.99
  -2  -2   4 1397.08   31.03
  -2  -2   4 1357.86   31.97
  -2  -2   3    2.24    2.90
  -2  -2   3   -0.04    2.23
  -2  -2   3   -0.76    2.14
  -2  -2   3    1.56    2.52
  -2  -2   2    3.79    2.14
  -2  -2   2    7.01    2.97
  -2  -2   2    3.91    1.85
  -2  -2   2    2.74    2.33
   2   2  -2    8.01    3.41
  -2  -2   2    6.70    2.85
   2   2  -1   51.20    4.80
  -2  -2   1   62.83    6.13
  -2  -2   1   64.14    6.62
   2   2  -1   72.35    6.72
  -2  -2   1   65.96    6.59
  -2  -2   1   67.23    6.13
   2   2   0   51.80    5.00
  -2  -2   0   58.21    5.95
  -2  -2   0   51.56    5.08
  -2  -2   0   57.63    6.33
  -2  -2   0   59.22    6.30
   2   2   0   70.83    6.54
  -2  -2   0   60.15    5.36
  -2  -2  -1    0.50    1.94
   2   2   1   -1.10    2.57
   2   2   1   -1.16    2.42
   2  -2   1   -0.59    2.24
  -2  -2  -1    0.83    1.74
  -2  -2  -1   -0.83    2.07
  -2  -2  -1    1.49    1.66
  -2  -2  -1    1.89    2.31
   2  -2   2   10.30    3.13
   2  -2   2   10.54    2.77
  -2  -2  -2   10.29    3.13
   2   2   2    9.23    2.99
   2   2   2   12.13    3.53
  -2  -2  -2    9.53    2.60
   2  -2   2    5.75    2.73
  -2  -2  -2   10.57    3.33
  -2  -2  -2   12.46    2.96
   2  -2   2   10.65    3.28
  -2   2  -2    8.01    2.72
   2   2   3  491.34   15.64
  -2  -2  -3  491.16   16.72
  -2  -2  -3  490.99   15.36
   2   2   3  481.65   15.29
   2   2   3  474.49   12.17
  -2  -2  -3  492.08   15.99
   2  -2   3  443.76   15.26
   2  -2   3  500.56   17.50
   2  -2   3  498.77   16.33
  -2  -2  -3  478.48   14.56
  -2   2  -3  476.79   15.05
   2  -2   3  480.81   16.89
   2  -2   4   20.53    4.05
  -2  -2  -4   11.37    3.47
   2   2   4   31.05    5.01
  -2  -2  -4   28.40    4.99
   2   2   4   22.54    4.32
   2  -2   4   21.13    3.85
   2  -2   4   24.28    4.36
  -2  -2  -4   17.30    3.49
   2   2   4   26.59    4.09
  -2  -2  -4   34.70    4.34
   2  -2   4   23.93    4.05
  -2   2  -4   29.70    4.85
   2   2   4   37.20    5.72
  -2   2  -4   29.08    4.67
   2   2   5  367.38   15.15
   2   2   5  364.03   13.87
  -2  -2  -5  340.25   15.04
   2  -2   5  367.40   13.44
  -2  -2  -5  346.48   14.81
   2   2   5  326.20   13.27
   2   2   5  365.21   12.80
  -2  -2  -5  327.79   13.39
   2   2   5  349.84   12.95
  -2  -2  -5  352.54   13.70
  -2  -2  -5  325.82   12.37
   2  -2   5  385.13   15.49
  -2  -2  -5  342.24   12.27
  -2   2  -5  362.73   14.97
   2   2   5  369.50   15.44
   2  -2   5  375.90   14.74
   2  -2   5  351.71   15.00
  -2   2  -5  369.60   14.70
   2   2   6  853.86   24.15
  -2  -2  -6  852.26   24.47
  -2  -2  -6  828.83   24.14
   2   2   6  816.58   22.44
   2   2   6  851.53   20.99
   2  -2   6  864.18   20.37
  -2  -2  -6  843.43   20.86
   2  -2   6  888.22   23.61
   2  -2   6  952.87   24.46
  -2   2  -6  951.63   23.86
   2   2   6  860.11   23.92
  -2   2  -6  899.56   24.11
  -2  -2  -6  830.34   22.42
   2  -2   6  834.29   24.04
  -2  -2  -7  643.66   22.29
  -2   2  -7  657.46   22.27
  -2  -2  -7  653.72   23.12
   2   2   7  668.59   22.11
   2   2   7  650.33   20.12
  -2  -2  -7  648.37   21.88
  -2  -2  -7  655.01   20.05
   2  -2   7  662.61   21.64
   2   2   7  696.51   22.35
  -2   2  -7  644.28   21.86
   2  -2   7  630.00   21.50
   2   2   7  624.64   21.96
   2  -2   8   35.80    6.14
   2   2   8   39.18    6.56
  -2  -2  -8   47.34    7.25
  -2  -2  -8   44.30    6.89
   2   2   8   52.80    7.68
  -2  -2  -8   45.88    6.54
   2  -2   8   42.84    6.74
   2   2   8   40.31    6.13
   2   2   8   37.04    6.18
  -2  -2  -8   54.23    7.60
  -2   2  -8   47.61    7.26
  -2   2  -8   39.37    6.60
   2  -2   9   -4.77    4.39
  -2  -2  -9    2.46    3.83
   2   2   9   -2.71    4.30
  -2  -2  -9   -0.25    3.93
  -2  -2  -9   -6.25    5.05
   2   2   9    5.54    5.16
   2  -2   9    1.99    4.15
   2   2   9   -5.80    5.03
  -2  -2  -9    6.92    4.20
   2   2   9   -1.38    4.03
  -2   2  -9   -1.98    4.48
  -2   2  -9   -0.68    3.78
   2  -2  10   10.48    5.00
  -2  -2 -10   25.26    6.91
   2   2  10   21.62    6.59
  -2  -2 -10    7.43    4.88
  -2  -2 -10   17.42    5.87
  -2  -2 -10   14.26    4.80
   2  -2  10   11.34    4.91
  -2   2 -10    9.81    5.64
   2   2  10   11.79    5.33
   2   2  10   11.33    4.94
  -2   2 -10   11.30    4.88
   2  -2  11   25.79    6.34
   2   2  11   29.36    7.79
  -2  -2 -11   20.55    7.27
   2   2  11   34.22    7.37
  -2  -2 -11   23.62    7.85
  -2  -2 -11   41.53    8.22
   2  -2  11   23.47    6.08
  -2   2 -11   26.17    7.14
  -2   2 -11   33.77    7.25
   2  -2  12    0.80    4.20
   2   2  12  -11.02    6.95
  -2  -2 -12    2.11    5.88
  -2  -2 -12    5.24    6.30
   2  -2  12   -0.83    4.89
   2   2  12   -5.87    5.52
  -2   2 -12   -0.02    5.45
  -2   2 -12    3.41    5.17
   2  -2  13    3.75    5.42
  -2  -2 -13    9.21    7.67
  -2  -2 -13    7.12    7.02
   2  -2  13    8.55    6.12
   2   2  13    7.19    6.20
  -2   2 -13    8.58    6.24
  -2   2 -13   10.01    6.24
   2  -2  14    9.52    7.20
  -2   2 -14   12.95    6.59
   2  -2  15   12.18    8.31
  -2   2 -15   11.18    7.61
  -2  -3   6  127.38   11.69
  -2  -3   6  118.66   11.59
  -2  -3   5  269.56   16.26
  -2  -3   5  224.24   15.19
  -2  -3   5  226.15   14.74
  -2  -3   4   64.16    8.28
  -2  -3   4   69.53    8.69
   2   3  -4   52.28    8.10
  -2  -3   4   62.65    8.13
   2   3  -4   75.09    9.55
  -2  -3   3  168.26   11.29
  -2  -3   3  194.61   13.24
  -2  -3   3  180.09   13.03
   2   3  -3  200.34   13.82
   2   3  -3  184.97   13.62
  -2  -3   3  199.53   12.72
  -2  -3   2   63.96    7.25
  -2  -3   2   68.25    8.40
  -2  -3   2   64.37    8.12
   2   3  -2   60.55    7.76
   2   3  -2   66.67    8.15
  -2  -3   2   66.48    7.36
  -2  -3   1    5.83    2.69
  -2  -3   1    5.09    3.29
  -2  -3   1    4.99    3.73
  -2  -3   1    4.60    3.25
   2   3  -1    6.20    4.52
   2   3  -1    4.06    3.75
  -2  -3   0   19.26    4.61
  -2  -3   0   15.46    4.80
  -2  -3   0   24.70    5.49
   2   3   0   19.27    5.33
   2   3   0   15.66    5.25
  -2  -3  -1    3.01    3.29
  -2  -3  -1    4.25    3.35
   2  -3   1    4.86    4.09
  -2  -3  -1    1.55    3.35
   2   3   1    4.22    4.06
   2   3   1    0.31    4.05
   2  -3   2    7.55    3.86
  -2  -3  -2    5.41    3.71
   2  -3   2    6.94    4.08
  -2  -3  -2   10.34    4.68
  -2  -3  -2    7.43    3.68
   2   3   2   14.52    5.28
   2   3   2    9.68    4.50
   2   3   2    4.01    4.13
   2  -3   2    9.73    4.49
   2   3   3   49.56    6.79
  -2  -3  -3   38.73    6.13
  -2  -3  -3   53.89    6.57
  -2  -3  -3   50.94    7.04
   2  -3   3   37.28    6.34
  -2  -3  -3   45.64    6.98
   2  -3   3   31.68    7.50
   2   3   3   45.94    7.04
   2   3   3   49.12    7.64
   2   3   3   51.68    7.61
  -2  -3  -4  246.13   15.36
  -2  -3  -4  260.94   14.24
  -2  -3  -4  267.18   14.17
   2  -3   4  263.82   14.75
   2   3   4  272.32   15.08
  -2   3  -4  262.90   15.49
  -2  -3  -4  246.27   15.06
   2   3   4  305.94   16.09
   2   3   4  260.64   15.49
  -2   3  -4  267.04   13.79
   2   3   4  284.21   15.33
  -2  -3  -5 1037.67   31.85
  -2  -3  -5 1016.98   29.12
   2   3   5 1025.72   28.80
   2  -3   5 1067.55   29.09
   2  -3   5 1089.00   28.51
  -2  -3  -5  995.96   28.15
  -2   3  -5 1058.35   31.16
   2   3   5 1085.25   29.62
   2   3   5 1053.91   31.39
  -2   3  -5 1078.09   29.02
  -2  -3  -5  995.13   30.16
   2   3   5 1110.30   31.10
  -2   3  -6  236.52   16.36
  -2  -3  -6  129.88   12.30
   2  -3   6  289.21   15.66
  -2  -3  -6  139.80   11.68
   2  -3   6  160.04   12.02
  -2   3  -6  229.59   14.64
   2   3   6  147.14   12.75
   2   3   6  153.84   12.71
   2  -3   7   13.32    7.74
   2   3   7   45.94    7.84
  -2  -3  -7   43.88    8.06
  -2  -3  -7   38.66    7.66
   2  -3   7   44.47    7.40
   2   3   7   48.17    8.63
  -2   3  -7   53.17    8.35
  -2   3  -7   51.87    8.87
   2  -3   8    0.93    4.14
   2   3   8   -7.61    6.17
  -2  -3  -8    0.78    5.06
  -2  -3  -8    1.91    4.54
   2  -3   8   -6.53    5.00
   2   3   8   -9.68    6.12
  -2   3  -8   -0.51    5.67
  -2   3  -8   -7.75    5.92
   2  -3   9    1.51    5.00
   2   3   9    6.98    6.35
  -2  -3  -9   12.29    7.18
  -2  -3  -9    8.66    5.88
   2  -3   9    3.13    5.01
   2   3   9    8.88    6.18
  -2   3  -9   -0.05    5.65
  -2   3  -9    4.20    5.44
   2  -3  10    4.39    6.07
   2   3  10   10.45    6.51
  -2  -3 -10    7.83    6.83
  -2  -3 -10    6.86    6.88
   2  -3  10    4.33    5.11
   2   3  10    9.53    5.65
  -2   3 -10    8.01    7.30
  -2   3 -10    1.39    5.91
   2  -3  11    5.46    7.15
  -2  -3 -11   14.14    7.69
  -2  -3 -11   34.17   10.38
   2  -3  11   20.73    6.67
  -2   3 -11   29.12    8.80
  -2   3 -11   29.26    8.08
   2  -3  12    9.34    8.89
  -2  -3 -12   20.85   10.00
   2  -3  12   36.11    9.19
  -2   3 -12   53.04   11.26
  -2   3 -12   44.66   10.00
   2  -3  13   -0.86    6.53
   2  -3  13   11.79    6.58
  -2   3 -13   -7.64    8.19
  -2   3 -13   10.82    7.59
   2  -3  14   16.54   10.34
  -2   3 -14   27.83    9.41
  -2  -4   6   45.66   13.38
  -2  -4   6  122.45   12.70
  -2  -4   5   90.00   11.72
  -2  -4   5   92.52   11.86
  -2  -4   5  100.99   11.26
  -2  -4   4    8.07    4.82
   2   4  -4   10.67    5.60
  -2  -4   4   19.28    6.49
  -2  -4   4   19.62    6.05
  -2  -4   3   18.22    6.71
  -2  -4   3   28.55    7.28
   2   4  -3   25.56    7.81
   2   4  -3   27.84    7.98
  -2  -4   2    8.00    5.03
  -2  -4   2    7.26    5.42
  -2  -4   2    9.23    5.94
   2   4  -2    4.22    6.23
   2   4  -2   -4.00    6.06
   2   4  -2   -0.86    6.34
  -2  -4   1    4.86    4.45
  -2  -4   1    9.15    5.87
  -2  -4   1    6.56    5.77
   2   4  -1   -4.72    6.28
   2   4  -1   -1.96    5.58
   2   4  -1    4.86    5.71
  -2  -4   0    2.68    4.60
  -2  -4   0    8.31    4.99
  -2  -4   0   14.56    6.16
   2   4   0   12.29    6.03
   2   4   0    7.33    5.84
   2   4   0   -1.82    5.91
  -2  -4  -1    4.75    5.20
  -2  -4  -1   -0.16    5.24
  -2  -4  -1   13.35    6.36
   2   4   1   -3.10    5.68
   2   4   1   -2.61    6.37
   2   4   1   -3.29    5.90
  -2  -4  -2    4.01    5.15
  -2  -4  -2    1.01    5.33
  -2  -4  -2   -1.52    4.95
   2   4   2   20.04    7.27
   2   4   2   -1.59    5.47
   2   4   2   -3.90    6.09
   2   4   3   25.61    7.98
  -2  -4  -3   35.86    8.60
   2  -4   3   31.05    7.71
  -2  -4  -3   31.42    8.30
  -2  -4  -3   41.69    8.24
   2   4   3   37.72    8.44
   2   4   3   35.92    8.27
  -2  -4  -4  160.29   14.74
   2  -4   4  145.16   13.69
  -2  -4  -4  164.97   15.77
   2   4   4  154.58   14.61
  -2  -4  -4  158.75   14.66
   2   4   4  174.01   15.16
   2   4   4  163.64   15.90
  -2   4  -4  137.22   13.81
  -2  -4  -5   48.02   10.05
   2  -4   5   38.66    8.20
  -2  -4  -5   51.37   10.21
   2  -4   5   20.97    9.27
  -2   4  -5   35.76    8.77
   2   4   5   49.46    8.86
   2   4   5   41.87    9.51
  -2   4  -5   36.30    8.53
  -2  -4  -6  114.44   13.89
  -2   4  -6  137.52   14.60
   2  -4   6  114.42   12.49
   2   4   6  123.78   13.88
  -2   4  -6   99.37   12.99
  -2  -4  -7  115.87   14.16
   2   4   7  164.51   16.28
  -2   4  -7  143.24   15.90
   2  -4   8    6.23    7.61
  -2  -4  -8    9.16    6.84
   2   4   8    9.50    7.30
  -2   4  -8   20.99    8.57
   2  -4   9   -0.45    6.70
  -2  -4  -9    0.66    8.41
  -2   4  -9    2.20    6.49
  -2  -5  -1   27.02    9.52
   2   5   1    3.60    8.21
  -2  -5  -2   68.50   17.71
  -3   0  -4  404.22   13.21
   3   0   4  428.30   13.53
   3   0   4  412.40   13.18
   3   0   4  405.85   12.90
  -3   0  -4  406.32   13.12
  -3   0  -4  401.33   13.25
   3   0   5   -1.16    2.40
  -3   0  -5   -0.76    1.76
  -3   0  -5   -1.14    2.22
   3   0   5   -1.13    1.96
  -3   0  -5   -2.48    2.10
   3   0   5    0.14    2.19
   3   0   5   -2.63    2.12
  -3   0  -5   -3.57    2.30
   3   0   6  295.22   11.77
  -3   0  -6  277.78   12.15
   3   0   6  287.82   12.68
   3   0   6  281.96   12.69
   3   0   6  263.74   11.56
  -3   0  -6  278.29   12.46
  -3   0  -6  275.41   11.36
  -3   0  -6  275.39   12.15
  -3   0  -7   -0.80    2.75
  -3   0  -7    1.46    2.27
   3   0   7   -0.03    2.41
  -3   0  -7    1.97    2.16
   3   0   7   -0.37    2.19
   3   0   7   -1.95    3.27
   3   0   7    0.01    2.48
  -3   0  -7   -0.37    2.43
   3   0   8   68.92    6.97
  -3   0  -8   72.48    7.29
   3   0   8   71.16    7.70
   3   0   8   66.83    7.38
   3   0   8   62.60    6.64
  -3   0  -8   57.42    6.83
  -3   0  -8   58.77    6.76
  -3   0  -8   65.75    6.98
  -3   0  -9    0.90    3.58
   3   0   9    3.81    3.26
  -3   0  -9    2.12    3.06
   3   0   9   -0.32    3.74
   3   0   9    2.10    2.94
   3   0   9    1.71    3.35
  -3   0  -9   -3.13    3.80
  -3   0  -9    1.60    2.93
  -3   0 -10   10.05    4.67
   3   0  10   13.17    4.86
  -3   0 -10    9.00    4.28
   3   0  10   14.00    5.30
   3   0  10    2.78    3.21
   3   0  10    8.03    4.63
  -3   0 -10    7.88    4.44
  -3   0 -10    5.98    4.30
   3   0  11   -3.42    4.83
  -3   0 -11   -1.65    3.57
   3   0  11   -0.63    4.90
   3   0  11    2.43    4.24
   3   0  11   -0.85    4.09
  -3   0 -11   -6.33    4.71
  -3   0 -11    3.29    4.22
  -3   0 -11   -0.23    4.63
   3   0  12   79.54   10.22
  -3   0 -12   76.94    9.02
   3   0  12   74.07    9.74
   3   0  12   84.82    9.69
  -3   0 -12   68.01    9.23
  -3   0 -12   74.56    9.72
  -3   0 -12   77.03    9.81
   3   0  12   71.69    9.02
   3   0  13   -0.64    5.92
   3   0  13    6.40    5.88
  -3   0 -13    4.10    5.05
   3   0  13    4.49    5.73
  -3   0 -13    0.60    5.62
  -3   0 -13   -5.89    5.64
   3   0  14  119.64   13.39
   3   0  14  115.28   12.99
   3   0  14  118.78   12.75
  -3   0 -14  102.49   12.44
  -3   0 -14  119.76   13.19
  -3   0 -14  117.02   13.35
   3   0  15    6.22    8.00
   3   0  15   -8.90    6.32
   3   0  15    5.07    7.07
  -3   0 -15   -8.06    6.62
  -3   0 -15    9.76    6.68
  -3   0 -15    8.83    7.23
   3   0  16   22.03    7.73
   3   0  16   40.25   10.62
  -3   0 -16   39.86    9.58
  -3   0 -16   44.93   10.32
  -3  -1  -2  430.85   13.94
   3   1   3   58.34    5.66
  -3  -1  -3   60.30    5.71
  -3  -1  -3   60.04    5.69
   3   1   3   60.40    5.23
   3   1   3   52.35    4.88
  -3  -1  -3   61.20    4.65
  -3  -1  -3   59.98    5.25
  -3  -1  -3   56.99    5.10
   3   1   4  142.57    8.71
  -3  -1  -4  141.36    8.50
  -3  -1  -4  136.70    8.45
   3   1   4  133.28    7.77
   3  -1   4  136.62    7.78
   3   1   4  127.36    7.44
  -3  -1  -4  139.22    6.08
   3  -1   4  132.82    8.10
  -3  -1  -4  127.62    5.91
  -3  -1  -4  130.47    7.59
  -3   1  -4  142.04    8.57
  -3  -1  -4  137.41    7.79
  -3   1  -4  130.59    7.85
   3   1   5  758.90   20.21
   3  -1   5  757.85   15.48
  -3  -1  -5  717.53   19.27
  -3  -1  -5  740.01   20.18
   3   1   5  737.58   18.99
   3  -1   5  739.50   18.70
   3   1   5  728.62   18.55
   3  -1   5  736.27   19.18
   3  -1   5  701.84   19.10
  -3  -1  -5  689.30   18.15
  -3  -1  -5  711.47   14.89
  -3  -1  -5  720.96   18.61
  -3   1  -5  729.62   19.48
  -3   1  -5  740.16   18.73
  -3   1  -5  739.47   19.21
   3  -1   5  720.27   19.90
   3   1   6  216.32   11.68
  -3  -1  -6  206.72   10.86
  -3  -1  -6  211.59   11.54
   3   1   6  218.12   11.42
   3   1   6  202.08   10.62
   3  -1   6  206.01   10.68
   3  -1   6  208.81   10.92
   3  -1   6  212.12   11.23
   3   1   6  206.26    9.25
  -3  -1  -6  211.51   10.89
  -3  -1  -6  208.37    9.18
  -3  -1  -6  216.71   11.20
  -3   1  -6  202.98   10.93
  -3   1  -6  203.59   10.54
  -3   1  -6  207.05   10.73
   3  -1   6  201.54   10.94
   3  -1   7    1.37    2.25
  -3  -1  -7    0.73    2.34
  -3  -1  -7    2.03    2.90
  -3   1  -7   -0.85    3.25
  -3  -1  -7    3.02    2.76
   3   1   7   -0.99    3.21
  -3  -1  -7    4.12    3.04
   3   1   7    2.09    3.61
   3  -1   7    0.41    2.82
   3  -1   7    2.85    2.99
   3   1   7   -1.29    2.86
   3   1   7    0.36    2.88
  -3   1  -7    1.16    2.30
  -3   1  -7   -0.11    2.96
   3  -1   7    0.43    2.57
   3  -1   8    3.39    3.12
  -3  -1  -8    0.64    3.79
  -3   1  -8   -2.33    3.79
  -3  -1  -8    6.53    3.17
   3   1   8   -0.27    3.65
  -3  -1  -8    3.27    3.50
   3   1   8    4.08    3.82
   3  -1   8    1.47    3.25
   3  -1   8    1.18    2.92
  -3   1  -8    0.99    2.64
   3   1   8    7.67    3.53
   3   1   8   -0.58    3.45
  -3   1  -8   -0.93    3.52
  -3   1  -8    3.27    3.13
   3  -1   8   -0.36    3.11
  -3  -1  -8    0.09    2.76
  -3  -1  -9   15.45    5.05
   3  -1   9   17.72    4.35
  -3   1  -9   15.00    5.14
   3   1   9   21.82    5.64
  -3  -1  -9   16.73    4.99
  -3   1  -9   17.64    4.69
   3   1   9   26.01    6.13
   3  -1   9   16.85    4.99
   3  -1   9   19.50    5.16
   3   1   9   21.21    5.38
  -3  -1  -9   16.58    4.79
   3  -1   9   15.27    4.66
  -3   1  -9   18.88    4.77
  -3   1  -9   15.43    5.38
  -3   1 -10    6.49    4.79
   3   1  10    5.65    4.28
  -3   1 -10    6.76    4.47
  -3  -1 -10    8.47    4.52
   3   1  10   10.18    5.56
   3  -1  10   10.03    4.93
   3  -1  10    8.19    4.67
  -3  -1 -10    3.36    4.17
   3   1  10   -1.43    4.42
   3  -1  10    4.66    3.76
  -3   1 -10    5.52    5.02
  -3  -1 -10    6.76    5.09
  -3   1 -11    8.93    5.14
   3   1  11    9.22    5.48
  -3   1 -11   -0.14    3.89
  -3  -1 -11   12.43    5.41
   3   1  11    5.71    5.04
   3  -1  11    6.46    5.20
   3  -1  11    7.17    4.45
  -3  -1 -11    4.22    4.18
   3   1  11    7.09    4.91
   3  -1  11    5.14    4.21
  -3   1 -11   12.19    5.91
  -3  -1 -11    8.08    5.11
   3   1  12  250.73   17.26
  -3  -1 -12  227.67   16.49
   3  -1  12  234.72   16.39
   3   1  12  236.77   16.77
   3  -1  12  225.30   15.89
   3  -1  12  229.45   16.03
  -3  -1 -12  221.19   16.22
  -3   1 -12  235.56   16.37
  -3  -1 -12  251.23   17.33
  -3   1 -12  253.13   16.98
  -3   1 -12  255.32   16.74
   3   1  12  254.42   16.93
  -3   1 -13   31.00    7.35
   3   1  13   32.23    7.99
  -3  -1 -13   20.74    6.67
   3   1  13   24.97    7.74
   3  -1  13   26.26    7.55
   3  -1  13   21.35    6.54
  -3  -1 -13   33.69    8.31
   3   1  13   28.35    7.84
   3  -1  13   24.41    6.76
  -3   1 -13   32.47    8.35
  -3  -1 -13   31.09    8.12
  -3   1 -13   20.31    6.89
   3   1  14   10.24    5.89
  -3   1 -14   21.23    7.20
  -3  -1 -14   11.86    6.73
   3   1  14   11.26    7.66
   3  -1  14   10.02    7.01
   3  -1  14    6.99    5.26
  -3  -1 -14   22.73    7.78
   3   1  14   -6.04    7.07
  -3   1 -14   11.10    6.59
   3  -1  14    5.80    6.12
  -3  -1 -14    2.38    6.43
  -3   1 -14   19.09    7.24
  -3   1 -15   68.54   11.12
  -3  -1 -15   51.11   10.37
   3  -1  15   58.17   11.47
   3  -1  15   55.28   10.61
  -3  -1 -15   56.09   11.32
   3   1  15   62.21   12.05
  -3   1 -15   55.28   10.99
  -3  -1 -15   58.91   11.69
   3  -1  15   60.80   11.35
  -3   1 -15   69.11   11.56
  -3   1 -16    8.71    6.55
  -3  -1 -16   13.81    8.52
   3  -1  16   -5.64    6.82
  -3  -1 -16   -1.11    7.18
   3   1  16   -2.49    7.37
  -3   1 -16    6.53    7.82
  -3   1 -16    9.67    7.84
   3  -1  16   19.65    8.63
   3   2   0  113.68    7.20
  -3  -2   0  114.89    8.95
  -3  -2   0  116.29    9.11
  -3  -2  -1    6.90    2.73
   3   2   1    8.79    2.77
  -3  -2  -1   10.41    3.45
  -3  -2  -1    5.19    2.56
   3   2   2   47.49    5.41
  -3  -2  -2   51.08    6.05
  -3  -2  -2   58.50    5.81
  -3  -2  -2   53.29    6.36
  -3  -2  -2   62.07    6.16
   3   2   3 2481.74   37.38
  -3  -2  -3 2534.69   40.33
  -3  -2  -3 2533.49   40.38
  -3  -2  -3 2517.64   37.87
  -3  -2  -3 2495.93   35.24
   3   2   3 2477.35   37.59
   3  -2   4   30.02    5.30
  -3  -2  -4   30.86    4.53
  -3  -2  -4   25.60    5.01
   3   2   4   28.95    5.13
   3  -2   4   34.10    4.68
  -3  -2  -4   29.59    4.87
   3  -2   4   32.15    4.78
   3   2   4   36.69    4.65
  -3  -2  -4   38.62    5.49
  -3  -2  -4   30.82    4.33
   3   2   4   32.84    4.92
  -3   2  -4   30.50    5.03
   3   2   5   16.12    3.74
   3  -2   5   15.93    4.32
  -3  -2  -5   14.16    3.86
  -3  -2  -5   16.36    4.42
  -3  -2  -5   13.61    3.48
   3   2   5   23.54    5.33
  -3  -2  -5   15.90    4.22
   3  -2   5   14.02    3.47
   3   2   5   13.65    3.81
   3  -2   5   16.54    3.87
   3  -2   5   15.41    3.82
  -3   2  -5   20.39    4.79
  -3  -2  -6   45.17    6.56
   3   2   6   46.56    6.96
  -3  -2  -6   52.34    6.95
   3   2   6   49.98    6.47
   3  -2   6   42.73    5.75
   3   2   6   46.48    5.91
   3  -2   6   53.04    6.75
  -3  -2  -6   47.20    5.79
  -3  -2  -6   56.56    6.99
   3   2   6   56.30    7.30
  -3   2  -6   51.97    7.07
   3  -2   6   50.64    6.93
  -3  -2  -7   10.23    4.67
   3  -2   7    9.75    4.06
  -3  -2  -7    9.34    4.33
   3   2   7    3.82    4.16
  -3  -2  -7    6.40    3.62
  -3  -2  -7    5.23    3.85
   3   2   7    8.58    4.29
   3  -2   7   10.96    4.40
   3   2   7   11.61    5.12
   3   2   7   13.17    4.73
  -3   2  -7   11.29    5.13
   3  -2   8    5.96    3.66
   3   2   8   11.25    5.37
  -3  -2  -8    5.75    3.88
  -3  -2  -8   11.75    4.36
  -3   2  -8    6.88    3.73
  -3  -2  -8   15.49    5.14
   3   2   8    4.58    4.04
   3  -2   8   16.21    5.01
   3   2   8   11.23    4.80
   3   2   8   11.15    4.35
  -3   2  -8   11.19    5.09
  -3   2  -8   11.99    5.26
  -3  -2  -8   11.50    5.10
  -3  -2  -9   22.73    5.33
   3  -2   9   21.59    5.47
   3   2   9   27.68    6.79
  -3  -2  -9   21.28    6.04
  -3  -2  -9   35.02    6.78
   3   2   9   34.61    7.23
   3  -2   9   23.96    6.17
   3   2   9   24.83    6.03
   3   2   9   23.95    6.01
  -3   2  -9   32.61    7.24
  -3   2  -9   29.33    6.37
  -3  -2  -9   24.92    6.26
  -3  -2 -10   32.93    6.94
   3  -2  10   28.93    6.44
   3   2  10   50.48    8.72
  -3  -2 -10   35.55    7.67
  -3  -2 -10   34.89    7.51
   3   2  10   44.21    8.30
   3  -2  10   35.93    7.49
   3   2  10   38.04    7.51
   3   2  10   36.82    7.43
  -3   2 -10   40.88    8.04
  -3   2 -10   39.62    7.52
  -3  -2 -10   37.57    7.61
   3  -2  11   29.14    7.30
   3   2  11   32.81    8.25
  -3  -2 -11   36.16    8.36
   3   2  11   42.59    8.59
   3  -2  11   20.58    6.59
   3   2  11   31.21    7.15
  -3   2 -11   27.36    7.37
  -3  -2 -11   45.65    9.23
  -3   2 -11   35.21    7.52
  -3  -2 -11   32.47    6.98
   3  -2  12  -14.23    6.27
   3   2  12   -0.91    5.84
  -3  -2 -12   -6.02    5.95
   3   2  12    9.13    7.35
   3  -2  12    6.06    5.70
   3   2  12    1.21    4.94
  -3  -2 -12    6.04    6.41
  -3   2 -12   50.36    9.93
  -3  -2 -12    6.48    6.25
  -3   2 -12   37.65    8.17
  -3  -2 -13  318.57   23.20
   3   2  13  302.60   20.00
   3  -2  13  302.59   20.46
  -3  -2 -13  326.98   22.47
  -3  -2 -13  259.32   20.68
  -3   2 -13  313.66   21.09
   3   2  13  296.57   21.17
   3   2  14   77.05   12.42
  -3  -2 -14   57.18   12.12
   3  -2  14   78.39   12.26
   3   2  14   73.01   11.69
  -3   2 -14   85.12   12.91
  -3  -2 -14   76.12   13.64
  -3  -2 -15   21.76   10.45
   3  -2  15   33.53    9.71
   3   2  15   29.20    9.71
  -3  -2 -15   26.51   11.05
  -3  -3   3    1.23    3.53
  -3  -3   3   -5.11    4.37
  -3  -3   2    2.08    3.44
  -3  -3   2   -0.20    3.47
  -3  -3   2    5.95    3.72
  -3  -3   1   -0.92    3.26
  -3  -3   1    2.05    3.79
  -3  -3   1    3.15    3.71
   3   3  -1    4.19    4.70
  -3  -3   0    7.61    3.88
  -3  -3   0    4.60    3.50
  -3  -3   0    9.78    4.59
   3   3   0   18.05    6.13
  -3  -3  -1  319.60   16.66
  -3  -3  -1  306.78   17.81
  -3  -3  -1  334.47   16.86
   3   3   1  339.67   17.91
   3   3   2  380.43   16.64
  -3  -3  -2  371.99   18.10
  -3  -3  -2  355.81   18.68
  -3  -3  -2  350.55   16.10
  -3  -3  -2  332.57   16.50
   3   3   2  360.51   18.17
   3   3   3   20.79    5.43
  -3  -3  -3   22.24    5.61
  -3  -3  -3   20.03    5.08
  -3  -3  -3   21.50    5.71
  -3  -3  -3   29.17    5.99
   3   3   3   21.14    5.96
   3   3   3   25.59    6.60
   3   3   4  193.17   13.36
  -3  -3  -4  181.12   13.53
  -3  -3  -4  187.31   12.61
  -3  -3  -4  174.66   13.30
  -3  -3  -4  193.59   12.71
   3   3   4  200.71   13.63
   3   3   4  195.65   12.84
   3   3   4  194.75   14.06
   3   3   5  402.21   19.43
  -3  -3  -5  374.28   19.61
  -3  -3  -5  401.95   19.15
   3  -3   5  384.89   18.34
   3   3   5  379.02   19.91
  -3   3  -5  382.29   18.09
   3  -3   6    4.30    4.99
   3   3   6    7.33    5.14
  -3  -3  -6    3.37    4.94
  -3  -3  -6    8.52    4.84
   3   3   6    4.87    5.18
  -3   3  -6    6.03    5.22
   3  -3   7    1.01    4.87
   3   3   7   -4.28    5.24
  -3  -3  -7   11.26    5.97
  -3  -3  -7    6.42    5.27
   3  -3   7    7.01    5.09
   3   3   7   -0.78    5.27
  -3   3  -7   -1.38    5.06
  -3   3  -7    4.42    4.93
   3  -3   8    2.55    4.89
   3   3   8   11.68    6.01
  -3  -3  -8   10.32    6.11
  -3  -3  -8    5.84    5.41
   3  -3   8    1.53    4.40
   3   3   8   19.46    7.28
  -3   3  -8    7.86    6.23
  -3   3  -8   10.14    6.15
   3  -3   9    4.38    6.28
   3   3   9   -1.19    7.05
  -3  -3  -9    1.15    8.36
  -3  -3  -9    9.18    8.08
   3  -3   9   -0.91    4.79
   3   3   9   -0.81    6.45
  -3   3  -9    5.32    6.51
  -3   3  -9    9.83    6.32
   3  -3  10    0.64    5.12
   3   3  10    5.32    6.60
  -3  -3 -10    5.47    5.90
  -3  -3 -10    8.60    6.26
   3  -3  10   13.69    6.04
   3   3  10    1.93    6.25
  -3   3 -10    6.95    6.64
  -3   3 -10    1.43    5.87
   3  -3  11    1.31    6.11
   3   3  11   12.38    7.45
  -3  -3 -11   12.94    7.44
  -3  -3 -11  -11.13    8.02
   3  -3  11   11.52    6.08
   3   3  11   11.09    6.69
  -3   3 -11   24.85    8.54
  -3   3 -11    7.30    6.60
   3  -3  12    6.82    8.24
   3   3  12   42.94   10.04
  -3  -3 -12   28.93   10.23
  -3  -3 -12   34.12   10.68
   3  -3  12   36.08    9.35
  -3   3 -12   39.92   10.73
  -3   3 -12   29.18    9.55
   3  -3  13   -0.74    8.22
   3  -3  13    4.51    6.23
  -3   3 -13   11.33    8.38
  -3  -4   3    3.90    5.89
   3   4  -3   38.97   12.32
  -3  -4   2    4.05    4.71
  -3  -4   2   -8.07    5.67
   3   4  -2   -3.03    5.88
  -3  -4   1   15.78    5.88
  -3  -4   1   12.02    6.12
  -3  -4   1   12.74    6.07
   3   4  -1   19.55    7.52
   3   4  -1    9.74    6.20
  -3  -4   0    8.59    5.51
  -3  -4   0    7.18    5.16
  -3  -4   0    7.56    5.52
   3   4   0    8.85    6.16
   3   4   0    7.32    5.73
   3   4   0    1.12    5.77
  -3  -4  -1   10.45    5.37
  -3  -4  -1   16.80    6.79
  -3  -4  -1   22.86    7.24
   3   4   1   16.64    6.87
   3   4   1   20.87    7.44
   3   4   1    4.99    5.78
  -3  -4  -2  147.50   14.14
  -3  -4  -2  132.92   14.45
  -3  -4  -2  129.54   13.24
   3   4   2  155.51   14.89
   3   4   2  166.20   14.87
   3   4   2  171.91   15.39
  -3  -4  -3  595.83   27.90
  -3  -4  -3  603.29   29.46
  -3  -4  -3  582.44   27.61
   3   4   3  588.59   28.42
   3   4   3  611.71   27.46
   3   4   3  547.40   26.72
  -3  -4  -4  228.56   18.22
  -3  -4  -4  201.24   17.88
   3   4   4  240.73   17.60
   3   4   4  239.34   18.22
  -3  -4  -5    1.41    5.44
   3   4   5   -6.62    6.92
  -3  -4  -6    3.61    6.80
   3   4   6   -0.84    6.65
   3  -4   7   -6.34    6.96
  -3  -4  -7    1.38    6.77
   3   4   7   -1.24    7.12
  -3   4  -7   -3.77    6.21
   3  -4   8    0.51    5.98
  -3  -4  -8   -0.02    7.18
   3   4   8    2.45    7.22
  -3   4  -8    1.46    7.02
   3   4   9   41.54   11.29
  -3  -4  -9   21.46    8.70
  -3  -4 -10   15.32    8.40
  -3  -5   0    1.29    6.91
  -4   0  -5    3.17    2.84
   4   0   5   -0.79    2.19
   4   0   5    2.83    2.53
  -4   0  -5   -0.08    2.20
  -4   0  -5    0.71    2.24
   4   0   6  176.20   10.30
   4   0   6  180.28   11.34
   4   0   6  187.89   11.14
  -4   0  -6  171.42   10.21
  -4   0  -6  173.34   10.98
  -4   0  -6  187.71   11.29
   4   0   7   -0.94    2.72
  -4   0  -7    4.48    3.62
   4   0   7   -0.30    2.88
  -4   0  -7    2.09    3.12
  -4   0  -7    0.32    2.86
   4   0   7   -3.92    3.27
   4   0   7   -0.06    2.66
  -4   0  -7    3.47    3.03
   4   0   8   12.07    4.00
  -4   0  -8    4.55    3.88
  -4   0  -8    9.72    3.86
   4   0   8   17.38    4.81
  -4   0  -8    8.62    3.79
   4   0   8   12.32    4.78
   4   0   8   13.18    3.95
  -4   0  -8    9.82    3.98
  -4   0  -9   -3.65    4.60
   4   0   9   -1.96    4.07
  -4   0  -9   -2.70    3.87
   4   0   9   -7.48    5.00
   4   0   9   -6.62    3.98
  -4   0  -9   -2.49    4.00
  -4   0  -9    1.19    3.70
   4   0   9   -3.18    3.99
   4   0  10 1413.94   32.66
  -4   0 -10 1455.37   36.25
   4   0  10 1362.69   35.66
   4   0  10 1352.79   34.74
   4   0  10 1389.56   33.40
  -4   0 -10 1402.29   35.85
  -4   0 -10 1426.19   35.87
  -4   0 -10 1487.63   34.95
  -4   0 -11   -0.94    4.75
   4   0  11    5.24    4.73
  -4   0 -11   -3.44    3.93
  -4   0 -11    5.99    4.91
   4   0  11    2.47    5.15
   4   0  11   -2.15    4.17
  -4   0 -11    9.57    5.10
   4   0  11   -5.71    5.28
   4   0  12  135.89   13.56
   4   0  12  123.97   12.27
   4   0  12  127.26   11.68
  -4   0 -12  118.68   12.25
  -4   0 -12  132.48   12.96
  -4   0 -12  137.79   12.97
  -4   0 -13   -0.07    5.28
   4   0  13    8.40    7.23
   4   0  13   -7.89    6.34
  -4   0 -13    3.26    5.77
   4   0  13   -2.67    5.69
  -4   0 -13    4.90    6.23
  -4   0 -14   -0.61    5.60
   4   0  14   -4.16    6.53
   4   0  14   -8.66    5.99
  -4   0 -14   -9.25    6.65
   4   0  14    4.43    5.74
  -4   0 -14    8.75    6.61
   4   0  15   10.49    7.81
  -4   0 -15   -4.29    6.32
  -4   0 -15    4.56    6.77
   4   0  15    5.89    6.94
   4   1   4  186.21   10.74
  -4  -1  -4  189.07   11.19
   4   1   4  181.56   10.17
  -4  -1  -4  197.37   10.75
  -4  -1  -5    1.29    2.33
  -4  -1  -5    1.80    2.97
   4   1   5    3.05    2.78
   4   1   5    1.00    3.04
  -4  -1  -5   -0.06    2.58
   4   1   5    3.53    3.14
   4   1   6   79.64    8.14
  -4  -1  -6   71.92    7.70
   4   1   6   78.16    7.82
   4  -1   6   73.92    7.62
   4   1   6   73.17    7.30
   4  -1   6   60.82    7.21
  -4  -1  -6   75.73    7.56
  -4   1  -6   65.30    7.63
  -4   1  -6   82.36    8.18
  -4  -1  -6   70.10    7.29
   4   1   7   24.15    4.96
  -4  -1  -7   25.46    5.33
  -4   1  -7   18.85    4.98
   4  -1   7   20.78    4.82
  -4   1  -7   21.97    5.14
  -4  -1  -7   24.36    5.03
   4   1   7   23.08    5.55
  -4  -1  -7   23.93    4.96
  -4  -1  -7   21.64    5.17
   4   1   7   22.09    5.66
   4  -1   7   19.26    4.57
   4  -1   7   20.15    4.80
  -4   1  -7   23.68    5.51
  -4  -1  -8    0.78    2.96
  -4  -1  -8    1.49    3.95
   4  -1   8    4.72    4.16
  -4   1  -8    6.48    4.77
  -4   1  -8    3.13    3.60
   4   1   8    9.84    4.82
  -4  -1  -8    7.13    3.97
   4   1   8    4.75    4.18
   4  -1   8    4.39    4.81
   4  -1   8    4.82    3.37
  -4   1  -8    8.37    4.29
   4   1   8    3.08    3.37
   4  -1   9   36.03    6.59
  -4  -1  -9   39.42    6.94
  -4   1  -9   29.04    6.32
   4   1   9   37.77    6.73
  -4  -1  -9   37.11    6.70
   4   1   9   25.84    6.06
   4  -1   9   41.79    7.07
   4  -1   9   28.89    6.16
  -4  -1  -9   37.31    6.56
  -4   1  -9   26.34    5.88
  -4   1  -9   31.07    6.80
   4   1   9   29.50    6.20
   4   1  10   92.27   10.08
  -4  -1 -10   98.58   10.34
   4   1  10  100.43   10.67
   4  -1  10   90.66   10.31
   4   1  10   86.82    9.44
   4  -1  10   85.79   10.03
   4  -1  10   86.70    9.80
  -4  -1 -10   99.44   10.40
  -4  -1 -10  112.41   11.17
  -4   1 -10   91.63   10.20
  -4   1 -10   90.35   10.22
  -4   1 -10   91.10   10.13
   4   1  11  136.63   12.83
  -4  -1 -11  113.77   11.93
   4   1  11  119.73   12.08
   4  -1  11  118.04   11.50
   4   1  11  130.37   12.01
   4  -1  11  129.85   11.94
   4  -1  11  125.53   11.77
  -4  -1 -11  110.83   11.31
  -4  -1 -11  126.10   12.35
  -4   1 -11  131.93   12.35
  -4   1 -11  138.89   12.74
  -4   1 -11  126.50   12.01
  -4  -1 -12  282.52   18.60
   4   1  12  267.12   18.44
   4  -1  12  286.71   18.43
   4   1  12  270.08   18.00
   4  -1  12  258.31   17.56
   4  -1  12  249.59   17.05
  -4  -1 -12  253.58   17.74
  -4  -1 -12  296.04   19.37
  -4   1 -12  282.26   18.34
  -4   1 -12  286.58   18.47
  -4   1 -12  252.60   17.32
   4   1  12  280.48   18.16
   4   1  13   31.89    8.24
  -4  -1 -13   29.57    7.66
  -4  -1 -13   38.18    8.69
   4   1  13   41.34    9.34
   4  -1  13   40.93    9.21
   4  -1  13   37.78    8.38
  -4   1 -13   33.64    8.51
   4   1  13   35.41    8.69
  -4  -1 -13   42.12    9.28
  -4   1 -13   26.01    7.61
  -4   1 -13   22.87    7.35
   4  -1  13   32.64    7.99
   4   1  14   20.10    8.08
  -4  -1 -14   18.91    7.70
  -4  -1 -14    5.86    6.14
   4   1  14   11.28    7.76
   4  -1  14    3.18    6.84
   4  -1  14    7.90    6.39
  -4   1 -14   10.19    7.32
   4   1  14    8.20    7.42
  -4   1 -14    3.07    5.67
  -4  -1 -14    7.57    7.26
  -4   1 -14   -4.24    6.84
   4  -1  14   11.38    6.13
   4   1  15    0.55    7.11
  -4  -1 -15    4.30    7.32
  -4  -1 -15  -13.34    8.29
   4   1  15    6.38    8.95
   4  -1  15   -1.21    7.25
   4  -1  15    1.15    5.99
  -4   1 -15   -5.55    8.08
  -4   1 -15   -8.55    6.58
  -4  -1 -15    6.33    8.08
   4   1  15   15.05    7.66
  -4   1 -15   -4.71    7.28
   4  -1  15    5.86    6.96
   4   1  16   52.04   11.87
   4  -1  16   39.18   10.03
   4   2   3  485.18   17.79
  -4  -2  -3  473.79   19.19
  -4  -2  -3  474.74   18.43
  -4  -2  -3  495.10   16.96
  -4  -2  -4   -5.93    3.99
  -4  -2  -4   -2.45    3.45
  -4  -2  -5    5.38    3.81
  -4  -2  -5    0.34    3.19
   4   2   5    2.22    3.99
  -4  -2  -5   -3.03    3.32
  -4  -2  -6   46.14    6.57
   4   2   6   30.89    5.42
  -4  -2  -6   48.91    7.40
   4   2   6   41.15    7.10
  -4  -2  -6   39.84    6.61
   4   2   6   37.07    6.12
  -4  -2  -7   26.55    5.86
  -4  -2  -7   24.40    6.25
   4   2   7   22.45    5.25
  -4  -2  -7   14.54    5.17
   4   2   7   17.07    5.70
  -4  -2  -7   17.64    5.34
   4   2   7   20.38    5.31
   4  -2   7   27.42    6.09
   4  -2   7   13.09    4.85
   4   2   7   14.87    5.34
  -4   2  -7   20.08    6.09
   4   2   8   -4.86    4.49
  -4  -2  -8   22.76    7.60
   4  -2   8   -5.74    4.68
   4   2   8   -1.61    8.13
  -4  -2  -8   -6.32    8.94
  -4  -2  -8  -22.89    6.87
   4   2   8   15.91    7.21
   4  -2   8   -2.70    4.17
   4  -2   8    3.04    3.77
   4   2   8   -7.20    6.58
  -4   2  -8    3.91    4.89
   4   2   9   11.98    5.35
  -4  -2  -9   10.50    6.03
   4  -2   9   -0.67    4.34
  -4  -2  -9    6.29    4.43
   4   2   9    1.24    5.13
  -4  -2  -9    7.52    5.06
  -4  -2  -9   12.39    5.77
   4   2   9   12.75    5.71
   4  -2   9    4.03    4.75
   4  -2   9    8.65    4.94
   4   2   9   11.62    5.44
  -4   2  -9   11.77    6.32
   4   2  10  354.41   19.66
  -4  -2 -10  374.29   21.42
   4   2  10  390.28   19.95
   4  -2  10  324.79   19.64
  -4  -2 -10  377.68   20.96
  -4  -2 -10  354.26   19.30
  -4   2 -10  357.84   20.95
  -4   2 -10  291.96   19.16
   4  -2  10  326.68   19.67
   4   2  10  387.04   21.52
   4   2  11  122.82   13.05
  -4  -2 -11  109.62   12.77
   4   2  11  132.09   12.61
   4  -2  11  104.21   11.68
  -4  -2 -11  127.64   13.41
  -4  -2 -11  127.13   12.66
  -4   2 -11  112.96   13.20
  -4   2 -11  109.79   12.78
   4  -2  11   93.90   11.46
   4   2  11  122.22   13.03
   4   2  12    2.68    6.33
  -4  -2 -12   12.94    7.20
   4   2  12    5.62    6.97
   4  -2  12   -3.38    5.68
  -4  -2 -12   -2.00    5.67
  -4   2 -12   -0.77    6.49
  -4  -2 -12   -4.64    6.43
   4   2  12   16.33    6.29
   4   2  13   55.16   10.98
  -4  -2 -13   58.36   11.22
   4   2  13   59.12   11.37
  -4  -2 -13   43.80    9.49
   4  -2  13   63.62   10.78
  -4   2 -13   52.01   10.58
  -4  -2 -13   49.46   11.02
   4   2  13   43.03    9.11
   4   2  14   -4.11    7.99
  -4  -2 -14   -7.43    7.13
   4   2  14    9.79    8.52
  -4  -2 -14  -14.98    8.55
   4  -2  14   -4.16    7.12
  -4  -2 -14   -2.78    8.08
  -4   2 -14   -3.88    7.32
   4   2  14    3.65    6.85
  -4  -2 -15    7.02    8.76
   4   3   1 1097.02   27.87
  -4  -3  -1 1030.32   31.42
  -4  -3  -1 1079.30   31.35
   4   3   2  237.86   13.90
  -4  -3  -2  221.38   15.05
  -4  -3  -2  230.44   14.51
  -4  -3  -3    4.40    4.03
   4   3   3   -0.13    4.37
  -4  -3  -3    5.15    4.14
   4   3   4    5.56    4.83
  -4  -3  -4   -0.43    4.15
  -4  -3  -4    5.29    4.43
   4   3   5   -0.01    4.67
  -4  -3  -5   10.33    5.47
  -4  -3  -5   -7.51    4.94
   4   3   5   -2.14    5.39
   4   3   6   17.82    6.06
  -4  -3  -6    8.56    5.32
  -4  -3  -6   21.27    6.40
   4   3   6   14.29    6.61
   4   3   7   -0.59    5.75
  -4  -3  -7    9.11    5.68
  -4  -3  -7   10.90    5.43
   4   3   7    9.43    5.90
   4   3   8   14.10    6.69
  -4  -3  -8   33.43    8.28
  -4  -3  -8   18.88    6.88
   4   3   8   38.25    8.88
   4   3   9    5.65    6.44
  -4  -3  -9   20.53    7.77
  -4  -3  -9   18.81    7.26
   4   3   9    2.90    5.92
  -4   3  -9   14.42    7.48
  -4   3  -9   11.48    6.35
   4  -3  10   -0.36    5.58
   4   3  10   18.15    9.63
  -4  -3 -10   11.35    6.71
  -4  -3 -10   18.77    7.70
   4  -3  10    2.78    5.87
   4   3  10   22.84    9.16
  -4   3 -10   -3.44    9.84
  -4   3 -10   -8.04    8.00
  -4  -3 -11  149.48   16.96
  -4  -3 -11  170.62   18.18
   4  -3  11  116.68   14.14
  -4   3 -11  179.57   18.45
   4   3  11  139.85   15.01
  -4   3 -11  147.42   17.16
   4   3  11  181.45   17.93
   4  -3  12   16.90    9.95
   4  -3  12   48.44   10.90
  -4   3 -12   22.72    9.30
  -4  -4  -1   -6.69    5.43
  -4  -4  -1    4.25    4.82
   4   4   1    3.10    5.53
  -4  -4  -2   55.50    9.63
  -4  -4  -2   52.57    9.27
   4   4   2   58.56    9.13
   4   4   2   58.90   10.11
  -4  -4  -3   62.73   10.41
   4   4   3   49.15    9.36
   4   4   3   50.47    9.69
  -4  -4  -4   -6.46    6.02
   4   4   4   -1.03    7.05
  -4  -4  -5   -0.84    5.95
   4   4   5   10.18    7.03
  -4  -4  -6   -0.57    6.02
   4   4   6   -0.23    7.49
  -4  -4  -7    8.12    7.04
   4   4   7   17.47    8.75
   4   4   8   35.71   10.95
  -4  -4  -8   15.98    9.70
  -4  -4  -9    5.45    7.54
   5   0   8  357.85   16.35
   5   0   8  337.76   17.56
   5   0   8  361.59   18.00
  -5   0  -8  340.53   16.22
  -5   0  -8  356.69   17.84
  -5   0  -8  359.56   18.11
  -5   0  -9    0.83    4.75
   5   0   9   -2.09    4.07
   5   0   9    5.65    4.43
  -5   0  -9    2.59    3.57
   5   0   9    1.38    4.59
  -5   0  -9   -6.60    4.82
   5   0  10  702.01   24.70
   5   0  10  692.26   26.78
   5   0  10  678.55   26.15
   5   0  10  688.30   24.99
  -5   0 -10  668.59   26.30
  -5   0 -10  744.56   26.41
  -5   0 -10  728.36   27.55
  -5   0 -11    1.93    5.14
   5   0  11    5.41    4.82
   5   0  11   -7.22    6.47
   5   0  11   -3.11    4.71
  -5   0 -11   -7.50    5.64
  -5   0 -11   -2.60    4.58
  -5   0 -12   -3.00    5.87
   5   0  12   13.70    6.63
   5   0  12    6.56    6.10
   5   0  12    7.39    5.62
  -5   0 -12    5.22    5.13
  -5   0 -12    7.86    6.60
  -5   0 -13   -5.58    6.22
   5   0  13    4.88    5.56
   5   0  13   -0.73    6.61
  -5   0 -13   -3.39    6.04
   5   0  13   -3.38    5.01
  -5   0 -13    7.35    6.44
   5   0  14   66.71   11.25
  -5   0 -14   62.12   10.89
   5   0  14   75.33   12.39
  -5   0 -14   63.71   11.32
  -5  -1  -7   -7.42    4.24
   5   1   7    0.44    3.94
  -5  -1  -7    1.61    3.47
  -5  -1  -7   -0.96    3.23
   5   1   7    3.92    4.41
   5   1   8 2163.70   43.87
  -5  -1  -8 2167.58   46.10
   5   1   8 2139.09   43.37
   5   1   8 2076.23   42.44
  -5  -1  -8 2165.23   44.10
  -5  -1  -8 2105.14   43.30
   5   1   9  121.50   11.66
  -5  -1  -9   96.31   10.91
   5   1   9  113.16   11.31
   5  -1   9  112.00   11.20
   5   1   9  105.14   10.52
  -5  -1  -9  106.41   11.13
  -5   1  -9  101.42   11.04
  -5   1  -9  110.12   11.58
  -5  -1  -9  101.04   10.32
   5   1  10   79.40   10.10
   5   1  10   88.08   10.76
  -5  -1 -10   71.36    9.66
   5   1  10   75.08    9.49
   5  -1  10   83.80   10.26
   5  -1  10   69.33    9.24
   5  -1  10   73.75    9.58
  -5  -1 -10   77.53   10.51
  -5   1 -10   82.52   10.44
  -5   1 -10   88.66   10.73
  -5  -1 -10   67.56    9.44
  -5   1 -10   82.42   10.49
  -5  -1 -11    4.50    6.19
   5   1  11   -2.91    5.20
  -5   1 -11    4.19    6.02
   5  -1  11    8.66    5.54
   5   1  11   10.98    6.11
  -5  -1 -11    0.43    4.58
   5   1  11    4.74    6.06
   5  -1  11    2.74    5.39
   5  -1  11   -3.45    4.88
  -5  -1 -11   15.04    5.59
  -5   1 -11   -2.50    5.21
  -5   1 -11   -0.05    4.41
  -5  -1 -12   -6.43    7.02
   5   1  12  -11.26    6.35
  -5   1 -12   -3.66    6.23
   5  -1  12    1.09    5.15
   5   1  12   -0.82    6.00
  -5  -1 -12    3.26    5.03
  -5  -1 -12   -2.44    4.83
   5   1  12    9.12    7.35
   5  -1  12    4.35    5.66
   5  -1  12    6.95    5.68
  -5   1 -12   -8.52    6.07
  -5   1 -12   -3.23    6.19
  -5   1 -13   -1.28    6.29
   5   1  13    1.50    5.70
   5  -1  13  -11.67    6.72
   5   1  13    5.87    6.90
  -5   1 -13   -2.11    5.15
  -5  -1 -13    5.02    5.92
  -5  -1 -13    0.32    5.58
   5   1  13    5.24    6.74
   5  -1  13   -3.88    6.56
   5  -1  13  -15.84    7.41
  -5   1 -13   13.36    7.92
  -5  -1 -13   -0.72    6.75
   5   1  14   68.77   11.51
   5  -1  14   53.99   10.85
   5   1  14   73.07   11.92
  -5   1 -14   53.79   10.93
  -5  -1 -14   52.59   10.80
  -5  -1 -14   55.43   10.71
   5   1  14   72.95   12.59
   5  -1  14   90.48   13.04
   5  -1  14   67.07   10.89
  -5   1 -14   63.45   11.61
  -5  -1 -14   72.90   12.44
  -5   1 -14   80.41   13.11
   5   1  15   -0.90    7.71
  -5  -1 -15    7.71    7.30
  -5  -2  -5   13.92    5.08
  -5  -2  -6   11.13    4.56
   5   2   6   11.90    5.51
  -5  -2  -6    5.32    4.05
   5   2   7   73.23    9.61
  -5  -2  -7   76.19    9.98
  -5  -2  -7   82.87    9.93
  -5  -2  -8   49.90    8.54
   5   2   8   26.83    7.18
  -5  -2  -8   36.57    7.92
  -5  -2  -8   35.19    7.77
   5   2   8   27.62    6.61
  -5  -2  -9   46.69    8.81
   5   2   9   38.73    7.89
   5   2   9   39.61    8.08
  -5  -2  -9   44.61    8.52
   5   2   9   48.35    8.36
   5   2  10  167.63   15.48
  -5  -2 -10  161.00   15.09
   5   2  10  157.41   14.10
   5   2  10  152.58   13.64
  -5  -2 -10  149.62   14.47
   5   2  11   74.45   10.61
   5   2  11   63.46   10.57
  -5  -2 -11   29.41    8.45
   5   2  11   59.80   10.68
   5  -2  11   46.84    9.37
  -5   2 -11   53.52   10.36
  -5  -2 -11   65.64   11.37
   5   2  12   -4.11    6.01
   5   2  12  -12.09    7.74
  -5  -2 -12    4.26    6.01
   5   2  12   -2.16    6.45
   5  -2  12    4.10    6.60
  -5   2 -12   18.36    8.86
  -5  -2 -12   -0.12    6.72
   5   2  13    4.74    6.77
   5   2  13    0.10    7.40
  -5  -2 -13   -4.52    6.76
   5   2  13    0.26    7.37
   5  -2  13   14.95    7.63
  -5  -2 -13   16.50    9.05
   5   2  14    4.12    7.96
   5   3   5   -1.19    5.19
  -5  -3  -5    3.04    4.94
   5   3   6   -1.95    5.23
  -5  -3  -6   -0.41    4.71
  -5  -3  -6   -5.39    5.37
   5   3   6   -9.49    6.36
   5   3   7    4.64    6.26
  -5  -3  -7   -3.24    6.00
  -5  -3  -7    0.40    4.66
   5   3   7    3.12    6.40
   5   3   8  135.80   14.28
  -5  -3  -8  138.78   14.83
  -5  -3  -8  171.60   16.69
   5   3   8  147.91   14.45
   5   3   9   73.57   11.55
  -5  -3  -9   73.93   12.10
  -5  -3  -9   67.99   12.05
   5   3   9   69.20   11.07
   5   3  10    5.61    7.35
  -5  -3 -10   -8.96    7.04
  -5  -3 -10    7.35    7.30
   5   3  10    7.17    7.37
  -5  -4  -5   -7.33    6.89
   5   4   5   15.52    7.66
  -6   0 -12   82.01   12.31
  -6   0 -12   80.40   12.00
  -6   0 -13   -5.40    6.93
   6   0  13   -4.06    6.10
  -6   0 -13   -5.43    6.52
   6   0  13   -3.12    7.14
  -6  -1 -11   14.24    7.25
   6   1  11    4.74    6.08
   6   1  11    6.93    6.98
  -6  -1 -12   52.67   10.94
   6   1  12   53.66   10.24
   6   1  12   51.29   10.06
   6   1  12   40.31    9.64
  -6  -1 -12   37.01    8.74
   6   1  13   11.32    7.63
   6   1  13    2.94    5.80
  -6  -1 -13   12.31    6.98
  -6  -1 -13   -1.83    5.97
   6   1  13    5.66    7.25
  -6  -2 -10  -10.57    7.37
   6   2  10   -7.08    6.74
  -6  -2 -10    1.66    5.40
  -6  -2 -11    8.60    7.04
   6   2  11    3.51    6.50
  -6  -2 -11   17.16    6.78
  -6  -2 -12   29.65    9.69
   0   0   0    0.00    0.00


TITL dipropyl_ether_phase_alpha_2_10GPa in P2(1)/c
REM P2(1)/c (#14 in standard setting)
CELL 0.71073   9.367921   4.122853  15.434341  90.0000 100.8358  90.0000
ZERR    4.00   0.008175   0.000417   0.004261   0.0000   0.0554   0.0000
LATT  1
SYMM -x, y+1/2,-z+1/2
SFAC C H O
UNIT 24.00 56.00 4.00
TREF
HKLF 4
END
_computing_structure_solution     'SHELXT 2018/2 (Sheldrick, 2018)'
;
_shelx_hkl_checksum              56318
_olex2_submission_special_instructions 'No special instructions were received'
loop_
_space_group_symop_operation_xyz
'x, y, z'
'-x, y+1/2, -z+1/2'
'-x, -y, -z'
'x, -y-1/2, z-1/2'
loop_
_atom_site_label
_atom_site_type_symbol
_atom_site_fract_x
_atom_site_fract_y
_atom_site_fract_z
_atom_site_U_iso_or_equiv
_atom_site_adp_type
_atom_site_occupancy
_atom_site_site_symmetry_order
_atom_site_calc_flag
_atom_site_refinement_flags_posn
_atom_site_refinement_flags_adp
_atom_site_refinement_flags_occupancy
_atom_site_disorder_assembly
_atom_site_disorder_group
O1 O 0.4584(5) 0.8479(5) 0.1318(2) 0.060(4) Uani 1 1 d . . . . .
C1 C 0.3745(8) 0.7127(7) 0.0543(3) 0.050(5) Uani 1 1 d . . . . .
H11 H 0.379792 0.477886 0.057313 0.060 Uiso 1 1 calc R U . . .
H12 H 0.412771 0.782871 0.003253 0.060 Uiso 1 1 calc R U . . .
C2 C 0.2200(8) 0.8189(7) 0.0454(3) 0.051(6) Uani 1 1 d . . . . .
H22 H 0.216710 1.052744 0.051755 0.061 Uiso 1 1 calc R U . . .
H21 H 0.178157 0.722236 0.092211 0.061 Uiso 1 1 calc R U . . .
C3 C 0.1293(10) 0.7207(8) -0.0443(3) 0.067(6) Uani 1 1 d . . . . .
H33 H 0.030640 0.790486 -0.047620 0.100 Uiso 1 1 calc R U . . .
H31 H 0.131747 0.489262 -0.050547 0.100 Uiso 1 1 calc R U . . .
H32 H 0.168837 0.821113 -0.090695 0.100 Uiso 1 1 calc R U . . .
C4 C 0.6019(8) 0.7218(7) 0.1489(3) 0.052(6) Uani 1 1 d . . . . .
H41 H 0.652655 0.790134 0.102695 0.062 Uiso 1 1 calc R U . . .
H42 H 0.598404 0.486637 0.148855 0.062 Uiso 1 1 calc R U . . .
C5 C 0.6824(8) 0.8402(7) 0.2367(3) 0.057(6) Uani 1 1 d . . . . .
H52 H 0.636847 0.753664 0.283253 0.069 Uiso 1 1 calc R U . . .
H51 H 0.676855 1.074957 0.238738 0.069 Uiso 1 1 calc R U . . .
C6 C 0.8411(8) 0.7362(8) 0.2522(3) 0.068(6) Uani 1 1 d . . . . .
H63 H 0.891490 0.826082 0.306852 0.101 Uiso 1 1 calc R U . . .
H61 H 0.885090 0.813085 0.204682 0.101 Uiso 1 1 calc R U . . .
H62 H 0.846918 0.503821 0.254860 0.101 Uiso 1 1 calc R U . . .
loop_
_atom_site_aniso_label
_atom_site_aniso_U_11
_atom_site_aniso_U_22
_atom_site_aniso_U_33
_atom_site_aniso_U_23
_atom_site_aniso_U_13
_atom_site_aniso_U_12
O1 0.071(9) 0.0434(13) 0.052(3) -0.0083(11) -0.019(5) 0.0061(17)
C1 0.063(12) 0.0385(17) 0.041(3) 0.0000(16) -0.011(6) 0.002(3)
C2 0.063(13) 0.0423(18) 0.043(4) -0.0001(16) -0.003(7) 0.000(3)
C3 0.091(13) 0.050(2) 0.047(4) -0.0013(18) -0.016(7) 0.002(3)
C4 0.059(12) 0.0393(18) 0.048(4) 0.0046(16) -0.012(6) -0.001(3)
C5 0.069(13) 0.0419(17) 0.051(4) 0.0003(17) -0.016(7) -0.001(3)
C6 0.083(13) 0.051(2) 0.055(4) 0.0028(18) -0.023(7) -0.003(3)
loop_
_atom_type_symbol
_atom_type_description
_atom_type_scat_dispersion_real
_atom_type_scat_dispersion_imag
_atom_type_scat_source
C C 0.0033 0.0016 'International Tables Vol C Tables 4.2.6.8 and 6.1.1.4'
H H 0.0000 0.0000 'International Tables Vol C Tables 4.2.6.8 and 6.1.1.4'
O O 0.0106 0.0060 'International Tables Vol C Tables 4.2.6.8 and 6.1.1.4'
loop_
_geom_angle_atom_site_label_1
_geom_angle_atom_site_label_2
_geom_angle_atom_site_label_3
_geom_angle
_geom_angle_site_symmetry_1
_geom_angle_site_symmetry_3
_geom_angle_publ_flag
C1 O1 C4 111.6(4) . . ?
O1 C1 H11 109.7 . . ?
O1 C1 H12 109.7 . . ?
O1 C1 C2 109.7(5) . . ?
H11 C1 H12 108.2 . . ?
C2 C1 H11 109.7 . . ?
C2 C1 H12 109.7 . . ?
C1 C2 H22 109.3 . . ?
C1 C2 H21 109.3 . . ?
C1 C2 C3 111.6(6) . . ?
H22 C2 H21 108.0 . . ?
C3 C2 H22 109.3 . . ?
C3 C2 H21 109.3 . . ?
C2 C3 H33 109.5 . . ?
C2 C3 H31 109.5 . . ?
C2 C3 H32 109.5 . . ?
H33 C3 H31 109.5 . . ?
H33 C3 H32 109.5 . . ?
H31 C3 H32 109.5 . . ?
O1 C4 H41 109.6 . . ?
O1 C4 H42 109.6 . . ?
O1 C4 C5 110.2(5) . . ?
H41 C4 H42 108.1 . . ?
C5 C4 H41 109.6 . . ?
C5 C4 H42 109.6 . . ?
C4 C5 H52 109.4 . . ?
C4 C5 H51 109.4 . . ?
C4 C5 C6 111.1(5) . . ?
H52 C5 H51 108.0 . . ?
C6 C5 H52 109.4 . . ?
C6 C5 H51 109.4 . . ?
C5 C6 H63 109.5 . . ?
C5 C6 H61 109.5 . . ?
C5 C6 H62 109.5 . . ?
H63 C6 H61 109.5 . . ?
H63 C6 H62 109.5 . . ?
H61 C6 H62 109.5 . . ?
loop_
_geom_bond_atom_site_label_1
_geom_bond_atom_site_label_2
_geom_bond_distance
_geom_bond_site_symmetry_2
_geom_bond_publ_flag
O1 C1 1.416(4) . ?
O1 C4 1.419(8) . ?
C1 H11 0.9700 . ?
C1 H12 0.9700 . ?
C1 C2 1.493(10) . ?
C2 H22 0.9700 . ?
C2 H21 0.9700 . ?
C2 C3 1.536(4) . ?
C3 H33 0.9600 . ?
C3 H31 0.9600 . ?
C3 H32 0.9600 . ?
C4 H41 0.9700 . ?
C4 H42 0.9700 . ?
C4 C5 1.504(4) . ?
C5 H52 0.9700 . ?
C5 H51 0.9700 . ?
C5 C6 1.523(9) . ?
C6 H63 0.9600 . ?
C6 H61 0.9600 . ?
C6 H62 0.9600 . ?
loop_
_geom_torsion_atom_site_label_1
_geom_torsion_atom_site_label_2
_geom_torsion_atom_site_label_3
_geom_torsion_atom_site_label_4
_geom_torsion
_geom_torsion_site_symmetry_1
_geom_torsion_site_symmetry_2
_geom_torsion_site_symmetry_3
_geom_torsion_site_symmetry_4
_geom_torsion_publ_flag
O1 C1 C2 C3 171.5(4) . . . . ?
O1 C4 C5 C6 -174.2(4) . . . . ?
C1 O1 C4 C5 -173.4(4) . . . . ?
C4 O1 C1 C2 172.7(4) . . . . ?
