#------------------------------------------------------------------------------
#$Date: 2024-02-04 13:31:42 +0200 (Sun, 04 Feb 2024) $
#$Revision: 289418 $
#$URL: file:///home/coder/svn-repositories/cod/cif/1/57/05/1570510.cif $
#------------------------------------------------------------------------------
#
# This file is available in the Crystallography Open Database (COD),
# http://www.crystallography.net/
#
# All data on this site have been placed in the public domain by the
# contributors.
#
data_1570510
loop_
_publ_author_name
'Wang, Hui'
'Liu, Hui'
'Wang, Mingsen'
'Hou, Jiaheng'
'Li, Yongjun'
'Wang, Yuancheng'
'Zhao, Yingjie'
_publ_section_title
;
 Cucurbituril-based supramolecular host-guest complexes: single-crystal
 structures and dual-state fluorescence enhancement.
;
_journal_issue                   2
_journal_name_full               'Chemical science'
_journal_page_first              458
_journal_page_last               465
_journal_paper_doi               10.1039/d3sc04813f
_journal_volume                  15
_journal_year                    2024
_chemical_formula_sum            'C60 H46 N4'
_chemical_formula_weight         823.01
_chemical_name_common            S5
_chemical_name_systematic        S5
_space_group_crystal_system      monoclinic
_space_group_IT_number           14
_space_group_name_Hall           '-P 2yn'
_space_group_name_H-M_alt        'P 1 21/n 1'
_atom_sites_solution_hydrogens   geom
_atom_sites_solution_primary     direct
_audit_creation_method
;FinalCif V118 by Daniel Kratzert, Freiburg 2023,
https://dkratzert.de/finalcif.html
;
_audit_update_record
;
2023-07-31 deposited with the CCDC.	2023-11-29 downloaded from the CCDC.
;
_cell_angle_alpha                90
_cell_angle_beta                 91.258(5)
_cell_angle_gamma                90
_cell_formula_units_Z            2
_cell_length_a                   15.447(2)
_cell_length_b                   5.8857(6)
_cell_length_c                   29.629(4)
_cell_measurement_reflns_used    1152
_cell_measurement_temperature    296(2)
_cell_measurement_theta_max      22.7445
_cell_measurement_theta_min      2.424
_cell_volume                     2693.1(6)
_computing_cell_refinement       'SAINT V8.40B'
_computing_data_collection
'Bruker BIS V6.2.16/2021-10-23 && APEX4 2022.10-0'
_computing_data_reduction        'SAINT V8.40B'
_computing_structure_refinement  'SHELXL-2019/2 (Sheldrick, 2019)'
_computing_structure_solution    'SHELXT 2018/2 (Sheldrick, 2018)'
_diffrn_ambient_environment      N~2~
_diffrn_ambient_temperature      296(2)
_diffrn_detector                 CPAD
_diffrn_detector_area_resol_mean 7.41
_diffrn_detector_type            'Bruker PHOTON III'
_diffrn_measured_fraction_theta_full 0.994
_diffrn_measured_fraction_theta_max 0.995
_diffrn_measurement_device       'three-circle diffractometer'
_diffrn_measurement_device_type  'Bruker D8 VENTURE dual wavelength Mo/Cu'
_diffrn_measurement_method       '\w and \f scans'
_diffrn_measurement_specimen_support 'MiTeGen micromount'
_diffrn_radiation_monochromator  'mirror optics'
_diffrn_radiation_probe          x-ray
_diffrn_radiation_type           MoK\a
_diffrn_radiation_wavelength     0.71073
_diffrn_reflns_av_R_equivalents  0.1242
_diffrn_reflns_av_unetI/netI     0.1119
_diffrn_reflns_Laue_measured_fraction_full 0.994
_diffrn_reflns_Laue_measured_fraction_max 0.995
_diffrn_reflns_limit_h_max       20
_diffrn_reflns_limit_h_min       -20
_diffrn_reflns_limit_k_max       7
_diffrn_reflns_limit_k_min       -7
_diffrn_reflns_limit_l_max       38
_diffrn_reflns_limit_l_min       -38
_diffrn_reflns_number            22774
_diffrn_reflns_point_group_measured_fraction_full 0.994
_diffrn_reflns_point_group_measured_fraction_max 0.995
_diffrn_reflns_theta_full        25.242
_diffrn_reflns_theta_max         27.622
_diffrn_reflns_theta_min         2.424
_diffrn_source                   'microfocus sealed X-ray tube'
_diffrn_source_current           1.4
_diffrn_source_type              'Incoatec I\ms'
_diffrn_source_voltage           50.0
_exptl_absorpt_coefficient_mu    0.059
_exptl_absorpt_correction_T_max  0.7456
_exptl_absorpt_correction_T_min  0.6451
_exptl_absorpt_correction_type   multi-scan
_exptl_absorpt_process_details
;SADABS-2016/2 - Bruker AXS area detector scaling and absorption correction:
Krause, L., Herbst-Irmer, R., Sheldrick G.M. & Stalke D., J. Appl. Cryst. 48
(2015) 3-10
;
_exptl_crystal_colour            colourless
_exptl_crystal_density_diffrn    1.015
_exptl_crystal_description       block
_exptl_crystal_F_000             868
_exptl_crystal_size_max          0.150
_exptl_crystal_size_mid          0.100
_exptl_crystal_size_min          0.100
_refine_diff_density_max         0.319
_refine_diff_density_min         -0.227
_refine_diff_density_rms         0.054
_refine_ls_extinction_method     none
_refine_ls_goodness_of_fit_ref   1.011
_refine_ls_hydrogen_treatment    constr
_refine_ls_matrix_type           full
_refine_ls_number_parameters     290
_refine_ls_number_reflns         6236
_refine_ls_number_restraints     0
_refine_ls_restrained_S_all      1.011
_refine_ls_R_factor_all          0.1365
_refine_ls_R_factor_gt           0.0714
_refine_ls_shift/su_max          0.000
_refine_ls_shift/su_mean         0.000
_refine_ls_structure_factor_coef Fsqd
_refine_ls_weighting_details
'w=1/[\s^2^(Fo^2^)+(0.1128P)^2^] where P=(Fo^2^+2Fc^2^)/3'
_refine_ls_weighting_scheme      calc
_refine_ls_wR_factor_gt          0.1903
_refine_ls_wR_factor_ref         0.2350
_reflns_Friedel_coverage         0.000
_reflns_number_gt                3179
_reflns_number_total             6236
_reflns_threshold_expression     'I > 2\s(I)'
_cod_data_source_file            d3sc04813f2.cif
_cod_data_source_block           4N_0m_sq
_cod_depositor_comments
'Adding full bibliography for 1570510--1570512.cif.'
_cod_original_sg_symbol_H-M      'P 21/n'
_cod_database_code               1570510
_shelx_shelxl_version_number     2019/2
_shelx_space_group_comment
;
The symmetry employed for this shelxl refinement is uniquely defined
by the following loop, which should always be used as a source of
symmetry information in preference to the above space-group names.
They are only intended as comments.
;
_shelx_estimated_absorpt_t_min   0.991
_shelx_estimated_absorpt_t_max   0.994
_diffrn_measurement_ambient_temperature_device_make 'Oxford Cryostream 800'
_shelx_res_file
;
TITL 4n_0m_a.res in P2(1)/n
    4N_0m_sq.res
    created by SHELXL-2019/2 at 22:15:15 on 30-Jul-2023
REM Old TITL 4n_0m_a.res in P2(1)/n
REM SHELXT solution in P2(1)/n: R1 0.290, Rweak 0.076, Alpha 0.068
REM <I/s> 0.463 for 561 systematic absences, Orientation as input
REM Formula found by SHELXT: C31 N
CELL 0.71073 15.4466 5.8857 29.6291 90 91.258 90
ZERR 2 0.002 0.0006 0.0042 0 0.005 0
LATT 1
SYMM 0.5-X,0.5+Y,0.5-Z
SFAC C H N
UNIT 120 92 8

L.S. 5 0   41
PLAN  34
TEMP 23
CONF
BOND
list 4
acta
size 0.15 0.1 0.1
fmap 2
MORE -1
ACTA

ABIN
WGHT    0.112800
FVAR       1.14461
C1    1    0.351062    0.887915    0.807113    11.00000    0.04043    0.05494 =
         0.03055   -0.00073   -0.00004   -0.00572
C2    1    0.371643    1.053236    0.839547    11.00000    0.05930    0.06833 =
         0.03439   -0.00923    0.00889   -0.01441
AFIX  43
H2    2    0.396236    1.190261    0.830884    11.00000   -1.20000
AFIX   0
C3    1    0.355345    1.012367    0.884413    11.00000    0.06076    0.09160 =
         0.04017   -0.01604    0.00517   -0.02241
AFIX  43
H3    2    0.370150    1.124663    0.905272    11.00000   -1.20000
AFIX   0
C4    1    0.298403    0.664521    0.868417    11.00000    0.06078    0.07339 =
         0.03447    0.00713    0.00280   -0.00852
AFIX  43
H4    2    0.273009    0.529895    0.877865    11.00000   -1.20000
AFIX   0
C5    1    0.312433    0.692965    0.822705    11.00000    0.05737    0.05603 =
         0.02861    0.00101    0.00108   -0.01164
AFIX  43
H5    2    0.295662    0.579738    0.802440    11.00000   -1.20000
AFIX   0
C6    1    0.371246    0.929324    0.759912    11.00000    0.04738    0.05101 =
         0.03069    0.00229    0.00044   -0.01107
AFIX  43
H6    2    0.396378    1.068883    0.753486    11.00000   -1.20000
AFIX   0
C7    1    0.357835    0.790500    0.725055    11.00000    0.04249    0.04112 =
         0.02825    0.00375    0.00009   -0.00521
AFIX  43
H7    2    0.330278    0.653422    0.730859    11.00000   -1.20000
AFIX   0
C8    1    0.382411    0.833390    0.678411    11.00000    0.03570    0.03512 =
         0.02293    0.00283   -0.00302   -0.00002
C9    1    0.369298    0.669278    0.645233    11.00000    0.04544    0.02986 =
         0.02923    0.00266   -0.00432   -0.00381
AFIX  43
H9    2    0.342250    0.533671    0.652723    11.00000   -1.20000
AFIX   0
C10   1    0.395538    0.702515    0.601180    11.00000    0.04884    0.02950 =
         0.02406   -0.00441   -0.00517   -0.00051
AFIX  43
H10   2    0.386514    0.588157    0.579933    11.00000   -1.20000
AFIX   0
C11   1    0.434993    0.903504    0.588343    11.00000    0.03511    0.02714 =
         0.01975   -0.00133   -0.00827    0.00458
C12   1    0.445939    1.071350    0.621604    11.00000    0.04365    0.02847 =
         0.02303   -0.00179   -0.00304   -0.00316
AFIX  43
H12   2    0.470438    1.209751    0.613742    11.00000   -1.20000
AFIX   0
C13   1    0.421591    1.037678    0.665453    11.00000    0.04766    0.03089 =
         0.02051   -0.00466   -0.00010   -0.00478
AFIX  43
H13   2    0.431187    1.151486    0.686755    11.00000   -1.20000
AFIX   0
C14   1    0.467110    0.946803    0.542401    11.00000    0.03495    0.02700 =
         0.01715   -0.00332   -0.00533    0.00280
C15   1    0.581388    0.918049    0.487375    11.00000    0.03695    0.02689 =
         0.02167   -0.00436   -0.00819    0.00557
C16   1    0.547763    0.861168    0.529527    11.00000    0.03647    0.02660 =
         0.01803   -0.00266   -0.00836    0.00527
C17   1    0.673388    0.853606    0.474986    11.00000    0.03778    0.04302 =
         0.02801    0.00039   -0.00379    0.00902
AFIX 137
H17A  2    0.701069    0.981439    0.461273    11.00000   -1.50000
H17B  2    0.671699    0.728793    0.454127    11.00000   -1.50000
H17C  2    0.705368    0.809979    0.501750    11.00000   -1.50000
AFIX   0
C18   1    0.597787    0.705054    0.560388    11.00000    0.03553    0.03169 =
         0.02194    0.00086   -0.00601    0.00490
C19   1    0.618204    0.487176    0.545556    11.00000    0.05183    0.03150 =
         0.02397   -0.00367   -0.01480    0.00863
AFIX  43
H19   2    0.597233    0.437719    0.517581    11.00000   -1.20000
AFIX   0
C20   1    0.669044    0.343715    0.571730    11.00000    0.06115    0.03148 =
         0.03200   -0.00505   -0.01511    0.01478
AFIX  43
H20   2    0.683363    0.201078    0.560638    11.00000   -1.20000
AFIX   0
C21   1    0.699300    0.408466    0.614419    11.00000    0.04802    0.03240 =
         0.02887    0.00252   -0.01494    0.01068
C22   1    0.676981    0.624834    0.629766    11.00000    0.04840    0.03896 =
         0.02208   -0.00230   -0.01615    0.00948
AFIX  43
H22   2    0.695875    0.672290    0.658255    11.00000   -1.20000
AFIX   0
C23   1    0.627107    0.769231    0.603065    11.00000    0.04260    0.03239 =
         0.02476   -0.00329   -0.01067    0.00925
AFIX  43
H23   2    0.612961    0.912336    0.613982    11.00000   -1.20000
AFIX   0
C24   1    0.754624    0.252631    0.640848    11.00000    0.05152    0.03663 =
         0.03501    0.00340   -0.01546    0.00998
AFIX  43
H24   2    0.771713    0.120380    0.626357    11.00000   -1.20000
AFIX   0
C25   1    0.783067    0.279613    0.683282    11.00000    0.05100    0.03928 =
         0.03454    0.00630   -0.01240    0.01310
AFIX  43
H25   2    0.763654    0.406032    0.698940    11.00000   -1.20000
AFIX   0
C26   1    0.842656    0.124923    0.707109    11.00000    0.03944    0.03850 =
         0.03302    0.01026   -0.00779    0.00397
C27   1    0.867102   -0.084165    0.690410    11.00000    0.05876    0.04239 =
         0.04450    0.00093   -0.01865    0.00920
AFIX  43
H27   2    0.844083   -0.135978    0.663029    11.00000   -1.20000
AFIX   0
C28   1    0.925636   -0.215366    0.714462    11.00000    0.05629    0.04864 =
         0.05558    0.00783   -0.01474    0.01455
AFIX  43
H28   2    0.941599   -0.353955    0.702071    11.00000   -1.20000
AFIX   0
C29   1    0.935611    0.040522    0.770274    11.00000    0.04583    0.07036 =
         0.03953    0.01013   -0.01501    0.00714
AFIX  43
H29   2    0.958941    0.085132    0.798088    11.00000   -1.20000
AFIX   0
C30   1    0.877714    0.185241    0.749183    11.00000    0.04633    0.04854 =
         0.03219    0.00460   -0.00788    0.00621
AFIX  43
H30   2    0.862186    0.321257    0.762778    11.00000   -1.20000
AFIX   0
N1    3    0.319506    0.820894    0.899799    11.00000    0.05553    0.09292 =
         0.03993   -0.00183    0.00099   -0.01680
N2    3    0.960683   -0.158502    0.753822    11.00000    0.05154    0.06427 =
         0.04992    0.01488   -0.01204    0.01743
HKLF 4




REM  4n_0m_a.res in P2(1)/n
REM wR2 = 0.2350, GooF = S = 1.011, Restrained GooF = 1.011 for all data
REM R1 = 0.0714 for 3179 Fo > 4sig(Fo) and 0.1365 for all 6236 data
REM 290 parameters refined using 0 restraints

END

WGHT      0.1133      0.0000

REM Highest difference peak  0.319,  deepest hole -0.227,  1-sigma level  0.054
Q1    1   0.3596  0.5889  0.8961  11.00000  0.05    0.32
Q2    1   0.3801  0.7394  0.8072  11.00000  0.05    0.29
Q3    1   0.9328 -0.0020  0.6687  11.00000  0.05    0.29
Q4    1   0.5609  0.8835  0.5397  11.00000  0.05    0.25
Q5    1   0.5041  0.9161  0.5336  11.00000  0.05    0.22
Q6    1   0.5013  1.0300  0.6845  11.00000  0.05    0.21
Q7    1   0.4084  0.7893  0.7655  11.00000  0.05    0.21
Q8    1   0.5773  0.7819  0.5466  11.00000  0.05    0.20
Q9    1   0.3638  0.5994  0.7270  11.00000  0.05    0.20
Q10   1   0.6805 -0.0464  0.5540  11.00000  0.05    0.20
Q11   1   0.7238  0.7201  0.4580  11.00000  0.05    0.19
Q12   1   0.6124  0.8998  0.4818  11.00000  0.05    0.19
Q13   1   0.5763  0.9177  0.5136  11.00000  0.05    0.19
Q14   1   0.7634  0.5641  0.7318  11.00000  0.05    0.19
Q15   1   0.5424  1.0334  0.5504  11.00000  0.05    0.19
Q16   1   0.3853  0.9200  0.6658  11.00000  0.05    0.18
Q17   1   0.9827 -0.1165  0.7131  11.00000  0.05    0.18
Q18   1   0.8011 -0.2642  0.7424  11.00000  0.05    0.18
Q19   1   0.4379  0.8037  0.6024  11.00000  0.05    0.17
Q20   1   0.9740  0.1381  0.6985  11.00000  0.05    0.17
Q21   1   0.3755  0.6398  0.7524  11.00000  0.05    0.17
Q22   1   0.3841  1.1767  0.6919  11.00000  0.05    0.17
Q23   1   0.4439  0.8365  0.8310  11.00000  0.05    0.17
Q24   1   0.2665  0.5172  0.6866  11.00000  0.05    0.17
Q25   1   0.5029  0.8183  0.4987  11.00000  0.05    0.17
Q26   1   0.3794  1.2165  0.8951  11.00000  0.05    0.16
Q27   1   0.4756  0.7193  0.8113  11.00000  0.05    0.16
Q28   1   0.2747  0.5096  0.9262  11.00000  0.05    0.16
Q29   1   0.4391  0.9048  0.8596  11.00000  0.05    0.16
Q30   1   0.4533  0.9259  0.6683  11.00000  0.05    0.16
Q31   1   0.3766  1.3226  0.7487  11.00000  0.05    0.16
Q32   1   0.8890 -0.0935  0.7738  11.00000  0.05    0.16
Q33   1   0.7018  0.3091  0.6298  11.00000  0.05    0.16
Q34   1   0.8411  0.4602  0.7759  11.00000  0.05    0.15
;
_shelx_res_checksum              83754
_shelx_fab_file
;
    2    0    0     54.88      0.00
    6    0    0    -35.28      0.00
    8    0    0      3.91      0.00
   10    0    0      5.03      0.00
   12    0    0     -4.17      0.00
   14    0    0     -5.80      0.00
   16    0    0     -0.79      0.00
   18    0    0     -0.04      0.00
   20    0    0     -0.58      0.00
    1    1    0     11.30      0.00
    2    1    0     -0.75      0.00
    3    1    0      6.45      0.00
    4    1    0     -4.53      0.00
    5    1    0      3.46      0.00
    6    1    0     -1.78      0.00
    7    1    0      2.31      0.00
    8    1    0      3.28      0.00
    9    1    0     -0.22      0.00
   10    1    0      0.56      0.00
   11    1    0     -2.56      0.00
   12    1    0     -2.45      0.00
   13    1    0     -3.08      0.00
   14    1    0      0.00      0.00
   15    1    0     -1.26      0.00
   16    1    0      1.73      0.00
   17    1    0      1.56      0.00
   18    1    0      1.54      0.00
   19    1    0      1.70      0.00
    0    2    0     16.17      0.00
    1    2    0     -0.77      0.00
    2    2    0      5.14      0.00
    3    2    0      0.66      0.00
    4    2    0     -6.74      0.00
    5    2    0     -0.83      0.00
    6    2    0     -6.32      0.00
    7    2    0     -0.34      0.00
    8    2    0      0.20      0.00
    9    2    0      0.56      0.00
   10    2    0      2.90      0.00
   11    2    0      0.83      0.00
   12    2    0      2.66      0.00
   13    2    0      0.21      0.00
   14    2    0      1.08      0.00
   15    2    0     -0.44      0.00
   16    2    0     -0.50      0.00
   17    2    0     -0.46      0.00
   18    2    0     -0.52      0.00
   19    2    0      0.26      0.00
    1    3    0      6.10      0.00
    2    3    0     -0.08      0.00
    3    3    0      3.36      0.00
    4    3    0      0.07      0.00
    5    3    0      1.16      0.00
    6    3    0      0.03      0.00
    7    3    0      0.58      0.00
    8    3    0      0.04      0.00
    9    3    0      0.15      0.00
   10    3    0      1.51      0.00
   11    3    0      0.23      0.00
   12    3    0     -0.64      0.00
   13    3    0     -1.75      0.00
   14    3    0     -0.95      0.00
   15    3    0     -1.77      0.00
   16    3    0     -0.89      0.00
   17    3    0     -1.43      0.00
   18    3    0      0.34      0.00
    0    4    0      3.90      0.00
    1    4    0     -0.44      0.00
    2    4    0      1.99      0.00
    3    4    0     -0.29      0.00
    4    4    0     -0.02      0.00
    5    4    0      0.41      0.00
    6    4    0      1.35      0.00
    7    4    0     -0.63      0.00
    8    4    0      1.28      0.00
    9    4    0      0.18      0.00
   10    4    0     -1.69      0.00
   11    4    0      1.11      0.00
   12    4    0     -3.05      0.00
   13    4    0      1.03      0.00
   14    4    0     -1.94      0.00
   15    4    0     -0.28      0.00
   16    4    0     -0.90      0.00
   17    4    0      0.16      0.00
    1    5    0      0.35      0.00
    2    5    0     -0.58      0.00
    3    5    0     -0.87      0.00
    4    5    0     -0.35      0.00
    5    5    0     -1.14      0.00
    6    5    0      0.44      0.00
    7    5    0     -0.17      0.00
    8    5    0      0.31      0.00
    9    5    0      1.55      0.00
   10    5    0      1.55      0.00
   11    5    0      1.84      0.00
   12    5    0      1.59      0.00
   13    5    0      0.06      0.00
   14    5    0      1.38      0.00
   15    5    0     -0.79      0.00
    0    6    0      0.67      0.00
    1    6    0     -0.50      0.00
    2    6    0      1.00      0.00
    3    6    0     -1.47      0.00
    4    6    0     -0.04      0.00
    5    6    0      0.35      0.00
    6    6    0      0.92      0.00
    7    6    0     -0.27      0.00
    8    6    0      0.98      0.00
    9    6    0     -0.08      0.00
   10    6    0     -0.76      0.00
   11    6    0      0.60      0.00
   12    6    0     -1.23      0.00
    1    7    0     -0.25      0.00
    2    7    0     -0.90      0.00
    3    7    0      0.60      0.00
    4    7    0     -0.29      0.00
    5    7    0      1.58      0.00
    6    7    0      0.31      0.00
    7    7    0     -0.27      0.00
    8    7    0     -0.12      0.00
  -19    0    1     -0.45      0.00
  -17    0    1     -0.25      0.00
  -15    0    1      2.75      0.00
  -13    0    1      7.12      0.00
  -11    0    1     -1.12      0.00
   -9    0    1    -12.36      0.00
   -7    0    1      9.14      0.00
   -5    0    1     57.93      0.00
   -3    0    1     33.56      0.00
    3    0    1    -14.76      0.00
    5    0    1     34.90      0.00
    7    0    1     13.37      0.00
    9    0    1     -5.46      0.00
   11    0    1      0.25      0.00
   13    0    1      5.84      0.00
   15    0    1      2.80      0.00
   17    0    1      0.59      0.00
   19    0    1      0.77      0.00
  -19    1    1      0.55      0.00
  -18    1    1     -2.78      0.00
  -17    1    1      1.87      0.00
  -16    1    1     -1.09      0.00
  -15    1    1      1.41      0.00
  -14    1    1      2.15      0.00
  -13    1    1     -1.61      0.00
  -12    1    1      3.11      0.00
  -11    1    1     -1.74      0.00
  -10    1    1      3.20      0.00
   -9    1    1      2.38      0.00
   -8    1    1      2.18      0.00
   -7    1    1      1.15      0.00
   -6    1    1      0.91      0.00
   -5    1    1     -2.72      0.00
   -4    1    1     -2.63      0.00
   -1    1    1      1.37      0.00
    0    1    1    -10.20      0.00
    5    1    1      4.87      0.00
    6    1    1     -5.85      0.00
    7    1    1     -2.02      0.00
    8    1    1     -4.77      0.00
    9    1    1     -2.90      0.00
   10    1    1     -0.34      0.00
   11    1    1      1.19      0.00
   12    1    1      2.17      0.00
   13    1    1      2.08      0.00
   14    1    1      2.59      0.00
   15    1    1     -0.92      0.00
   16    1    1      0.59      0.00
   17    1    1     -1.48      0.00
   18    1    1     -1.06      0.00
   19    1    1     -0.67      0.00
  -19    2    1     -0.78      0.00
  -18    2    1     -0.61      0.00
  -17    2    1      0.63      0.00
  -16    2    1     -0.51      0.00
  -15    2    1      0.33      0.00
  -14    2    1     -0.20      0.00
  -13    2    1     -1.52      0.00
  -12    2    1      0.53      0.00
  -11    2    1     -2.08      0.00
  -10    2    1      1.29      0.00
   -9    2    1     -1.91      0.00
   -8    2    1     -0.16      0.00
   -7    2    1      2.90      0.00
   -6    2    1     -0.69      0.00
   -5    2    1      8.13      0.00
   -4    2    1      0.57      0.00
   -3    2    1      5.75      0.00
   -2    2    1      0.39      0.00
   -1    2    1     -9.12      0.00
    0    2    1     -0.35      0.00
    1    2    1    -15.28      0.00
    2    2    1      0.06      0.00
    3    2    1     -1.92      0.00
    4    2    1      0.97      0.00
    5    2    1      6.91      0.00
    6    2    1      0.40      0.00
    7    2    1      4.26      0.00
    8    2    1      0.02      0.00
    9    2    1     -2.14      0.00
   10    2    1     -0.81      0.00
   11    2    1     -2.75      0.00
   12    2    1     -0.40      0.00
   13    2    1     -2.80      0.00
   14    2    1     -0.05      0.00
   15    2    1     -0.70      0.00
   16    2    1      0.91      0.00
   17    2    1      0.86      0.00
   18    2    1     -0.14      0.00
   19    2    1      0.19      0.00
  -18    3    1      0.43      0.00
  -17    3    1      0.00      0.00
  -16    3    1      1.86      0.00
  -15    3    1     -0.77      0.00
  -14    3    1      2.33      0.00
  -13    3    1     -0.91      0.00
  -12    3    1      1.58      0.00
  -11    3    1      0.91      0.00
  -10    3    1      0.12      0.00
   -9    3    1      1.09      0.00
   -8    3    1     -0.28      0.00
   -7    3    1     -0.14      0.00
   -6    3    1      0.14      0.00
   -5    3    1      0.33      0.00
   -4    3    1     -0.85      0.00
   -3    3    1      0.22      0.00
   -2    3    1     -2.80      0.00
   -1    3    1     -0.52      0.00
    0    3    1     -6.12      0.00
    1    3    1     -0.68      0.00
    2    3    1     -5.60      0.00
    3    3    1      0.29      0.00
    4    3    1     -3.48      0.00
    5    3    1      0.51      0.00
    6    3    1     -1.06      0.00
    7    3    1      0.47      0.00
    8    3    1     -0.55      0.00
    9    3    1     -0.69      0.00
   10    3    1     -0.54      0.00
   11    3    1     -0.47      0.00
   12    3    1     -0.18      0.00
   13    3    1      0.92      0.00
   14    3    1      0.95      0.00
   15    3    1      1.24      0.00
   16    3    1      1.62      0.00
   17    3    1      0.46      0.00
   18    3    1      0.87      0.00
  -17    4    1      0.16      0.00
  -16    4    1      0.22      0.00
  -15    4    1      1.13      0.00
  -14    4    1     -0.53      0.00
  -13    4    1      1.91      0.00
  -12    4    1      1.07      0.00
  -11    4    1      3.21      0.00
  -10    4    1      0.19      0.00
   -9    4    1      1.24      0.00
   -8    4    1     -0.16      0.00
   -7    4    1     -0.94      0.00
   -6    4    1     -0.53      0.00
   -5    4    1     -0.39      0.00
   -4    4    1      0.28      0.00
   -3    4    1      0.00      0.00
   -2    4    1     -0.42      0.00
   -1    4    1     -2.27      0.00
    0    4    1     -0.43      0.00
    1    4    1     -3.60      0.00
    2    4    1      0.65      0.00
    3    4    1     -0.90      0.00
    4    4    1     -0.17      0.00
    5    4    1     -0.24      0.00
    6    4    1      0.20      0.00
    7    4    1     -2.07      0.00
    8    4    1      0.25      0.00
    9    4    1     -1.49      0.00
   10    4    1     -0.41      0.00
   11    4    1      2.30      0.00
   12    4    1     -2.11      0.00
   13    4    1      2.51      0.00
   14    4    1     -0.68      0.00
   15    4    1      1.47      0.00
   16    4    1      0.41      0.00
   17    4    1      0.75      0.00
  -15    5    1      1.36      0.00
  -14    5    1      0.75      0.00
  -13    5    1      0.80      0.00
  -12    5    1     -0.57      0.00
  -11    5    1      1.61      0.00
  -10    5    1     -2.35      0.00
   -9    5    1      0.14      0.00
   -8    5    1     -0.79      0.00
   -7    5    1      0.38      0.00
   -6    5    1      0.79      0.00
   -5    5    1     -0.28      0.00
   -4    5    1      1.98      0.00
   -3    5    1     -0.31      0.00
   -2    5    1      0.55      0.00
   -1    5    1     -0.43      0.00
    0    5    1     -0.13      0.00
    1    5    1      0.39      0.00
    2    5    1     -0.45      0.00
    3    5    1      0.40      0.00
    4    5    1      0.91      0.00
    5    5    1     -0.12      0.00
    6    5    1      0.31      0.00
    7    5    1     -0.89      0.00
    8    5    1     -0.26      0.00
    9    5    1     -1.08      0.00
   10    5    1     -1.63      0.00
   11    5    1     -1.89      0.00
   12    5    1     -1.10      0.00
   13    5    1     -1.59      0.00
   14    5    1      0.20      0.00
   15    5    1     -1.33      0.00
  -12    6    1      0.83      0.00
  -11    6    1      1.06      0.00
  -10    6    1     -0.05      0.00
   -9    6    1      0.27      0.00
   -8    6    1     -0.03      0.00
   -7    6    1     -1.51      0.00
   -6    6    1      0.31      0.00
   -5    6    1     -0.08      0.00
   -4    6    1     -0.39      0.00
   -3    6    1     -0.61      0.00
   -2    6    1     -1.39      0.00
   -1    6    1     -0.72      0.00
    0    6    1     -0.15      0.00
    1    6    1     -0.90      0.00
    2    6    1      0.74      0.00
    3    6    1     -0.81      0.00
    4    6    1      0.63      0.00
    5    6    1      0.37      0.00
    6    6    1     -0.18      0.00
    7    6    1     -1.65      0.00
    8    6    1      0.39      0.00
    9    6    1     -0.15      0.00
   10    6    1      0.16      0.00
   11    6    1      0.81      0.00
   12    6    1     -1.46      0.00
   -8    7    1      0.64      0.00
   -7    7    1     -0.04      0.00
   -6    7    1     -0.47      0.00
   -5    7    1      0.62      0.00
   -4    7    1     -1.22      0.00
   -3    7    1     -0.47      0.00
   -2    7    1      0.21      0.00
   -1    7    1     -0.26      0.00
    0    7    1      0.46      0.00
    1    7    1      0.35      0.00
    2    7    1     -0.08      0.00
    3    7    1      1.29      0.00
    4    7    1     -1.18      0.00
    5    7    1      0.33      0.00
    6    7    1     -0.94      0.00
    7    7    1     -0.45      0.00
    8    7    1      0.47      0.00
  -20    0    2     -0.78      0.00
  -18    0    2      1.45      0.00
  -16    0    2     -0.38      0.00
  -14    0    2     -5.81      0.00
  -12    0    2     -4.40      0.00
  -10    0    2      9.85      0.00
   -8    0    2     15.70      0.00
   -6    0    2    -33.91      0.00
   -2    0    2    -10.33      0.00
    6    0    2    -21.88      0.00
    8    0    2     -0.07      0.00
   10    0    2      2.91      0.00
   12    0    2     -2.97      0.00
   14    0    2     -4.65      0.00
   16    0    2     -0.79      0.00
   18    0    2     -1.35      0.00
   20    0    2     -0.82      0.00
  -19    1    2      2.02      0.00
  -18    1    2     -0.97      0.00
  -17    1    2      2.88      0.00
  -16    1    2     -1.73      0.00
  -15    1    2      0.10      0.00
  -14    1    2     -0.27      0.00
  -13    1    2     -2.44      0.00
  -12    1    2      2.59      0.00
  -11    1    2     -2.54      0.00
  -10    1    2     -0.29      0.00
   -9    1    2     -4.46      0.00
   -8    1    2     -2.37      0.00
   -7    1    2     -5.15      0.00
   -6    1    2      0.74      0.00
   -5    1    2     -4.00      0.00
   -3    1    2      5.96      0.00
   -2    1    2     -3.39      0.00
   -1    1    2      9.05      0.00
    0    1    2      2.54      0.00
    3    1    2      0.89      0.00
    4    1    2     -6.64      0.00
    6    1    2     -1.52      0.00
    7    1    2      7.37      0.00
    8    1    2      4.65      0.00
    9    1    2      5.52      0.00
   10    1    2      0.71      0.00
   11    1    2      0.17      0.00
   12    1    2     -2.56      0.00
   13    1    2     -2.03      0.00
   14    1    2     -1.10      0.00
   15    1    2     -2.16      0.00
   16    1    2      0.88      0.00
   17    1    2     -0.47      0.00
   18    1    2      0.97      0.00
   19    1    2      0.32      0.00
  -19    2    2      1.04      0.00
  -18    2    2      0.80      0.00
  -17    2    2      0.71      0.00
  -16    2    2     -0.65      0.00
  -15    2    2      0.40      0.00
  -14    2    2      0.11      0.00
  -13    2    2      0.00      0.00
  -12    2    2      1.39      0.00
  -11    2    2     -1.25      0.00
  -10    2    2      1.52      0.00
   -9    2    2     -0.77      0.00
   -8    2    2     -0.86      0.00
   -7    2    2      0.77      0.00
   -6    2    2     -5.22      0.00
   -5    2    2      0.31      0.00
   -4    2    2     -9.11      0.00
   -3    2    2     -2.03      0.00
   -2    2    2     -3.50      0.00
   -1    2    2      0.82      0.00
    0    2    2     12.68      0.00
    1    2    2     -0.07      0.00
    2    2    2     12.83      0.00
    3    2    2     -0.54      0.00
    4    2    2     -0.96      0.00
    5    2    2     -1.17      0.00
    6    2    2     -7.30      0.00
    7    2    2      0.11      0.00
    8    2    2     -2.33      0.00
    9    2    2      0.49      0.00
   10    2    2      1.83      0.00
   11    2    2      0.45      0.00
   12    2    2      3.17      0.00
   13    2    2      0.55      0.00
   14    2    2      2.32      0.00
   15    2    2     -0.70      0.00
   16    2    2      0.37      0.00
   17    2    2     -0.97      0.00
   18    2    2     -0.69      0.00
   19    2    2      0.93      0.00
  -18    3    2     -0.68      0.00
  -17    3    2     -1.18      0.00
  -16    3    2      0.29      0.00
  -15    3    2     -1.81      0.00
  -14    3    2      0.53      0.00
  -13    3    2     -2.76      0.00
  -12    3    2      0.34      0.00
  -11    3    2     -0.94      0.00
  -10    3    2     -1.84      0.00
   -9    3    2     -0.33      0.00
   -8    3    2      0.20      0.00
   -7    3    2     -0.28      0.00
   -6    3    2      0.33      0.00
   -5    3    2     -0.61      0.00
   -4    3    2     -0.52      0.00
   -3    3    2     -0.48      0.00
   -2    3    2     -0.17      0.00
   -1    3    2      2.47      0.00
    0    3    2      1.27      0.00
    1    3    2      5.25      0.00
    2    3    2      0.22      0.00
    3    3    2      5.14      0.00
    4    3    2     -0.93      0.00
    5    3    2      2.58      0.00
    6    3    2     -1.18      0.00
    7    3    2      0.96      0.00
    8    3    2     -0.28      0.00
    9    3    2      0.12      0.00
   10    3    2      1.04      0.00
   11    3    2      1.19      0.00
   12    3    2     -0.20      0.00
   13    3    2      0.56      0.00
   14    3    2     -0.94      0.00
   15    3    2     -0.57      0.00
   16    3    2     -1.30      0.00
   17    3    2     -1.44      0.00
   18    3    2     -0.02      0.00
  -17    4    2     -0.94      0.00
  -16    4    2      0.05      0.00
  -15    4    2      0.59      0.00
  -14    4    2     -0.86      0.00
  -13    4    2      0.16      0.00
  -12    4    2     -1.81      0.00
  -11    4    2     -0.22      0.00
  -10    4    2     -3.14      0.00
   -9    4    2     -0.30      0.00
   -8    4    2     -1.24      0.00
   -7    4    2      0.84      0.00
   -6    4    2      0.38      0.00
   -5    4    2      0.11      0.00
   -4    4    2     -0.42      0.00
   -3    4    2     -0.19      0.00
   -2    4    2     -0.41      0.00
   -1    4    2      0.59      0.00
    0    4    2      2.29      0.00
    1    4    2      0.06      0.00
    2    4    2      2.57      0.00
    3    4    2     -0.62      0.00
    4    4    2     -0.25      0.00
    5    4    2      0.00      0.00
    6    4    2      0.89      0.00
    7    4    2     -0.58      0.00
    8    4    2      2.96      0.00
    9    4    2     -0.39      0.00
   10    4    2      0.94      0.00
   11    4    2      1.49      0.00
   12    4    2     -2.19      0.00
   13    4    2      2.08      0.00
   14    4    2     -1.86      0.00
   15    4    2      0.10      0.00
   16    4    2     -0.98      0.00
   17    4    2     -0.68      0.00
  -15    5    2     -0.68      0.00
  -14    5    2     -0.68      0.00
  -13    5    2     -0.55      0.00
  -12    5    2     -0.51      0.00
  -11    5    2      1.31      0.00
  -10    5    2     -0.63      0.00
   -9    5    2      2.14      0.00
   -8    5    2      0.16      0.00
   -7    5    2     -0.07      0.00
   -6    5    2     -0.01      0.00
   -5    5    2     -1.62      0.00
   -4    5    2      0.11      0.00
   -3    5    2     -2.15      0.00
   -2    5    2      0.37      0.00
   -1    5    2     -0.69      0.00
    0    5    2     -0.01      0.00
    1    5    2      0.39      0.00
    2    5    2     -0.22      0.00
    3    5    2      0.00      0.00
    4    5    2     -0.20      0.00
    5    5    2     -0.34      0.00
    6    5    2      0.85      0.00
    7    5    2      0.01      0.00
    8    5    2      1.02      0.00
    9    5    2      0.25      0.00
   10    5    2      1.62      0.00
   11    5    2      1.33      0.00
   12    5    2      1.37      0.00
   13    5    2      0.63      0.00
   14    5    2      1.30      0.00
   15    5    2     -0.32      0.00
  -12    6    2     -0.19      0.00
  -11    6    2      0.12      0.00
  -10    6    2     -1.02      0.00
   -9    6    2     -0.22      0.00
   -8    6    2      0.80      0.00
   -7    6    2     -0.06      0.00
   -6    6    2      0.78      0.00
   -5    6    2     -0.66      0.00
   -4    6    2      0.22      0.00
   -3    6    2      1.03      0.00
   -2    6    2      0.49      0.00
   -1    6    2      0.58      0.00
    0    6    2      0.61      0.00
    1    6    2      0.06      0.00
    2    6    2      1.38      0.00
    3    6    2     -0.69      0.00
    4    6    2     -0.26      0.00
    5    6    2      0.08      0.00
    6    6    2      0.64      0.00
    7    6    2     -0.43      0.00
    8    6    2      1.11      0.00
    9    6    2     -0.62      0.00
   10    6    2      0.41      0.00
   11    6    2      0.38      0.00
   12    6    2     -0.93      0.00
   -8    7    2      0.24      0.00
   -7    7    2     -0.51      0.00
   -6    7    2     -0.07      0.00
   -5    7    2      1.03      0.00
   -4    7    2     -0.71      0.00
   -3    7    2      0.41      0.00
   -2    7    2      0.40      0.00
   -1    7    2     -0.90      0.00
    0    7    2      0.01      0.00
    1    7    2     -0.30      0.00
    2    7    2     -0.96      0.00
    3    7    2      0.09      0.00
    4    7    2     -1.42      0.00
    5    7    2      1.07      0.00
    6    7    2      0.24      0.00
    7    7    2      0.04      0.00
    8    7    2      0.25      0.00
  -19    0    3     -0.98      0.00
  -17    0    3     -1.38      0.00
  -15    0    3      2.47      0.00
  -13    0    3      7.42      0.00
  -11    0    3     -2.09      0.00
   -9    0    3    -20.58      0.00
   -7    0    3     -6.46      0.00
   -5    0    3     59.25      0.00
   -3    0    3     76.80      0.00
   -1    0    3    -20.97      0.00
    1    0    3    -87.47      0.00
    7    0    3      7.32      0.00
    9    0    3     -4.36      0.00
   11    0    3     -0.13      0.00
   13    0    3      3.83      0.00
   15    0    3      2.22      0.00
   17    0    3      0.58      0.00
   19    0    3      1.61      0.00
  -19    1    3     -0.64      0.00
  -18    1    3     -2.89      0.00
  -17    1    3      1.42      0.00
  -16    1    3     -1.85      0.00
  -15    1    3      1.20      0.00
  -14    1    3      0.43      0.00
  -13    1    3     -1.03      0.00
  -12    1    3      1.15      0.00
  -11    1    3     -1.85      0.00
  -10    1    3      2.26      0.00
   -9    1    3      2.04      0.00
   -8    1    3      6.53      0.00
   -7    1    3      0.46      0.00
   -6    1    3      8.66      0.00
   -5    1    3     -1.24      0.00
   -4    1    3      3.40      0.00
   -3    1    3      2.27      0.00
   -2    1    3     -7.79      0.00
   -1    1    3      0.26      0.00
    0    1    3     -3.22      0.00
    2    1    3      0.99      0.00
    3    1    3      5.79      0.00
    4    1    3      0.50      0.00
    5    1    3      4.48      0.00
    6    1    3     -6.31      0.00
    7    1    3     -3.27      0.00
    8    1    3     -8.10      0.00
    9    1    3     -3.10      0.00
   10    1    3     -4.33      0.00
   11    1    3      1.48      0.00
   12    1    3      0.22      0.00
   13    1    3      3.08      0.00
   14    1    3      2.10      0.00
   15    1    3      0.18      0.00
   16    1    3      1.79      0.00
   17    1    3     -0.89      0.00
   18    1    3      0.51      0.00
   19    1    3     -0.11      0.00
  -19    2    3     -1.86      0.00
  -18    2    3     -1.35      0.00
  -17    2    3     -0.47      0.00
  -16    2    3     -0.19      0.00
  -15    2    3      0.53      0.00
  -14    2    3     -0.47      0.00
  -13    2    3     -0.98      0.00
  -12    2    3      0.60      0.00
  -11    2    3     -1.23      0.00
  -10    2    3      1.36      0.00
   -9    2    3      0.21      0.00
   -8    2    3     -0.30      0.00
   -7    2    3      2.97      0.00
   -6    2    3     -1.11      0.00
   -5    2    3      6.65      0.00
   -4    2    3      1.54      0.00
   -3    2    3      9.40      0.00
   -2    2    3      0.94      0.00
   -1    2    3      0.54      0.00
    0    2    3     -0.58      0.00
    1    2    3    -14.10      0.00
    2    2    3     -0.21      0.00
    3    2    3     -9.09      0.00
    4    2    3      1.55      0.00
    5    2    3      4.21      0.00
    6    2    3     -0.03      0.00
    7    2    3      7.54      0.00
    8    2    3     -0.33      0.00
    9    2    3      1.51      0.00
   10    2    3     -0.38      0.00
   11    2    3     -1.67      0.00
   12    2    3     -0.50      0.00
   13    2    3     -3.48      0.00
   14    2    3     -0.38      0.00
   15    2    3     -2.00      0.00
   16    2    3      1.62      0.00
   17    2    3     -0.13      0.00
   18    2    3      0.25      0.00
   19    2    3      0.08      0.00
  -18    3    3      0.20      0.00
  -17    3    3      0.53      0.00
  -16    3    3      1.41      0.00
  -15    3    3     -0.16      0.00
  -14    3    3      1.91      0.00
  -13    3    3     -0.72      0.00
  -12    3    3      2.17      0.00
  -11    3    3      0.99      0.00
  -10    3    3      0.94      0.00
   -9    3    3      0.66      0.00
   -8    3    3      0.32      0.00
   -7    3    3     -1.15      0.00
   -6    3    3      0.82      0.00
   -5    3    3     -0.39      0.00
   -4    3    3      1.53      0.00
   -3    3    3      1.03      0.00
   -2    3    3      1.52      0.00
   -1    3    3     -0.18      0.00
    0    3    3     -1.70      0.00
    1    3    3     -1.13      0.00
    2    3    3     -4.41      0.00
    3    3    3      0.54      0.00
    4    3    3     -4.10      0.00
    5    3    3      1.66      0.00
    6    3    3     -1.74      0.00
    7    3    3      1.03      0.00
    8    3    3     -0.28      0.00
    9    3    3     -0.74      0.00
   10    3    3     -0.47      0.00
   11    3    3     -0.80      0.00
   12    3    3     -1.51      0.00
   13    3    3      0.15      0.00
   14    3    3     -0.97      0.00
   15    3    3      1.41      0.00
   16    3    3      0.72      0.00
   17    3    3      0.93      0.00
   18    3    3      1.24      0.00
  -17    4    3     -0.88      0.00
  -16    4    3      0.78      0.00
  -15    4    3     -0.14      0.00
  -14    4    3     -1.29      0.00
  -13    4    3     -0.10      0.00
  -12    4    3      0.22      0.00
  -11    4    3      2.06      0.00
  -10    4    3     -0.04      0.00
   -9    4    3      3.27      0.00
   -8    4    3      0.15      0.00
   -7    4    3      1.19      0.00
   -6    4    3     -0.71      0.00
   -5    4    3      0.39      0.00
   -4    4    3      0.06      0.00
   -3    4    3      1.19      0.00
   -2    4    3      0.45      0.00
   -1    4    3      0.72      0.00
    0    4    3     -0.76      0.00
    1    4    3     -2.43      0.00
    2    4    3      0.53      0.00
    3    4    3     -1.01      0.00
    4    4    3      0.47      0.00
    5    4    3      0.59      0.00
    6    4    3      0.76      0.00
    7    4    3     -1.73      0.00
    8    4    3      0.80      0.00
    9    4    3     -3.54      0.00
   10    4    3      0.21      0.00
   11    4    3     -0.14      0.00
   12    4    3     -2.31      0.00
   13    4    3      1.68      0.00
   14    4    3     -1.52      0.00
   15    4    3      1.21      0.00
   16    4    3      0.85      0.00
   17    4    3      0.71      0.00
  -15    5    3      0.97      0.00
  -14    5    3      0.43      0.00
  -13    5    3     -0.46      0.00
  -12    5    3      0.21      0.00
  -11    5    3      0.60      0.00
  -10    5    3     -2.03      0.00
   -9    5    3     -0.56      0.00
   -8    5    3     -1.33      0.00
   -7    5    3      0.43      0.00
   -6    5    3      0.47      0.00
   -5    5    3     -0.39      0.00
   -4    5    3      2.33      0.00
   -3    5    3      0.21      0.00
   -2    5    3      2.02      0.00
   -1    5    3     -0.30      0.00
    0    5    3      0.65      0.00
    1    5    3     -0.02      0.00
    2    5    3     -0.37      0.00
    3    5    3      0.12      0.00
    4    5    3      0.14      0.00
    5    5    3     -0.08      0.00
    6    5    3     -0.18      0.00
    7    5    3     -0.83      0.00
    8    5    3      0.32      0.00
    9    5    3     -1.38      0.00
   10    5    3     -0.21      0.00
   11    5    3     -0.68      0.00
   12    5    3     -0.98      0.00
   13    5    3     -0.91      0.00
   14    5    3     -0.65      0.00
   15    5    3     -0.68      0.00
  -12    6    3     -0.43      0.00
  -11    6    3      0.74      0.00
  -10    6    3     -0.41      0.00
   -9    6    3      0.37      0.00
   -8    6    3      0.52      0.00
   -7    6    3     -1.06      0.00
   -6    6    3      0.50      0.00
   -5    6    3     -0.34      0.00
   -4    6    3      0.26      0.00
   -3    6    3     -0.12      0.00
   -2    6    3     -0.71      0.00
   -1    6    3     -0.12      0.00
    0    6    3      0.18      0.00
    1    6    3     -0.82      0.00
    2    6    3     -0.14      0.00
    3    6    3     -1.08      0.00
    4    6    3      0.35      0.00
    5    6    3      0.58      0.00
    6    6    3      0.19      0.00
    7    6    3     -1.21      0.00
    8    6    3      0.85      0.00
    9    6    3     -0.96      0.00
   10    6    3      0.80      0.00
   11    6    3     -0.92      0.00
   12    6    3     -0.70      0.00
   -8    7    3      0.02      0.00
   -7    7    3     -0.74      0.00
   -6    7    3     -0.24      0.00
   -5    7    3      0.60      0.00
   -4    7    3     -1.06      0.00
   -3    7    3      0.20      0.00
   -2    7    3      0.48      0.00
   -1    7    3     -0.09      0.00
    0    7    3      0.89      0.00
    1    7    3      0.18      0.00
    2    7    3      0.43      0.00
    3    7    3      1.42      0.00
    4    7    3      0.00      0.00
    5    7    3      1.10      0.00
    6    7    3     -0.17      0.00
    7    7    3     -1.12      0.00
    8    7    3      0.13      0.00
  -20    0    4     -1.02      0.00
  -18    0    4      2.58      0.00
  -16    0    4      0.20      0.00
  -14    0    4     -5.81      0.00
  -12    0    4     -5.81      0.00
  -10    0    4     11.36      0.00
   -8    0    4     27.48      0.00
   -6    0    4    -13.44      0.00
    0    0    4     35.78      0.00
    4    0    4     10.78      0.00
    6    0    4     -5.79      0.00
    8    0    4      1.84      0.00
   10    0    4      3.53      0.00
   12    0    4     -1.83      0.00
   14    0    4     -3.32      0.00
   16    0    4     -0.05      0.00
   18    0    4     -1.25      0.00
  -19    1    4      0.94      0.00
  -18    1    4     -0.05      0.00
  -17    1    4      2.57      0.00
  -16    1    4     -1.54      0.00
  -15    1    4      1.08      0.00
  -14    1    4     -0.62      0.00
  -13    1    4      0.26      0.00
  -12    1    4      1.81      0.00
  -11    1    4      1.14      0.00
  -10    1    4     -0.37      0.00
   -9    1    4     -3.21      0.00
   -8    1    4     -1.09      0.00
   -7    1    4     -9.05      0.00
   -6    1    4      1.09      0.00
   -5    1    4    -10.97      0.00
   -4    1    4      0.80      0.00
   -3    1    4      1.49      0.00
   -2    1    4     -3.41      0.00
    0    1    4      6.67      0.00
    1    1    4     -2.24      0.00
    2    1    4      0.04      0.00
    3    1    4     -6.18      0.00
    4    1    4     -4.97      0.00
    5    1    4      0.97      0.00
    6    1    4     -1.01      0.00
    7    1    4      5.57      0.00
    8    1    4      4.67      0.00
    9    1    4      7.25      0.00
   10    1    4      0.08      0.00
   11    1    4      2.65      0.00
   12    1    4     -3.13      0.00
   13    1    4     -0.71      0.00
   14    1    4     -2.02      0.00
   15    1    4     -1.99      0.00
   16    1    4      0.68      0.00
   17    1    4     -1.31      0.00
   18    1    4      0.80      0.00
   19    1    4     -0.12      0.00
  -19    2    4      1.32      0.00
  -18    2    4      2.16      0.00
  -17    2    4      0.41      0.00
  -16    2    4      0.04      0.00
  -15    2    4      0.01      0.00
  -14    2    4      0.65      0.00
  -13    2    4      0.25      0.00
  -12    2    4      1.77      0.00
  -11    2    4     -1.09      0.00
  -10    2    4      0.95      0.00
   -9    2    4     -0.57      0.00
   -8    2    4     -2.36      0.00
   -7    2    4      1.23      0.00
   -6    2    4     -3.73      0.00
   -5    2    4      0.19      0.00
   -4    2    4     -7.65      0.00
   -3    2    4     -2.17      0.00
   -2    2    4    -10.11      0.00
   -1    2    4      0.26      0.00
    0    2    4      2.05      0.00
    1    2    4      0.53      0.00
    2    2    4     13.17      0.00
    3    2    4     -0.45      0.00
    4    2    4      4.39      0.00
    5    2    4     -0.67      0.00
    6    2    4     -7.26      0.00
    7    2    4      0.47      0.00
    8    2    4     -6.83      0.00
    9    2    4      0.31      0.00
   10    2    4     -1.32      0.00
   11    2    4     -0.08      0.00
   12    2    4      2.72      0.00
   13    2    4      0.94      0.00
   14    2    4      3.30      0.00
   15    2    4     -0.56      0.00
   16    2    4      1.64      0.00
   17    2    4     -1.72      0.00
   18    2    4      0.50      0.00
   19    2    4      0.50      0.00
  -18    3    4     -0.88      0.00
  -17    3    4     -0.61      0.00
  -16    3    4     -0.48      0.00
  -15    3    4     -0.92      0.00
  -14    3    4      0.30      0.00
  -13    3    4     -2.02      0.00
  -12    3    4      0.46      0.00
  -11    3    4     -1.64      0.00
  -10    3    4     -1.18      0.00
   -9    3    4     -0.78      0.00
   -8    3    4      0.82      0.00
   -7    3    4     -0.50      0.00
   -6    3    4      1.62      0.00
   -5    3    4     -0.70      0.00
   -4    3    4     -0.40      0.00
   -3    3    4     -2.79      0.00
   -2    3    4     -1.46      0.00
   -1    3    4     -2.14      0.00
    0    3    4      0.77      0.00
    1    3    4      0.89      0.00
    2    3    4      0.39      0.00
    3    3    4      3.72      0.00
    4    3    4     -0.98      0.00
    5    3    4      2.80      0.00
    6    3    4     -1.76      0.00
    7    3    4      1.11      0.00
    8    3    4      0.16      0.00
    9    3    4     -0.20      0.00
   10    3    4      1.27      0.00
   11    3    4      0.94      0.00
   12    3    4      0.72      0.00
   13    3    4      1.78      0.00
   14    3    4     -0.72      0.00
   15    3    4      0.61      0.00
   16    3    4     -1.64      0.00
   17    3    4     -0.82      0.00
   18    3    4     -0.44      0.00
  -17    4    4     -1.23      0.00
  -16    4    4      1.28      0.00
  -15    4    4      0.51      0.00
  -14    4    4      0.71      0.00
  -13    4    4      0.66      0.00
  -12    4    4      0.76      0.00
  -11    4    4      0.07      0.00
  -10    4    4     -2.70      0.00
   -9    4    4     -0.65      0.00
   -8    4    4     -3.07      0.00
   -7    4    4      0.16      0.00
   -6    4    4     -1.24      0.00
   -5    4    4      0.46      0.00
   -4    4    4     -0.75      0.00
   -3    4    4     -0.79      0.00
   -2    4    4     -2.03      0.00
   -1    4    4      0.00      0.00
    0    4    4      0.12      0.00
    1    4    4      0.33      0.00
    2    4    4      2.29      0.00
    3    4    4     -0.56      0.00
    4    4    4     -0.33      0.00
    5    4    4     -0.90      0.00
    6    4    4     -0.51      0.00
    7    4    4     -1.05      0.00
    8    4    4      2.77      0.00
    9    4    4     -1.37      0.00
   10    4    4      2.98      0.00
   11    4    4      0.86      0.00
   12    4    4     -0.07      0.00
   13    4    4      2.31      0.00
   14    4    4     -1.31      0.00
   15    4    4      0.38      0.00
   16    4    4     -0.82      0.00
   17    4    4     -0.96      0.00
  -15    5    4      0.45      0.00
  -14    5    4      0.17      0.00
  -13    5    4     -0.33      0.00
  -12    5    4      0.56      0.00
  -11    5    4      0.54      0.00
  -10    5    4      0.13      0.00
   -9    5    4      2.24      0.00
   -8    5    4      0.04      0.00
   -7    5    4      0.92      0.00
   -6    5    4      0.05      0.00
   -5    5    4     -0.74      0.00
   -4    5    4     -0.06      0.00
   -3    5    4     -2.57      0.00
   -2    5    4      0.00      0.00
   -1    5    4     -1.94      0.00
    0    5    4      0.20      0.00
    1    5    4     -0.37      0.00
    2    5    4      0.20      0.00
    3    5    4      0.00      0.00
    4    5    4     -0.43      0.00
    5    5    4      0.08      0.00
    6    5    4     -0.09      0.00
    7    5    4      0.18      0.00
    8    5    4      0.81      0.00
    9    5    4     -0.92      0.00
   10    5    4      0.61      0.00
   11    5    4      0.46      0.00
   12    5    4     -0.21      0.00
   13    5    4      1.14      0.00
   14    5    4      0.13      0.00
   15    5    4      0.51      0.00
  -12    6    4      0.44      0.00
  -11    6    4      1.03      0.00
  -10    6    4     -1.23      0.00
   -9    6    4     -0.19      0.00
   -8    6    4      0.59      0.00
   -7    6    4     -0.59      0.00
   -6    6    4      0.60      0.00
   -5    6    4     -0.51      0.00
   -4    6    4      0.34      0.00
   -3    6    4      0.09      0.00
   -2    6    4     -0.54      0.00
   -1    6    4     -0.27      0.00
    0    6    4     -0.29      0.00
    1    6    4     -0.26      0.00
    2    6    4      1.18      0.00
    3    6    4      0.05      0.00
    4    6    4     -0.04      0.00
    5    6    4     -0.20      0.00
    6    6    4      0.24      0.00
    7    6    4     -0.75      0.00
    8    6    4      0.74      0.00
    9    6    4     -1.24      0.00
   10    6    4      1.79      0.00
   11    6    4     -0.46      0.00
   12    6    4      1.07      0.00
   -8    7    4      0.59      0.00
   -7    7    4      0.23      0.00
   -6    7    4      0.76      0.00
   -5    7    4      0.90      0.00
   -4    7    4     -0.66      0.00
   -3    7    4      0.73      0.00
   -2    7    4     -0.03      0.00
   -1    7    4     -0.97      0.00
    0    7    4      0.15      0.00
    1    7    4     -0.57      0.00
    2    7    4     -0.55      0.00
    3    7    4     -0.74      0.00
    4    7    4     -1.69      0.00
    5    7    4     -0.40      0.00
    6    7    4      0.43      0.00
    7    7    4     -0.23      0.00
  -19    0    5     -1.02      0.00
  -17    0    5     -2.87      0.00
  -15    0    5      2.52      0.00
  -13    0    5      8.64      0.00
  -11    0    5      1.09      0.00
   -9    0    5    -22.22      0.00
   -7    0    5    -24.19      0.00
   -5    0    5     31.99      0.00
   -1    0    5     29.92      0.00
    5    0    5     -4.07      0.00
    7    0    5      0.44      0.00
    9    0    5     -4.78      0.00
   11    0    5     -0.58      0.00
   13    0    5      2.67      0.00
   15    0    5      1.37      0.00
   17    0    5     -0.62      0.00
   19    0    5      1.08      0.00
  -19    1    5     -1.08      0.00
  -18    1    5     -1.72      0.00
  -17    1    5      1.25      0.00
  -16    1    5     -1.34      0.00
  -15    1    5      1.19      0.00
  -14    1    5     -1.37      0.00
  -13    1    5     -0.02      0.00
  -12    1    5     -2.44      0.00
  -11    1    5     -1.27      0.00
  -10    1    5     -2.55      0.00
   -9    1    5      1.53      0.00
   -8    1    5      5.21      0.00
   -7    1    5     -1.19      0.00
   -6    1    5     11.52      0.00
   -5    1    5     -1.96      0.00
   -4    1    5      8.26      0.00
   -3    1    5      1.50      0.00
   -2    1    5     -3.58      0.00
   -1    1    5     -1.18      0.00
    0    1    5      2.69      0.00
    1    1    5     -6.84      0.00
    2    1    5      7.04      0.00
    3    1    5      2.93      0.00
    4    1    5      6.54      0.00
    5    1    5      3.58      0.00
    6    1    5     -0.14      0.00
    7    1    5     -2.31      0.00
    8    1    5     -4.69      0.00
    9    1    5     -2.33      0.00
   10    1    5     -5.29      0.00
   11    1    5      1.87      0.00
   12    1    5     -1.39      0.00
   13    1    5      3.16      0.00
   14    1    5      0.99      0.00
   15    1    5      0.14      0.00
   16    1    5      1.46      0.00
   17    1    5     -1.49      0.00
   18    1    5      0.51      0.00
   19    1    5     -0.17      0.00
  -19    2    5     -2.19      0.00
  -18    2    5     -0.90      0.00
  -17    2    5     -1.56      0.00
  -16    2    5      0.70      0.00
  -15    2    5     -0.39      0.00
  -14    2    5     -0.35      0.00
  -13    2    5     -2.46      0.00
  -12    2    5      0.41      0.00
  -11    2    5     -2.66      0.00
  -10    2    5      0.84      0.00
   -9    2    5      0.57      0.00
   -8    2    5     -0.38      0.00
   -7    2    5      3.02      0.00
   -6    2    5     -1.38      0.00
   -5    2    5      4.09      0.00
   -4    2    5      1.39      0.00
   -3    2    5      9.61      0.00
   -2    2    5      0.64      0.00
   -1    2    5     10.88      0.00
    0    2    5     -0.12      0.00
    1    2    5     -3.90      0.00
    2    2    5     -0.86      0.00
    3    2    5    -10.82      0.00
    4    2    5      0.71      0.00
    5    2    5      0.18      0.00
    6    2    5     -0.44      0.00
    7    2    5      8.58      0.00
    8    2    5     -0.40      0.00
    9    2    5      5.63      0.00
   10    2    5      0.51      0.00
   11    2    5      0.12      0.00
   12    2    5     -0.18      0.00
   13    2    5     -3.37      0.00
   14    2    5     -0.85      0.00
   15    2    5     -2.76      0.00
   16    2    5      1.48      0.00
   17    2    5     -1.53      0.00
   18    2    5      0.80      0.00
   19    2    5     -0.70      0.00
  -18    3    5     -0.40      0.00
  -17    3    5      1.06      0.00
  -16    3    5      0.60      0.00
  -15    3    5      0.51      0.00
  -14    3    5      0.68      0.00
  -13    3    5     -0.88      0.00
  -12    3    5      1.82      0.00
  -11    3    5      0.38      0.00
  -10    3    5      1.52      0.00
   -9    3    5      0.20      0.00
   -8    3    5      0.40      0.00
   -7    3    5     -1.39      0.00
   -6    3    5     -0.27      0.00
   -5    3    5     -1.20      0.00
   -4    3    5      1.08      0.00
   -3    3    5      1.45      0.00
   -2    3    5      3.24      0.00
   -1    3    5      0.84      0.00
    0    3    5      2.92      0.00
    1    3    5     -1.01      0.00
    2    3    5     -0.83      0.00
    3    3    5     -0.23      0.00
    4    3    5     -2.81      0.00
    5    3    5      1.43      0.00
    6    3    5     -2.04      0.00
    7    3    5      0.88      0.00
    8    3    5     -0.33      0.00
    9    3    5     -1.17      0.00
   10    3    5      0.07      0.00
   11    3    5     -1.13      0.00
   12    3    5     -1.13      0.00
   13    3    5     -0.25      0.00
   14    3    5     -1.44      0.00
   15    3    5      1.53      0.00
   16    3    5     -0.34      0.00
   17    3    5      1.36      0.00
   18    3    5      0.78      0.00
  -17    4    5     -1.31      0.00
  -16    4    5      1.02      0.00
  -15    4    5     -1.04      0.00
  -14    4    5     -1.29      0.00
  -13    4    5     -1.88      0.00
  -12    4    5      0.04      0.00
  -11    4    5     -0.45      0.00
  -10    4    5      0.24      0.00
   -9    4    5      3.04      0.00
   -8    4    5      0.86      0.00
   -7    4    5      2.24      0.00
   -6    4    5     -0.06      0.00
   -5    4    5      1.05      0.00
   -4    4    5     -0.23      0.00
   -3    4    5      1.12      0.00
   -2    4    5      1.25      0.00
   -1    4    5      1.87      0.00
    0    4    5     -0.58      0.00
    1    4    5     -1.62      0.00
    2    4    5     -0.01      0.00
    3    4    5     -1.52      0.00
    4    4    5      0.51      0.00
    5    4    5      1.32      0.00
    6    4    5      1.27      0.00
    7    4    5      0.26      0.00
    8    4    5      1.38      0.00
    9    4    5     -3.15      0.00
   10    4    5      1.12      0.00
   11    4    5     -2.17      0.00
   12    4    5     -1.69      0.00
   13    4    5      0.21      0.00
   14    4    5     -1.72      0.00
   15    4    5      1.00      0.00
   16    4    5      0.66      0.00
  -15    5    5      0.19      0.00
  -14    5    5     -0.78      0.00
  -13    5    5     -1.26      0.00
  -12    5    5      0.27      0.00
  -11    5    5      0.03      0.00
  -10    5    5     -1.50      0.00
   -9    5    5     -0.67      0.00
   -8    5    5     -2.14      0.00
   -7    5    5      0.65      0.00
   -6    5    5     -1.18      0.00
   -5    5    5     -0.68      0.00
   -4    5    5      1.12      0.00
   -3    5    5      0.33      0.00
   -2    5    5      2.71      0.00
   -1    5    5     -0.11      0.00
    0    5    5      1.57      0.00
    1    5    5     -0.39      0.00
    2    5    5      0.65      0.00
    3    5    5      0.21      0.00
    4    5    5      0.20      0.00
    5    5    5      0.94      0.00
    6    5    5     -0.23      0.00
    7    5    5      0.52      0.00
    8    5    5      0.61      0.00
    9    5    5     -0.90      0.00
   10    5    5      0.77      0.00
   11    5    5      0.98      0.00
   12    5    5     -0.81      0.00
   13    5    5      0.64      0.00
   14    5    5     -1.60      0.00
   15    5    5      0.34      0.00
  -12    6    5     -1.13      0.00
  -11    6    5      0.84      0.00
  -10    6    5     -0.87      0.00
   -9    6    5      0.67      0.00
   -8    6    5      0.70      0.00
   -7    6    5     -0.67      0.00
   -6    6    5      0.36      0.00
   -5    6    5     -0.69      0.00
   -4    6    5      0.06      0.00
   -3    6    5      0.35      0.00
   -2    6    5      0.12      0.00
   -1    6    5      1.22      0.00
    0    6    5      1.06      0.00
    1    6    5      0.44      0.00
    2    6    5     -0.10      0.00
    3    6    5     -0.78      0.00
    4    6    5      0.05      0.00
    5    6    5      0.28      0.00
    6    6    5      0.31      0.00
    7    6    5     -0.20      0.00
    8    6    5      1.08      0.00
    9    6    5     -0.83      0.00
   10    6    5      0.95      0.00
   11    6    5     -2.19      0.00
   12    6    5      0.49      0.00
   -7    7    5     -1.32      0.00
   -6    7    5     -0.59      0.00
   -5    7    5     -0.12      0.00
   -4    7    5     -1.21      0.00
   -3    7    5      0.30      0.00
   -2    7    5     -0.05      0.00
   -1    7    5     -0.03      0.00
    0    7    5      0.68      0.00
    1    7    5     -0.21      0.00
    2    7    5      0.64      0.00
    3    7    5      0.90      0.00
    4    7    5      0.76      0.00
    5    7    5      1.08      0.00
    6    7    5      0.89      0.00
    7    7    5     -1.70      0.00
  -18    0    6      3.24      0.00
  -16    0    6      1.47      0.00
  -14    0    6     -6.31      0.00
  -12    0    6     -9.32      0.00
  -10    0    6      6.61      0.00
   -8    0    6     30.47      0.00
   -6    0    6     12.47      0.00
    0    0    6    -10.05      0.00
    2    0    6     16.93      0.00
    4    0    6     11.38      0.00
    6    0    6      2.37      0.00
    8    0    6      2.18      0.00
   10    0    6      3.23      0.00
   12    0    6     -1.37      0.00
   14    0    6     -2.44      0.00
   16    0    6      1.10      0.00
   18    0    6      0.04      0.00
  -19    1    6     -0.12      0.00
  -18    1    6     -0.13      0.00
  -17    1    6      1.36      0.00
  -16    1    6     -1.53      0.00
  -15    1    6      0.81      0.00
  -14    1    6     -0.82      0.00
  -13    1    6      2.53      0.00
  -12    1    6      0.90      0.00
  -11    1    6      5.21      0.00
  -10    1    6     -0.54      0.00
   -9    1    6      2.03      0.00
   -8    1    6     -0.16      0.00
   -7    1    6     -7.30      0.00
   -6    1    6      2.23      0.00
   -5    1    6    -12.00      0.00
   -4    1    6      1.49      0.00
   -3    1    6     -1.86      0.00
   -2    1    6     -3.05      0.00
   -1    1    6      0.12      0.00
    0    1    6      5.83      0.00
    1    1    6     -5.58      0.00
    2    1    6      1.41      0.00
    3    1    6     -9.74      0.00
    4    1    6     -3.07      0.00
    5    1    6     -6.07      0.00
    6    1    6     -1.70      0.00
    7    1    6     -1.64      0.00
    8    1    6      3.19      0.00
    9    1    6      3.83      0.00
   10    1    6      0.09      0.00
   11    1    6      3.71      0.00
   12    1    6     -2.51      0.00
   13    1    6      0.63      0.00
   14    1    6     -1.53      0.00
   15    1    6     -0.77      0.00
   16    1    6      1.62      0.00
   17    1    6     -0.77      0.00
   18    1    6      1.06      0.00
   19    1    6      0.50      0.00
  -19    2    6      0.61      0.00
  -18    2    6      2.32      0.00
  -17    2    6     -0.33      0.00
  -16    2    6      0.77      0.00
  -15    2    6     -0.66      0.00
  -14    2    6      2.03      0.00
  -13    2    6      0.30      0.00
  -12    2    6      4.02      0.00
  -11    2    6     -0.67      0.00
  -10    2    6      2.77      0.00
   -9    2    6     -0.37      0.00
   -8    2    6     -2.13      0.00
   -7    2    6      1.11      0.00
   -6    2    6     -2.61      0.00
   -5    2    6      0.24      0.00
   -4    2    6     -4.65      0.00
   -3    2    6     -0.94      0.00
   -2    2    6    -12.88      0.00
   -1    2    6      0.04      0.00
    0    2    6    -10.47      0.00
    1    2    6      0.53      0.00
    2    2    6      5.88      0.00
    3    2    6      0.46      0.00
    4    2    6      7.85      0.00
    5    2    6      0.27      0.00
    6    2    6     -3.15      0.00
    7    2    6      0.53      0.00
    8    2    6     -8.08      0.00
    9    2    6     -0.16      0.00
   10    2    6     -4.10      0.00
   11    2    6     -1.04      0.00
   12    2    6      1.29      0.00
   13    2    6      0.73      0.00
   14    2    6      2.96      0.00
   15    2    6      0.14      0.00
   16    2    6      1.98      0.00
   17    2    6     -1.47      0.00
   18    2    6      1.62      0.00
   19    2    6      0.10      0.00
  -18    3    6     -0.84      0.00
  -17    3    6      0.15      0.00
  -16    3    6     -1.27      0.00
  -15    3    6     -0.04      0.00
  -14    3    6      0.02      0.00
  -13    3    6     -0.80      0.00
  -12    3    6      0.75      0.00
  -11    3    6     -1.92      0.00
  -10    3    6     -0.53      0.00
   -9    3    6     -0.94      0.00
   -8    3    6      0.11      0.00
   -7    3    6      0.33      0.00
   -6    3    6      1.47      0.00
   -5    3    6      1.48      0.00
   -4    3    6      0.17      0.00
   -3    3    6     -1.45      0.00
   -2    3    6     -1.50      0.00
   -1    3    6     -3.61      0.00
    0    3    6      0.56      0.00
    1    3    6     -2.90      0.00
    2    3    6      1.06      0.00
    3    3    6      0.95      0.00
    4    3    6      0.05      0.00
    5    3    6      2.14      0.00
    6    3    6     -1.72      0.00
    7    3    6      1.44      0.00
    8    3    6      0.21      0.00
    9    3    6     -0.08      0.00
   10    3    6      1.13      0.00
   11    3    6     -0.04      0.00
   12    3    6      0.85      0.00
   13    3    6      1.11      0.00
   14    3    6     -0.84      0.00
   15    3    6      0.90      0.00
   16    3    6     -1.56      0.00
   17    3    6      0.39      0.00
   18    3    6     -0.74      0.00
  -16    4    6      1.40      0.00
  -15    4    6      0.19      0.00
  -14    4    6      1.00      0.00
  -13    4    6      0.65      0.00
  -12    4    6      2.70      0.00
  -11    4    6     -0.11      0.00
  -10    4    6     -0.30      0.00
   -9    4    6     -0.94      0.00
   -8    4    6     -2.11      0.00
   -7    4    6     -0.86      0.00
   -6    4    6     -1.39      0.00
   -5    4    6      0.50      0.00
   -4    4    6     -0.52      0.00
   -3    4    6     -0.69      0.00
   -2    4    6     -1.75      0.00
   -1    4    6     -0.43      0.00
    0    4    6     -0.37      0.00
    1    4    6      0.53      0.00
    2    4    6      2.49      0.00
    3    4    6      0.26      0.00
    4    4    6      0.27      0.00
    5    4    6     -0.76      0.00
    6    4    6     -2.28      0.00
    7    4    6     -1.12      0.00
    8    4    6      0.20      0.00
    9    4    6     -1.85      0.00
   10    4    6      2.58      0.00
   11    4    6     -0.01      0.00
   12    4    6      1.77      0.00
   13    4    6      1.81      0.00
   14    4    6     -0.52      0.00
   15    4    6      0.45      0.00
   16    4    6     -0.71      0.00
  -15    5    6      1.47      0.00
  -14    5    6      0.70      0.00
  -13    5    6      0.28      0.00
  -12    5    6      0.91      0.00
  -11    5    6      0.26      0.00
  -10    5    6      0.18      0.00
   -9    5    6      2.06      0.00
   -8    5    6     -0.22      0.00
   -7    5    6      2.46      0.00
   -6    5    6      0.22      0.00
   -5    5    6      1.27      0.00
   -4    5    6      0.41      0.00
   -3    5    6     -1.71      0.00
   -2    5    6     -0.29      0.00
   -1    5    6     -2.59      0.00
    0    5    6      0.21      0.00
    1    5    6     -1.62      0.00
    2    5    6      0.28      0.00
    3    5    6     -1.08      0.00
    4    5    6     -0.85      0.00
    5    5    6     -0.40      0.00
    6    5    6     -1.63      0.00
    7    5    6      0.00      0.00
    8    5    6      0.09      0.00
    9    5    6     -1.35      0.00
   10    5    6     -0.25      0.00
   11    5    6     -0.04      0.00
   12    5    6     -1.42      0.00
   13    5    6      1.47      0.00
   14    5    6     -1.20      0.00
  -12    6    6      0.30      0.00
  -11    6    6      1.04      0.00
  -10    6    6     -1.67      0.00
   -9    6    6      0.11      0.00
   -8    6    6      0.09      0.00
   -7    6    6     -0.72      0.00
   -6    6    6      0.51      0.00
   -5    6    6      0.35      0.00
   -4    6    6      0.63      0.00
   -3    6    6      0.13      0.00
   -2    6    6     -1.21      0.00
   -1    6    6     -0.74      0.00
    0    6    6     -1.88      0.00
    1    6    6     -0.86      0.00
    2    6    6     -0.28      0.00
    3    6    6      0.30      0.00
    4    6    6      0.02      0.00
    5    6    6      0.09      0.00
    6    6    6     -0.03      0.00
    7    6    6     -0.28      0.00
    8    6    6     -0.49      0.00
    9    6    6     -0.92      0.00
   10    6    6      1.21      0.00
   11    6    6     -0.16      0.00
   12    6    6      1.96      0.00
   -7    7    6      0.68      0.00
   -6    7    6      1.08      0.00
   -5    7    6      0.71      0.00
   -4    7    6     -0.21      0.00
   -3    7    6      1.02      0.00
   -2    7    6     -0.28      0.00
   -1    7    6     -0.38      0.00
    0    7    6      0.45      0.00
    1    7    6     -0.33      0.00
    2    7    6      0.08      0.00
    3    7    6     -0.61      0.00
    4    7    6     -1.22      0.00
    5    7    6     -0.98      0.00
    6    7    6      0.80      0.00
    7    7    6     -0.41      0.00
  -19    0    7     -0.52      0.00
  -17    0    7     -4.49      0.00
  -15    0    7      1.62      0.00
  -13    0    7      9.75      0.00
  -11    0    7      6.72      0.00
   -9    0    7    -16.02      0.00
   -7    0    7    -30.99      0.00
   -5    0    7      0.40      0.00
   -3    0    7     36.29      0.00
   -1    0    7     29.91      0.00
    1    0    7      3.41      0.00
    3    0    7     -8.92      0.00
    5    0    7     -5.52      0.00
    7    0    7     -0.83      0.00
    9    0    7     -2.87      0.00
   11    0    7     -0.32      0.00
   13    0    7      1.93      0.00
   15    0    7      0.66      0.00
   17    0    7     -1.91      0.00
   19    0    7      0.07      0.00
  -19    1    7     -0.38      0.00
  -18    1    7     -0.57      0.00
  -17    1    7      1.33      0.00
  -16    1    7     -0.09      0.00
  -15    1    7      0.84      0.00
  -14    1    7     -1.41      0.00
  -13    1    7      0.20      0.00
  -12    1    7     -4.42      0.00
  -11    1    7     -0.83      0.00
  -10    1    7     -7.20      0.00
   -9    1    7      1.77      0.00
   -8    1    7     -0.03      0.00
   -7    1    7     -1.48      0.00
   -6    1    7      8.51      0.00
   -5    1    7     -2.25      0.00
   -4    1    7      8.11      0.00
   -3    1    7      1.19      0.00
   -2    1    7     -1.33      0.00
   -1    1    7      0.74      0.00
    0    1    7      2.76      0.00
    1    1    7     -4.25      0.00
    2    1    7      7.08      0.00
    3    1    7      1.43      0.00
    4    1    7      9.68      0.00
    5    1    7      2.41      0.00
    6    1    7      7.21      0.00
    7    1    7     -0.98      0.00
    8    1    7      2.01      0.00
    9    1    7     -2.43      0.00
   10    1    7     -3.52      0.00
   11    1    7      0.78      0.00
   12    1    7     -2.65      0.00
   13    1    7      1.98      0.00
   14    1    7     -0.36      0.00
   15    1    7     -0.46      0.00
   16    1    7      0.35      0.00
   17    1    7     -1.95      0.00
   18    1    7      0.00      0.00
   19    1    7      0.13      0.00
  -19    2    7     -1.29      0.00
  -18    2    7     -0.19      0.00
  -17    2    7     -1.34      0.00
  -16    2    7      1.07      0.00
  -15    2    7     -0.88      0.00
  -14    2    7     -0.26      0.00
  -13    2    7     -3.91      0.00
  -12    2    7      0.27      0.00
  -11    2    7     -5.24      0.00
  -10    2    7      0.42      0.00
   -9    2    7     -1.44      0.00
   -8    2    7     -0.01      0.00
   -7    2    7      2.21      0.00
   -6    2    7     -1.10      0.00
   -5    2    7      1.51      0.00
   -4    2    7      0.47      0.00
   -3    2    7      6.40      0.00
   -2    2    7     -0.62      0.00
   -1    2    7     15.42      0.00
    0    2    7      0.29      0.00
    1    2    7      7.76      0.00
    2    2    7     -1.05      0.00
    3    2    7     -7.80      0.00
    4    2    7     -0.52      0.00
    5    2    7     -5.25      0.00
    6    2    7     -0.71      0.00
    7    2    7      4.39      0.00
    8    2    7     -0.48      0.00
    9    2    7      6.94      0.00
   10    2    7      1.12      0.00
   11    2    7      2.39      0.00
   12    2    7      0.54      0.00
   13    2    7     -1.57      0.00
   14    2    7     -0.85      0.00
   15    2    7     -1.77      0.00
   16    2    7      0.56      0.00
   17    2    7     -1.86      0.00
   18    2    7      0.55      0.00
   19    2    7     -0.96      0.00
  -18    3    7     -0.81      0.00
  -17    3    7      1.13      0.00
  -16    3    7      0.03      0.00
  -15    3    7      1.21      0.00
  -14    3    7     -0.25      0.00
  -13    3    7     -0.77      0.00
  -12    3    7      1.16      0.00
  -11    3    7     -0.06      0.00
  -10    3    7      1.82      0.00
   -9    3    7      0.41      0.00
   -8    3    7      0.26      0.00
   -7    3    7      0.05      0.00
   -6    3    7     -2.18      0.00
   -5    3    7     -1.16      0.00
   -4    3    7     -1.69      0.00
   -3    3    7      0.33      0.00
   -2    3    7      1.25      0.00
   -1    3    7      0.24      0.00
    0    3    7      4.07      0.00
    1    3    7     -1.31      0.00
    2    3    7      1.94      0.00
    3    3    7     -1.12      0.00
    4    3    7     -0.95      0.00
    5    3    7      1.00      0.00
    6    3    7     -1.79      0.00
    7    3    7      1.44      0.00
    8    3    7     -0.87      0.00
    9    3    7     -0.60      0.00
   10    3    7      0.32      0.00
   11    3    7     -0.92      0.00
   12    3    7     -0.02      0.00
   13    3    7     -0.05      0.00
   14    3    7     -0.64      0.00
   15    3    7      1.21      0.00
   16    3    7     -1.20      0.00
   17    3    7      1.04      0.00
   18    3    7     -0.36      0.00
  -16    4    7      0.98      0.00
  -15    4    7     -0.45      0.00
  -14    4    7     -0.83      0.00
  -13    4    7     -1.70      0.00
  -12    4    7     -0.04      0.00
  -11    4    7     -2.67      0.00
  -10    4    7      0.43      0.00
   -9    4    7      0.29      0.00
   -8    4    7      1.02      0.00
   -7    4    7      0.51      0.00
   -6    4    7      0.66      0.00
   -5    4    7      0.66      0.00
   -4    4    7     -0.81      0.00
   -3    4    7      0.72      0.00
   -2    4    7      1.05      0.00
   -1    4    7      1.70      0.00
    0    4    7     -0.22      0.00
    1    4    7     -1.26      0.00
    2    4    7     -0.61      0.00
    3    4    7     -2.31      0.00
    4    4    7     -0.38      0.00
    5    4    7      1.24      0.00
    6    4    7      0.66      0.00
    7    4    7      2.73      0.00
    8    4    7      1.29      0.00
    9    4    7     -0.29      0.00
   10    4    7      1.49      0.00
   11    4    7     -2.27      0.00
   12    4    7     -0.79      0.00
   13    4    7     -1.10      0.00
   14    4    7     -0.99      0.00
   15    4    7      0.65      0.00
   16    4    7      0.42      0.00
  -14    5    7     -1.06      0.00
  -13    5    7     -1.24      0.00
  -12    5    7      0.27      0.00
  -11    5    7      0.02      0.00
  -10    5    7     -0.88      0.00
   -9    5    7     -0.30      0.00
   -8    5    7     -2.40      0.00
   -7    5    7      0.68      0.00
   -6    5    7     -2.93      0.00
   -5    5    7     -0.99      0.00
   -4    5    7     -0.77      0.00
   -3    5    7      0.06      0.00
   -2    5    7      2.34      0.00
   -1    5    7      0.42      0.00
    0    5    7      2.21      0.00
    1    5    7     -0.49      0.00
    2    5    7      2.30      0.00
    3    5    7      0.14      0.00
    4    5    7      1.29      0.00
    5    5    7      1.36      0.00
    6    5    7      0.56      0.00
    7    5    7      1.47      0.00
    8    5    7      0.84      0.00
    9    5    7     -0.75      0.00
   10    5    7      0.98      0.00
   11    5    7      1.31      0.00
   12    5    7     -0.61      0.00
   13    5    7      1.37      0.00
   14    5    7     -1.84      0.00
  -12    6    7     -0.53      0.00
  -11    6    7      1.09      0.00
  -10    6    7     -0.53      0.00
   -9    6    7      1.20      0.00
   -8    6    7      0.52      0.00
   -7    6    7     -0.03      0.00
   -6    6    7      0.09      0.00
   -5    6    7     -0.80      0.00
   -4    6    7     -0.81      0.00
   -3    6    7      0.11      0.00
   -2    6    7      0.02      0.00
   -1    6    7      1.74      0.00
    0    6    7      1.13      0.00
    1    6    7      1.99      0.00
    2    6    7      0.02      0.00
    3    6    7      0.41      0.00
    4    6    7     -0.37      0.00
    5    6    7     -0.17      0.00
    6    6    7     -0.62      0.00
    7    6    7      0.67      0.00
    8    6    7      0.35      0.00
    9    6    7      0.48      0.00
   10    6    7     -0.34      0.00
   11    6    7     -0.99      0.00
   -7    7    7     -1.00      0.00
   -6    7    7     -0.39      0.00
   -5    7    7     -0.24      0.00
   -4    7    7     -0.79      0.00
   -3    7    7      0.34      0.00
   -2    7    7     -0.38      0.00
   -1    7    7      0.02      0.00
    0    7    7      0.20      0.00
    1    7    7     -0.67      0.00
    2    7    7      0.36      0.00
    3    7    7      0.26      0.00
    4    7    7      0.38      0.00
    5    7    7      0.60      0.00
    6    7    7      1.14      0.00
    7    7    7     -1.87      0.00
  -18    0    8      2.69      0.00
  -16    0    8      3.72      0.00
  -14    0    8     -5.13      0.00
  -12    0    8    -11.64      0.00
  -10    0    8     -0.67      0.00
   -8    0    8     23.00      0.00
   -6    0    8     22.95      0.00
   -4    0    8     -8.58      0.00
   -2    0    8    -22.89      0.00
    0    0    8    -15.40      0.00
    2    0    8     -1.47      0.00
    4    0    8      3.63      0.00
    6    0    8      2.44      0.00
    8    0    8      0.40      0.00
   10    0    8      1.47      0.00
   12    0    8     -1.11      0.00
   14    0    8     -1.92      0.00
   16    0    8      1.61      0.00
   18    0    8      1.04      0.00
  -19    1    8     -0.41      0.00
  -18    1    8     -0.60      0.00
  -17    1    8      0.26      0.00
  -16    1    8     -1.14      0.00
  -15    1    8     -0.49      0.00
  -14    1    8     -0.24      0.00
  -13    1    8      2.52      0.00
  -12    1    8      0.73      0.00
  -11    1    8      6.78      0.00
  -10    1    8     -0.85      0.00
   -9    1    8      7.51      0.00
   -8    1    8     -1.45      0.00
   -7    1    8     -2.13      0.00
   -6    1    8      1.93      0.00
   -5    1    8     -7.65      0.00
   -4    1    8      1.50      0.00
   -3    1    8     -2.23      0.00
   -2    1    8     -2.79      0.00
   -1    1    8      0.71      0.00
    0    1    8      2.06      0.00
    1    1    8     -2.40      0.00
    2    1    8      0.74      0.00
    3    1    8     -7.40      0.00
    4    1    8     -0.87      0.00
    5    1    8     -9.38      0.00
    6    1    8     -0.75      0.00
    7    1    8     -7.46      0.00
    8    1    8      2.91      0.00
    9    1    8     -0.92      0.00
   10    1    8      1.57      0.00
   11    1    8      3.58      0.00
   12    1    8     -1.01      0.00
   13    1    8      1.79      0.00
   14    1    8     -1.10      0.00
   15    1    8      0.45      0.00
   16    1    8      1.85      0.00
   17    1    8     -0.17      0.00
   18    1    8      0.24      0.00
   19    1    8      0.64      0.00
  -19    2    8     -0.10      0.00
  -18    2    8      0.78      0.00
  -17    2    8     -0.37      0.00
  -16    2    8      0.38      0.00
  -15    2    8     -0.39      0.00
  -14    2    8      1.99      0.00
  -13    2    8      0.57      0.00
  -12    2    8      5.38      0.00
  -11    2    8     -0.43      0.00
  -10    2    8      5.49      0.00
   -9    2    8     -0.32      0.00
   -8    2    8      0.34      0.00
   -7    2    8      0.49      0.00
   -6    2    8     -0.88      0.00
   -5    2    8      0.46      0.00
   -4    2    8     -0.07      0.00
   -3    2    8      0.78      0.00
   -2    2    8     -9.00      0.00
   -1    2    8      0.50      0.00
    0    2    8    -15.65      0.00
    1    2    8      0.05      0.00
    2    2    8     -2.79      0.00
    3    2    8      0.91      0.00
    4    2    8      8.47      0.00
    5    2    8      0.94      0.00
    6    2    8      3.46      0.00
    7    2    8      0.77      0.00
    8    2    8     -5.03      0.00
    9    2    8      0.01      0.00
   10    2    8     -5.65      0.00
   11    2    8     -1.21      0.00
   12    2    8     -1.40      0.00
   13    2    8      0.09      0.00
   14    2    8      0.95      0.00
   15    2    8      0.46      0.00
   16    2    8      0.91      0.00
   17    2    8     -0.62      0.00
   18    2    8      1.80      0.00
  -18    3    8     -0.28      0.00
  -17    3    8      0.16      0.00
  -16    3    8     -1.42      0.00
  -15    3    8      0.27      0.00
  -14    3    8     -0.40      0.00
  -13    3    8      0.13      0.00
  -12    3    8      0.75      0.00
  -11    3    8     -1.72      0.00
  -10    3    8     -0.05      0.00
   -9    3    8     -1.20      0.00
   -8    3    8     -0.89      0.00
   -7    3    8      0.77      0.00
   -6    3    8      0.11      0.00
   -5    3    8      3.65      0.00
   -4    3    8      0.83      0.00
   -3    3    8      1.74      0.00
   -2    3    8      0.01      0.00
   -1    3    8     -1.58      0.00
    0    3    8      0.97      0.00
    1    3    8     -3.48      0.00
    2    3    8      1.22      0.00
    3    3    8     -0.99      0.00
    4    3    8      0.42      0.00
    5    3    8      1.02      0.00
    6    3    8     -1.92      0.00
    7    3    8      1.50      0.00
    8    3    8     -0.84      0.00
    9    3    8      0.50      0.00
   10    3    8      0.65      0.00
   11    3    8     -0.61      0.00
   12    3    8      0.82      0.00
   13    3    8     -0.01      0.00
   14    3    8     -0.74      0.00
   15    3    8      0.65      0.00
   16    3    8     -0.61      0.00
   17    3    8      1.45      0.00
  -16    4    8      0.47      0.00
  -15    4    8     -0.26      0.00
  -14    4    8     -0.31      0.00
  -13    4    8      0.47      0.00
  -12    4    8      2.45      0.00
  -11    4    8     -0.02      0.00
  -10    4    8      2.23      0.00
   -9    4    8     -0.58      0.00
   -8    4    8      1.00      0.00
   -7    4    8     -1.15      0.00
   -6    4    8      0.36      0.00
   -5    4    8      0.41      0.00
   -4    4    8     -0.33      0.00
   -3    4    8      0.11      0.00
   -2    4    8     -1.65      0.00
   -1    4    8     -0.61      0.00
    0    4    8     -0.78      0.00
    1    4    8      0.22      0.00
    2    4    8      2.19      0.00
    3    4    8      0.94      0.00
    4    4    8      1.54      0.00
    5    4    8      0.41      0.00
    6    4    8     -2.48      0.00
    7    4    8     -0.46      0.00
    8    4    8     -2.49      0.00
    9    4    8     -1.62      0.00
   10    4    8      0.22      0.00
   11    4    8     -0.62      0.00
   12    4    8      2.10      0.00
   13    4    8      0.74      0.00
   14    4    8      0.25      0.00
   15    4    8     -0.47      0.00
   16    4    8     -0.59      0.00
  -14    5    8      0.38      0.00
  -13    5    8     -0.33      0.00
  -12    5    8      0.75      0.00
  -11    5    8     -0.19      0.00
  -10    5    8     -0.08      0.00
   -9    5    8      1.06      0.00
   -8    5    8     -0.48      0.00
   -7    5    8      2.95      0.00
   -6    5    8      0.14      0.00
   -5    5    8      2.89      0.00
   -4    5    8      0.73      0.00
   -3    5    8     -0.21      0.00
   -2    5    8     -0.67      0.00
   -1    5    8     -2.15      0.00
    0    5    8     -0.12      0.00
    1    5    8     -2.48      0.00
    2    5    8      0.57      0.00
    3    5    8     -2.47      0.00
    4    5    8     -0.23      0.00
    5    5    8     -1.49      0.00
    6    5    8     -1.77      0.00
    7    5    8     -0.78      0.00
    8    5    8      0.20      0.00
    9    5    8     -1.34      0.00
   10    5    8      0.14      0.00
   11    5    8     -0.17      0.00
   12    5    8     -0.85      0.00
   13    5    8      1.21      0.00
   14    5    8     -1.56      0.00
  -11    6    8     -0.08      0.00
  -10    6    8     -1.73      0.00
   -9    6    8     -0.08      0.00
   -8    6    8     -0.58      0.00
   -7    6    8     -0.70      0.00
   -6    6    8      0.02      0.00
   -5    6    8      0.80      0.00
   -4    6    8      0.68      0.00
   -3    6    8      0.59      0.00
   -2    6    8     -0.50      0.00
   -1    6    8     -0.34      0.00
    0    6    8     -2.03      0.00
    1    6    8     -0.64      0.00
    2    6    8     -1.57      0.00
    3    6    8      0.44      0.00
    4    6    8     -0.21      0.00
    5    6    8      0.75      0.00
    6    6    8      0.28      0.00
    7    6    8      0.85      0.00
    8    6    8     -1.05      0.00
    9    6    8     -0.02      0.00
   10    6    8     -0.47      0.00
   11    6    8      1.49      0.00
   -7    7    8      0.33      0.00
   -6    7    8      0.52      0.00
   -5    7    8      0.14      0.00
   -4    7    8     -0.16      0.00
   -3    7    8      0.73      0.00
   -2    7    8     -0.57      0.00
   -1    7    8      0.09      0.00
    0    7    8      0.56      0.00
    1    7    8     -0.15      0.00
    2    7    8      0.45      0.00
    3    7    8     -0.11      0.00
    4    7    8     -0.75      0.00
    5    7    8     -0.73      0.00
    6    7    8      0.98      0.00
    7    7    8     -0.45      0.00
  -19    0    9      0.88      0.00
  -17    0    9     -4.92      0.00
  -15    0    9     -1.05      0.00
  -13    0    9      8.30      0.00
  -11    0    9     10.63      0.00
   -9    0    9     -6.37      0.00
   -7    0    9    -22.91      0.00
   -5    0    9    -10.54      0.00
   -3    0    9      8.39      0.00
   -1    0    9      9.69      0.00
    1    0    9      8.03      0.00
    3    0    9      1.33      0.00
    5    0    9     -1.97      0.00
    7    0    9     -0.88      0.00
    9    0    9     -0.91      0.00
   11    0    9      0.76      0.00
   13    0    9      1.89      0.00
   15    0    9      0.74      0.00
   17    0    9     -2.22      0.00
   19    0    9     -0.49      0.00
  -19    1    9      0.30      0.00
  -18    1    9     -0.01      0.00
  -17    1    9      1.19      0.00
  -16    1    9      0.89      0.00
  -15    1    9      0.27      0.00
  -14    1    9      0.08      0.00
  -13    1    9     -0.29      0.00
  -12    1    9     -3.86      0.00
  -11    1    9     -0.75      0.00
  -10    1    9     -9.14      0.00
   -9    1    9      2.72      0.00
   -8    1    9     -5.65      0.00
   -7    1    9      0.41      0.00
   -6    1    9      3.08      0.00
   -5    1    9     -2.12      0.00
   -4    1    9      4.17      0.00
   -3    1    9     -0.28      0.00
   -2    1    9     -1.08      0.00
   -1    1    9      0.89      0.00
    0    1    9     -1.55      0.00
    1    1    9     -2.25      0.00
    2    1    9      1.19      0.00
    3    1    9     -0.20      0.00
    4    1    9      6.64      0.00
    5    1    9     -0.16      0.00
    6    1    9      8.96      0.00
    7    1    9     -1.35      0.00
    8    1    9      6.04      0.00
    9    1    9     -3.38      0.00
   10    1    9     -0.98      0.00
   11    1    9     -0.56      0.00
   12    1    9     -2.99      0.00
   13    1    9      1.23      0.00
   14    1    9     -1.20      0.00
   15    1    9     -0.07      0.00
   16    1    9     -0.46      0.00
   17    1    9     -1.40      0.00
   18    1    9      0.01      0.00
   19    1    9      1.25      0.00
  -18    2    9      0.41      0.00
  -17    2    9      0.11      0.00
  -16    2    9      0.41      0.00
  -15    2    9     -0.24      0.00
  -14    2    9     -0.96      0.00
  -13    2    9     -3.21      0.00
  -12    2    9     -0.08      0.00
  -11    2    9     -6.68      0.00
  -10    2    9      0.18      0.00
   -9    2    9     -4.76      0.00
   -8    2    9      0.22      0.00
   -7    2    9     -0.44      0.00
   -6    2    9     -0.66      0.00
   -5    2    9     -2.00      0.00
   -4    2    9     -0.63      0.00
   -3    2    9     -0.09      0.00
   -2    2    9     -1.76      0.00
   -1    2    9     11.06      0.00
    0    2    9      0.46      0.00
    1    2    9     13.12      0.00
    2    2    9     -0.38      0.00
    3    2    9     -1.90      0.00
    4    2    9     -0.94      0.00
    5    2    9     -8.15      0.00
    6    2    9     -0.93      0.00
    7    2    9     -1.62      0.00
    8    2    9     -0.94      0.00
    9    2    9      5.41      0.00
   10    2    9      0.53      0.00
   11    2    9      4.46      0.00
   12    2    9      0.63      0.00
   13    2    9      0.94      0.00
   14    2    9     -0.23      0.00
   15    2    9      0.11      0.00
   16    2    9      0.14      0.00
   17    2    9     -1.37      0.00
   18    2    9      0.05      0.00
  -18    3    9     -0.10      0.00
  -17    3    9      0.45      0.00
  -16    3    9      0.26      0.00
  -15    3    9      1.27      0.00
  -14    3    9     -0.55      0.00
  -13    3    9     -0.55      0.00
  -12    3    9      0.38      0.00
  -11    3    9     -0.45      0.00
  -10    3    9      1.85      0.00
   -9    3    9      0.05      0.00
   -8    3    9      0.95      0.00
   -7    3    9      1.22      0.00
   -6    3    9     -2.44      0.00
   -5    3    9     -0.29      0.00
   -4    3    9     -3.70      0.00
   -3    3    9     -0.76      0.00
   -2    3    9     -1.77      0.00
   -1    3    9     -0.60      0.00
    0    3    9      1.93      0.00
    1    3    9     -0.93      0.00
    2    3    9      2.28      0.00
    3    3    9     -0.86      0.00
    4    3    9      0.18      0.00
    5    3    9      0.65      0.00
    6    3    9     -1.07      0.00
    7    3    9      1.84      0.00
    8    3    9     -1.43      0.00
    9    3    9      0.22      0.00
   10    3    9      0.04      0.00
   11    3    9     -1.07      0.00
   12    3    9      0.58      0.00
   13    3    9     -0.17      0.00
   14    3    9      0.32      0.00
   15    3    9      0.48      0.00
   16    3    9     -1.30      0.00
   17    3    9      0.00      0.00
  -16    4    9      0.83      0.00
  -15    4    9      0.78      0.00
  -14    4    9     -0.24      0.00
  -13    4    9      0.20      0.00
  -12    4    9     -0.27      0.00
  -11    4    9     -2.62      0.00
  -10    4    9      0.14      0.00
   -9    4    9     -2.23      0.00
   -8    4    9      0.43      0.00
   -7    4    9     -2.28      0.00
   -6    4    9      1.03      0.00
   -5    4    9     -0.39      0.00
   -4    4    9     -1.02      0.00
   -3    4    9      0.97      0.00
   -2    4    9      0.46      0.00
   -1    4    9      1.89      0.00
    0    4    9      0.63      0.00
    1    4    9     -0.30      0.00
    2    4    9     -0.49      0.00
    3    4    9     -2.67      0.00
    4    4    9     -1.21      0.00
    5    4    9     -0.65      0.00
    6    4    9     -0.58      0.00
    7    4    9      2.77      0.00
    8    4    9      0.86      0.00
    9    4    9      2.26      0.00
   10    4    9      1.41      0.00
   11    4    9     -0.63      0.00
   12    4    9     -0.04      0.00
   13    4    9     -1.24      0.00
   14    4    9      0.38      0.00
   15    4    9      0.34      0.00
   16    4    9      0.99      0.00
  -14    5    9      0.17      0.00
  -13    5    9     -0.60      0.00
  -12    5    9      1.05      0.00
  -11    5    9     -0.11      0.00
  -10    5    9      0.12      0.00
   -9    5    9      0.08      0.00
   -8    5    9     -1.30      0.00
   -7    5    9      0.70      0.00
   -6    5    9     -3.36      0.00
   -5    5    9     -0.67      0.00
   -4    5    9     -2.33      0.00
   -3    5    9     -0.06      0.00
   -2    5    9      0.81      0.00
   -1    5    9      1.06      0.00
    0    5    9      1.51      0.00
    1    5    9     -0.60      0.00
    2    5    9      2.92      0.00
    3    5    9     -0.71      0.00
    4    5    9      2.02      0.00
    5    5    9      0.43      0.00
    6    5    9      1.53      0.00
    7    5    9      1.12      0.00
    8    5    9      1.32      0.00
    9    5    9     -1.34      0.00
   10    5    9      0.88      0.00
   11    5    9     -0.03      0.00
   12    5    9     -0.38      0.00
   13    5    9      0.51      0.00
   14    5    9     -1.14      0.00
  -11    6    9      0.76      0.00
  -10    6    9      0.49      0.00
   -9    6    9      1.10      0.00
   -8    6    9      0.50      0.00
   -7    6    9      0.48      0.00
   -6    6    9      0.16      0.00
   -5    6    9     -0.30      0.00
   -4    6    9     -0.93      0.00
   -3    6    9     -0.34      0.00
   -2    6    9     -0.29      0.00
   -1    6    9      0.47      0.00
    0    6    9      0.52      0.00
    1    6    9      1.71      0.00
    2    6    9     -0.14      0.00
    3    6    9      1.14      0.00
    4    6    9     -0.34      0.00
    5    6    9     -0.69      0.00
    6    6    9     -1.35      0.00
    7    6    9      0.17      0.00
    8    6    9     -0.06      0.00
    9    6    9      0.56      0.00
   10    6    9     -1.33      0.00
   11    6    9      0.52      0.00
   -6    7    9     -0.11      0.00
   -5    7    9      0.06      0.00
   -4    7    9     -0.34      0.00
   -3    7    9      0.43      0.00
   -2    7    9     -0.55      0.00
   -1    7    9      0.31      0.00
    0    7    9     -0.25      0.00
    1    7    9     -0.58      0.00
    2    7    9      0.16      0.00
    3    7    9      0.20      0.00
    4    7    9     -0.03      0.00
    5    7    9      0.43      0.00
    6    7    9      0.97      0.00
  -18    0   10      0.55      0.00
  -16    0   10      5.28      0.00
  -14    0   10     -1.97      0.00
  -12    0   10    -10.91      0.00
  -10    0   10     -6.77      0.00
   -8    0   10     10.51      0.00
   -6    0   10     14.77      0.00
   -4    0   10      0.85      0.00
   -2    0   10     -0.83      0.00
    0    0   10     -1.63      0.00
    2    0   10     -3.18      0.00
    4    0   10     -1.04      0.00
    6    0   10      2.92      0.00
    8    0   10      1.28      0.00
   10    0   10     -0.35      0.00
   12    0   10     -2.37      0.00
   14    0   10     -2.53      0.00
   16    0   10      1.05      0.00
   18    0   10      1.46      0.00
  -19    1   10     -0.25      0.00
  -18    1   10     -0.97      0.00
  -17    1   10     -0.30      0.00
  -16    1   10     -0.86      0.00
  -15    1   10     -1.74      0.00
  -14    1   10      0.26      0.00
  -13    1   10      0.62      0.00
  -12    1   10      0.94      0.00
  -11    1   10      5.42      0.00
  -10    1   10     -0.61      0.00
   -9    1   10     10.01      0.00
   -8    1   10     -3.25      0.00
   -7    1   10      2.55      0.00
   -6    1   10      0.81      0.00
   -5    1   10     -2.19      0.00
   -4    1   10      2.35      0.00
   -3    1   10     -0.31      0.00
   -2    1   10      0.22      0.00
   -1    1   10      2.82      0.00
    0    1   10      1.78      0.00
    1    1   10      4.30      0.00
    2    1   10      1.53      0.00
    3    1   10     -0.14      0.00
    4    1   10      0.82      0.00
    5    1   10     -5.90      0.00
    6    1   10      0.46      0.00
    7    1   10     -7.58      0.00
    8    1   10      2.68      0.00
    9    1   10     -3.77      0.00
   10    1   10      2.14      0.00
   11    1   10      2.03      0.00
   12    1   10     -0.32      0.00
   13    1   10      1.83      0.00
   14    1   10     -1.49      0.00
   15    1   10      0.96      0.00
   16    1   10      1.50      0.00
   17    1   10      0.18      0.00
   18    1   10     -0.66      0.00
   19    1   10      0.14      0.00
  -18    2   10     -1.01      0.00
  -17    2   10     -0.52      0.00
  -16    2   10     -0.44      0.00
  -15    2   10      0.55      0.00
  -14    2   10      0.54      0.00
  -13    2   10      1.36      0.00
  -12    2   10      4.40      0.00
  -11    2   10     -0.18      0.00
  -10    2   10      7.28      0.00
   -9    2   10     -0.04      0.00
   -8    2   10      3.88      0.00
   -7    2   10     -0.01      0.00
   -6    2   10      1.87      0.00
   -5    2   10      0.55      0.00
   -4    2   10      4.95      0.00
   -3    2   10      1.64      0.00
   -2    2   10     -1.23      0.00
   -1    2   10      0.74      0.00
    0    2   10    -12.18      0.00
    1    2   10     -0.80      0.00
    2    2   10     -8.63      0.00
    3    2   10      0.37      0.00
    4    2   10      4.55      0.00
    5    2   10      0.93      0.00
    6    2   10      7.22      0.00
    7    2   10      1.15      0.00
    8    2   10     -0.52      0.00
    9    2   10      0.50      0.00
   10    2   10     -5.15      0.00
   11    2   10     -0.41      0.00
   12    2   10     -3.37      0.00
   13    2   10     -0.37      0.00
   14    2   10     -0.84      0.00
   15    2   10     -0.18      0.00
   16    2   10     -0.31      0.00
   17    2   10     -0.37      0.00
   18    2   10      1.53      0.00
  -17    3   10     -0.69      0.00
  -16    3   10     -0.71      0.00
  -15    3   10     -0.03      0.00
  -14    3   10     -0.44      0.00
  -13    3   10      0.57      0.00
  -12    3   10      0.78      0.00
  -11    3   10     -1.18      0.00
  -10    3   10      0.71      0.00
   -9    3   10     -1.90      0.00
   -8    3   10     -0.60      0.00
   -7    3   10     -0.57      0.00
   -6    3   10     -1.18      0.00
   -5    3   10      3.25      0.00
   -4    3   10      0.37      0.00
   -3    3   10      3.46      0.00
   -2    3   10      0.68      0.00
   -1    3   10      1.15      0.00
    0    3   10      0.64      0.00
    1    3   10     -1.44      0.00
    2    3   10      0.52      0.00
    3    3   10     -1.08      0.00
    4    3   10      0.45      0.00
    5    3   10      0.33      0.00
    6    3   10     -0.93      0.00
    7    3   10      1.39      0.00
    8    3   10     -1.23      0.00
    9    3   10      1.22      0.00
   10    3   10      0.49      0.00
   11    3   10     -0.48      0.00
   12    3   10      1.13      0.00
   13    3   10     -0.78      0.00
   14    3   10     -0.40      0.00
   15    3   10     -0.10      0.00
   16    3   10      0.29      0.00
   17    3   10      1.17      0.00
  -16    4   10     -0.36      0.00
  -15    4   10     -0.32      0.00
  -14    4   10     -1.67      0.00
  -13    4   10      0.30      0.00
  -12    4   10      0.13      0.00
  -11    4   10      0.30      0.00
  -10    4   10      2.23      0.00
   -9    4   10      0.00      0.00
   -8    4   10      2.97      0.00
   -7    4   10     -0.86      0.00
   -6    4   10      2.28      0.00
   -5    4   10     -0.12      0.00
   -4    4   10     -0.07      0.00
   -3    4   10      0.63      0.00
   -2    4   10     -1.74      0.00
   -1    4   10     -0.89      0.00
    0    4   10     -1.17      0.00
    1    4   10     -0.60      0.00
    2    4   10      1.29      0.00
    3    4   10      1.00      0.00
    4    4   10      3.04      0.00
    5    4   10      1.57      0.00
    6    4   10      0.05      0.00
    7    4   10      0.22      0.00
    8    4   10     -2.54      0.00
    9    4   10     -1.32      0.00
   10    4   10     -1.91      0.00
   11    4   10     -0.75      0.00
   12    4   10      0.70      0.00
   13    4   10      0.17      0.00
   14    4   10      0.24      0.00
   15    4   10     -1.44      0.00
   16    4   10     -0.61      0.00
  -14    5   10     -0.36      0.00
  -13    5   10     -1.56      0.00
  -12    5   10      0.64      0.00
  -11    5   10     -0.77      0.00
  -10    5   10      0.09      0.00
   -9    5   10     -0.40      0.00
   -8    5   10     -0.52      0.00
   -7    5   10      1.86      0.00
   -6    5   10     -0.08      0.00
   -5    5   10      3.33      0.00
   -4    5   10      0.63      0.00
   -3    5   10      1.56      0.00
   -2    5   10     -0.82      0.00
   -1    5   10     -0.25      0.00
    0    5   10     -0.45      0.00
    1    5   10     -1.52      0.00
    2    5   10      1.09      0.00
    3    5   10     -2.26      0.00
    4    5   10      0.93      0.00
    5    5   10     -1.62      0.00
    6    5   10     -1.06      0.00
    7    5   10     -1.63      0.00
    8    5   10      0.54      0.00
    9    5   10     -1.48      0.00
   10    5   10      1.17      0.00
   11    5   10     -0.30      0.00
   12    5   10      0.98      0.00
   13    5   10      0.71      0.00
   14    5   10     -0.71      0.00
  -11    6   10     -0.88      0.00
  -10    6   10     -0.79      0.00
   -9    6   10     -0.54      0.00
   -8    6   10     -0.40      0.00
   -7    6   10     -0.54      0.00
   -6    6   10     -0.22      0.00
   -5    6   10      0.56      0.00
   -4    6   10      0.14      0.00
   -3    6   10      0.46      0.00
   -2    6   10      0.58      0.00
   -1    6   10      0.04      0.00
    0    6   10     -0.37      0.00
    1    6   10     -0.25      0.00
    2    6   10     -1.18      0.00
    3    6   10      0.09      0.00
    4    6   10     -0.23      0.00
    5    6   10      0.43      0.00
    6    6   10      0.92      0.00
    7    6   10      0.96      0.00
    8    6   10      0.23      0.00
    9    6   10     -0.36      0.00
   10    6   10     -0.46      0.00
   11    6   10      2.05      0.00
   -6    7   10      0.16      0.00
   -5    7   10      0.07      0.00
   -4    7   10     -0.16      0.00
   -3    7   10      0.58      0.00
   -2    7   10     -0.74      0.00
   -1    7   10      0.77      0.00
    0    7   10      0.05      0.00
    1    7   10      0.19      0.00
    2    7   10      0.04      0.00
    3    7   10      0.27      0.00
    4    7   10     -0.93      0.00
    5    7   10     -0.48      0.00
    6    7   10      0.51      0.00
  -19    0   11      2.34      0.00
  -17    0   11     -3.12      0.00
  -15    0   11     -3.46      0.00
  -13    0   11      5.04      0.00
  -11    0   11     11.56      0.00
   -9    0   11      2.15      0.00
   -7    0   11     -8.81      0.00
   -5    0   11     -3.16      0.00
   -3    0   11      0.39      0.00
   -1    0   11     -7.86      0.00
    1    0   11     -3.21      0.00
    3    0   11      1.30      0.00
    5    0   11     -1.87      0.00
    7    0   11     -4.24      0.00
    9    0   11     -1.39      0.00
   11    0   11      2.80      0.00
   13    0   11      3.79      0.00
   15    0   11      1.78      0.00
   17    0   11     -1.92      0.00
   19    0   11     -0.86      0.00
  -19    1   11      0.77      0.00
  -18    1   11      0.20      0.00
  -17    1   11      1.26      0.00
  -16    1   11      1.36      0.00
  -15    1   11      0.32      0.00
  -14    1   11      2.23      0.00
  -13    1   11     -0.77      0.00
  -12    1   11     -1.10      0.00
  -11    1   11     -1.16      0.00
  -10    1   11     -7.07      0.00
   -9    1   11      2.37      0.00
   -8    1   11     -7.63      0.00
   -7    1   11      2.06      0.00
   -6    1   11     -0.36      0.00
   -5    1   11     -1.67      0.00
   -4    1   11      0.13      0.00
   -3    1   11     -2.41      0.00
   -2    1   11     -1.80      0.00
   -1    1   11     -1.32      0.00
    0    1   11     -5.68      0.00
    1    1   11     -2.70      0.00
    2    1   11     -6.11      0.00
    3    1   11     -0.68      0.00
    4    1   11     -0.32      0.00
    5    1   11     -0.24      0.00
    6    1   11      4.96      0.00
    7    1   11     -0.31      0.00
    8    1   11      6.19      0.00
    9    1   11     -2.53      0.00
   10    1   11      1.56      0.00
   11    1   11     -0.31      0.00
   12    1   11     -1.45      0.00
   13    1   11      1.17      0.00
   14    1   11     -0.90      0.00
   15    1   11      0.36      0.00
   16    1   11     -0.79      0.00
   17    1   11     -1.43      0.00
   18    1   11      0.04      0.00
   19    1   11      1.57      0.00
  -18    2   11      1.59      0.00
  -17    2   11      1.30      0.00
  -16    2   11      0.22      0.00
  -15    2   11      0.60      0.00
  -14    2   11     -1.86      0.00
  -13    2   11     -0.74      0.00
  -12    2   11     -0.71      0.00
  -11    2   11     -5.62      0.00
  -10    2   11      0.02      0.00
   -9    2   11     -6.67      0.00
   -8    2   11      0.04      0.00
   -7    2   11     -2.98      0.00
   -6    2   11      0.07      0.00
   -5    2   11     -4.66      0.00
   -4    2   11     -0.80      0.00
   -3    2   11     -5.64      0.00
   -2    2   11     -1.69      0.00
   -1    2   11      3.31      0.00
    0    2   11      0.80      0.00
    1    2   11     11.67      0.00
    2    2   11      0.77      0.00
    3    2   11      4.50      0.00
    4    2   11     -0.40      0.00
    5    2   11     -6.08      0.00
    6    2   11     -1.03      0.00
    7    2   11     -5.29      0.00
    8    2   11     -1.03      0.00
    9    2   11      1.96      0.00
   10    2   11     -0.08      0.00
   11    2   11      4.45      0.00
   12    2   11      0.31      0.00
   13    2   11      2.00      0.00
   14    2   11      0.54      0.00
   15    2   11      1.39      0.00
   16    2   11      0.77      0.00
   17    2   11     -0.71      0.00
   18    2   11      0.20      0.00
  -17    3   11     -0.18      0.00
  -16    3   11      0.86      0.00
  -15    3   11      0.67      0.00
  -14    3   11     -0.27      0.00
  -13    3   11     -0.40      0.00
  -12    3   11     -0.15      0.00
  -11    3   11     -0.70      0.00
  -10    3   11      1.81      0.00
   -9    3   11     -0.84      0.00
   -8    3   11      2.48      0.00
   -7    3   11      1.29      0.00
   -6    3   11     -0.31      0.00
   -5    3   11      1.08      0.00
   -4    3   11     -3.05      0.00
   -3    3   11     -0.42      0.00
   -2    3   11     -2.98      0.00
   -1    3   11     -0.56      0.00
    0    3   11     -0.87      0.00
    1    3   11     -0.30      0.00
    2    3   11      0.78      0.00
    3    3   11     -0.54      0.00
    4    3   11      0.03      0.00
    5    3   11     -0.41      0.00
    6    3   11     -0.56      0.00
    7    3   11      0.82      0.00
    8    3   11     -1.89      0.00
    9    3   11      0.68      0.00
   10    3   11     -0.57      0.00
   11    3   11     -1.05      0.00
   12    3   11      0.66      0.00
   13    3   11     -0.36      0.00
   14    3   11      1.14      0.00
   15    3   11      0.15      0.00
   16    3   11     -0.24      0.00
   17    3   11     -0.64      0.00
  -16    4   11      0.17      0.00
  -15    4   11      1.30      0.00
  -14    4   11     -0.24      0.00
  -13    4   11      1.93      0.00
  -12    4   11     -0.47      0.00
  -11    4   11     -0.13      0.00
  -10    4   11     -0.10      0.00
   -9    4   11     -1.96      0.00
   -8    4   11     -0.09      0.00
   -7    4   11     -3.47      0.00
   -6    4   11      1.14      0.00
   -5    4   11     -1.48      0.00
   -4    4   11     -0.59      0.00
   -3    4   11      0.80      0.00
   -2    4   11     -0.09      0.00
   -1    4   11      1.45      0.00
    0    4   11      1.43      0.00
    1    4   11      0.22      0.00
    2    4   11     -0.06      0.00
    3    4   11     -2.35      0.00
    4    4   11     -1.58      0.00
    5    4   11     -3.17      0.00
    6    4   11     -1.52      0.00
    7    4   11      0.22      0.00
    8    4   11      0.75      0.00
    9    4   11      2.54      0.00
   10    4   11      1.14      0.00
   11    4   11      1.29      0.00
   12    4   11     -0.25      0.00
   13    4   11     -0.09      0.00
   14    4   11      0.33      0.00
   15    4   11      0.40      0.00
   16    4   11      0.98      0.00
  -14    5   11      0.99      0.00
  -13    5   11     -0.01      0.00
  -12    5   11      1.52      0.00
  -11    5   11     -0.56      0.00
  -10    5   11      0.71      0.00
   -9    5   11      0.04      0.00
   -8    5   11      0.41      0.00
   -7    5   11      0.39      0.00
   -6    5   11     -2.24      0.00
   -5    5   11     -0.39      0.00
   -4    5   11     -2.99      0.00
   -3    5   11     -0.31      0.00
   -2    5   11     -1.26      0.00
   -1    5   11      1.23      0.00
    0    5   11     -0.47      0.00
    1    5   11     -0.48      0.00
    2    5   11      1.53      0.00
    3    5   11     -1.41      0.00
    4    5   11      0.98      0.00
    5    5   11     -0.31      0.00
    6    5   11      1.49      0.00
    7    5   11      1.02      0.00
    8    5   11      1.89      0.00
    9    5   11     -1.32      0.00
   10    5   11      1.18      0.00
   11    5   11     -1.54      0.00
   12    5   11     -0.13      0.00
   13    5   11     -1.07      0.00
   14    5   11     -0.33      0.00
  -11    6   11     -0.05      0.00
  -10    6   11      0.94      0.00
   -9    6   11      0.11      0.00
   -8    6   11      0.39      0.00
   -7    6   11      0.08      0.00
   -6    6   11     -0.06      0.00
   -5    6   11      0.12      0.00
   -4    6   11     -0.54      0.00
   -3    6   11     -0.04      0.00
   -2    6   11     -0.28      0.00
   -1    6   11     -0.87      0.00
    0    6   11      0.26      0.00
    1    6   11      0.04      0.00
    2    6   11      0.07      0.00
    3    6   11      0.84      0.00
    4    6   11      0.53      0.00
    5    6   11     -0.75      0.00
    6    6   11     -0.84      0.00
    7    6   11     -0.67      0.00
    8    6   11      0.62      0.00
    9    6   11     -0.88      0.00
   10    6   11     -0.44      0.00
   11    6   11      0.35      0.00
   -6    7   11     -0.18      0.00
   -5    7   11      0.06      0.00
   -4    7   11     -0.20      0.00
   -3    7   11      0.32      0.00
   -2    7   11     -0.73      0.00
   -1    7   11      0.63      0.00
    0    7   11     -0.95      0.00
    1    7   11      0.18      0.00
    2    7   11     -0.32      0.00
    3    7   11      0.70      0.00
    4    7   11     -0.32      0.00
    5    7   11      0.84      0.00
  -18    0   12     -1.97      0.00
  -16    0   12      4.51      0.00
  -14    0   12      1.03      0.00
  -12    0   12     -7.89      0.00
  -10    0   12     -9.45      0.00
   -8    0   12      0.86      0.00
   -6    0   12      1.42      0.00
   -4    0   12     -4.91      0.00
   -2    0   12      5.63      0.00
    0    0   12     12.81      0.00
    2    0   12      4.34      0.00
    4    0   12     -0.34      0.00
    6    0   12      5.62      0.00
    8    0   12      5.13      0.00
   10    0   12     -0.43      0.00
   12    0   12     -4.87      0.00
   14    0   12     -4.25      0.00
   16    0   12     -0.04      0.00
   18    0   12      1.78      0.00
  -19    1   12     -0.10      0.00
  -18    1   12     -1.37      0.00
  -17    1   12     -0.66      0.00
  -16    1   12     -1.12      0.00
  -15    1   12     -2.74      0.00
  -14    1   12      0.31      0.00
  -13    1   12     -2.51      0.00
  -12    1   12      1.37      0.00
  -11    1   12      1.45      0.00
  -10    1   12      0.52      0.00
   -9    1   12      7.26      0.00
   -8    1   12     -3.12      0.00
   -7    1   12      3.16      0.00
   -6    1   12     -0.47      0.00
   -5    1   12     -0.05      0.00
   -4    1   12      1.82      0.00
   -3    1   12      1.18      0.00
   -2    1   12      2.06      0.00
   -1    1   12      3.19      0.00
    0    1   12      2.22      0.00
    1    1   12      8.04      0.00
    2    1   12      1.64      0.00
    3    1   12      6.20      0.00
    4    1   12     -0.59      0.00
    5    1   12      0.28      0.00
    6    1   12     -1.27      0.00
    7    1   12     -4.38      0.00
    8    1   12      0.71      0.00
    9    1   12     -4.68      0.00
   10    1   12      0.76      0.00
   11    1   12     -0.73      0.00
   12    1   12     -0.62      0.00
   13    1   12      0.31      0.00
   14    1   12     -1.69      0.00
   15    1   12      0.61      0.00
   16    1   12      1.73      0.00
   17    1   12      0.45      0.00
   18    1   12     -0.17      0.00
  -18    2   12     -1.68      0.00
  -17    2   12     -1.57      0.00
  -16    2   12     -1.07      0.00
  -15    2   12      0.87      0.00
  -14    2   12     -1.33      0.00
  -13    2   12      2.11      0.00
  -12    2   12      1.12      0.00
  -11    2   12      0.03      0.00
  -10    2   12      5.91      0.00
   -9    2   12      0.26      0.00
   -8    2   12      4.80      0.00
   -7    2   12     -0.39      0.00
   -6    2   12      2.84      0.00
   -5    2   12     -0.14      0.00
   -4    2   12      6.89      0.00
   -3    2   12      1.19      0.00
   -2    2   12      4.31      0.00
   -1    2   12      0.52      0.00
    0    2   12     -5.39      0.00
    1    2   12     -1.57      0.00
    2    2   12     -9.57      0.00
    3    2   12     -0.54      0.00
    4    2   12     -1.22      0.00
    5    2   12      0.48      0.00
    6    2   12      6.57      0.00
    7    2   12      1.27      0.00
    8    2   12      3.01      0.00
    9    2   12      0.24      0.00
   10    2   12     -2.53      0.00
   11    2   12      0.02      0.00
   12    2   12     -3.20      0.00
   13    2   12     -0.45      0.00
   14    2   12     -1.39      0.00
   15    2   12     -1.04      0.00
   16    2   12     -1.27      0.00
   17    2   12     -0.86      0.00
   18    2   12      0.93      0.00
  -17    3   12     -1.16      0.00
  -16    3   12      0.07      0.00
  -15    3   12     -0.57      0.00
  -14    3   12     -0.27      0.00
  -13    3   12      0.45      0.00
  -12    3   12      0.46      0.00
  -11    3   12     -0.69      0.00
  -10    3   12      0.93      0.00
   -9    3   12     -2.57      0.00
   -8    3   12      0.22      0.00
   -7    3   12     -2.61      0.00
   -6    3   12     -1.76      0.00
   -5    3   12      0.79      0.00
   -4    3   12     -0.74      0.00
   -3    3   12      2.78      0.00
   -2    3   12      0.47      0.00
   -1    3   12      2.41      0.00
    0    3   12      0.38      0.00
    1    3   12      0.94      0.00
    2    3   12      0.43      0.00
    3    3   12      0.00      0.00
    4    3   12      0.61      0.00
    5    3   12      0.16      0.00
    6    3   12      0.45      0.00
    7    3   12      1.17      0.00
    8    3   12     -1.15      0.00
    9    3   12      1.79      0.00
   10    3   12     -0.25      0.00
   11    3   12      0.10      0.00
   12    3   12      0.83      0.00
   13    3   12     -1.06      0.00
   14    3   12     -0.13      0.00
   15    3   12     -0.91      0.00
   16    3   12      0.46      0.00
   17    3   12     -0.12      0.00
  -16    4   12     -0.63      0.00
  -15    4   12      0.50      0.00
  -14    4   12     -1.65      0.00
  -13    4   12      0.45      0.00
  -12    4   12     -2.11      0.00
  -11    4   12      0.43      0.00
  -10    4   12     -0.16      0.00
   -9    4   12      0.04      0.00
   -8    4   12      2.34      0.00
   -7    4   12     -0.42      0.00
   -6    4   12      3.01      0.00
   -5    4   12     -0.58      0.00
   -4    4   12      0.56      0.00
   -3    4   12      0.85      0.00
   -2    4   12     -1.06      0.00
   -1    4   12     -0.78      0.00
    0    4   12     -0.58      0.00
    1    4   12     -1.20      0.00
    2    4   12      0.55      0.00
    3    4   12      0.74      0.00
    4    4   12      3.32      0.00
    5    4   12      2.07      0.00
    6    4   12      2.82      0.00
    7    4   12      0.46      0.00
    8    4   12     -0.62      0.00
    9    4   12     -1.24      0.00
   10    4   12     -2.40      0.00
   11    4   12     -0.21      0.00
   12    4   12     -1.07      0.00
   13    4   12      1.13      0.00
   14    4   12     -0.32      0.00
   15    4   12     -0.40      0.00
  -14    5   12     -0.65      0.00
  -13    5   12     -1.71      0.00
  -12    5   12      0.48      0.00
  -11    5   12     -0.61      0.00
  -10    5   12      0.36      0.00
   -9    5   12     -1.27      0.00
   -8    5   12     -0.30      0.00
   -7    5   12     -0.06      0.00
   -6    5   12      0.15      0.00
   -5    5   12      2.16      0.00
   -4    5   12      0.72      0.00
   -3    5   12      2.46      0.00
   -2    5   12     -0.45      0.00
   -1    5   12      1.57      0.00
    0    5   12     -0.79      0.00
    1    5   12      0.30      0.00
    2    5   12      0.99      0.00
    3    5   12     -0.51      0.00
    4    5   12      1.35      0.00
    5    5   12     -0.20      0.00
    6    5   12     -0.97      0.00
    7    5   12     -1.71      0.00
    8    5   12     -0.26      0.00
    9    5   12     -1.92      0.00
   10    5   12      1.26      0.00
   11    5   12     -0.88      0.00
   12    5   12      2.16      0.00
   13    5   12      0.38      0.00
  -11    6   12     -0.69      0.00
  -10    6   12      0.21      0.00
   -9    6   12     -0.65      0.00
   -8    6   12      0.26      0.00
   -7    6   12     -0.02      0.00
   -6    6   12      0.09      0.00
   -5    6   12      0.66      0.00
   -4    6   12     -0.67      0.00
   -3    6   12      0.30      0.00
   -2    6   12      0.39      0.00
   -1    6   12      0.18      0.00
    0    6   12      0.95      0.00
    1    6   12     -0.33      0.00
    2    6   12      0.04      0.00
    3    6   12     -0.56      0.00
    4    6   12     -0.21      0.00
    5    6   12     -0.39      0.00
    6    6   12      0.54      0.00
    7    6   12      0.42      0.00
    8    6   12      1.17      0.00
    9    6   12     -1.30      0.00
   10    6   12      0.41      0.00
   -5    7   12     -0.01      0.00
   -4    7   12      0.00      0.00
   -3    7   12      0.02      0.00
   -2    7   12     -0.53      0.00
   -1    7   12      1.05      0.00
    0    7   12     -0.51      0.00
    1    7   12      0.67      0.00
    2    7   12     -0.59      0.00
    3    7   12      0.79      0.00
    4    7   12     -1.16      0.00
    5    7   12     -0.23      0.00
  -19    0   13      2.58      0.00
  -17    0   13     -0.23      0.00
  -15    0   13     -4.12      0.00
  -13    0   13      1.36      0.00
  -11    0   13      8.73      0.00
   -9    0   13      5.24      0.00
   -7    0   13     -0.04      0.00
   -5    0   13      7.57      0.00
   -3    0   13      5.94      0.00
   -1    0   13    -12.08      0.00
    1    0   13    -12.35      0.00
    3    0   13     -1.41      0.00
    5    0   13     -2.45      0.00
    7    0   13     -8.34      0.00
    9    0   13     -4.82      0.00
   11    0   13      2.71      0.00
   13    0   13      5.97      0.00
   15    0   13      3.12      0.00
   17    0   13     -1.26      0.00
  -18    1   13      0.33      0.00
  -17    1   13      1.42      0.00
  -16    1   13      1.61      0.00
  -15    1   13      0.74      0.00
  -14    1   13      4.16      0.00
  -13    1   13     -1.20      0.00
  -12    1   13      2.53      0.00
  -11    1   13     -1.64      0.00
  -10    1   13     -2.01      0.00
   -9    1   13      0.92      0.00
   -8    1   13     -4.49      0.00
   -7    1   13      2.23      0.00
   -6    1   13      0.30      0.00
   -5    1   13      0.22      0.00
   -4    1   13     -0.26      0.00
   -3    1   13     -1.58      0.00
   -2    1   13     -0.71      0.00
   -1    1   13     -1.40      0.00
    0    1   13     -4.51      0.00
    1    1   13     -2.36      0.00
    2    1   13     -8.12      0.00
    3    1   13      0.35      0.00
    4    1   13     -5.33      0.00
    5    1   13      1.72      0.00
    6    1   13     -0.20      0.00
    7    1   13      1.60      0.00
    8    1   13      4.34      0.00
    9    1   13     -0.88      0.00
   10    1   13      3.12      0.00
   11    1   13      0.80      0.00
   12    1   13      1.07      0.00
   13    1   13      1.42      0.00
   14    1   13      0.28      0.00
   15    1   13      0.39      0.00
   16    1   13     -0.62      0.00
   17    1   13     -1.97      0.00
   18    1   13     -0.15      0.00
  -18    2   13      2.44      0.00
  -17    2   13      1.77      0.00
  -16    2   13      0.85      0.00
  -15    2   13      1.49      0.00
  -14    2   13     -2.10      0.00
  -13    2   13      2.37      0.00
  -12    2   13     -1.16      0.00
  -11    2   13     -1.77      0.00
  -10    2   13      0.13      0.00
   -9    2   13     -4.59      0.00
   -8    2   13     -0.28      0.00
   -7    2   13     -2.39      0.00
   -6    2   13      0.83      0.00
   -5    2   13     -4.10      0.00
   -4    2   13     -0.13      0.00
   -3    2   13     -6.99      0.00
   -2    2   13     -1.26      0.00
   -1    2   13     -2.14      0.00
    0    2   13      0.80      0.00
    1    2   13      6.07      0.00
    2    2   13      1.48      0.00
    3    2   13      7.22      0.00
    4    2   13      0.40      0.00
    5    2   13     -1.81      0.00
    6    2   13     -1.02      0.00
    7    2   13     -5.43      0.00
    8    2   13     -0.56      0.00
    9    2   13     -1.34      0.00
   10    2   13      0.03      0.00
   11    2   13      2.64      0.00
   12    2   13      0.15      0.00
   13    2   13      1.57      0.00
   14    2   13      0.55      0.00
   15    2   13      1.94      0.00
   16    2   13      1.27      0.00
   17    2   13      0.14      0.00
   18    2   13      0.56      0.00
  -17    3   13     -0.30      0.00
  -16    3   13      1.15      0.00
  -15    3   13     -0.03      0.00
  -14    3   13      0.27      0.00
  -13    3   13      0.00      0.00
  -12    3   13     -0.36      0.00
  -11    3   13     -0.16      0.00
  -10    3   13      1.59      0.00
   -9    3   13     -1.13      0.00
   -8    3   13      3.33      0.00
   -7    3   13      0.69      0.00
   -6    3   13      1.98      0.00
   -5    3   13      1.69      0.00
   -4    3   13     -1.01      0.00
   -3    3   13      0.25      0.00
   -2    3   13     -2.37      0.00
   -1    3   13     -0.49      0.00
    0    3   13     -2.38      0.00
    1    3   13     -0.34      0.00
    2    3   13     -0.79      0.00
    3    3   13     -0.57      0.00
    4    3   13     -0.42      0.00
    5    3   13     -0.53      0.00
    6    3   13      0.01      0.00
    7    3   13      0.38      0.00
    8    3   13     -1.79      0.00
    9    3   13      1.53      0.00
   10    3   13     -1.32      0.00
   11    3   13     -0.01      0.00
   12    3   13      0.16      0.00
   13    3   13     -0.32      0.00
   14    3   13      1.17      0.00
   15    3   13     -0.17      0.00
   16    3   13      0.71      0.00
   17    3   13     -0.76      0.00
  -15    4   13      0.91      0.00
  -14    4   13     -0.91      0.00
  -13    4   13      1.78      0.00
  -12    4   13     -0.52      0.00
  -11    4   13      2.31      0.00
  -10    4   13      0.11      0.00
   -9    4   13      0.14      0.00
   -8    4   13     -0.09      0.00
   -7    4   13     -2.76      0.00
   -6    4   13      0.72      0.00
   -5    4   13     -1.98      0.00
   -4    4   13     -0.22      0.00
   -3    4   13      0.31      0.00
   -2    4   13     -0.65      0.00
   -1    4   13      0.70      0.00
    0    4   13      1.60      0.00
    1    4   13      0.08      0.00
    2    4   13      0.49      0.00
    3    4   13     -1.21      0.00
    4    4   13     -1.29      0.00
    5    4   13     -3.81      0.00
    6    4   13     -1.76      0.00
    7    4   13     -2.07      0.00
    8    4   13      0.85      0.00
    9    4   13      1.12      0.00
   10    4   13      0.67      0.00
   11    4   13      1.97      0.00
   12    4   13     -1.09      0.00
   13    4   13      0.95      0.00
   14    4   13     -1.31      0.00
   15    4   13      0.39      0.00
  -13    5   13      0.35      0.00
  -12    5   13      1.01      0.00
  -11    5   13     -0.38      0.00
  -10    5   13      0.52      0.00
   -9    5   13      0.18      0.00
   -8    5   13      1.64      0.00
   -7    5   13      0.06      0.00
   -6    5   13      0.00      0.00
   -5    5   13     -0.45      0.00
   -4    5   13     -1.83      0.00
   -3    5   13     -0.61      0.00
   -2    5   13     -1.97      0.00
   -1    5   13      1.05      0.00
    0    5   13     -1.55      0.00
    1    5   13      0.24      0.00
    2    5   13     -0.17      0.00
    3    5   13     -1.29      0.00
    4    5   13     -0.91      0.00
    5    5   13     -0.41      0.00
    6    5   13      0.23      0.00
    7    5   13      1.54      0.00
    8    5   13      1.92      0.00
    9    5   13     -0.11      0.00
   10    5   13      1.86      0.00
   11    5   13     -1.61      0.00
   12    5   13      0.34      0.00
   13    5   13     -1.61      0.00
  -10    6   13      0.78      0.00
   -9    6   13     -0.30      0.00
   -8    6   13      0.26      0.00
   -7    6   13     -0.19      0.00
   -6    6   13     -0.64      0.00
   -5    6   13      0.36      0.00
   -4    6   13     -0.57      0.00
   -3    6   13      1.04      0.00
   -2    6   13     -0.53      0.00
   -1    6   13     -0.63      0.00
    0    6   13      0.09      0.00
    1    6   13     -1.10      0.00
    2    6   13      0.38      0.00
    3    6   13      0.16      0.00
    4    6   13      0.92      0.00
    5    6   13     -0.14      0.00
    6    6   13     -0.46      0.00
    7    6   13     -0.07      0.00
    8    6   13      0.68      0.00
    9    6   13     -1.28      0.00
   10    6   13      0.61      0.00
   -4    7   13      0.41      0.00
   -3    7   13      0.06      0.00
   -2    7   13      0.09      0.00
   -1    7   13      0.39      0.00
    0    7   13     -0.95      0.00
    1    7   13      0.68      0.00
    2    7   13     -0.68      0.00
    3    7   13      0.73      0.00
    4    7   13     -0.51      0.00
  -18    0   14     -3.17      0.00
  -16    0   14      2.37      0.00
  -14    0   14      3.06      0.00
  -12    0   14     -3.00      0.00
  -10    0   14     -6.61      0.00
   -8    0   14     -0.84      0.00
   -6    0   14     -4.89      0.00
   -4    0   14    -13.79      0.00
   -2    0   14     -1.91      0.00
    0    0   14     13.54      0.00
    2    0   14      6.77      0.00
    4    0   14     -1.07      0.00
    6    0   14      6.69      0.00
    8    0   14      9.85      0.00
   10    0   14      3.85      0.00
   12    0   14     -4.63      0.00
   14    0   14     -5.43      0.00
   16    0   14     -1.53      0.00
   18    0   14      1.58      0.00
  -18    1   14     -1.33      0.00
  -17    1   14     -0.76      0.00
  -16    1   14     -1.28      0.00
  -15    1   14     -2.88      0.00
  -14    1   14      0.21      0.00
  -13    1   14     -4.57      0.00
  -12    1   14      1.67      0.00
  -11    1   14     -2.09      0.00
  -10    1   14      1.05      0.00
   -9    1   14      2.00      0.00
   -8    1   14     -1.84      0.00
   -7    1   14      0.54      0.00
   -6    1   14     -1.32      0.00
   -5    1   14     -1.61      0.00
   -4    1   14     -0.64      0.00
   -3    1   14     -0.43      0.00
   -2    1   14      0.98      0.00
   -1    1   14     -0.53      0.00
    0    1   14      1.53      0.00
    1    1   14      4.56      0.00
    2    1   14      1.40      0.00
    3    1   14      6.95      0.00
    4    1   14     -1.27      0.00
    5    1   14      4.74      0.00
    6    1   14     -2.02      0.00
    7    1   14     -0.46      0.00
    8    1   14      0.06      0.00
    9    1   14     -3.46      0.00
   10    1   14     -0.16      0.00
   11    1   14     -2.36      0.00
   12    1   14     -1.36      0.00
   13    1   14     -1.37      0.00
   14    1   14     -1.98      0.00
   15    1   14     -0.01      0.00
   16    1   14      1.56      0.00
   17    1   14      0.54      0.00
   18    1   14      0.49      0.00
  -18    2   14     -1.39      0.00
  -17    2   14     -2.24      0.00
  -16    2   14     -1.53      0.00
  -15    2   14      0.55      0.00
  -14    2   14     -2.68      0.00
  -13    2   14      2.14      0.00
  -12    2   14     -2.50      0.00
  -11    2   14     -0.05      0.00
  -10    2   14      1.85      0.00
   -9    2   14      0.32      0.00
   -8    2   14      2.16      0.00
   -7    2   14     -0.26      0.00
   -6    2   14      1.31      0.00
   -5    2   14     -0.67      0.00
   -4    2   14      5.23      0.00
   -3    2   14      0.66      0.00
   -2    2   14      5.63      0.00
   -1    2   14      0.90      0.00
    0    2   14      0.29      0.00
    1    2   14     -1.56      0.00
    2    2   14     -5.84      0.00
    3    2   14     -1.10      0.00
    4    2   14     -4.51      0.00
    5    2   14     -0.08      0.00
    6    2   14      3.20      0.00
    7    2   14      1.12      0.00
    8    2   14      3.67      0.00
    9    2   14     -0.24      0.00
   10    2   14      0.05      0.00
   11    2   14     -0.02      0.00
   12    2   14     -1.85      0.00
   13    2   14      0.06      0.00
   14    2   14     -1.03      0.00
   15    2   14     -0.68      0.00
   16    2   14     -1.72      0.00
   17    2   14     -0.71      0.00
  -17    3   14     -0.99      0.00
  -16    3   14      0.70      0.00
  -15    3   14     -0.94      0.00
  -14    3   14     -0.06      0.00
  -13    3   14      0.25      0.00
  -12    3   14     -0.29      0.00
  -11    3   14     -0.25      0.00
  -10    3   14      0.46      0.00
   -9    3   14     -2.39      0.00
   -8    3   14      0.82      0.00
   -7    3   14     -3.28      0.00
   -6    3   14     -1.19      0.00
   -5    3   14     -1.35      0.00
   -4    3   14     -1.18      0.00
   -3    3   14      1.13      0.00
   -2    3   14      0.03      0.00
   -1    3   14      2.29      0.00
    0    3   14      0.12      0.00
    1    3   14      2.04      0.00
    2    3   14      0.57      0.00
    3    3   14      0.90      0.00
    4    3   14      0.10      0.00
    5    3   14     -0.21      0.00
    6    3   14      0.03      0.00
    7    3   14      0.46      0.00
    8    3   14     -1.47      0.00
    9    3   14      1.94      0.00
   10    3   14     -1.30      0.00
   11    3   14      1.13      0.00
   12    3   14      0.06      0.00
   13    3   14     -0.46      0.00
   14    3   14      0.44      0.00
   15    3   14     -0.75      0.00
   16    3   14      0.65      0.00
  -15    4   14      1.22      0.00
  -14    4   14     -0.32      0.00
  -13    4   14      0.66      0.00
  -12    4   14     -2.31      0.00
  -11    4   14      0.26      0.00
  -10    4   14     -2.30      0.00
   -9    4   14     -0.42      0.00
   -8    4   14      0.53      0.00
   -7    4   14     -0.02      0.00
   -6    4   14      2.46      0.00
   -5    4   14     -0.42      0.00
   -4    4   14      0.69      0.00
   -3    4   14      0.79      0.00
   -2    4   14     -0.94      0.00
   -1    4   14     -0.40      0.00
    0    4   14     -0.39      0.00
    1    4   14     -1.59      0.00
    2    4   14     -0.11      0.00
    3    4   14     -0.05      0.00
    4    4   14      2.03      0.00
    5    4   14      1.62      0.00
    6    4   14      3.50      0.00
    7    4   14      0.52      0.00
    8    4   14      1.26      0.00
    9    4   14     -1.13      0.00
   10    4   14     -1.23      0.00
   11    4   14      0.38      0.00
   12    4   14     -1.55      0.00
   13    4   14      1.78      0.00
   14    4   14     -0.48      0.00
   15    4   14      1.15      0.00
  -13    5   14     -1.02      0.00
  -12    5   14     -0.12      0.00
  -11    5   14      0.00      0.00
  -10    5   14     -0.26      0.00
   -9    5   14     -1.34      0.00
   -8    5   14     -0.51      0.00
   -7    5   14     -1.61      0.00
   -6    5   14      0.18      0.00
   -5    5   14     -0.35      0.00
   -4    5   14      0.53      0.00
   -3    5   14      1.46      0.00
   -2    5   14     -0.15      0.00
   -1    5   14      1.57      0.00
    0    5   14     -1.18      0.00
    1    5   14      1.00      0.00
    2    5   14      0.25      0.00
    3    5   14      0.97      0.00
    4    5   14      1.27      0.00
    5    5   14      1.66      0.00
    6    5   14     -0.76      0.00
    7    5   14     -0.70      0.00
    8    5   14     -1.23      0.00
    9    5   14     -1.91      0.00
   10    5   14      0.39      0.00
   11    5   14     -1.65      0.00
   12    5   14      1.54      0.00
   13    5   14      0.14      0.00
  -10    6   14      0.14      0.00
   -9    6   14     -0.71      0.00
   -8    6   14     -0.04      0.00
   -7    6   14      0.18      0.00
   -6    6   14      0.00      0.00
   -5    6   14      0.89      0.00
   -4    6   14     -1.36      0.00
   -3    6   14      0.54      0.00
   -2    6   14     -0.84      0.00
   -1    6   14      0.70      0.00
    0    6   14      0.89      0.00
    1    6   14     -0.20      0.00
    2    6   14      0.93      0.00
    3    6   14     -0.54      0.00
    4    6   14     -0.03      0.00
    5    6   14     -0.20      0.00
    6    6   14     -0.49      0.00
    7    6   14      0.66      0.00
    8    6   14      0.44      0.00
    9    6   14     -0.84      0.00
   10    6   14      0.29      0.00
   -4    7   14      0.11      0.00
   -3    7   14     -1.04      0.00
   -2    7   14      0.00      0.00
   -1    7   14      0.21      0.00
    0    7   14     -0.31      0.00
    1    7   14      0.39      0.00
    2    7   14     -0.58      0.00
    3    7   14      0.83      0.00
  -17    0   15      1.89      0.00
  -15    0   15     -3.41      0.00
  -13    0   15     -1.84      0.00
  -11    0   15      2.99      0.00
   -9    0   15      1.91      0.00
   -7    0   15     -0.53      0.00
   -5    0   15     11.01      0.00
   -3    0   15     15.48      0.00
   -1    0   15     -2.64      0.00
    1    0   15     -9.41      0.00
    3    0   15      0.12      0.00
    5    0   15     -0.45      0.00
    7    0   15    -10.77      0.00
    9    0   15    -10.47      0.00
   11    0   15     -2.32      0.00
   13    0   15      5.47      0.00
   15    0   15      4.19      0.00
   17    0   15      0.27      0.00
  -18    1   15      0.19      0.00
  -17    1   15      1.09      0.00
  -16    1   15      1.02      0.00
  -15    1   15      0.99      0.00
  -14    1   15      3.84      0.00
  -13    1   15     -1.26      0.00
  -12    1   15      3.48      0.00
  -11    1   15     -1.40      0.00
  -10    1   15      1.05      0.00
   -9    1   15      0.29      0.00
   -8    1   15     -0.68      0.00
   -7    1   15      1.21      0.00
   -6    1   15      1.82      0.00
   -5    1   15      1.61      0.00
   -4    1   15      1.83      0.00
   -3    1   15      0.45      0.00
   -2    1   15      2.63      0.00
   -1    1   15     -0.64      0.00
    0    1   15      1.68      0.00
    1    1   15     -2.09      0.00
    2    1   15     -3.64      0.00
    3    1   15     -0.27      0.00
    4    1   15     -6.25      0.00
    5    1   15      0.92      0.00
    6    1   15     -4.36      0.00
    7    1   15      0.62      0.00
    8    1   15      0.97      0.00
    9    1   15     -1.18      0.00
   10    1   15      2.15      0.00
   11    1   15      1.17      0.00
   12    1   15      2.06      0.00
   13    1   15      2.18      0.00
   14    1   15      0.98      0.00
   15    1   15      0.81      0.00
   16    1   15     -0.54      0.00
   18    1   15     -0.42      0.00
  -17    2   15      1.40      0.00
  -16    2   15      1.22      0.00
  -15    2   15      1.63      0.00
  -14    2   15     -1.58      0.00
  -13    2   15      3.37      0.00
  -12    2   15     -0.93      0.00
  -11    2   15      1.43      0.00
  -10    2   15      0.49      0.00
   -9    2   15     -0.84      0.00
   -8    2   15     -0.62      0.00
   -7    2   15     -0.20      0.00
   -6    2   15      0.64      0.00
   -5    2   15     -1.88      0.00
   -4    2   15      0.22      0.00
   -3    2   15     -5.08      0.00
   -2    2   15     -1.33      0.00
   -1    2   15     -3.58      0.00
    0    2   15      0.08      0.00
    1    2   15      0.53      0.00
    2    2   15      1.44      0.00
    3    2   15      5.77      0.00
    4    2   15      1.03      0.00
    5    2   15      1.73      0.00
    6    2   15     -0.74      0.00
    7    2   15     -2.58      0.00
    8    2   15     -0.10      0.00
    9    2   15     -2.29      0.00
   10    2   15      0.07      0.00
   11    2   15      0.70      0.00
   12    2   15     -0.05      0.00
   13    2   15      0.46      0.00
   14    2   15     -0.51      0.00
   15    2   15      1.48      0.00
   16    2   15      0.33      0.00
   17    2   15      0.48      0.00
  -16    3   15      1.02      0.00
  -15    3   15     -0.73      0.00
  -14    3   15      0.49      0.00
  -13    3   15      0.26      0.00
  -12    3   15     -0.65      0.00
  -11    3   15      0.49      0.00
  -10    3   15      1.11      0.00
   -9    3   15     -1.12      0.00
   -8    3   15      2.78      0.00
   -7    3   15     -0.25      0.00
   -6    3   15      2.78      0.00
   -5    3   15      1.12      0.00
   -4    3   15      0.99      0.00
   -3    3   15      0.94      0.00
   -2    3   15     -1.06      0.00
   -1    3   15      0.30      0.00
    0    3   15     -2.41      0.00
    1    3   15      0.19      0.00
    2    3   15     -1.48      0.00
    3    3   15     -0.48      0.00
    4    3   15     -0.63      0.00
    5    3   15      0.39      0.00
    6    3   15      0.64      0.00
    7    3   15      0.69      0.00
    8    3   15     -1.20      0.00
    9    3   15      1.56      0.00
   10    3   15     -2.18      0.00
   11    3   15      0.69      0.00
   12    3   15     -0.81      0.00
   13    3   15     -0.23      0.00
   14    3   15      0.34      0.00
   15    3   15     -0.83      0.00
   16    3   15      0.70      0.00
  -15    4   15      0.25      0.00
  -14    4   15     -1.22      0.00
  -13    4   15      0.18      0.00
  -12    4   15     -0.42      0.00
  -11    4   15      2.85      0.00
  -10    4   15      0.43      0.00
   -9    4   15      1.86      0.00
   -8    4   15      0.20      0.00
   -7    4   15     -1.10      0.00
   -6    4   15      0.10      0.00
   -5    4   15     -1.46      0.00
   -4    4   15      0.01      0.00
   -3    4   15      0.74      0.00
   -2    4   15     -0.56      0.00
   -1    4   15      1.32      0.00
    0    4   15      1.31      0.00
    1    4   15      0.48      0.00
    2    4   15      1.25      0.00
    3    4   15      0.01      0.00
    4    4   15     -0.30      0.00
    5    4   15     -2.72      0.00
    6    4   15     -1.40      0.00
    7    4   15     -2.71      0.00
    8    4   15      0.77      0.00
    9    4   15     -0.75      0.00
   10    4   15      0.33      0.00
   11    4   15      1.09      0.00
   12    4   15     -0.88      0.00
   13    4   15      0.87      0.00
   14    4   15     -1.42      0.00
   15    4   15      0.11      0.00
  -13    5   15      0.41      0.00
  -12    5   15      0.29      0.00
  -11    5   15      0.58      0.00
  -10    5   15      0.10      0.00
   -9    5   15      0.89      0.00
   -8    5   15      1.78      0.00
   -7    5   15      0.25      0.00
   -6    5   15      1.74      0.00
   -5    5   15      0.01      0.00
   -4    5   15      0.51      0.00
   -3    5   15     -0.23      0.00
   -2    5   15     -1.08      0.00
   -1    5   15      0.87      0.00
    0    5   15     -1.09      0.00
    1    5   15      0.98      0.00
    2    5   15     -0.83      0.00
    3    5   15     -0.84      0.00
    4    5   15     -2.08      0.00
    5    5   15     -0.71      0.00
    6    5   15     -1.41      0.00
    7    5   15      1.19      0.00
    8    5   15      1.02      0.00
    9    5   15      0.70      0.00
   10    5   15      1.97      0.00
   11    5   15     -0.79      0.00
   12    5   15      0.85      0.00
  -10    6   15      0.66      0.00
   -9    6   15      0.22      0.00
   -8    6   15      0.52      0.00
   -7    6   15      0.31      0.00
   -6    6   15     -0.56      0.00
   -5    6   15      0.57      0.00
   -4    6   15     -0.50      0.00
   -3    6   15      1.87      0.00
   -2    6   15     -1.00      0.00
   -1    6   15      0.43      0.00
    0    6   15     -0.55      0.00
    1    6   15     -1.27      0.00
    2    6   15      0.22      0.00
    3    6   15     -0.48      0.00
    4    6   15      0.26      0.00
    5    6   15      0.04      0.00
    6    6   15     -0.78      0.00
    7    6   15      0.88      0.00
    8    6   15     -0.35      0.00
    9    6   15     -0.54      0.00
   -2    7   15      1.08      0.00
   -1    7   15     -0.34      0.00
    0    7   15     -0.17      0.00
    1    7   15      0.45      0.00
    2    7   15     -0.25      0.00
  -18    0   16     -3.09      0.00
  -16    0   16     -0.02      0.00
  -14    0   16      3.21      0.00
  -12    0   16      0.86      0.00
  -10    0   16     -1.29      0.00
   -8    0   16      3.11      0.00
   -6    0   16     -1.76      0.00
   -4    0   16    -15.72      0.00
   -2    0   16    -12.35      0.00
    0    0   16      4.16      0.00
    2    0   16      2.91      0.00
    4    0   16     -3.91      0.00
    6    0   16      5.10      0.00
    8    0   16     12.90      0.00
   10    0   16     10.53      0.00
   12    0   16     -0.34      0.00
   14    0   16     -4.82      0.00
   16    0   16     -3.26      0.00
   18    0   16      0.44      0.00
  -18    1   16     -0.76      0.00
  -17    1   16     -0.08      0.00
  -16    1   16     -1.04      0.00
  -15    1   16     -1.28      0.00
  -14    1   16     -0.08      0.00
  -13    1   16     -3.14      0.00
  -12    1   16      1.45      0.00
  -11    1   16     -1.68      0.00
  -10    1   16      0.52      0.00
   -9    1   16     -0.24      0.00
   -8    1   16     -0.68      0.00
   -7    1   16     -0.57      0.00
   -6    1   16     -0.49      0.00
   -5    1   16     -2.16      0.00
   -4    1   16     -1.73      0.00
   -3    1   16     -2.43      0.00
   -2    1   16     -0.15      0.00
   -1    1   16     -5.04      0.00
    0    1   16      1.21      0.00
    1    1   16     -2.59      0.00
    2    1   16      1.46      0.00
    3    1   16      3.27      0.00
    4    1   16      0.04      0.00
    5    1   16      6.40      0.00
    6    1   16     -0.24      0.00
    7    1   16      3.31      0.00
    8    1   16      1.56      0.00
    9    1   16     -0.40      0.00
   10    1   16      0.56      0.00
   11    1   16     -1.49      0.00
   12    1   16     -1.79      0.00
   13    1   16     -1.63      0.00
   14    1   16     -2.40      0.00
   15    1   16      0.12      0.00
   16    1   16      0.83      0.00
   17    1   16      0.81      0.00
  -17    2   16     -1.85      0.00
  -16    2   16     -0.89      0.00
  -15    2   16      0.12      0.00
  -14    2   16     -1.56      0.00
  -13    2   16      1.31      0.00
  -12    2   16     -2.42      0.00
  -11    2   16     -0.44      0.00
  -10    2   16     -0.53      0.00
   -9    2   16      0.05      0.00
   -8    2   16     -0.48      0.00
   -7    2   16      0.15      0.00
   -6    2   16     -0.12      0.00
   -5    2   16     -0.50      0.00
   -4    2   16      2.38      0.00
   -3    2   16      0.20      0.00
   -2    2   16      3.65      0.00
   -1    2   16      1.32      0.00
    0    2   16      2.05      0.00
    1    2   16     -0.97      0.00
    2    2   16     -1.73      0.00
    3    2   16     -1.09      0.00
    4    2   16     -4.83      0.00
    5    2   16     -0.49      0.00
    6    2   16     -0.55      0.00
    7    2   16      0.68      0.00
    8    2   16      1.79      0.00
    9    2   16     -0.24      0.00
   10    2   16      1.27      0.00
   11    2   16      0.03      0.00
   12    2   16     -0.28      0.00
   13    2   16      0.74      0.00
   14    2   16      0.01      0.00
   15    2   16      0.69      0.00
   16    2   16     -1.10      0.00
   17    2   16      0.52      0.00
  -16    3   16      1.14      0.00
  -15    3   16     -0.76      0.00
  -14    3   16      0.30      0.00
  -13    3   16      0.55      0.00
  -12    3   16     -0.63      0.00
  -11    3   16      0.15      0.00
  -10    3   16      0.25      0.00
   -9    3   16     -1.71      0.00
   -8    3   16      1.28      0.00
   -7    3   16     -2.72      0.00
   -6    3   16     -0.09      0.00
   -5    3   16     -2.72      0.00
   -4    3   16     -1.20      0.00
   -3    3   16     -1.05      0.00
   -2    3   16     -1.13      0.00
   -1    3   16      1.39      0.00
    0    3   16     -1.12      0.00
    1    3   16      1.84      0.00
    2    3   16      0.24      0.00
    3    3   16      1.52      0.00
    4    3   16      0.09      0.00
    5    3   16     -0.23      0.00
    6    3   16     -0.50      0.00
    7    3   16     -0.05      0.00
    8    3   16     -0.61      0.00
    9    3   16      2.09      0.00
   10    3   16     -0.76      0.00
   11    3   16      2.25      0.00
   12    3   16     -0.37      0.00
   13    3   16      0.30      0.00
   14    3   16      0.68      0.00
   15    3   16     -0.23      0.00
   16    3   16      0.80      0.00
  -15    4   16      1.02      0.00
  -14    4   16      0.98      0.00
  -13    4   16      0.64      0.00
  -12    4   16     -1.21      0.00
  -11    4   16      0.19      0.00
  -10    4   16     -2.89      0.00
   -9    4   16     -0.71      0.00
   -8    4   16     -1.19      0.00
   -7    4   16      0.07      0.00
   -6    4   16      1.02      0.00
   -5    4   16     -0.16      0.00
   -4    4   16     -0.02      0.00
   -3    4   16      0.12      0.00
   -2    4   16     -1.91      0.00
   -1    4   16     -0.15      0.00
    0    4   16     -1.49      0.00
    1    4   16     -1.43      0.00
    2    4   16     -0.73      0.00
    3    4   16     -0.85      0.00
    4    4   16      0.79      0.00
    5    4   16      0.60      0.00
    6    4   16      2.61      0.00
    7    4   16      0.53      0.00
    8    4   16      2.12      0.00
    9    4   16     -1.10      0.00
   10    4   16      0.45      0.00
   11    4   16      0.34      0.00
   12    4   16     -0.77      0.00
   13    4   16      0.39      0.00
   14    4   16     -0.15      0.00
  -12    5   16     -0.43      0.00
  -11    5   16      0.48      0.00
  -10    5   16     -1.19      0.00
   -9    5   16     -0.82      0.00
   -8    5   16     -0.72      0.00
   -7    5   16     -1.45      0.00
   -6    5   16     -0.13      0.00
   -5    5   16     -2.11      0.00
   -4    5   16     -0.29      0.00
   -3    5   16     -0.22      0.00
   -2    5   16     -0.25      0.00
   -1    5   16      0.68      0.00
    0    5   16     -1.14      0.00
    1    5   16      0.73      0.00
    2    5   16     -0.32      0.00
    3    5   16      1.30      0.00
    4    5   16      1.07      0.00
    5    5   16      2.51      0.00
    6    5   16     -0.02      0.00
    7    5   16      0.60      0.00
    8    5   16     -0.96      0.00
    9    5   16     -1.21      0.00
   10    5   16      0.08      0.00
   11    5   16     -1.73      0.00
   12    5   16      0.46      0.00
   -9    6   16     -0.80      0.00
   -8    6   16     -0.53      0.00
   -7    6   16     -0.25      0.00
   -6    6   16     -0.19      0.00
   -5    6   16      0.32      0.00
   -4    6   16     -1.36      0.00
   -3    6   16      0.47      0.00
   -2    6   16     -1.64      0.00
   -1    6   16      1.24      0.00
    0    6   16      0.18      0.00
    1    6   16      0.29      0.00
    2    6   16      1.11      0.00
    3    6   16     -0.19      0.00
    4    6   16      0.31      0.00
    5    6   16      0.41      0.00
    6    6   16     -0.59      0.00
    7    6   16      0.97      0.00
    8    6   16     -0.35      0.00
    9    6   16      0.37      0.00
  -17    0   17      3.07      0.00
  -15    0   17     -1.02      0.00
  -13    0   17     -1.85      0.00
  -11    0   17     -0.15      0.00
   -9    0   17     -2.14      0.00
   -7    0   17     -5.13      0.00
   -5    0   17      5.22      0.00
   -3    0   17     17.17      0.00
   -1    0   17      6.58      0.00
    1    0   17     -2.42      0.00
    3    0   17      2.90      0.00
    5    0   17      3.51      0.00
    7    0   17     -9.06      0.00
    9    0   17    -13.33      0.00
   11    0   17     -8.41      0.00
   13    0   17      2.16      0.00
   15    0   17      4.16      0.00
   17    0   17      2.14      0.00
  -18    1   17     -0.27      0.00
  -17    1   17      0.60      0.00
  -16    1   17     -0.41      0.00
  -15    1   17      0.95      0.00
  -14    1   17      1.31      0.00
  -13    1   17     -0.88      0.00
  -12    1   17      1.12      0.00
  -11    1   17     -0.87      0.00
  -10    1   17      0.27      0.00
   -9    1   17      0.29      0.00
   -8    1   17      0.08      0.00
   -7    1   17     -0.40      0.00
   -6    1   17      0.62      0.00
   -5    1   17      0.63      0.00
   -4    1   17      1.43      0.00
   -3    1   17      1.26      0.00
   -2    1   17      3.86      0.00
   -1    1   17     -0.12      0.00
    0    1   17      6.51      0.00
    1    1   17     -1.09      0.00
    2    1   17      2.75      0.00
    3    1   17     -0.08      0.00
    4    1   17     -3.83      0.00
    5    1   17      0.12      0.00
    6    1   17     -6.02      0.00
    7    1   17     -0.97      0.00
    8    1   17     -2.41      0.00
    9    1   17     -2.22      0.00
   10    1   17     -0.02      0.00
   11    1   17      0.28      0.00
   12    1   17      1.28      0.00
   13    1   17      2.43      0.00
   14    1   17      0.72      0.00
   15    1   17      0.81      0.00
   16    1   17     -1.02      0.00
   17    1   17     -0.90      0.00
  -17    2   17      0.17      0.00
  -16    2   17      1.09      0.00
  -15    2   17      0.16      0.00
  -14    2   17     -0.72      0.00
  -13    2   17      0.68      0.00
  -12    2   17     -0.25      0.00
  -11    2   17      0.52      0.00
  -10    2   17      0.88      0.00
   -9    2   17      0.76      0.00
   -8    2   17     -0.32      0.00
   -7    2   17      0.93      0.00
   -6    2   17      0.36      0.00
   -5    2   17     -0.21      0.00
   -4    2   17      0.57      0.00
   -3    2   17     -1.96      0.00
   -2    2   17     -0.56      0.00
   -1    2   17     -1.58      0.00
    0    2   17     -0.24      0.00
    1    2   17     -1.32      0.00
    2    2   17      0.84      0.00
    3    2   17      3.39      0.00
    4    2   17      0.89      0.00
    5    2   17      3.17      0.00
    6    2   17     -0.47      0.00
    7    2   17      0.41      0.00
    8    2   17      0.07      0.00
    9    2   17     -1.61      0.00
   10    2   17     -0.23      0.00
   11    2   17     -0.73      0.00
   12    2   17     -0.17      0.00
   13    2   17     -0.60      0.00
   14    2   17     -1.30      0.00
   15    2   17      0.41      0.00
   16    2   17     -1.00      0.00
   17    2   17      0.18      0.00
  -16    3   17      0.40      0.00
  -15    3   17     -0.96      0.00
  -14    3   17     -0.01      0.00
  -13    3   17      0.17      0.00
  -12    3   17     -1.15      0.00
  -11    3   17      0.55      0.00
  -10    3   17      0.78      0.00
   -9    3   17     -1.21      0.00
   -8    3   17      1.88      0.00
   -7    3   17     -0.93      0.00
   -6    3   17      2.95      0.00
   -5    3   17      0.34      0.00
   -4    3   17      3.24      0.00
   -3    3   17      1.65      0.00
   -2    3   17      0.95      0.00
   -1    3   17      1.54      0.00
    0    3   17     -1.49      0.00
    1    3   17      1.09      0.00
    2    3   17     -1.65      0.00
    3    3   17     -0.88      0.00
    4    3   17     -1.20      0.00
    5    3   17      0.12      0.00
    6    3   17      0.40      0.00
    7    3   17     -0.02      0.00
    8    3   17     -0.92      0.00
    9    3   17     -0.17      0.00
   10    3   17     -3.02      0.00
   11    3   17      0.15      0.00
   12    3   17     -1.42      0.00
   13    3   17      0.38      0.00
   14    3   17     -0.07      0.00
   15    3   17     -0.82      0.00
   16    3   17      0.65      0.00
  -14    4   17     -1.01      0.00
  -13    4   17     -0.93      0.00
  -12    4   17     -0.49      0.00
  -11    4   17      2.31      0.00
  -10    4   17      0.31      0.00
   -9    4   17      2.48      0.00
   -8    4   17      0.29      0.00
   -7    4   17      0.80      0.00
   -6    4   17     -0.01      0.00
   -5    4   17     -0.39      0.00
   -4    4   17      0.26      0.00
   -3    4   17      1.46      0.00
   -2    4   17      0.02      0.00
   -1    4   17      2.50      0.00
    0    4   17      0.28      0.00
    1    4   17      1.41      0.00
    2    4   17      1.13      0.00
    3    4   17      0.52      0.00
    4    4   17      0.41      0.00
    5    4   17     -1.51      0.00
    6    4   17     -0.76      0.00
    7    4   17     -1.96      0.00
    8    4   17      0.71      0.00
    9    4   17     -1.73      0.00
   10    4   17      0.37      0.00
   11    4   17     -0.13      0.00
   12    4   17      0.02      0.00
   13    4   17      0.18      0.00
   14    4   17      0.30      0.00
  -12    5   17     -0.23      0.00
  -11    5   17      0.99      0.00
  -10    5   17     -0.38      0.00
   -9    5   17      1.05      0.00
   -8    5   17      0.68      0.00
   -7    5   17     -0.14      0.00
   -6    5   17      1.33      0.00
   -5    5   17      0.42      0.00
   -4    5   17      1.95      0.00
   -3    5   17      0.33      0.00
   -2    5   17     -0.01      0.00
   -1    5   17      0.45      0.00
    0    5   17     -0.37      0.00
    1    5   17      0.87      0.00
    2    5   17     -0.62      0.00
    3    5   17     -0.37      0.00
    4    5   17     -1.66      0.00
    5    5   17     -0.64      0.00
    6    5   17     -1.99      0.00
    7    5   17      0.45      0.00
    8    5   17      0.29      0.00
    9    5   17      0.40      0.00
   10    5   17      1.38      0.00
   11    5   17     -0.57      0.00
   12    5   17      0.91      0.00
   -9    6   17      0.29      0.00
   -8    6   17      0.70      0.00
   -7    6   17      0.32      0.00
   -6    6   17      0.15      0.00
   -5    6   17      0.25      0.00
   -4    6   17      0.24      0.00
   -3    6   17      1.71      0.00
   -2    6   17     -0.86      0.00
   -1    6   17      1.16      0.00
    0    6   17     -1.02      0.00
    1    6   17     -0.65      0.00
    2    6   17      0.18      0.00
    3    6   17     -0.37      0.00
    4    6   17     -0.12      0.00
    5    6   17     -0.18      0.00
    6    6   17     -0.59      0.00
    7    6   17      0.85      0.00
    8    6   17     -0.88      0.00
  -18    0   18     -2.58      0.00
  -16    0   18     -2.31      0.00
  -14    0   18      0.44      0.00
  -12    0   18      0.04      0.00
  -10    0   18      0.12      0.00
   -8    0   18      5.69      0.00
   -6    0   18      4.25      0.00
   -4    0   18     -8.53      0.00
   -2    0   18    -13.63      0.00
    0    0   18     -2.36      0.00
    2    0   18     -0.84      0.00
    4    0   18     -7.30      0.00
    6    0   18     -0.68      0.00
    8    0   18      9.83      0.00
   10    0   18     12.81      0.00
   12    0   18      4.35      0.00
   14    0   18     -2.16      0.00
   16    0   18     -3.83      0.00
  -17    1   18      0.77      0.00
  -16    1   18     -0.63      0.00
  -15    1   18      0.54      0.00
  -14    1   18     -0.24      0.00
  -13    1   18     -0.35      0.00
  -12    1   18      1.01      0.00
  -11    1   18      0.39      0.00
  -10    1   18      0.01      0.00
   -9    1   18      0.07      0.00
   -8    1   18      0.05      0.00
   -7    1   18      0.27      0.00
   -6    1   18      1.13      0.00
   -5    1   18      0.22      0.00
   -4    1   18     -0.85      0.00
   -3    1   18     -0.86      0.00
   -2    1   18     -0.95      0.00
   -1    1   18     -5.14      0.00
    0    1   18      0.21      0.00
    1    1   18     -7.13      0.00
    2    1   18     -0.50      0.00
    3    1   18     -1.96      0.00
    4    1   18     -1.14      0.00
    5    1   18      4.27      0.00
    6    1   18     -0.22      0.00
    7    1   18      4.73      0.00
    8    1   18      2.07      0.00
    9    1   18      1.88      0.00
   10    1   18      1.74      0.00
   11    1   18     -0.21      0.00
   12    1   18     -0.96      0.00
   13    1   18     -1.22      0.00
   14    1   18     -1.84      0.00
   15    1   18      0.61      0.00
   16    1   18      0.78      0.00
   17    1   18      1.15      0.00
  -17    2   18     -1.13      0.00
  -16    2   18      0.33      0.00
  -15    2   18     -0.11      0.00
  -14    2   18      0.84      0.00
  -13    2   18      0.45      0.00
  -12    2   18      0.93      0.00
  -11    2   18     -0.59      0.00
  -10    2   18      0.29      0.00
   -9    2   18     -0.41      0.00
   -8    2   18     -1.29      0.00
   -7    2   18     -0.31      0.00
   -6    2   18     -0.65      0.00
   -5    2   18     -0.52      0.00
   -4    2   18      0.17      0.00
   -3    2   18     -0.82      0.00
   -2    2   18      0.61      0.00
   -1    2   18      0.31      0.00
    0    2   18      0.65      0.00
    1    2   18     -0.46      0.00
    2    2   18     -0.22      0.00
    3    2   18     -0.34      0.00
    4    2   18     -3.56      0.00
    5    2   18     -0.10      0.00
    6    2   18     -2.09      0.00
    7    2   18      0.49      0.00
    8    2   18      0.11      0.00
    9    2   18      0.19      0.00
   10    2   18      1.56      0.00
   11    2   18      0.15      0.00
   12    2   18      0.70      0.00
   13    2   18      0.85      0.00
   14    2   18      0.55      0.00
   15    2   18      1.20      0.00
   16    2   18     -0.41      0.00
  -16    3   18      0.86      0.00
  -15    3   18      0.02      0.00
  -14    3   18      0.29      0.00
  -13    3   18      1.30      0.00
  -12    3   18     -0.49      0.00
  -11    3   18      0.40      0.00
  -10    3   18      0.33      0.00
   -9    3   18     -1.10      0.00
   -8    3   18      1.41      0.00
   -7    3   18     -2.02      0.00
   -6    3   18      0.63      0.00
   -5    3   18     -3.78      0.00
   -4    3   18     -0.86      0.00
   -3    3   18     -3.78      0.00
   -2    3   18     -1.68      0.00
   -1    3   18     -0.21      0.00
    0    3   18     -1.65      0.00
    1    3   18      1.12      0.00
    2    3   18      0.10      0.00
    3    3   18      2.07      0.00
    4    3   18      0.96      0.00
    5    3   18      0.43      0.00
    6    3   18     -0.16      0.00
    7    3   18     -0.08      0.00
    8    3   18      0.97      0.00
    9    3   18      2.17      0.00
   10    3   18      0.73      0.00
   11    3   18      2.81      0.00
   12    3   18     -0.52      0.00
   13    3   18      0.41      0.00
   14    3   18     -0.11      0.00
   15    3   18     -0.26      0.00
  -14    4   18      1.34      0.00
  -13    4   18      0.65      0.00
  -12    4   18     -0.66      0.00
  -11    4   18      0.45      0.00
  -10    4   18     -2.34      0.00
   -9    4   18     -0.34      0.00
   -8    4   18     -2.14      0.00
   -7    4   18     -0.07      0.00
   -6    4   18     -0.54      0.00
   -5    4   18     -0.15      0.00
   -4    4   18     -0.45      0.00
   -3    4   18     -0.42      0.00
   -2    4   18     -2.24      0.00
   -1    4   18      0.39      0.00
    0    4   18     -2.36      0.00
    1    4   18     -0.11      0.00
    2    4   18     -1.20      0.00
    3    4   18     -0.56      0.00
    4    4   18      0.35      0.00
    5    4   18     -0.15      0.00
    6    4   18      1.16      0.00
    7    4   18      0.36      0.00
    8    4   18      1.58      0.00
    9    4   18     -1.22      0.00
   10    4   18      1.13      0.00
   11    4   18      0.28      0.00
   12    4   18      0.14      0.00
   13    4   18     -0.78      0.00
   14    4   18      0.21      0.00
  -12    5   18      0.08      0.00
  -11    5   18      0.82      0.00
  -10    5   18     -1.24      0.00
   -9    5   18      0.02      0.00
   -8    5   18      0.20      0.00
   -7    5   18      0.28      0.00
   -6    5   18      0.56      0.00
   -5    5   18     -1.71      0.00
   -4    5   18     -0.52      0.00
   -3    5   18     -1.28      0.00
   -2    5   18     -0.05      0.00
   -1    5   18     -0.08      0.00
    0    5   18     -0.40      0.00
    1    5   18      0.11      0.00
    2    5   18     -0.22      0.00
    3    5   18      0.37      0.00
    4    5   18      0.44      0.00
    5    5   18      1.50      0.00
    6    5   18     -0.12      0.00
    7    5   18      0.78      0.00
    8    5   18     -0.48      0.00
    9    5   18     -1.05      0.00
   10    5   18      0.30      0.00
   11    5   18     -1.14      0.00
   -8    6   18     -0.18      0.00
   -7    6   18     -0.40      0.00
   -6    6   18      0.22      0.00
   -5    6   18     -0.61      0.00
   -4    6   18     -0.76      0.00
   -3    6   18     -0.22      0.00
   -2    6   18     -1.56      0.00
   -1    6   18      0.96      0.00
    0    6   18     -0.67      0.00
    1    6   18      0.35      0.00
    2    6   18      0.26      0.00
    3    6   18     -0.50      0.00
    4    6   18     -0.18      0.00
    5    6   18      0.24      0.00
    6    6   18     -0.18      0.00
    7    6   18      0.36      0.00
    8    6   18     -0.56      0.00
  -17    0   19      3.04      0.00
  -15    0   19      1.86      0.00
  -13    0   19      1.20      0.00
  -11    0   19      1.71      0.00
   -9    0   19     -2.05      0.00
   -7    0   19     -6.90      0.00
   -5    0   19     -2.25      0.00
   -3    0   19     10.05      0.00
   -1    0   19      7.38      0.00
    1    0   19      1.30      0.00
    3    0   19      5.28      0.00
    5    0   19      9.37      0.00
    7    0   19     -1.44      0.00
    9    0   19     -9.46      0.00
   11    0   19    -10.02      0.00
   13    0   19     -1.87      0.00
   15    0   19      2.14      0.00
   17    0   19      2.81      0.00
  -17    1   19      0.38      0.00
  -16    1   19     -1.12      0.00
  -15    1   19      0.50      0.00
  -14    1   19     -0.43      0.00
  -13    1   19     -0.51      0.00
  -12    1   19     -0.78      0.00
  -11    1   19     -0.29      0.00
  -10    1   19     -0.48      0.00
   -9    1   19      0.57      0.00
   -8    1   19      0.08      0.00
   -7    1   19     -0.92      0.00
   -6    1   19     -0.89      0.00
   -5    1   19     -0.96      0.00
   -4    1   19     -1.54      0.00
   -3    1   19      1.03      0.00
   -2    1   19      0.91      0.00
   -1    1   19      0.36      0.00
    0    1   19      5.89      0.00
    1    1   19      0.55      0.00
    2    1   19      7.00      0.00
    3    1   19      1.96      0.00
    4    1   19      0.96      0.00
    5    1   19      2.02      0.00
    6    1   19     -3.77      0.00
    7    1   19     -0.58      0.00
    8    1   19     -3.68      0.00
    9    1   19     -2.27      0.00
   10    1   19     -0.90      0.00
   11    1   19     -1.32      0.00
   12    1   19      0.69      0.00
   13    1   19      1.41      0.00
   14    1   19      0.68      0.00
   15    1   19      0.11      0.00
   16    1   19     -1.19      0.00
   17    1   19     -0.72      0.00
  -16    2   19      0.66      0.00
  -15    2   19     -0.67      0.00
  -14    2   19     -0.26      0.00
  -13    2   19     -1.87      0.00
  -12    2   19     -0.15      0.00
  -11    2   19     -2.14      0.00
  -10    2   19      0.58      0.00
   -9    2   19      0.31      0.00
   -8    2   19      0.30      0.00
   -7    2   19      1.11      0.00
   -6    2   19      0.73      0.00
   -5    2   19      0.53      0.00
   -4    2   19      0.57      0.00
   -3    2   19      0.04      0.00
   -2    2   19      0.84      0.00
   -1    2   19      0.68      0.00
    0    2   19      0.21      0.00
    1    2   19     -0.66      0.00
    2    2   19      0.06      0.00
    3    2   19      2.07      0.00
    4    2   19     -0.04      0.00
    5    2   19      2.65      0.00
    6    2   19     -0.68      0.00
    7    2   19      1.28      0.00
    8    2   19     -0.30      0.00
    9    2   19     -0.78      0.00
   10    2   19     -0.55      0.00
   11    2   19     -1.22      0.00
   12    2   19     -0.31      0.00
   13    2   19     -0.67      0.00
   14    2   19     -1.04      0.00
   15    2   19      0.16      0.00
   16    2   19     -1.06      0.00
  -15    3   19     -0.47      0.00
  -14    3   19     -0.80      0.00
  -13    3   19      0.04      0.00
  -12    3   19     -1.66      0.00
  -11    3   19      0.24      0.00
  -10    3   19      0.45      0.00
   -9    3   19     -1.11      0.00
   -8    3   19      0.78      0.00
   -7    3   19     -1.27      0.00
   -6    3   19      2.49      0.00
   -5    3   19     -0.42      0.00
   -4    3   19      4.78      0.00
   -3    3   19      1.05      0.00
   -2    3   19      3.24      0.00
   -1    3   19      1.17      0.00
    0    3   19     -0.11      0.00
    1    3   19      0.88      0.00
    2    3   19     -1.53      0.00
    3    3   19     -0.92      0.00
    4    3   19     -1.55      0.00
    5    3   19     -0.07      0.00
    6    3   19      0.12      0.00
    7    3   19     -0.27      0.00
    8    3   19     -0.28      0.00
    9    3   19     -1.35      0.00
   10    3   19     -3.03      0.00
   11    3   19     -0.64      0.00
   12    3   19     -1.42      0.00
   13    3   19      1.09      0.00
   14    3   19     -0.05      0.00
   15    3   19     -0.24      0.00
  -14    4   19     -0.74      0.00
  -13    4   19     -0.84      0.00
  -12    4   19     -0.72      0.00
  -11    4   19      1.68      0.00
  -10    4   19     -0.12      0.00
   -9    4   19      1.69      0.00
   -8    4   19     -0.11      0.00
   -7    4   19      1.95      0.00
   -6    4   19      0.33      0.00
   -5    4   19      0.15      0.00
   -4    4   19      0.22      0.00
   -3    4   19      0.97      0.00
   -2    4   19      0.20      0.00
   -1    4   19      2.21      0.00
    0    4   19     -1.19      0.00
    1    4   19      1.84      0.00
    2    4   19      0.02      0.00
    3    4   19      0.60      0.00
    4    4   19      0.30      0.00
    5    4   19     -0.69      0.00
    6    4   19     -0.23      0.00
    7    4   19     -0.51      0.00
    8    4   19      0.65      0.00
    9    4   19     -1.26      0.00
   10    4   19      0.45      0.00
   11    4   19     -0.61      0.00
   12    4   19     -0.21      0.00
   13    4   19     -0.35      0.00
  -11    5   19      0.66      0.00
  -10    5   19     -0.71      0.00
   -9    5   19      0.44      0.00
   -8    5   19     -0.67      0.00
   -7    5   19     -1.64      0.00
   -6    5   19     -0.51      0.00
   -5    5   19     -0.20      0.00
   -4    5   19      1.79      0.00
   -3    5   19      0.09      0.00
   -2    5   19      0.85      0.00
   -1    5   19     -0.15      0.00
    0    5   19      0.34      0.00
    1    5   19      0.05      0.00
    2    5   19      0.32      0.00
    3    5   19     -0.15      0.00
    4    5   19      0.19      0.00
    5    5   19      0.04      0.00
    6    5   19     -1.09      0.00
    7    5   19      0.62      0.00
    8    5   19      0.78      0.00
    9    5   19      0.28      0.00
   10    5   19      1.16      0.00
   11    5   19     -0.49      0.00
   -7    6   19     -0.18      0.00
   -6    6   19      0.37      0.00
   -5    6   19     -0.19      0.00
   -4    6   19      1.05      0.00
   -3    6   19      1.14      0.00
   -2    6   19     -0.06      0.00
   -1    6   19      1.32      0.00
    0    6   19     -0.71      0.00
    1    6   19      0.46      0.00
    2    6   19      0.66      0.00
    3    6   19      0.73      0.00
    4    6   19      0.31      0.00
    5    6   19      0.21      0.00
    6    6   19      0.17      0.00
    7    6   19      0.51      0.00
  -16    0   20     -2.55      0.00
  -14    0   20     -2.19      0.00
  -12    0   20     -2.69      0.00
  -10    0   20     -2.05      0.00
   -8    0   20      4.61      0.00
   -6    0   20      6.08      0.00
   -4    0   20     -0.70      0.00
   -2    0   20     -7.70      0.00
    0    0   20     -2.68      0.00
    2    0   20     -2.54      0.00
    4    0   20    -10.04      0.00
    6    0   20     -8.35      0.00
    8    0   20      2.14      0.00
   10    0   20      9.14      0.00
   12    0   20      6.14      0.00
   14    0   20      1.39      0.00
   16    0   20     -2.39      0.00
  -17    1   20      0.82      0.00
  -16    1   20     -0.21      0.00
  -15    1   20      0.81      0.00
  -14    1   20      0.01      0.00
  -13    1   20      0.81      0.00
  -12    1   20      0.40      0.00
  -11    1   20      0.89      0.00
  -10    1   20     -0.86      0.00
   -9    1   20     -0.30      0.00
   -8    1   20     -0.50      0.00
   -7    1   20      0.04      0.00
   -6    1   20      1.19      0.00
   -5    1   20      1.71      0.00
   -4    1   20      0.54      0.00
   -3    1   20      2.58      0.00
   -2    1   20     -0.57      0.00
   -1    1   20     -0.96      0.00
    0    1   20      0.44      0.00
    1    1   20     -6.73      0.00
    2    1   20     -1.17      0.00
    3    1   20     -6.17      0.00
    4    1   20     -2.78      0.00
    5    1   20     -0.53      0.00
    6    1   20     -1.60      0.00
    7    1   20      3.39      0.00
    8    1   20      1.34      0.00
    9    1   20      2.50      0.00
   10    1   20      2.34      0.00
   11    1   20      0.02      0.00
   12    1   20      0.53      0.00
   13    1   20     -1.33      0.00
   14    1   20     -0.89      0.00
   15    1   20      0.36      0.00
   16    1   20      0.78      0.00
  -16    2   20      0.20      0.00
  -15    2   20      0.01      0.00
  -14    2   20      0.89      0.00
  -13    2   20      0.31      0.00
  -12    2   20      2.77      0.00
  -11    2   20      0.21      0.00
  -10    2   20      1.90      0.00
   -9    2   20     -0.04      0.00
   -8    2   20     -0.63      0.00
   -7    2   20     -0.79      0.00
   -6    2   20     -0.60      0.00
   -5    2   20     -0.13      0.00
   -4    2   20     -0.19      0.00
   -3    2   20     -0.44      0.00
   -2    2   20     -0.50      0.00
   -1    2   20     -0.67      0.00
    0    2   20     -0.42      0.00
    1    2   20     -0.07      0.00
    2    2   20     -0.54      0.00
    3    2   20      0.34      0.00
    4    2   20     -2.68      0.00
    5    2   20      0.45      0.00
    6    2   20     -1.91      0.00
    7    2   20      0.64      0.00
    8    2   20     -0.52      0.00
    9    2   20      0.75      0.00
   10    2   20      1.11      0.00
   11    2   20      0.29      0.00
   12    2   20      0.75      0.00
   13    2   20      0.93      0.00
   14    2   20      0.23      0.00
   15    2   20      0.65      0.00
   16    2   20     -0.38      0.00
  -15    3   20      0.56      0.00
  -14    3   20      0.11      0.00
  -13    3   20      1.79      0.00
  -12    3   20      0.06      0.00
  -11    3   20      0.64      0.00
  -10    3   20      0.43      0.00
   -9    3   20     -0.04      0.00
   -8    3   20      1.46      0.00
   -7    3   20     -0.49      0.00
   -6    3   20      1.26      0.00
   -5    3   20     -3.08      0.00
   -4    3   20      0.30      0.00
   -3    3   20     -5.09      0.00
   -2    3   20     -0.47      0.00
   -1    3   20     -2.04      0.00
    0    3   20     -0.48      0.00
    1    3   20      0.22      0.00
    2    3   20     -0.11      0.00
    3    3   20      1.85      0.00
    4    3   20      0.25      0.00
    5    3   20      0.38      0.00
    6    3   20     -1.05      0.00
    7    3   20     -0.89      0.00
    8    3   20      0.86      0.00
    9    3   20      1.15      0.00
   10    3   20      1.28      0.00
   11    3   20      2.41      0.00
   12    3   20     -0.19      0.00
   13    3   20      0.45      0.00
   14    3   20     -0.66      0.00
   15    3   20     -0.01      0.00
  -13    4   20      0.50      0.00
  -12    4   20     -0.71      0.00
  -11    4   20      0.56      0.00
  -10    4   20     -0.89      0.00
   -9    4   20      0.35      0.00
   -8    4   20     -1.49      0.00
   -7    4   20     -0.09      0.00
   -6    4   20     -1.18      0.00
   -5    4   20     -0.35      0.00
   -4    4   20      0.25      0.00
   -3    4   20     -0.35      0.00
   -2    4   20     -0.89      0.00
   -1    4   20      0.90      0.00
    0    4   20     -1.65      0.00
    1    4   20      1.07      0.00
    2    4   20     -1.40      0.00
    3    4   20      0.14      0.00
    4    4   20      0.33      0.00
    5    4   20     -0.29      0.00
    6    4   20      0.00      0.00
    7    4   20      0.33      0.00
    8    4   20      0.49      0.00
    9    4   20     -0.98      0.00
   10    4   20      0.70      0.00
   11    4   20      0.51      0.00
   12    4   20      0.58      0.00
   13    4   20     -0.04      0.00
  -11    5   20      0.70      0.00
  -10    5   20     -0.98      0.00
   -9    5   20      0.50      0.00
   -8    5   20      1.18      0.00
   -7    5   20      1.71      0.00
   -6    5   20      1.69      0.00
   -5    5   20     -0.13      0.00
   -4    5   20     -0.09      0.00
   -3    5   20     -1.52      0.00
   -2    5   20      0.32      0.00
   -1    5   20     -0.77      0.00
    0    5   20      0.15      0.00
    1    5   20     -0.71      0.00
    2    5   20      0.33      0.00
    3    5   20     -1.02      0.00
    4    5   20      0.18      0.00
    5    5   20     -0.27      0.00
    6    5   20     -0.63      0.00
    7    5   20      0.29      0.00
    8    5   20     -0.55      0.00
    9    5   20     -1.80      0.00
   10    5   20     -0.13      0.00
   -7    6   20      0.13      0.00
   -6    6   20      0.46      0.00
   -5    6   20     -0.92      0.00
   -4    6   20     -0.49      0.00
   -3    6   20     -0.85      0.00
   -2    6   20     -1.02      0.00
   -1    6   20      0.17      0.00
    0    6   20     -1.13      0.00
    1    6   20      0.02      0.00
    2    6   20     -0.83      0.00
    3    6   20     -1.06      0.00
    4    6   20     -1.17      0.00
    5    6   20     -0.23      0.00
    6    6   20     -0.09      0.00
  -17    0   21      0.99      0.00
  -15    0   21      1.80      0.00
  -13    0   21      2.61      0.00
  -11    0   21      3.56      0.00
   -9    0   21     -0.16      0.00
   -7    0   21     -5.14      0.00
   -5    0   21     -4.10      0.00
   -3    0   21      2.62      0.00
   -1    0   21      3.00      0.00
    1    0   21      0.38      0.00
    3    0   21      5.32      0.00
    5    0   21     11.98      0.00
    7    0   21      5.78      0.00
    9    0   21     -3.33      0.00
   11    0   21     -7.10      0.00
   13    0   21     -4.09      0.00
   15    0   21     -0.66      0.00
  -16    1   21     -0.74      0.00
  -15    1   21     -0.07      0.00
  -14    1   21     -0.56      0.00
  -13    1   21     -0.36      0.00
  -12    1   21     -1.23      0.00
  -11    1   21      0.65      0.00
  -10    1   21     -0.13      0.00
   -9    1   21      1.58      0.00
   -8    1   21      0.68      0.00
   -7    1   21      0.39      0.00
   -6    1   21     -0.10      0.00
   -5    1   21     -1.27      0.00
   -4    1   21     -3.00      0.00
   -3    1   21     -0.23      0.00
   -2    1   21     -3.23      0.00
   -1    1   21     -1.21      0.00
    0    1   21      1.33      0.00
    1    1   21     -1.02      0.00
    2    1   21      7.26      0.00
    3    1   21      1.11      0.00
    4    1   21      5.12      0.00
    5    1   21      3.05      0.00
    6    1   21      0.09      0.00
    7    1   21      0.32      0.00
    8    1   21     -3.55      0.00
    9    1   21     -1.51      0.00
   10    1   21     -0.90      0.00
   11    1   21     -2.18      0.00
   12    1   21      0.72      0.00
   13    1   21      0.29      0.00
   14    1   21      1.13      0.00
   15    1   21      0.07      0.00
   16    1   21     -0.57      0.00
  -16    2   21      0.20      0.00
  -15    2   21      0.35      0.00
  -14    2   21     -0.10      0.00
  -13    2   21     -1.09      0.00
  -12    2   21     -0.67      0.00
  -11    2   21     -3.20      0.00
  -10    2   21     -0.57      0.00
   -9    2   21     -1.29      0.00
   -8    2   21     -0.05      0.00
   -7    2   21     -0.03      0.00
   -6    2   21      0.68      0.00
   -5    2   21     -0.02      0.00
   -4    2   21     -1.12      0.00
   -3    2   21     -0.61      0.00
   -2    2   21      0.28      0.00
   -1    2   21      0.72      0.00
    0    2   21      0.08      0.00
    1    2   21      0.05      0.00
    2    2   21     -0.24      0.00
    3    2   21      2.40      0.00
    4    2   21     -0.24      0.00
    5    2   21      2.57      0.00
    6    2   21     -0.43      0.00
    7    2   21      1.24      0.00
    8    2   21     -0.81      0.00
    9    2   21     -0.05      0.00
   10    2   21     -0.51      0.00
   11    2   21     -1.00      0.00
   12    2   21     -0.73      0.00
   13    2   21     -0.64      0.00
   14    2   21     -0.81      0.00
   15    2   21      0.24      0.00
  -15    3   21     -0.21      0.00
  -14    3   21     -0.88      0.00
  -13    3   21     -0.35      0.00
  -12    3   21     -1.64      0.00
  -11    3   21     -0.45      0.00
  -10    3   21     -0.10      0.00
   -9    3   21     -0.86      0.00
   -8    3   21     -1.07      0.00
   -7    3   21     -1.80      0.00
   -6    3   21      0.41      0.00
   -5    3   21     -1.17      0.00
   -4    3   21      3.48      0.00
   -3    3   21     -0.54      0.00
   -2    3   21      4.26      0.00
   -1    3   21     -0.20      0.00
    0    3   21      1.53      0.00
    1    3   21     -0.08      0.00
    2    3   21     -0.95      0.00
    3    3   21      0.46      0.00
    4    3   21     -0.84      0.00
    5    3   21      1.46      0.00
    6    3   21      0.79      0.00
    7    3   21      0.87      0.00
    8    3   21      1.21      0.00
    9    3   21     -0.93      0.00
   10    3   21     -1.74      0.00
   11    3   21     -1.18      0.00
   12    3   21     -1.15      0.00
   13    3   21      0.79      0.00
   14    3   21     -0.43      0.00
  -13    4   21     -0.41      0.00
  -12    4   21     -0.53      0.00
  -11    4   21      0.91      0.00
  -10    4   21     -0.29      0.00
   -9    4   21     -0.31      0.00
   -8    4   21     -0.76      0.00
   -7    4   21      1.61      0.00
   -6    4   21      0.70      0.00
   -5    4   21     -0.12      0.00
   -4    4   21      0.13      0.00
   -3    4   21     -0.58      0.00
   -2    4   21      0.06      0.00
   -1    4   21      0.44      0.00
    0    4   21     -1.60      0.00
    1    4   21      1.30      0.00
    2    4   21     -0.46      0.00
    3    4   21      0.57      0.00
    4    4   21      0.03      0.00
    5    4   21     -0.38      0.00
    6    4   21     -0.24      0.00
    7    4   21      0.30      0.00
    8    4   21      0.05      0.00
    9    4   21     -0.45      0.00
   10    4   21      0.31      0.00
   11    4   21     -0.51      0.00
   12    4   21     -0.86      0.00
   13    4   21     -0.42      0.00
  -10    5   21     -0.52      0.00
   -9    5   21      0.40      0.00
   -8    5   21     -1.08      0.00
   -7    5   21     -2.14      0.00
   -6    5   21     -1.73      0.00
   -5    5   21     -0.38      0.00
   -4    5   21      0.58      0.00
   -3    5   21     -0.14      0.00
   -2    5   21      1.26      0.00
   -1    5   21      0.01      0.00
    0    5   21      0.87      0.00
    1    5   21     -0.41      0.00
    2    5   21      0.99      0.00
    3    5   21     -0.40      0.00
    4    5   21      1.41      0.00
    5    5   21     -0.09      0.00
    6    5   21     -0.61      0.00
    7    5   21      0.61      0.00
    8    5   21      1.08      0.00
    9    5   21      0.44      0.00
   10    5   21      1.36      0.00
   -6    6   21     -0.06      0.00
   -5    6   21     -0.07      0.00
   -4    6   21      1.25      0.00
   -3    6   21      0.75      0.00
   -2    6   21      0.51      0.00
   -1    6   21      0.78      0.00
    0    6   21     -0.31      0.00
    1    6   21      0.95      0.00
    2    6   21      0.82      0.00
    3    6   21      1.35      0.00
    4    6   21      0.61      0.00
    5    6   21      0.61      0.00
  -16    0   22     -0.04      0.00
  -14    0   22     -1.40      0.00
  -12    0   22     -2.67      0.00
  -10    0   22     -3.01      0.00
   -8    0   22      2.59      0.00
   -6    0   22      3.55      0.00
   -4    0   22      1.53      0.00
   -2    0   22     -1.29      0.00
    0    0   22      1.60      0.00
    2    0   22      0.07      0.00
    4    0   22     -7.62      0.00
    6    0   22    -10.21      0.00
    8    0   22     -2.88      0.00
   10    0   22      3.99      0.00
   12    0   22      4.36      0.00
   14    0   22      3.21      0.00
   16    0   22     -0.33      0.00
  -16    1   22      0.05      0.00
  -15    1   22      0.36      0.00
  -14    1   22      0.41      0.00
  -13    1   22      1.01      0.00
  -12    1   22      0.10      0.00
  -11    1   22      1.12      0.00
  -10    1   22     -1.71      0.00
   -9    1   22     -0.53      0.00
   -8    1   22     -1.56      0.00
   -7    1   22     -0.74      0.00
   -6    1   22     -0.16      0.00
   -5    1   22      0.47      0.00
   -4    1   22      1.18      0.00
   -3    1   22      4.33      0.00
   -2    1   22      1.05      0.00
   -1    1   22      3.94      0.00
    0    1   22      2.85      0.00
    1    1   22     -2.63      0.00
    2    1   22      1.62      0.00
    3    1   22     -6.86      0.00
    4    1   22     -1.73      0.00
    5    1   22     -4.19      0.00
    6    1   22     -2.34      0.00
    7    1   22      1.41      0.00
    8    1   22      0.07      0.00
    9    1   22      2.62      0.00
   10    1   22      1.75      0.00
   11    1   22     -0.10      0.00
   12    1   22      1.29      0.00
   13    1   22     -1.59      0.00
   14    1   22     -0.48      0.00
   15    1   22     -0.17      0.00
   16    1   22      0.12      0.00
  -15    2   22     -0.07      0.00
  -14    2   22     -0.92      0.00
  -13    2   22      0.11      0.00
  -12    2   22      1.69      0.00
  -11    2   22      1.03      0.00
  -10    2   22      2.99      0.00
   -9    2   22      0.88      0.00
   -8    2   22      1.72      0.00
   -7    2   22     -0.49      0.00
   -6    2   22      0.80      0.00
   -5    2   22      0.64      0.00
   -4    2   22      1.35      0.00
   -3    2   22      1.80      0.00
   -2    2   22      0.87      0.00
   -1    2   22      0.10      0.00
    0    2   22     -0.11      0.00
    1    2   22      0.42      0.00
    2    2   22     -1.45      0.00
    3    2   22     -0.07      0.00
    4    2   22     -3.40      0.00
    5    2   22     -0.16      0.00
    6    2   22     -2.05      0.00
    7    2   22      0.36      0.00
    8    2   22     -0.70      0.00
    9    2   22      0.94      0.00
   10    2   22      0.69      0.00
   11    2   22      0.05      0.00
   12    2   22      1.06      0.00
   13    2   22      1.33      0.00
   14    2   22      0.62      0.00
   15    2   22      0.26      0.00
  -14    3   22      0.22      0.00
  -13    3   22      1.23      0.00
  -12    3   22      0.84      0.00
  -11    3   22      0.42      0.00
  -10    3   22      0.43      0.00
   -9    3   22      1.03      0.00
   -8    3   22      1.35      0.00
   -7    3   22      1.75      0.00
   -6    3   22      1.64      0.00
   -5    3   22     -0.28      0.00
   -4    3   22      1.10      0.00
   -3    3   22     -3.46      0.00
   -2    3   22      0.72      0.00
   -1    3   22     -3.49      0.00
    0    3   22      0.80      0.00
    1    3   22     -0.91      0.00
    2    3   22     -0.18      0.00
    3    3   22      0.98      0.00
    4    3   22     -1.50      0.00
    5    3   22     -0.31      0.00
    6    3   22     -2.19      0.00
    7    3   22     -1.82      0.00
    8    3   22      0.06      0.00
    9    3   22     -0.38      0.00
   10    3   22      1.08      0.00
   11    3   22      1.24      0.00
   12    3   22      0.51      0.00
   13    3   22      0.59      0.00
   14    3   22     -0.30      0.00
  -13    4   22     -0.05      0.00
  -12    4   22     -0.72      0.00
  -11    4   22      0.29      0.00
  -10    4   22      0.65      0.00
   -9    4   22      0.86      0.00
   -8    4   22      0.19      0.00
   -7    4   22      0.18      0.00
   -6    4   22     -1.05      0.00
   -5    4   22     -0.63      0.00
   -4    4   22      1.14      0.00
   -3    4   22     -0.10      0.00
   -2    4   22      0.75      0.00
   -1    4   22      0.85      0.00
    0    4   22     -0.09      0.00
    1    4   22      0.91      0.00
    2    4   22     -1.26      0.00
    3    4   22      0.18      0.00
    4    4   22      0.40      0.00
    5    4   22     -0.09      0.00
    6    4   22     -0.34      0.00
    7    4   22      0.67      0.00
    8    4   22      0.16      0.00
    9    4   22     -0.11      0.00
   10    4   22      0.17      0.00
   11    4   22      0.24      0.00
   12    4   22      0.61      0.00
  -10    5   22     -0.99      0.00
   -9    5   22      0.31      0.00
   -8    5   22      0.60      0.00
   -7    5   22      1.61      0.00
   -6    5   22      1.10      0.00
   -5    5   22      1.20      0.00
   -4    5   22     -0.54      0.00
   -3    5   22     -0.72      0.00
   -2    5   22      0.07      0.00
   -1    5   22     -0.96      0.00
    0    5   22     -0.36      0.00
    1    5   22     -0.92      0.00
    2    5   22      0.54      0.00
    3    5   22     -1.02      0.00
    4    5   22      0.58      0.00
    5    5   22     -0.37      0.00
    6    5   22     -0.06      0.00
    7    5   22      1.12      0.00
    8    5   22     -0.02      0.00
    9    5   22     -1.82      0.00
   -5    6   22     -0.68      0.00
   -4    6   22     -0.58      0.00
   -3    6   22     -0.91      0.00
   -2    6   22     -0.27      0.00
   -1    6   22     -0.07      0.00
    0    6   22     -0.66      0.00
    1    6   22      0.14      0.00
    2    6   22     -0.87      0.00
    3    6   22     -0.91      0.00
    4    6   22     -1.13      0.00
  -15    0   23     -0.70      0.00
  -13    0   23      1.27      0.00
  -11    0   23      2.83      0.00
   -9    0   23      0.87      0.00
   -7    0   23     -2.44      0.00
   -5    0   23     -0.93      0.00
   -3    0   23     -0.67      0.00
   -1    0   23     -2.24      0.00
    1    0   23     -4.88      0.00
    3    0   23      0.94      0.00
    5    0   23      7.71      0.00
    7    0   23      7.07      0.00
    9    0   23      0.23      0.00
   11    0   23     -2.34      0.00
   13    0   23     -3.00      0.00
   15    0   23     -2.01      0.00
  -16    1   23     -0.26      0.00
  -15    1   23     -0.41      0.00
  -14    1   23     -0.45      0.00
  -13    1   23     -0.76      0.00
  -12    1   23     -1.51      0.00
  -11    1   23      0.54      0.00
  -10    1   23     -0.57      0.00
   -9    1   23      1.66      0.00
   -8    1   23      0.56      0.00
   -7    1   23      1.29      0.00
   -6    1   23      1.27      0.00
   -5    1   23     -0.44      0.00
   -4    1   23     -1.81      0.00
   -3    1   23     -0.72      0.00
   -2    1   23     -5.74      0.00
   -1    1   23     -2.52      0.00
    0    1   23     -3.69      0.00
    1    1   23     -3.29      0.00
    2    1   23      3.81      0.00
    3    1   23     -1.25      0.00
    4    1   23      6.01      0.00
    5    1   23      2.76      0.00
    6    1   23      2.73      0.00
    7    1   23      1.70      0.00
    8    1   23     -2.74      0.00
    9    1   23     -0.02      0.00
   10    1   23     -0.81      0.00
   11    1   23     -1.80      0.00
   12    1   23      0.96      0.00
   13    1   23     -0.50      0.00
   14    1   23      1.37      0.00
   15    1   23      0.37      0.00
  -15    2   23      1.03      0.00
  -14    2   23      0.53      0.00
  -13    2   23      1.20      0.00
  -12    2   23     -0.46      0.00
  -11    2   23     -2.25      0.00
  -10    2   23     -1.09      0.00
   -9    2   23     -3.05      0.00
   -8    2   23     -0.52      0.00
   -7    2   23     -2.44      0.00
   -6    2   23      0.84      0.00
   -5    2   23     -1.58      0.00
   -4    2   23     -2.19      0.00
   -3    2   23     -2.76      0.00
   -2    2   23     -1.29      0.00
   -1    2   23     -0.81      0.00
    0    2   23     -0.82      0.00
    1    2   23      0.11      0.00
    2    2   23      0.04      0.00
    3    2   23      3.20      0.00
    4    2   23      0.57      0.00
    5    2   23      3.24      0.00
    6    2   23      0.50      0.00
    7    2   23      1.09      0.00
    8    2   23     -0.93      0.00
    9    2   23     -0.09      0.00
   10    2   23      0.04      0.00
   11    2   23     -1.15      0.00
   12    2   23     -0.68      0.00
   13    2   23     -1.68      0.00
   14    2   23     -0.87      0.00
   15    2   23     -0.27      0.00
  -14    3   23     -0.07      0.00
  -13    3   23     -0.51      0.00
  -12    3   23     -0.60      0.00
  -11    3   23     -0.87      0.00
  -10    3   23      0.09      0.00
   -9    3   23      0.03      0.00
   -8    3   23     -2.27      0.00
   -7    3   23     -1.72      0.00
   -6    3   23     -1.94      0.00
   -5    3   23     -0.82      0.00
   -4    3   23      0.13      0.00
   -3    3   23     -1.11      0.00
   -2    3   23      3.40      0.00
   -1    3   23     -0.64      0.00
    0    3   23      3.21      0.00
    1    3   23     -1.37      0.00
    2    3   23     -0.19      0.00
    3    3   23      1.00      0.00
    4    3   23     -0.11      0.00
    5    3   23      2.06      0.00
    6    3   23      0.96      0.00
    7    3   23      0.96      0.00
    8    3   23      1.62      0.00
    9    3   23     -0.43      0.00
   10    3   23     -0.26      0.00
   11    3   23     -1.22      0.00
   12    3   23     -0.54      0.00
   13    3   23      0.15      0.00
  -12    4   23     -0.18      0.00
  -11    4   23      0.41      0.00
  -10    4   23     -0.35      0.00
   -9    4   23     -1.80      0.00
   -8    4   23     -1.29      0.00
   -7    4   23      0.72      0.00
   -6    4   23      0.60      0.00
   -5    4   23     -0.04      0.00
   -4    4   23      0.12      0.00
   -3    4   23     -1.29      0.00
   -2    4   23     -0.25      0.00
   -1    4   23     -0.76      0.00
    0    4   23     -1.08      0.00
    1    4   23      0.50      0.00
    2    4   23     -0.20      0.00
    3    4   23      0.59      0.00
    4    4   23      0.11      0.00
    5    4   23     -0.19      0.00
    6    4   23     -0.35      0.00
    7    4   23      0.31      0.00
    8    4   23     -0.66      0.00
    9    4   23     -0.20      0.00
   10    4   23      0.08      0.00
   11    4   23     -0.31      0.00
   12    4   23     -0.43      0.00
   -9    5   23      0.83      0.00
   -8    5   23     -0.53      0.00
   -7    5   23     -0.77      0.00
   -6    5   23     -1.39      0.00
   -5    5   23      0.92      0.00
   -4    5   23     -0.97      0.00
   -3    5   23      0.25      0.00
   -2    5   23      0.69      0.00
   -1    5   23      0.79      0.00
    0    5   23      0.80      0.00
    1    5   23      0.00      0.00
    2    5   23      0.52      0.00
    3    5   23     -0.29      0.00
    4    5   23      0.53      0.00
    5    5   23     -0.69      0.00
    6    5   23     -1.83      0.00
    7    5   23     -0.26      0.00
    8    5   23     -0.25      0.00
    9    5   23     -0.12      0.00
   -4    6   23      1.00      0.00
   -3    6   23      0.44      0.00
   -2    6   23      0.35      0.00
   -1    6   23     -0.09      0.00
    0    6   23     -0.50      0.00
    1    6   23      0.51      0.00
    2    6   23      0.26      0.00
    3    6   23      0.76      0.00
  -16    0   24      1.75      0.00
  -14    0   24      0.51      0.00
  -12    0   24     -1.57      0.00
  -10    0   24     -2.63      0.00
   -8    0   24      0.70      0.00
   -6    0   24     -0.13      0.00
   -4    0   24     -0.76      0.00
   -2    0   24      1.85      0.00
    0    0   24      6.26      0.00
    2    0   24      5.09      0.00
    4    0   24     -1.95      0.00
    6    0   24     -6.73      0.00
    8    0   24     -3.76      0.00
   10    0   24      0.21      0.00
   12    0   24      0.56      0.00
   14    0   24      2.36      0.00
  -15    1   24      0.14      0.00
  -14    1   24      0.86      0.00
  -13    1   24      0.76      0.00
  -12    1   24      0.99      0.00
  -11    1   24      1.54      0.00
  -10    1   24     -0.69      0.00
   -9    1   24     -0.08      0.00
   -8    1   24     -0.87      0.00
   -7    1   24     -0.78      0.00
   -6    1   24     -0.73      0.00
   -5    1   24     -1.41      0.00
   -4    1   24      0.29      0.00
   -3    1   24      3.78      0.00
   -2    1   24      0.63      0.00
   -1    1   24      6.84      0.00
    0    1   24      2.81      0.00
    1    1   24      2.10      0.00
    2    1   24      2.84      0.00
    3    1   24     -4.20      0.00
    4    1   24     -0.60      0.00
    5    1   24     -5.13      0.00
    6    1   24     -2.98      0.00
    7    1   24     -0.43      0.00
    8    1   24     -1.63      0.00
    9    1   24      2.02      0.00
   10    1   24      0.61      0.00
   11    1   24     -0.36      0.00
   12    1   24      1.65      0.00
   13    1   24     -1.86      0.00
   14    1   24      0.16      0.00
   15    1   24     -0.32      0.00
  -15    2   24     -0.46      0.00
  -14    2   24     -2.03      0.00
  -13    2   24     -0.74      0.00
  -12    2   24     -0.89      0.00
  -11    2   24      0.72      0.00
  -10    2   24      2.32      0.00
   -9    2   24      0.85      0.00
   -8    2   24      3.39      0.00
   -7    2   24     -0.64      0.00
   -6    2   24      2.35      0.00
   -5    2   24     -0.33      0.00
   -4    2   24      2.88      0.00
   -3    2   24      2.17      0.00
   -2    2   24      3.11      0.00
   -1    2   24      0.90      0.00
    0    2   24      1.18      0.00
    1    2   24      0.70      0.00
    2    2   24     -1.26      0.00
    3    2   24     -0.78      0.00
    4    2   24     -3.63      0.00
    5    2   24     -0.88      0.00
    6    2   24     -1.96      0.00
    7    2   24      0.00      0.00
    8    2   24     -0.27      0.00
    9    2   24      0.80      0.00
   10    2   24      0.95      0.00
   11    2   24     -0.67      0.00
   12    2   24      1.69      0.00
   13    2   24      1.15      0.00
   14    2   24      1.60      0.00
  -13    3   24     -0.08      0.00
  -12    3   24      0.76      0.00
  -11    3   24     -0.64      0.00
  -10    3   24     -0.32      0.00
   -9    3   24      0.66      0.00
   -8    3   24      0.18      0.00
   -7    3   24      2.71      0.00
   -6    3   24      0.88      0.00
   -5    3   24      2.11      0.00
   -4    3   24      0.39      0.00
   -3    3   24     -0.26      0.00
   -2    3   24      0.58      0.00
   -1    3   24     -3.92      0.00
    0    3   24      1.37      0.00
    1    3   24     -1.98      0.00
    2    3   24      1.19      0.00
    3    3   24      0.39      0.00
    4    3   24     -1.26      0.00
    5    3   24     -0.22      0.00
    6    3   24     -1.24      0.00
    7    3   24     -1.02      0.00
    8    3   24      0.19      0.00
    9    3   24     -0.49      0.00
   10    3   24      0.58      0.00
   11    3   24      0.10      0.00
   12    3   24      0.44      0.00
   13    3   24      0.26      0.00
  -12    4   24     -0.78      0.00
  -11    4   24      0.23      0.00
  -10    4   24      1.00      0.00
   -9    4   24      1.18      0.00
   -8    4   24      1.21      0.00
   -7    4   24      0.58      0.00
   -6    4   24     -1.01      0.00
   -5    4   24     -0.41      0.00
   -4    4   24      0.72      0.00
   -3    4   24      0.31      0.00
   -2    4   24      0.65      0.00
   -1    4   24      0.91      0.00
    0    4   24      0.54      0.00
    1    4   24      0.50      0.00
    2    4   24     -1.09      0.00
    3    4   24     -0.01      0.00
    4    4   24      0.20      0.00
    5    4   24     -0.24      0.00
    6    4   24     -0.66      0.00
    7    4   24      0.38      0.00
    8    4   24      0.18      0.00
    9    4   24      0.66      0.00
   10    4   24     -0.04      0.00
   11    4   24     -0.34      0.00
   -9    5   24     -0.14      0.00
   -8    5   24     -0.42      0.00
   -7    5   24      0.33      0.00
   -6    5   24     -0.52      0.00
   -5    5   24      1.40      0.00
   -4    5   24     -1.41      0.00
   -3    5   24      0.70      0.00
   -2    5   24     -0.08      0.00
   -1    5   24     -0.57      0.00
    0    5   24     -1.05      0.00
    1    5   24     -0.65      0.00
    2    5   24      0.03      0.00
    3    5   24      0.15      0.00
    4    5   24      0.27      0.00
    5    5   24      1.03      0.00
    6    5   24      0.37      0.00
    7    5   24      2.75      0.00
    8    5   24      0.84      0.00
   -1    6   24      0.33      0.00
    0    6   24      0.00      0.00
    1    6   24      0.54      0.00
  -15    0   25     -1.78      0.00
  -13    0   25      0.53      0.00
  -11    0   25      2.36      0.00
   -9    0   25      1.65      0.00
   -7    0   25     -0.16      0.00
   -5    0   25      3.24      0.00
   -3    0   25      0.28      0.00
   -1    0   25     -3.52      0.00
    1    0   25     -8.30      0.00
    3    0   25     -2.82      0.00
    5    0   25      2.65      0.00
    7    0   25      5.22      0.00
    9    0   25      1.03      0.00
   11    0   25      1.23      0.00
   13    0   25     -0.40      0.00
   15    0   25     -1.76      0.00
  -15    1   25     -0.51      0.00
  -14    1   25     -0.13      0.00
  -13    1   25     -1.41      0.00
  -12    1   25     -0.76      0.00
  -11    1   25     -0.96      0.00
  -10    1   25     -0.89      0.00
   -9    1   25      0.02      0.00
   -8    1   25      0.45      0.00
   -7    1   25      0.36      0.00
   -6    1   25      1.66      0.00
   -5    1   25      0.32      0.00
   -4    1   25      0.24      0.00
   -3    1   25      0.65      0.00
   -2    1   25     -5.88      0.00
   -1    1   25     -0.57      0.00
    0    1   25     -6.13      0.00
    1    1   25     -2.19      0.00
    2    1   25     -0.55      0.00
    3    1   25     -1.54      0.00
    4    1   25      4.32      0.00
    5    1   25      1.90      0.00
    6    1   25      3.64      0.00
    7    1   25      2.61      0.00
    8    1   25     -1.20      0.00
    9    1   25      0.91      0.00
   10    1   25     -0.56      0.00
   11    1   25     -1.52      0.00
   12    1   25      1.34      0.00
   13    1   25     -1.52      0.00
   14    1   25      1.43      0.00
  -14    2   25      1.03      0.00
  -13    2   25      3.15      0.00
  -12    2   25      0.37      0.00
  -11    2   25      0.61      0.00
  -10    2   25     -0.67      0.00
   -9    2   25     -2.21      0.00
   -8    2   25     -0.17      0.00
   -7    2   25     -2.90      0.00
   -6    2   25      1.78      0.00
   -5    2   25     -2.05      0.00
   -4    2   25     -0.44      0.00
   -3    2   25     -4.11      0.00
   -2    2   25     -0.81      0.00
   -1    2   25     -3.13      0.00
    0    2   25     -1.07      0.00
    1    2   25     -1.31      0.00
    2    2   25      0.45      0.00
    3    2   25      2.01      0.00
    4    2   25      0.92      0.00
    5    2   25      2.76      0.00
    6    2   25      0.70      0.00
    7    2   25      0.77      0.00
    8    2   25     -0.88      0.00
    9    2   25     -0.45      0.00
   10    2   25      0.50      0.00
   11    2   25     -0.96      0.00
   12    2   25      0.03      0.00
   13    2   25     -2.28      0.00
   14    2   25     -0.54      0.00
  -13    3   25      0.19      0.00
  -12    3   25      0.67      0.00
  -11    3   25     -0.29      0.00
  -10    3   25      1.11      0.00
   -9    3   25      1.58      0.00
   -8    3   25     -1.60      0.00
   -7    3   25     -0.57      0.00
   -6    3   25     -2.46      0.00
   -5    3   25      0.46      0.00
   -4    3   25     -2.39      0.00
   -3    3   25     -0.40      0.00
   -2    3   25      1.22      0.00
   -1    3   25     -0.06      0.00
    0    3   25      3.87      0.00
    1    3   25     -2.64      0.00
    2    3   25      0.32      0.00
    3    3   25     -0.42      0.00
    4    3   25     -0.07      0.00
    5    3   25      0.70      0.00
    6    3   25      0.04      0.00
    7    3   25     -0.15      0.00
    8    3   25      0.07      0.00
    9    3   25     -0.02      0.00
   10    3   25      0.05      0.00
   11    3   25     -0.38      0.00
   12    3   25      0.07      0.00
  -11    4   25      0.42      0.00
  -10    4   25     -0.61      0.00
   -9    4   25     -1.71      0.00
   -8    4   25     -1.28      0.00
   -7    4   25     -0.06      0.00
   -6    4   25      0.00      0.00
   -5    4   25      0.53      0.00
   -4    4   25     -0.20      0.00
   -3    4   25     -0.32      0.00
   -2    4   25     -0.93      0.00
   -1    4   25     -0.11      0.00
    0    4   25     -0.85      0.00
    1    4   25      0.25      0.00
    2    4   25     -0.35      0.00
    3    4   25      0.58      0.00
    4    4   25      0.46      0.00
    5    4   25      0.28      0.00
    6    4   25      0.40      0.00
    7    4   25      0.66      0.00
    8    4   25     -0.29      0.00
    9    4   25     -0.08      0.00
   10    4   25     -0.21      0.00
   -8    5   25      0.27      0.00
   -7    5   25      0.35      0.00
   -6    5   25      0.03      0.00
   -5    5   25      1.79      0.00
   -4    5   25     -1.80      0.00
   -3    5   25      0.08      0.00
   -2    5   25     -0.27      0.00
   -1    5   25      0.72      0.00
    0    5   25      0.73      0.00
    1    5   25      0.37      0.00
    2    5   25      0.03      0.00
    3    5   25      0.51      0.00
    4    5   25     -0.76      0.00
    5    5   25     -0.07      0.00
    6    5   25     -2.74      0.00
    7    5   25     -0.40      0.00
  -14    0   26      0.86      0.00
  -12    0   26     -1.92      0.00
  -10    0   26     -2.56      0.00
   -8    0   26     -0.62      0.00
   -6    0   26     -2.19      0.00
   -4    0   26     -4.19      0.00
   -2    0   26      0.16      0.00
    0    0   26      5.40      0.00
    2    0   26      6.39      0.00
    4    0   26      0.85      0.00
    6    0   26     -3.27      0.00
    8    0   26     -1.98      0.00
   10    0   26     -0.29      0.00
   12    0   26     -1.65      0.00
   14    0   26      0.83      0.00
  -14    1   26      0.91      0.00
  -13    1   26     -0.40      0.00
  -12    1   26      1.64      0.00
  -11    1   26      0.75      0.00
  -10    1   26      0.83      0.00
   -9    1   26     -0.15      0.00
   -8    1   26      0.53      0.00
   -7    1   26     -0.74      0.00
   -6    1   26     -0.22      0.00
   -5    1   26     -2.15      0.00
   -4    1   26     -0.77      0.00
   -3    1   26      1.94      0.00
   -2    1   26     -1.25      0.00
   -1    1   26      6.56      0.00
    0    1   26      0.23      0.00
    1    1   26      4.29      0.00
    2    1   26      1.68      0.00
    3    1   26     -0.66      0.00
    4    1   26      0.53      0.00
    5    1   26     -4.01      0.00
    6    1   26     -1.75      0.00
    7    1   26     -1.40      0.00
    8    1   26     -1.63      0.00
    9    1   26      1.30      0.00
   10    1   26      0.52      0.00
   11    1   26     -0.15      0.00
   12    1   26      2.24      0.00
   13    1   26     -2.00      0.00
   14    1   26      0.94      0.00
  -14    2   26     -2.22      0.00
  -13    2   26     -1.07      0.00
  -12    2   26     -3.64      0.00
  -11    2   26      0.17      0.00
  -10    2   26     -0.52      0.00
   -9    2   26      0.43      0.00
   -8    2   26      1.69      0.00
   -7    2   26     -0.87      0.00
   -6    2   26      1.62      0.00
   -5    2   26     -1.77      0.00
   -4    2   26      2.36      0.00
   -3    2   26      0.11      0.00
   -2    2   26      4.65      0.00
   -1    2   26      0.36      0.00
    0    2   26      3.52      0.00
    1    2   26      0.34      0.00
    2    2   26      1.02      0.00
    3    2   26     -1.15      0.00
    4    2   26     -1.94      0.00
    5    2   26     -0.67      0.00
    6    2   26     -1.52      0.00
    7    2   26      0.07      0.00
    8    2   26     -0.57      0.00
    9    2   26      0.49      0.00
   10    2   26      0.41      0.00
   11    2   26     -1.06      0.00
   12    2   26      0.95      0.00
   13    2   26      0.39      0.00
  -12    3   26     -0.12      0.00
  -11    3   26     -1.29      0.00
  -10    3   26     -1.24      0.00
   -9    3   26     -0.58      0.00
   -8    3   26     -1.22      0.00
   -7    3   26      1.81      0.00
   -6    3   26     -0.07      0.00
   -5    3   26      2.26      0.00
   -4    3   26     -0.66      0.00
   -3    3   26      2.18      0.00
   -2    3   26     -0.30      0.00
   -1    3   26     -2.58      0.00
    0    3   26      0.94      0.00
    1    3   26     -2.09      0.00
    2    3   26      2.56      0.00
    3    3   26      0.15      0.00
    4    3   26      0.03      0.00
    5    3   26      0.17      0.00
    6    3   26      0.24      0.00
    7    3   26      0.53      0.00
    8    3   26      0.18      0.00
    9    3   26      0.74      0.00
   10    3   26     -0.24      0.00
   11    3   26     -0.14      0.00
   12    3   26     -0.30      0.00
  -10    4   26      0.51      0.00
   -9    4   26      1.07      0.00
   -8    4   26      1.44      0.00
   -7    4   26      0.47      0.00
   -6    4   26     -0.31      0.00
   -5    4   26      0.21      0.00
   -4    4   26     -0.06      0.00
   -3    4   26      0.71      0.00
   -2    4   26     -0.73      0.00
   -1    4   26      1.26      0.00
    0    4   26      0.09      0.00
    1    4   26      0.58      0.00
    2    4   26     -0.73      0.00
    3    4   26      0.20      0.00
    4    4   26      0.18      0.00
    5    4   26     -0.91      0.00
    6    4   26     -1.15      0.00
    7    4   26     -1.01      0.00
    8    4   26     -0.27      0.00
    9    4   26      0.52      0.00
   10    4   26     -0.04      0.00
   -7    5   26     -0.88      0.00
   -6    5   26     -0.91      0.00
   -5    5   26      0.65      0.00
   -4    5   26     -1.12      0.00
   -3    5   26      1.66      0.00
   -2    5   26      0.68      0.00
   -1    5   26     -0.27      0.00
    0    5   26     -0.70      0.00
    1    5   26     -0.77      0.00
    2    5   26     -0.30      0.00
    3    5   26      0.55      0.00
    4    5   26     -0.71      0.00
    5    5   26      1.51      0.00
    6    5   26     -0.41      0.00
  -13    0   27      0.67      0.00
  -11    0   27      2.72      0.00
   -9    0   27      1.64      0.00
   -7    0   27      0.13      0.00
   -5    0   27      4.80      0.00
   -3    0   27      3.19      0.00
   -1    0   27      0.11      0.00
    1    0   27     -5.99      0.00
    3    0   27     -3.18      0.00
    5    0   27      0.31      0.00
    7    0   27      1.78      0.00
    9    0   27     -1.71      0.00
   11    0   27      0.76      0.00
   13    0   27      0.73      0.00
  -14    1   27      0.37      0.00
  -13    1   27     -1.00      0.00
  -12    1   27      0.86      0.00
  -11    1   27     -1.14      0.00
  -10    1   27     -0.63      0.00
   -9    1   27     -0.66      0.00
   -8    1   27      0.69      0.00
   -7    1   27     -0.39      0.00
   -6    1   27      1.13      0.00
   -5    1   27      0.47      0.00
   -4    1   27      1.63      0.00
   -3    1   27      1.21      0.00
   -2    1   27     -4.02      0.00
   -1    1   27      1.46      0.00
    0    1   27     -4.82      0.00
    1    1   27     -0.44      0.00
    2    1   27     -3.03      0.00
    3    1   27     -1.47      0.00
    4    1   27      1.73      0.00
    5    1   27     -0.76      0.00
    6    1   27      2.67      0.00
    7    1   27      1.06      0.00
    8    1   27     -0.49      0.00
    9    1   27      0.17      0.00
   10    1   27     -1.21      0.00
   11    1   27     -1.71      0.00
   12    1   27      0.88      0.00
   13    1   27     -2.03      0.00
  -13    2   27      3.79      0.00
  -12    2   27      0.60      0.00
  -11    2   27      3.33      0.00
  -10    2   27     -0.55      0.00
   -9    2   27      0.36      0.00
   -8    2   27     -0.02      0.00
   -7    2   27     -0.68      0.00
   -6    2   27      1.50      0.00
   -5    2   27     -0.50      0.00
   -4    2   27      1.05      0.00
   -3    2   27     -3.05      0.00
   -2    2   27      0.52      0.00
   -1    2   27     -4.90      0.00
    0    2   27     -0.53      0.00
    1    2   27     -3.65      0.00
    2    2   27      1.00      0.00
    3    2   27     -0.73      0.00
    4    2   27      1.00      0.00
    5    2   27      1.53      0.00
    6    2   27      0.20      0.00
    7    2   27      1.48      0.00
    8    2   27     -0.36      0.00
    9    2   27      0.68      0.00
   10    2   27      0.66      0.00
   11    2   27      0.62      0.00
   12    2   27      0.48      0.00
   13    2   27     -1.27      0.00
  -12    3   27      0.75      0.00
  -11    3   27      0.29      0.00
  -10    3   27      1.36      0.00
   -9    3   27      2.17      0.00
   -8    3   27     -0.14      0.00
   -7    3   27      0.18      0.00
   -6    3   27     -1.15      0.00
   -5    3   27      0.79      0.00
   -4    3   27     -2.34      0.00
   -3    3   27      0.37      0.00
   -2    3   27     -0.96      0.00
   -1    3   27      1.15      0.00
    0    3   27      2.52      0.00
    1    3   27     -2.20      0.00
    2    3   27      0.35      0.00
    3    3   27     -1.11      0.00
    4    3   27      0.05      0.00
    5    3   27     -0.27      0.00
    6    3   27     -0.38      0.00
    7    3   27     -0.56      0.00
    8    3   27     -1.43      0.00
    9    3   27      0.56      0.00
   10    3   27     -0.57      0.00
   11    3   27      0.37      0.00
  -10    4   27     -0.61      0.00
   -9    4   27     -0.99      0.00
   -8    4   27     -0.40      0.00
   -7    4   27     -1.25      0.00
   -6    4   27     -0.22      0.00
   -5    4   27     -0.13      0.00
   -4    4   27     -0.33      0.00
   -3    4   27      0.41      0.00
   -2    4   27     -1.20      0.00
   -1    4   27      0.94      0.00
    0    4   27     -0.76      0.00
    1    4   27     -0.02      0.00
    2    4   27     -0.88      0.00
    3    4   27     -0.06      0.00
    4    4   27      0.50      0.00
    5    4   27      0.15      0.00
    6    4   27      1.46      0.00
    7    4   27      1.15      0.00
    8    4   27      0.97      0.00
    9    4   27      0.17      0.00
   -6    5   27      1.00      0.00
   -5    5   27      1.21      0.00
   -4    5   27     -1.69      0.00
   -3    5   27     -0.66      0.00
   -2    5   27     -0.90      0.00
   -1    5   27     -0.15      0.00
    0    5   27      0.92      0.00
    1    5   27      0.00      0.00
    2    5   27      0.30      0.00
    3    5   27      0.74      0.00
    4    5   27     -0.70      0.00
    5    5   27      0.82      0.00
  -14    0   28      0.72      0.00
  -12    0   28     -2.10      0.00
  -10    0   28     -2.04      0.00
   -8    0   28      0.04      0.00
   -6    0   28     -0.94      0.00
   -4    0   28     -5.31      0.00
   -2    0   28     -3.20      0.00
    0    0   28      0.83      0.00
    2    0   28      4.39      0.00
    4    0   28      1.38      0.00
    6    0   28     -0.51      0.00
    8    0   28      2.37      0.00
   10    0   28      3.03      0.00
   12    0   28     -0.76      0.00
  -13    1   28     -1.19      0.00
  -12    1   28      0.48      0.00
  -11    1   28     -0.12      0.00
  -10    1   28      0.31      0.00
   -9    1   28      0.26      0.00
   -8    1   28      0.36      0.00
   -7    1   28     -0.51      0.00
   -6    1   28     -0.06      0.00
   -5    1   28     -1.60      0.00
   -4    1   28     -0.63      0.00
   -3    1   28     -0.18      0.00
   -2    1   28     -1.22      0.00
   -1    1   28      3.74      0.00
    0    1   28     -1.09      0.00
    1    1   28      3.14      0.00
    2    1   28      0.77      0.00
    3    1   28      1.76      0.00
    4    1   28      2.01      0.00
    5    1   28     -1.85      0.00
    6    1   28      0.81      0.00
    7    1   28     -0.77      0.00
    8    1   28     -0.24      0.00
    9    1   28      1.52      0.00
   10    1   28      0.73      0.00
   11    1   28      1.21      0.00
   12    1   28      2.10      0.00
   13    1   28     -1.30      0.00
  -13    2   28     -0.50      0.00
  -12    2   28     -4.16      0.00
  -11    2   28      0.08      0.00
  -10    2   28     -2.06      0.00
   -9    2   28      0.43      0.00
   -8    2   28     -0.49      0.00
   -7    2   28     -0.45      0.00
   -6    2   28     -0.20      0.00
   -5    2   28     -1.11      0.00
   -4    2   28     -0.09      0.00
   -3    2   28     -0.87      0.00
   -2    2   28      3.57      0.00
   -1    2   28      0.00      0.00
    0    2   28      4.81      0.00
    1    2   28     -0.28      0.00
    2    2   28      3.35      0.00
    3    2   28     -1.52      0.00
    4    2   28      0.28      0.00
    5    2   28     -0.44      0.00
    6    2   28     -1.42      0.00
    7    2   28      0.07      0.00
    8    2   28     -2.11      0.00
    9    2   28     -0.37      0.00
   10    2   28     -1.26      0.00
   11    2   28     -0.89      0.00
   12    2   28     -0.70      0.00
  -11    3   28     -0.62      0.00
  -10    3   28     -1.09      0.00
   -9    3   28     -1.08      0.00
   -8    3   28     -1.38      0.00
   -7    3   28      0.12      0.00
   -6    3   28      0.09      0.00
   -5    3   28      0.33      0.00
   -4    3   28     -0.60      0.00
   -3    3   28      2.08      0.00
   -2    3   28     -1.17      0.00
   -1    3   28     -0.39      0.00
    0    3   28     -0.65      0.00
    1    3   28     -0.94      0.00
    2    3   28      1.69      0.00
    3    3   28     -0.15      0.00
    4    3   28      0.13      0.00
    5    3   28     -0.18      0.00
    6    3   28      0.68      0.00
    7    3   28      0.92      0.00
    8    3   28     -0.18      0.00
    9    3   28      1.52      0.00
   10    3   28     -0.54      0.00
   11    3   28      0.31      0.00
   -9    4   28      0.50      0.00
   -8    4   28      1.36      0.00
   -7    4   28     -0.42      0.00
   -6    4   28      1.41      0.00
   -5    4   28      0.33      0.00
   -4    4   28      0.65      0.00
   -3    4   28      0.28      0.00
   -2    4   28     -1.23      0.00
   -1    4   28      1.13      0.00
    0    4   28     -0.08      0.00
    1    4   28      0.57      0.00
    2    4   28      0.16      0.00
    3    4   28      0.82      0.00
    4    4   28      0.89      0.00
    5    4   28     -1.01      0.00
    6    4   28     -0.79      0.00
    7    4   28     -2.01      0.00
    8    4   28     -0.77      0.00
   -4    5   28     -0.37      0.00
   -3    5   28      1.79      0.00
   -2    5   28      1.09      0.00
   -1    5   28     -0.17      0.00
    0    5   28      0.01      0.00
    1    5   28     -0.98      0.00
    2    5   28      0.02      0.00
    3    5   28      0.02      0.00
    4    5   28     -0.65      0.00
  -13    0   29      0.18      0.00
  -11    0   29      2.41      0.00
   -9    0   29      0.39      0.00
   -7    0   29     -1.74      0.00
   -5    0   29      2.62      0.00
   -3    0   29      4.52      0.00
   -1    0   29      3.41      0.00
    1    0   29     -2.07      0.00
    3    0   29     -2.54      0.00
    5    0   29      0.09      0.00
    7    0   29     -1.38      0.00
    9    0   29     -5.60      0.00
   11    0   29     -1.99      0.00
  -13    1   29      0.13      0.00
  -12    1   29      1.36      0.00
  -11    1   29      0.30      0.00
  -10    1   29     -1.12      0.00
   -9    1   29      0.20      0.00
   -8    1   29     -0.06      0.00
   -7    1   29     -0.18      0.00
   -6    1   29      0.30      0.00
   -5    1   29      0.48      0.00
   -4    1   29      2.23      0.00
   -3    1   29      0.07      0.00
   -2    1   29     -1.22      0.00
   -1    1   29      1.35      0.00
    0    1   29     -1.35      0.00
    1    1   29      0.39      0.00
    2    1   29     -2.89      0.00
    3    1   29     -0.87      0.00
    4    1   29     -0.26      0.00
    5    1   29     -2.19      0.00
    6    1   29      0.97      0.00
    7    1   29     -0.13      0.00
    8    1   29     -0.60      0.00
    9    1   29     -0.08      0.00
   10    1   29     -2.16      0.00
   11    1   29     -0.95      0.00
   12    1   29     -0.38      0.00
  -12    2   29      0.40      0.00
  -11    2   29      3.01      0.00
  -10    2   29     -0.50      0.00
   -9    2   29      0.63      0.00
   -8    2   29      0.27      0.00
   -7    2   29      0.62      0.00
   -6    2   29      0.60      0.00
   -5    2   29      1.07      0.00
   -4    2   29      0.64      0.00
   -3    2   29      0.16      0.00
   -2    2   29      0.47      0.00
   -1    2   29     -3.65      0.00
    0    2   29     -0.40      0.00
    1    2   29     -4.14      0.00
    2    2   29      1.10      0.00
    3    2   29     -2.88      0.00
    4    2   29      1.23      0.00
    5    2   29      0.07      0.00
    6    2   29     -0.32      0.00
    7    2   29      1.96      0.00
    8    2   29      0.45      0.00
    9    2   29      1.94      0.00
   10    2   29      0.94      0.00
   11    2   29      1.87      0.00
  -11    3   29      0.16      0.00
  -10    3   29      0.56      0.00
   -9    3   29      1.49      0.00
   -8    3   29      0.84      0.00
   -7    3   29      0.32      0.00
   -6    3   29      0.88      0.00
   -5    3   29      0.00      0.00
   -4    3   29      0.11      0.00
   -3    3   29      0.49      0.00
   -2    3   29     -1.14      0.00
   -1    3   29      2.09      0.00
    0    3   29      0.40      0.00
    1    3   29     -0.35      0.00
    2    3   29      0.08      0.00
    3    3   29     -0.18      0.00
    4    3   29      0.61      0.00
    5    3   29     -0.29      0.00
    6    3   29      0.14      0.00
    7    3   29     -0.52      0.00
    8    3   29     -1.43      0.00
    9    3   29      0.65      0.00
   10    3   29     -0.93      0.00
   -8    4   29      0.56      0.00
   -7    4   29     -1.88      0.00
   -6    4   29      0.18      0.00
   -5    4   29     -1.70      0.00
   -4    4   29      0.21      0.00
   -3    4   29     -0.20      0.00
   -2    4   29     -0.55      0.00
   -1    4   29      1.02      0.00
    0    4   29     -0.47      0.00
    1    4   29     -0.57      0.00
    2    4   29     -1.19      0.00
    3    4   29     -0.85      0.00
    4    4   29     -0.17      0.00
    5    4   29     -0.67      0.00
    6    4   29      1.34      0.00
    7    4   29      0.95      0.00
   -2    5   29     -0.96      0.00
   -1    5   29     -0.32      0.00
    0    5   29      0.96      0.00
    1    5   29     -0.33      0.00
  -12    0   30     -1.39      0.00
  -10    0   30     -1.28      0.00
   -8    0   30      1.48      0.00
   -6    0   30      1.96      0.00
   -4    0   30     -3.47      0.00
   -2    0   30     -4.41      0.00
    0    0   30     -1.76      0.00
    2    0   30      2.22      0.00
    4    0   30      0.17      0.00
    6    0   30     -1.30      0.00
    8    0   30      3.95      0.00
   10    0   30      5.14      0.00
   12    0   30      0.44      0.00
  -12    1   30     -0.64      0.00
  -11    1   30      0.02      0.00
  -10    1   30     -0.65      0.00
   -9    1   30      1.67      0.00
   -8    1   30     -0.01      0.00
   -7    1   30      0.08      0.00
   -6    1   30      0.01      0.00
   -5    1   30     -1.07      0.00
   -4    1   30     -0.15      0.00
   -3    1   30     -2.05      0.00
   -2    1   30      0.11      0.00
   -1    1   30      0.45      0.00
    0    1   30     -1.18      0.00
    1    1   30      0.46      0.00
    2    1   30     -0.54      0.00
    3    1   30      2.11      0.00
    4    1   30      1.20      0.00
    5    1   30     -0.38      0.00
    6    1   30      0.69      0.00
    7    1   30     -0.19      0.00
    8    1   30     -0.43      0.00
    9    1   30      1.18      0.00
   10    1   30     -0.34      0.00
   11    1   30      1.96      0.00
   12    1   30      0.84      0.00
  -11    2   30     -0.13      0.00
  -10    2   30     -0.85      0.00
   -9    2   30     -0.05      0.00
   -8    2   30     -0.14      0.00
   -7    2   30     -1.06      0.00
   -6    2   30     -0.54      0.00
   -5    2   30     -0.51      0.00
   -4    2   30     -2.07      0.00
   -3    2   30     -0.68      0.00
   -2    2   30      0.14      0.00
   -1    2   30      0.63      0.00
    0    2   30      2.97      0.00
    1    2   30     -0.01      0.00
    2    2   30      3.59      0.00
    3    2   30     -1.09      0.00
    4    2   30      2.27      0.00
    5    2   30     -0.20      0.00
    6    2   30     -0.12      0.00
    7    2   30      0.38      0.00
    8    2   30     -1.94      0.00
    9    2   30     -1.11      0.00
   10    2   30     -1.60      0.00
   11    2   30     -0.66      0.00
  -10    3   30     -0.60      0.00
   -9    3   30     -0.70      0.00
   -8    3   30     -1.31      0.00
   -7    3   30     -1.13      0.00
   -6    3   30      0.03      0.00
   -5    3   30     -1.98      0.00
   -4    3   30      0.01      0.00
   -3    3   30     -0.38      0.00
   -2    3   30     -1.16      0.00
   -1    3   30      0.38      0.00
    0    3   30     -1.36      0.00
    1    3   30      0.26      0.00
    2    3   30      0.19      0.00
    3    3   30     -0.62      0.00
    4    3   30     -0.26      0.00
    5    3   30     -0.90      0.00
    6    3   30      0.72      0.00
    7    3   30      0.39      0.00
    8    3   30     -0.21      0.00
    9    3   30      1.08      0.00
   -7    4   30     -1.01      0.00
   -6    4   30      1.99      0.00
   -5    4   30      0.01      0.00
   -4    4   30      1.65      0.00
   -3    4   30     -0.71      0.00
   -2    4   30     -0.83      0.00
   -1    4   30      0.74      0.00
    0    4   30      0.11      0.00
    1    4   30      0.46      0.00
    2    4   30      0.69      0.00
    3    4   30      1.34      0.00
    4    4   30      1.15      0.00
    5    4   30     -0.21      0.00
    6    4   30      0.07      0.00
  -11    0   31      1.89      0.00
   -9    0   31     -0.27      0.00
   -7    0   31     -3.03      0.00
   -5    0   31     -0.59      0.00
   -3    0   31      3.79      0.00
   -1    0   31      3.49      0.00
    1    0   31     -0.13      0.00
    3    0   31     -1.13      0.00
    5    0   31      3.71      0.00
    7    0   31      1.15      0.00
    9    0   31     -4.47      0.00
   11    0   31     -2.40      0.00
  -12    1   31      0.81      0.00
  -11    1   31      0.74      0.00
  -10    1   31     -1.69      0.00
   -9    1   31      0.33      0.00
   -8    1   31     -1.39      0.00
   -7    1   31     -0.67      0.00
   -6    1   31      0.11      0.00
   -5    1   31      0.37      0.00
   -4    1   31      2.64      0.00
   -3    1   31     -0.77      0.00
   -2    1   31      1.06      0.00
   -1    1   31      0.45      0.00
    0    1   31      1.37      0.00
    1    1   31      0.93      0.00
    2    1   31     -1.28      0.00
    3    1   31      0.76      0.00
    4    1   31     -0.60      0.00
    5    1   31     -0.71      0.00
    6    1   31      0.34      0.00
    7    1   31      0.89      0.00
    8    1   31      0.12      0.00
    9    1   31      0.93      0.00
   10    1   31     -1.37      0.00
   11    1   31      0.50      0.00
  -11    2   31      1.27      0.00
  -10    2   31      0.00      0.00
   -9    2   31     -0.60      0.00
   -8    2   31      1.35      0.00
   -7    2   31      0.06      0.00
   -6    2   31      1.39      0.00
   -5    2   31      1.02      0.00
   -4    2   31      0.91      0.00
   -3    2   31      2.41      0.00
   -2    2   31     -0.05      0.00
   -1    2   31     -0.40      0.00
    0    2   31     -1.00      0.00
    1    2   31     -1.97      0.00
    2    2   31     -0.13      0.00
    3    2   31     -3.45      0.00
    4    2   31      0.75      0.00
    5    2   31     -1.94      0.00
    6    2   31     -0.99      0.00
    7    2   31      0.09      0.00
    8    2   31      0.42      0.00
    9    2   31      0.98      0.00
   10    2   31      1.01      0.00
   -9    3   31      1.10      0.00
   -8    3   31      0.77      0.00
   -7    3   31      1.27      0.00
   -6    3   31      1.84      0.00
   -5    3   31     -0.08      0.00
   -4    3   31      2.36      0.00
   -3    3   31      0.12      0.00
   -2    3   31      0.54      0.00
   -1    3   31      1.19      0.00
    0    3   31     -0.47      0.00
    1    3   31     -0.01      0.00
    2    3   31      0.05      0.00
    3    3   31      0.33      0.00
    4    3   31      1.30      0.00
    5    3   31     -0.29      0.00
    6    3   31      0.66      0.00
    7    3   31     -0.46      0.00
    8    3   31     -0.62      0.00
   -6    4   31      0.32      0.00
   -5    4   31     -1.73      0.00
   -4    4   31      0.72      0.00
   -3    4   31     -0.54      0.00
   -2    4   31      0.19      0.00
   -1    4   31      0.85      0.00
    0    4   31     -0.53      0.00
    1    4   31     -0.66      0.00
    2    4   31     -1.13      0.00
    3    4   31     -0.60      0.00
    4    4   31     -0.76      0.00
    5    4   31     -0.79      0.00
  -10    0   32     -1.17      0.00
   -8    0   32      1.54      0.00
   -6    0   32      3.14      0.00
   -4    0   32     -1.10      0.00
   -2    0   32     -3.82      0.00
    0    0   32     -1.18      0.00
    2    0   32      1.21      0.00
    4    0   32     -2.41      0.00
    6    0   32     -6.33      0.00
    8    0   32     -0.41      0.00
   10    0   32      2.77      0.00
  -11    1   32      0.17      0.00
  -10    1   32     -0.43      0.00
   -9    1   32      2.51      0.00
   -8    1   32      0.52      0.00
   -7    1   32      0.66      0.00
   -6    1   32      0.68      0.00
   -5    1   32     -1.12      0.00
   -4    1   32     -0.21      0.00
   -3    1   32     -2.79      0.00
   -2    1   32      0.85      0.00
   -1    1   32     -1.10      0.00
    0    1   32     -0.42      0.00
    1    1   32     -1.04      0.00
    2    1   32     -1.14      0.00
    3    1   32      1.01      0.00
    4    1   32     -0.12      0.00
    5    1   32     -0.18      0.00
    6    1   32     -0.66      0.00
    7    1   32     -0.45      0.00
    8    1   32     -1.16      0.00
    9    1   32     -0.33      0.00
   10    1   32     -1.26      0.00
  -10    2   32     -0.05      0.00
   -9    2   32     -0.63      0.00
   -8    2   32      0.50      0.00
   -7    2   32     -2.24      0.00
   -6    2   32      0.01      0.00
   -5    2   32     -1.51      0.00
   -4    2   32     -1.66      0.00
   -3    2   32     -1.15      0.00
   -2    2   32     -1.74      0.00
   -1    2   32      1.28      0.00
    0    2   32      0.02      0.00
    1    2   32      0.99      0.00
    2    2   32      1.70      0.00
    3    2   32      0.29      0.00
    4    2   32      3.07      0.00
    5    2   32      0.08      0.00
    6    2   32      1.83      0.00
    7    2   32      0.90      0.00
    8    2   32      0.23      0.00
    9    2   32     -0.92      0.00
   -8    3   32     -1.68      0.00
   -7    3   32     -0.82      0.00
   -6    3   32     -1.05      0.00
   -5    3   32     -2.19      0.00
   -4    3   32      0.03      0.00
   -3    3   32     -2.04      0.00
   -2    3   32     -0.13      0.00
   -1    3   32     -0.27      0.00
    0    3   32      0.22      0.00
    1    3   32      0.55      0.00
    2    3   32      0.34      0.00
    3    3   32     -1.07      0.00
    4    3   32     -0.08      0.00
    5    3   32     -1.37      0.00
    6    3   32      0.54      0.00
    7    3   32     -0.01      0.00
   -4    4   32      1.20      0.00
   -3    4   32     -1.21      0.00
   -2    4   32     -0.78      0.00
   -1    4   32      0.64      0.00
    0    4   32     -0.03      0.00
    1    4   32      0.51      0.00
    2    4   32      0.43      0.00
    3    4   32      1.16      0.00
   -9    0   33      0.03      0.00
   -7    0   33     -2.22      0.00
   -5    0   33     -1.82      0.00
   -3    0   33      2.76      0.00
   -1    0   33      2.03      0.00
    1    0   33     -0.82      0.00
    3    0   33     -1.12      0.00
    5    0   33      6.61      0.00
    7    0   33      5.77      0.00
    9    0   33     -0.03      0.00
  -10    1   33     -1.31      0.00
   -9    1   33      0.13      0.00
   -8    1   33     -2.33      0.00
   -7    1   33     -1.24      0.00
   -6    1   33      0.05      0.00
   -5    1   33      0.19      0.00
   -4    1   33      2.23      0.00
   -3    1   33     -0.39      0.00
   -2    1   33      1.28      0.00
   -1    1   33     -0.54      0.00
    0    1   33      1.34      0.00
    1    1   33      0.00      0.00
    2    1   33     -0.24      0.00
    3    1   33      0.65      0.00
    4    1   33     -0.02      0.00
    5    1   33     -0.09      0.00
    6    1   33      0.26      0.00
    7    1   33      1.06      0.00
    8    1   33      0.83      0.00
    9    1   33      0.95      0.00
   -9    2   33     -0.33      0.00
   -8    2   33      1.50      0.00
   -7    2   33     -0.10      0.00
   -6    2   33      2.09      0.00
   -5    2   33      0.19      0.00
   -4    2   33      1.88      0.00
   -3    2   33      1.33      0.00
   -2    2   33     -0.08      0.00
   -1    2   33      0.85      0.00
    0    2   33     -1.40      0.00
    1    2   33      0.76      0.00
    2    2   33     -1.42      0.00
    3    2   33     -1.92      0.00
    4    2   33      0.34      0.00
    5    2   33     -2.22      0.00
    6    2   33     -0.78      0.00
    7    2   33     -1.51      0.00
    8    2   33      0.11      0.00
   -7    3   33      1.96      0.00
   -6    3   33      0.79      0.00
   -5    3   33      0.56      0.00
   -4    3   33      1.82      0.00
   -3    3   33     -0.09      0.00
   -2    3   33      1.28      0.00
   -1    3   33     -0.63      0.00
    0    3   33     -0.28      0.00
    1    3   33     -1.36      0.00
    2    3   33      0.18      0.00
    3    3   33     -0.19      0.00
    4    3   33      1.57      0.00
    5    3   33     -0.28      0.00
    6    3   33      0.70      0.00
   -8    0   34      0.70      0.00
   -6    0   34      1.82      0.00
   -4    0   34     -0.18      0.00
   -2    0   34     -3.17      0.00
    0    0   34      0.51      0.00
    2    0   34      2.75      0.00
    4    0   34     -1.06      0.00
    6    0   34     -7.25      0.00
    8    0   34     -3.49      0.00
   -9    1   34      2.22      0.00
   -8    1   34      0.20      0.00
   -7    1   34      1.42      0.00
   -6    1   34      0.87      0.00
   -5    1   34     -0.71      0.00
   -4    1   34     -0.71      0.00
   -3    1   34     -1.54      0.00
   -2    1   34      0.53      0.00
   -1    1   34     -0.24      0.00
    0    1   34      0.96      0.00
    1    1   34     -0.15      0.00
    2    1   34      0.11      0.00
    3    1   34      0.08      0.00
    4    1   34      0.39      0.00
    5    1   34     -0.19      0.00
    6    1   34     -0.22      0.00
    7    1   34     -0.26      0.00
    8    1   34     -0.48      0.00
   -8    2   34     -0.06      0.00
   -7    2   34     -1.55      0.00
   -6    2   34     -0.10      0.00
   -5    2   34     -1.64      0.00
   -4    2   34      0.04      0.00
   -3    2   34     -1.57      0.00
   -2    2   34     -0.22      0.00
   -1    2   34      1.32      0.00
    0    2   34     -0.96      0.00
    1    2   34      1.23      0.00
    2    2   34     -0.88      0.00
    3    2   34      0.79      0.00
    4    2   34      1.36      0.00
    5    2   34     -0.59      0.00
    6    2   34      1.30      0.00
    7    2   34      0.28      0.00
   -5    3   34     -0.46      0.00
   -4    3   34     -0.33      0.00
   -3    3   34     -1.04      0.00
   -2    3   34      0.42      0.00
   -1    3   34     -0.44      0.00
    0    3   34      1.71      0.00
    1    3   34      0.40      0.00
    2    3   34      1.05      0.00
    3    3   34     -0.99      0.00
    4    3   34      0.31      0.00
    5    3   34     -1.19      0.00
   -7    0   35     -0.61      0.00
   -5    0   35     -0.74      0.00
   -3    0   35      2.31      0.00
   -1    0   35      1.31      0.00
    1    0   35     -2.22      0.00
    3    0   35     -3.96      0.00
    5    0   35      3.02      0.00
    7    0   35      4.60      0.00
   -8    1   35     -2.44      0.00
   -7    1   35     -0.52      0.00
   -6    1   35     -0.44      0.00
   -5    1   35      0.22      0.00
   -4    1   35      0.88      0.00
   -3    1   35      0.63      0.00
   -2    1   35     -0.22      0.00
   -1    1   35     -0.71      0.00
    0    1   35     -0.51      0.00
    1    1   35     -1.18      0.00
    2    1   35     -0.56      0.00
    3    1   35     -0.36      0.00
    4    1   35      0.36      0.00
    5    1   35     -0.51      0.00
    6    1   35     -0.05      0.00
    7    1   35      0.08      0.00
   -7    2   35      0.31      0.00
   -6    2   35      0.83      0.00
   -5    2   35      0.11      0.00
   -4    2   35      1.63      0.00
   -3    2   35     -0.91      0.00
   -2    2   35     -0.02      0.00
   -1    2   35     -0.53      0.00
    0    2   35     -1.01      0.00
    1    2   35      1.85      0.00
    2    2   35     -1.28      0.00
    3    2   35      0.47      0.00
    4    2   35      0.76      0.00
    5    2   35     -0.15      0.00
    6    2   35      0.45      0.00
   -3    3   35      0.23      0.00
   -2    3   35      0.33      0.00
   -1    3   35     -0.90      0.00
    0    3   35     -0.14      0.00
    1    3   35     -1.61      0.00
    2    3   35      0.09      0.00
   -6    0   36     -0.18      0.00
   -4    0   36     -0.54      0.00
   -2    0   36     -2.92      0.00
    0    0   36      0.54      0.00
    2    0   36      3.79      0.00
    4    0   36      2.94      0.00
    6    0   36     -2.41      0.00
   -7    1   36      1.56      0.00
   -6    1   36      0.43      0.00
   -5    1   36     -0.29      0.00
   -4    1   36     -0.89      0.00
   -3    1   36      0.14      0.00
   -2    1   36     -0.46      0.00
   -1    1   36      1.01      0.00
    0    1   36      1.10      0.00
    1    1   36      1.43      0.00
    2    1   36      0.65      0.00
    3    1   36     -0.13      0.00
    4    1   36      0.32      0.00
    5    1   36     -0.14      0.00
    6    1   36      0.19      0.00
   -5    2   36     -0.41      0.00
   -4    2   36      0.51      0.00
   -3    2   36     -1.21      0.00
   -2    2   36      1.60      0.00
   -1    2   36      0.97      0.00
    0    2   36     -0.05      0.00
    1    2   36      0.60      0.00
    2    2   36     -1.91      0.00
    3    2   36      0.35      0.00
    4    2   36     -0.59      0.00
   -5    0   37      0.61      0.00
   -3    0   37      1.86      0.00
   -1    0   37      1.61      0.00
    1    0   37     -1.07      0.00
    3    0   37     -4.33      0.00
    5    0   37     -1.28      0.00
   -5    1   37     -0.04      0.00
   -4    1   37      0.35      0.00
   -3    1   37      1.00      0.00
   -2    1   37     -1.04      0.00
   -1    1   37      0.05      0.00
    0    1   37     -1.37      0.00
    1    1   37     -0.83      0.00
    2    1   37     -1.03      0.00
    3    1   37     -0.02      0.00
    4    1   37      0.45      0.00
   -2    2   37     -0.07      0.00
   -1    2   37     -1.57      0.00
    0    2   37     -0.48      0.00
    1    2   37      1.15      0.00
    2    2   37     -0.69      0.00
   -4    0   38     -0.52      0.00
   -2    0   38     -2.04      0.00
    0    0   38     -0.72      0.00
    2    0   38      1.31      0.00
   -2    1   38     -0.80      0.00
   -1    1   38      0.78      0.00
    0    1   38      0.30      0.00
    1    1   38      1.60      0.00
    2    1   38      0.20      0.00
    4    0    0    -39.97      0.00
   20    1    0      0.28      0.00
   -1    0    1   -100.10      0.00
    1    0    1   -129.92      0.00
  -20    1    1     -1.01      0.00
   -3    1    1     -0.54      0.00
   -2    1    1    -10.60      0.00
    1    1    1     -0.80      0.00
    2    1    1     -7.11      0.00
    3    1    1      5.65      0.00
    4    1    1     -3.87      0.00
   20    1    1     -0.62      0.00
   -4    0    2    -74.00      0.00
    0    0    2    114.74      0.00
    2    0    2     74.24      0.00
    4    0    2     -5.71      0.00
  -20    1    2      0.35      0.00
   -4    1    2      1.00      0.00
    1    1    2      5.79      0.00
    2    1    2     -2.98      0.00
    5    1    2      5.40      0.00
   20    1    2     -0.14      0.00
    3    0    3    -31.32      0.00
    5    0    3     10.31      0.00
  -20    1    3     -0.26      0.00
    1    1    3     -4.04      0.00
   20    1    3      0.04      0.00
   -4    0    4    -74.35      0.00
   -2    0    4    -59.06      0.00
    2    0    4     48.63      0.00
   20    0    4     -0.64      0.00
  -20    1    4      1.07      0.00
   -1    1    4      3.18      0.00
    8    7    4      0.87      0.00
   -3    0    5     72.56      0.00
    1    0    5    -28.73      0.00
    3    0    5    -23.58      0.00
  -20    1    5      0.57      0.00
   17    4    5      0.47      0.00
   -8    7    5     -0.66      0.00
    8    7    5     -0.25      0.00
  -20    0    6     -0.79      0.00
   -4    0    6    -40.47      0.00
   -2    0    6    -53.39      0.00
  -17    4    6     -0.94      0.00
   17    4    6     -0.48      0.00
   15    5    6      1.22      0.00
   -8    7    6      0.67      0.00
  -17    4    7     -0.77      0.00
  -15    5    7     -0.24      0.00
   12    6    7      0.14      0.00
   19    2    8      0.27      0.00
   18    3    8     -0.48      0.00
  -15    5    8      0.94      0.00
  -12    6    8      0.06      0.00
   12    6    8      0.77      0.00
  -19    2    9      0.20      0.00
   18    3    9     -1.01      0.00
  -12    6    9      0.38      0.00
   -7    7    9     -0.44      0.00
    7    7    9     -1.54      0.00
  -19    2   10     -0.95      0.00
  -18    3   10      0.32      0.00
   -7    7   10      0.24      0.00
    6    7   11      0.57      0.00
   16    4   12     -0.59      0.00
   14    5   12      0.47      0.00
   11    6   12      0.79      0.00
   -6    7   12      0.20      0.00
  -19    1   13      1.06      0.00
  -16    4   13     -0.61      0.00
  -14    5   13      0.72      0.00
  -11    6   13     -0.31      0.00
   -5    7   13     -0.06      0.00
    5    7   13      0.86      0.00
   18    2   14      0.25      0.00
   17    3   14     -0.80      0.00
    4    7   14     -0.56      0.00
   17    1   15     -1.57      0.00
  -18    2   15      1.89      0.00
  -17    3   15     -0.44      0.00
   13    5   15     -0.73      0.00
   -3    7   15     -0.13      0.00
    3    7   15      0.14      0.00
   18    1   16      0.32      0.00
   15    4   16      0.65      0.00
  -13    5   16     -0.38      0.00
   -2    7   16      0.35      0.00
   -1    7   16     -0.44      0.00
    0    7   16      0.30      0.00
    1    7   16     -0.20      0.00
    2    7   16     -0.29      0.00
  -15    4   17     -0.22      0.00
    9    6   17     -0.08      0.00
  -18    1   18     -0.40      0.00
   17    2   18      1.23      0.00
   12    5   18      0.23      0.00
  -17    2   19     -0.45      0.00
  -16    3   19     -0.32      0.00
   14    4   19      0.82      0.00
  -12    5   19     -0.34      0.00
   -8    6   19      0.34      0.00
  -14    4   20      1.12      0.00
   11    5   20     -0.63      0.00
    7    6   20     -0.33      0.00
  -17    1   21      0.25      0.00
   16    2   21     -0.41      0.00
  -11    5   21      0.56      0.00
    6    6   21      0.43      0.00
  -16    2   22     -0.48      0.00
  -15    3   22      0.25      0.00
   10    5   22     -0.59      0.00
    5    6   22     -0.21      0.00
   14    3   23     -0.56      0.00
  -10    5   23     -0.06      0.00
    4    6   23      0.42      0.00
  -16    1   24      0.11      0.00
  -14    3   24     -0.03      0.00
   -3    6   24     -0.57      0.00
   -2    6   24      0.23      0.00
    2    6   24     -0.36      0.00
   15    1   25      0.04      0.00
   13    3   25      0.21      0.00
   11    4   25     -0.20      0.00
    8    5   25     -1.58      0.00
  -15    1   26     -0.14      0.00
  -13    3   26     -0.72      0.00
  -11    4   26      0.29      0.00
    7    5   26      2.61      0.00
   14    1   27      1.26      0.00
   12    3   27      0.05      0.00
    6    5   27     -1.73      0.00
  -14    1   28      0.26      0.00
  -12    3   28     -0.32      0.00
    9    4   28     -0.21      0.00
   -5    5   28      0.14      0.00
   13    0   29      0.49      0.00
   12    2   29      0.41      0.00
    8    4   29      1.52      0.00
   -3    5   29     -0.60      0.00
    2    5   29      0.48      0.00
    3    5   29      0.13      0.00
  -13    1   30     -0.81      0.00
  -12    2   30     -2.15      0.00
    7    4   30     -1.46      0.00
    9    3   31      0.51      0.00
    6    4   31      0.38      0.00
    8    3   32     -0.25      0.00
   -5    4   32     -0.01      0.00
    4    4   32      0.29      0.00
  -11    0   33      1.31      0.00
   10    1   33      0.22      0.00
    9    2   33     -0.34      0.00
   -2    4   33      0.48      0.00
   -1    4   33      0.85      0.00
    0    4   33     -0.72      0.00
    1    4   33     -0.41      0.00
    2    4   33     -0.73      0.00
  -10    0   34     -0.83      0.00
    9    1   34     -1.03      0.00
    8    2   34      0.94      0.00
   -6    3   34     -1.26      0.00
   -9    0   35      0.07      0.00
    8    1   35      0.43      0.00
   -4    3   35      0.00      0.00
    3    3   35     -0.53      0.00
   -8    0   36      0.22      0.00
   -6    2   36     -0.61      0.00
    5    2   36     -1.18      0.00
   -6    1   37     -0.28      0.00
    5    1   37      0.14      0.00
   -3    2   37     -1.17      0.00
    3    2   37      1.00      0.00
    4    0   38      2.89      0.00
   -4    1   38     -0.25      0.00
   -3    1   38      0.43      0.00
    3    1   38     -0.13      0.00
    0    0    0      0.00      0.00
# SQUEEZE RESULTS (Version = 100117)
# Note: Data are Listed for all Voids in the P1 Unit Cell
# i.e. Centre of Gravity, Solvent Accessible Volume,
# Recovered number of Electrons in the Void and
# Details about the Squeezed Material
loop_
  _platon_squeeze_void_nr
  _platon_squeeze_void_average_x
  _platon_squeeze_void_average_y
  _platon_squeeze_void_average_z
  _platon_squeeze_void_volume
  _platon_squeeze_void_count_electrons
  _platon_squeeze_void_content
   1  0.500 -0.040  0.000       328        72 ' '
   2  1.000 -0.057  0.500       328        72 ' '
# Missing Reflections Below sin(th)/lambda = 0.25
loop_
  _platon_missing_refln_index_h
  _platon_missing_refln_index_k
  _platon_missing_refln_index_l
  _platon_missing_refln_theta
    4    0    0     5.281
   -1    0    1     1.474
    1    0    1     1.500
   -3    1    1     5.296
   -2    1    1     4.399
    1    1    1     3.773
    2    1    1     4.417
    3    1    1     5.318
    4    1    1     6.370
   -4    0    2     5.429
    0    0    2     1.375
    2    0    2     3.002
    4    0    2     5.487
   -4    1    2     6.444
    1    1    2     3.962
    2    1    2     4.584
    5    1    2     7.619
    3    0    3     4.505
    5    0    3     6.967
    1    1    3     4.256
   -4    0    4     5.904
   -2    0    4     3.770
    2    0    4     3.854
   -1    1    4     4.599
   -3    0    5     5.190
    1    0    5     3.711
    3    0    5     5.304
   -4    0    6     6.638
   -2    0    6     4.852
_platon_squeeze_void_probe_radius                  1.20
_platon_squeeze_details
)
TITL 4N_0m     P 21/n       R = 0.18
CELL   15.4470    5.8857   29.6290     90.00     91.26     90.00
SPGR P21/n
# Solvent Accessible Volume =       657
# Electrons Found in S.A.V. =       143
# Note: Atoms in Void as Cxxx and Qxxx all others
C101 0.038 1.011 0.421 !       3.32 eA-3
C102 0.412 0.912 0.055 !       3.03 eA-3
C103 0.085 0.489 0.452 !       2.87 eA-3
C104 0.912 1.004 0.538 !       2.42 eA-3
C105 0.611 0.306 0.992 !       1.97 eA-3
C106 0.374 0.225 0.008 !       1.97 eA-3
C107 0.057 0.193 0.415 !       1.90 eA-3
C108 0.384 0.420 0.001 !       1.85 eA-3
C109 0.438 0.358 0.078 !       1.85 eA-3
C110 0.107 1.016 0.432 !       1.60 eA-3
C111 0.901 0.194 0.532 !       1.46 eA-3
C112 0.465 0.819 0.014 !       1.33 eA-3
C113 0.469 0.196 0.018 !       1.29 eA-3
Q114 0.817 0.657 0.390 !       0.80 eA-3
Q115 0.724 0.900 0.806 !       0.77 eA-3
Q116 0.622 0.429 0.033 !       0.77 eA-3
Q117 0.800 0.169 0.843 !       0.73 eA-3
Q118 0.641 0.820 0.738 !       0.70 eA-3
Q119 0.065 0.374 0.299 !       0.69 eA-3
Q120 0.594 0.436 0.515 !       0.68 eA-3
Q121 0.479 0.217 0.619 !       0.67 eA-3
Q122 0.299 0.715 0.877 !       0.67 eA-3
Q123 0.928 0.319 0.189 !       0.67 eA-3
Q124 0.108 0.561 0.119 !       0.66 eA-3
Q125 0.622 0.823 0.100 !       0.65 eA-3
Q126 0.230 0.885 0.376 !       0.64 eA-3
Q127 0.311 0.815 0.446 !       0.64 eA-3
Q128 0.687 0.449 0.347 !       0.62 eA-3
Q129 0.828 0.896 0.224 !       0.61 eA-3
Q130 0.736 0.480 0.118 !       0.61 eA-3
C131 0.847 0.133 0.460 !       0.60 eA-3
C132 0.667 0.809 0.016 !       0.60 eA-3
Q133 0.662 1.013 0.111 !       0.59 eA-3
Q134 0.196 0.705 0.963 !       0.58 eA-3
Q135 0.288 0.210 0.501 !       0.57 eA-3
Q136 0.597 0.408 0.424 !       0.57 eA-3
Q137 0.382 0.455 0.454 !       0.57 eA-3
Q138 0.645 0.458 0.342 !       0.56 eA-3
Q139 0.686 0.977 0.460 !       0.55 eA-3
Q140 0.590 0.999 0.485 !       0.53 eA-3
Q141 0.110 0.721 0.671 !       0.52 eA-3
Q142 0.536 0.974 0.464 !       0.52 eA-3
Q143 0.694 0.444 0.198 !       0.51 eA-3
Q144 0.713 0.867 0.491 !       0.50 eA-3
Q145 0.203 0.133 0.126 !       0.50 eA-3
)
;
_shelx_fab_checksum              30260
loop_
_space_group_symop_operation_xyz
'x, y, z'
'-x+1/2, y+1/2, -z+1/2'
'-x, -y, -z'
'x-1/2, -y-1/2, z-1/2'
loop_
_atom_site_label
_atom_site_type_symbol
_atom_site_fract_x
_atom_site_fract_y
_atom_site_fract_z
_atom_site_U_iso_or_equiv
_atom_site_adp_type
_atom_site_occupancy
_atom_site_site_symmetry_order
_atom_site_calc_flag
_atom_site_refinement_flags_posn
_atom_site_refinement_flags_adp
_atom_site_refinement_flags_occupancy
_atom_site_disorder_assembly
_atom_site_disorder_group
C1 C 0.35106(18) 0.8879(5) 0.80711(10) 0.0420(7) Uani 1 1 d . . . . .
C2 C 0.3716(2) 1.0532(6) 0.83955(11) 0.0539(8) Uani 1 1 d . . . . .
H2 H 0.396236 1.190261 0.830884 0.065 Uiso 1 1 calc R U . . .
C3 C 0.3553(2) 1.0124(7) 0.88441(12) 0.0641(10) Uani 1 1 d . . . . .
H3 H 0.370150 1.124663 0.905272 0.077 Uiso 1 1 calc R U . . .
C4 C 0.2984(2) 0.6645(6) 0.86842(11) 0.0562(9) Uani 1 1 d . . . . .
H4 H 0.273009 0.529895 0.877865 0.067 Uiso 1 1 calc R U . . .
C5 C 0.3124(2) 0.6930(5) 0.82270(10) 0.0473(7) Uani 1 1 d . . . . .
H5 H 0.295662 0.579738 0.802440 0.057 Uiso 1 1 calc R U . . .
C6 C 0.37125(18) 0.9293(5) 0.75991(10) 0.0430(7) Uani 1 1 d . . . . .
H6 H 0.396378 1.068883 0.753486 0.052 Uiso 1 1 calc R U . . .
C7 C 0.35783(17) 0.7905(4) 0.72506(9) 0.0373(6) Uani 1 1 d . . . . .
H7 H 0.330278 0.653422 0.730859 0.045 Uiso 1 1 calc R U . . .
C8 C 0.38241(16) 0.8334(4) 0.67841(9) 0.0313(6) Uani 1 1 d . . . . .
C9 C 0.36930(17) 0.6693(4) 0.64523(9) 0.0349(6) Uani 1 1 d . . . . .
H9 H 0.342250 0.533671 0.652723 0.042 Uiso 1 1 calc R U . . .
C10 C 0.39554(17) 0.7025(4) 0.60118(9) 0.0342(6) Uani 1 1 d . . . . .
H10 H 0.386514 0.588157 0.579933 0.041 Uiso 1 1 calc R U . . .
C11 C 0.43499(15) 0.9035(4) 0.58834(8) 0.0275(5) Uani 1 1 d . . . . .
C12 C 0.44594(16) 1.0713(4) 0.62160(9) 0.0318(6) Uani 1 1 d . . . . .
H12 H 0.470438 1.209751 0.613742 0.038 Uiso 1 1 calc R U . . .
C13 C 0.42159(17) 1.0377(4) 0.66545(9) 0.0330(6) Uani 1 1 d . . . . .
H13 H 0.431187 1.151486 0.686755 0.040 Uiso 1 1 calc R U . . .
C14 C 0.46711(15) 0.9468(4) 0.54240(8) 0.0265(5) Uani 1 1 d . . . . .
C15 C 0.58139(16) 0.9180(4) 0.48738(8) 0.0286(6) Uani 1 1 d . . . . .
C16 C 0.54776(16) 0.8612(4) 0.52953(8) 0.0272(5) Uani 1 1 d . . . . .
C17 C 0.67339(16) 0.8536(4) 0.47499(9) 0.0363(6) Uani 1 1 d . . . . .
H17A H 0.701069 0.981439 0.461273 0.055 Uiso 1 1 calc R U . . .
H17B H 0.671699 0.728793 0.454127 0.055 Uiso 1 1 calc R U . . .
H17C H 0.705368 0.809979 0.501750 0.055 Uiso 1 1 calc R U . . .
C18 C 0.59779(16) 0.7051(4) 0.56039(8) 0.0298(6) Uani 1 1 d . . . . .
C19 C 0.61820(18) 0.4872(4) 0.54556(9) 0.0360(6) Uani 1 1 d . . . . .
H19 H 0.597233 0.437719 0.517581 0.043 Uiso 1 1 calc R U . . .
C20 C 0.66904(19) 0.3437(4) 0.57173(10) 0.0418(7) Uani 1 1 d . . . . .
H20 H 0.683363 0.201078 0.560638 0.050 Uiso 1 1 calc R U . . .
C21 C 0.69930(18) 0.4085(4) 0.61442(9) 0.0367(6) Uani 1 1 d . . . . .
C22 C 0.67698(18) 0.6248(4) 0.62977(9) 0.0367(6) Uani 1 1 d . . . . .
H22 H 0.695875 0.672290 0.658255 0.044 Uiso 1 1 calc R U . . .
C23 C 0.62711(17) 0.7692(4) 0.60307(9) 0.0334(6) Uani 1 1 d . . . . .
H23 H 0.612961 0.912336 0.613982 0.040 Uiso 1 1 calc R U . . .
C24 C 0.75462(18) 0.2526(4) 0.64085(10) 0.0413(7) Uani 1 1 d . . . . .
H24 H 0.771713 0.120380 0.626357 0.050 Uiso 1 1 calc R U . . .
C25 C 0.78307(18) 0.2796(4) 0.68328(10) 0.0418(7) Uani 1 1 d . . . . .
H25 H 0.763654 0.406032 0.698940 0.050 Uiso 1 1 calc R U . . .
C26 C 0.84266(17) 0.1249(4) 0.70711(9) 0.0371(6) Uani 1 1 d . . . . .
C27 C 0.8671(2) -0.0842(5) 0.69041(11) 0.0488(8) Uani 1 1 d . . . . .
H27 H 0.844083 -0.135978 0.663029 0.059 Uiso 1 1 calc R U . . .
C28 C 0.9256(2) -0.2154(5) 0.71446(12) 0.0537(9) Uani 1 1 d . . . . .
H28 H 0.941599 -0.353955 0.702071 0.064 Uiso 1 1 calc R U . . .
C29 C 0.93561(19) 0.0405(6) 0.77027(11) 0.0521(8) Uani 1 1 d . . . . .
H29 H 0.958941 0.085132 0.798088 0.063 Uiso 1 1 calc R U . . .
C30 C 0.87771(18) 0.1852(5) 0.74918(10) 0.0425(7) Uani 1 1 d . . . . .
H30 H 0.862186 0.321257 0.762778 0.051 Uiso 1 1 calc R U . . .
N1 N 0.31951(18) 0.8209(5) 0.89980(10) 0.0628(8) Uani 1 1 d . . . . .
N2 N 0.96068(17) -0.1585(5) 0.75382(10) 0.0554(7) Uani 1 1 d . . . . .
loop_
_atom_site_aniso_label
_atom_site_aniso_U_11
_atom_site_aniso_U_22
_atom_site_aniso_U_33
_atom_site_aniso_U_23
_atom_site_aniso_U_13
_atom_site_aniso_U_12
C1 0.0404(15) 0.0549(17) 0.0305(16) -0.0007(13) 0.0000(13) -0.0057(13)
C2 0.059(2) 0.068(2) 0.0344(19) -0.0092(15) 0.0089(15) -0.0144(16)
C3 0.061(2) 0.092(3) 0.040(2) -0.0160(18) 0.0052(17) -0.0224(19)
C4 0.061(2) 0.073(2) 0.0345(19) 0.0071(16) 0.0028(16) -0.0085(17)
C5 0.0574(19) 0.0560(17) 0.0286(16) 0.0010(13) 0.0011(14) -0.0116(14)
C6 0.0474(16) 0.0510(16) 0.0307(16) 0.0023(13) 0.0004(13) -0.0111(13)
C7 0.0425(15) 0.0411(14) 0.0282(15) 0.0037(12) 0.0001(12) -0.0052(12)
C8 0.0357(13) 0.0351(13) 0.0229(14) 0.0028(10) -0.0030(11) 0.0000(10)
C9 0.0454(15) 0.0299(12) 0.0292(15) 0.0027(10) -0.0043(12) -0.0038(11)
C10 0.0488(16) 0.0295(12) 0.0241(14) -0.0044(10) -0.0052(12) -0.0005(11)
C11 0.0351(13) 0.0271(11) 0.0198(13) -0.0013(9) -0.0083(10) 0.0046(10)
C12 0.0436(14) 0.0285(11) 0.0230(14) -0.0018(10) -0.0030(11) -0.0032(11)
C13 0.0477(15) 0.0309(12) 0.0205(14) -0.0047(10) -0.0001(12) -0.0048(11)
C14 0.0350(13) 0.0270(11) 0.0172(12) -0.0033(9) -0.0053(10) 0.0028(10)
C15 0.0369(13) 0.0269(11) 0.0217(13) -0.0044(9) -0.0082(11) 0.0056(10)
C16 0.0365(13) 0.0266(11) 0.0180(13) -0.0027(9) -0.0084(11) 0.0053(9)
C17 0.0378(14) 0.0430(14) 0.0280(15) 0.0004(11) -0.0038(12) 0.0090(11)
C18 0.0355(13) 0.0317(12) 0.0219(14) 0.0009(10) -0.0060(11) 0.0049(10)
C19 0.0518(16) 0.0315(12) 0.0240(15) -0.0037(10) -0.0148(12) 0.0086(11)
C20 0.0611(18) 0.0315(13) 0.0320(16) -0.0050(11) -0.0151(14) 0.0148(12)
C21 0.0480(16) 0.0324(12) 0.0289(15) 0.0025(11) -0.0149(12) 0.0107(11)
C22 0.0484(16) 0.0390(14) 0.0221(14) -0.0023(11) -0.0162(12) 0.0095(11)
C23 0.0426(15) 0.0324(12) 0.0248(14) -0.0033(10) -0.0107(12) 0.0093(11)
C24 0.0515(17) 0.0366(14) 0.0350(17) 0.0034(12) -0.0155(14) 0.0100(12)
C25 0.0510(17) 0.0393(14) 0.0345(17) 0.0063(12) -0.0124(14) 0.0131(12)
C26 0.0394(15) 0.0385(14) 0.0330(16) 0.0103(12) -0.0078(12) 0.0040(11)
C27 0.0588(19) 0.0424(15) 0.0445(19) 0.0009(13) -0.0186(16) 0.0092(14)
C28 0.0563(19) 0.0486(17) 0.056(2) 0.0078(15) -0.0147(17) 0.0146(14)
C29 0.0458(17) 0.070(2) 0.0395(19) 0.0101(16) -0.0150(15) 0.0071(15)
C30 0.0463(16) 0.0485(16) 0.0322(17) 0.0046(12) -0.0079(13) 0.0062(13)
N1 0.0555(17) 0.093(2) 0.0399(17) -0.0018(16) 0.0010(14) -0.0168(15)
N2 0.0515(15) 0.0643(17) 0.0499(18) 0.0149(14) -0.0120(14) 0.0174(13)
loop_
_atom_type_symbol
_atom_type_description
_atom_type_scat_dispersion_real
_atom_type_scat_dispersion_imag
_atom_type_scat_source
C C 0.0033 0.0016 'International Tables Vol C Tables 4.2.6.8 and 6.1.1.4'
H H 0.0000 0.0000 'International Tables Vol C Tables 4.2.6.8 and 6.1.1.4'
N N 0.0061 0.0033 'International Tables Vol C Tables 4.2.6.8 and 6.1.1.4'
loop_
_geom_angle_atom_site_label_1
_geom_angle_atom_site_label_2
_geom_angle_atom_site_label_3
_geom_angle
_geom_angle_site_symmetry_1
_geom_angle_site_symmetry_3
_geom_angle_publ_flag
C5 C1 C2 116.3(3) . . ?
C5 C1 C6 124.3(3) . . ?
C2 C1 C6 119.5(3) . . ?
C3 C2 C1 119.8(3) . . ?
N1 C3 C2 124.1(3) . . ?
N1 C4 C5 123.6(3) . . ?
C1 C5 C4 120.4(3) . . ?
C7 C6 C1 127.5(3) . . ?
C6 C7 C8 126.0(3) . . ?
C9 C8 C13 117.3(2) . . ?
C9 C8 C7 120.8(2) . . ?
C13 C8 C7 121.9(2) . . ?
C10 C9 C8 121.7(2) . . ?
C11 C10 C9 121.1(2) . . ?
C10 C11 C12 117.0(2) . . ?
C10 C11 C14 123.8(2) . . ?
C12 C11 C14 119.1(2) . . ?
C13 C12 C11 122.1(2) . . ?
C12 C13 C8 120.7(2) . . ?
C15 C14 C16 120.0(2) 3_676 . ?
C15 C14 C11 119.6(2) 3_676 . ?
C16 C14 C11 120.3(2) . . ?
C14 C15 C16 119.7(2) 3_676 . ?
C14 C15 C17 118.7(2) 3_676 . ?
C16 C15 C17 121.4(2) . . ?
C15 C16 C14 120.3(2) . . ?
C15 C16 C18 119.5(2) . . ?
C14 C16 C18 120.2(2) . . ?
C23 C18 C19 117.8(2) . . ?
C23 C18 C16 122.9(2) . . ?
C19 C18 C16 119.3(2) . . ?
C20 C19 C18 121.0(2) . . ?
C19 C20 C21 121.2(2) . . ?
C20 C21 C22 117.7(2) . . ?
C20 C21 C24 119.6(2) . . ?
C22 C21 C24 122.7(2) . . ?
C23 C22 C21 120.8(2) . . ?
C22 C23 C18 121.4(2) . . ?
C25 C24 C21 127.2(3) . . ?
C24 C25 C26 124.8(3) . . ?
C27 C26 C30 116.3(2) . . ?
C27 C26 C25 123.7(3) . . ?
C30 C26 C25 120.0(3) . . ?
C28 C27 C26 119.7(3) . . ?
N2 C28 C27 124.6(3) . . ?
N2 C29 C30 124.8(3) . . ?
C29 C30 C26 119.0(3) . . ?
C3 N1 C4 115.9(3) . . ?
C28 N2 C29 115.5(2) . . ?
loop_
_geom_bond_atom_site_label_1
_geom_bond_atom_site_label_2
_geom_bond_distance
_geom_bond_site_symmetry_2
_geom_bond_publ_flag
C1 C5 1.378(4) . ?
C1 C2 1.399(4) . ?
C1 C6 1.460(4) . ?
C2 C3 1.379(5) . ?
C3 N1 1.340(4) . ?
C4 N1 1.343(4) . ?
C4 C5 1.386(4) . ?
C6 C7 1.330(4) . ?
C7 C8 1.463(4) . ?
C8 C9 1.390(3) . ?
C8 C13 1.403(3) . ?
C9 C10 1.389(4) . ?
C10 C11 1.388(3) . ?
C11 C12 1.403(3) . ?
C11 C14 1.481(4) . ?
C12 C13 1.375(4) . ?
C14 C15 1.394(3) 3_676 ?
C14 C16 1.404(3) . ?
C15 C16 1.404(4) . ?
C15 C17 1.523(4) . ?
C16 C18 1.499(3) . ?
C18 C23 1.386(3) . ?
C18 C19 1.394(3) . ?
C19 C20 1.380(3) . ?
C20 C21 1.392(4) . ?
C21 C22 1.398(3) . ?
C21 C24 1.468(3) . ?
C22 C23 1.384(3) . ?
C24 C25 1.332(4) . ?
C25 C26 1.465(3) . ?
C26 C27 1.382(4) . ?
C26 C30 1.394(4) . ?
C27 C28 1.376(4) . ?
C28 N2 1.318(4) . ?
C29 N2 1.330(4) . ?
C29 C30 1.375(4) . ?
loop_
_geom_torsion_atom_site_label_1
_geom_torsion_atom_site_label_2
_geom_torsion_atom_site_label_3
_geom_torsion_atom_site_label_4
_geom_torsion
_geom_torsion_site_symmetry_1
_geom_torsion_site_symmetry_2
_geom_torsion_site_symmetry_3
_geom_torsion_site_symmetry_4
_geom_torsion_publ_flag
C5 C1 C2 C3 1.9(5) . . . . ?
C6 C1 C2 C3 -177.9(3) . . . . ?
C1 C2 C3 N1 -0.6(6) . . . . ?
C2 C1 C5 C4 -2.1(4) . . . . ?
C6 C1 C5 C4 177.7(3) . . . . ?
N1 C4 C5 C1 1.0(5) . . . . ?
C5 C1 C6 C7 -1.2(5) . . . . ?
C2 C1 C6 C7 178.6(3) . . . . ?
C1 C6 C7 C8 -177.1(3) . . . . ?
C6 C7 C8 C9 176.3(3) . . . . ?
C6 C7 C8 C13 -2.2(4) . . . . ?
C13 C8 C9 C10 1.5(4) . . . . ?
C7 C8 C9 C10 -177.2(2) . . . . ?
C8 C9 C10 C11 -0.9(4) . . . . ?
C9 C10 C11 C12 -0.8(4) . . . . ?
C9 C10 C11 C14 177.9(2) . . . . ?
C10 C11 C12 C13 2.1(4) . . . . ?
C14 C11 C12 C13 -176.7(2) . . . . ?
C11 C12 C13 C8 -1.6(4) . . . . ?
C9 C8 C13 C12 -0.2(4) . . . . ?
C7 C8 C13 C12 178.4(2) . . . . ?
C10 C11 C14 C15 102.1(3) . . . 3_676 ?
C12 C11 C14 C15 -79.2(3) . . . 3_676 ?
C10 C11 C14 C16 -80.8(3) . . . . ?
C12 C11 C14 C16 97.9(3) . . . . ?
C14 C15 C16 C14 -2.4(4) 3_676 . . . ?
C17 C15 C16 C14 171.9(2) . . . . ?
C14 C15 C16 C18 176.5(2) 3_676 . . . ?
C17 C15 C16 C18 -9.2(3) . . . . ?
C15 C14 C16 C15 2.4(4) 3_676 . . . ?
C11 C14 C16 C15 -174.7(2) . . . . ?
C15 C14 C16 C18 -176.5(2) 3_676 . . . ?
C11 C14 C16 C18 6.4(3) . . . . ?
C15 C16 C18 C23 119.4(3) . . . . ?
C14 C16 C18 C23 -61.6(3) . . . . ?
C15 C16 C18 C19 -58.8(3) . . . . ?
C14 C16 C18 C19 120.1(3) . . . . ?
C23 C18 C19 C20 -2.7(4) . . . . ?
C16 C18 C19 C20 175.6(3) . . . . ?
C18 C19 C20 C21 2.2(5) . . . . ?
C19 C20 C21 C22 -0.5(5) . . . . ?
C19 C20 C21 C24 -178.8(3) . . . . ?
C20 C21 C22 C23 -0.5(4) . . . . ?
C24 C21 C22 C23 177.7(3) . . . . ?
C21 C22 C23 C18 -0.1(4) . . . . ?
C19 C18 C23 C22 1.7(4) . . . . ?
C16 C18 C23 C22 -176.6(3) . . . . ?
C20 C21 C24 C25 -174.1(3) . . . . ?
C22 C21 C24 C25 7.7(5) . . . . ?
C21 C24 C25 C26 -176.0(3) . . . . ?
C24 C25 C26 C27 -9.3(5) . . . . ?
C24 C25 C26 C30 171.1(3) . . . . ?
C30 C26 C27 C28 -2.4(5) . . . . ?
C25 C26 C27 C28 177.9(3) . . . . ?
C26 C27 C28 N2 1.2(5) . . . . ?
N2 C29 C30 C26 -1.0(5) . . . . ?
C27 C26 C30 C29 2.4(4) . . . . ?
C25 C26 C30 C29 -178.0(3) . . . . ?
C2 C3 N1 C4 -0.6(5) . . . . ?
C5 C4 N1 C3 0.4(5) . . . . ?
C27 C28 N2 C29 0.3(5) . . . . ?
C30 C29 N2 C28 -0.4(5) . . . . ?
