#------------------------------------------------------------------------------
#$Date: 2024-02-04 13:34:59 +0200 (Sun, 04 Feb 2024) $
#$Revision: 289431 $
#$URL: file:///home/coder/svn-repositories/cod/cif/1/57/05/1570542.cif $
#------------------------------------------------------------------------------
#
# This file is available in the Crystallography Open Database (COD),
# http://www.crystallography.net/
#
# All data on this site have been placed in the public domain by the
# contributors.
#
data_1570542
loop_
_publ_author_name
'Hasebe, Shodai'
'Hagiwara, Yuki'
'Ueno, Takashi'
'Asahi, Toru'
'Koshima, Hideko'
_publ_section_title
;
 Negative to positive axial thermal expansion switching of an organic
 crystal: contribution to multistep photoactuation.
;
_journal_issue                   3
_journal_name_full               'Chemical science'
_journal_page_first              1088
_journal_page_last               1097
_journal_paper_doi               10.1039/d3sc04796b
_journal_volume                  15
_journal_year                    2024
_chemical_formula_moiety         'C21 H26 N2 O3'
_chemical_formula_sum            'C21 H26 N2 O3'
_chemical_formula_weight         354.44
_space_group_crystal_system      triclinic
_space_group_IT_number           2
_space_group_name_Hall           '-P 1'
_space_group_name_H-M_alt        'P -1'
_atom_sites_solution_hydrogens   geom
_atom_sites_solution_primary     dual
_audit_creation_date             2022-06-06
_audit_creation_method
;
Olex2 1.5
(compiled 2022.04.07 svn.rca3783a0 for OlexSys, GUI svn.r6498)
;
_audit_update_record
;
2023-08-31 deposited with the CCDC.	2023-12-11 downloaded from the CCDC.
;
_cell_angle_alpha                101.333(7)
_cell_angle_beta                 92.155(6)
_cell_angle_gamma                101.650(7)
_cell_formula_units_Z            2
_cell_length_a                   6.0455(6)
_cell_length_b                   10.3195(10)
_cell_length_c                   16.7114(17)
_cell_measurement_reflns_used    7964
_cell_measurement_temperature    279.95
_cell_measurement_theta_max      68
_cell_measurement_theta_min      4
_cell_volume                     997.93(18)
_computing_molecular_graphics    'Olex2 1.5 (Dolomanov et al., 2009)'
_computing_publication_material  'Olex2 1.5 (Dolomanov et al., 2009)'
_computing_structure_refinement  'SHELXL 2014/7 (Sheldrick, 2015)'
_computing_structure_solution    'SHELXT 2014/4 (Sheldrick, 2014)'
_diffrn_ambient_temperature      279.95
_diffrn_detector_area_resol_mean 10
_diffrn_measured_fraction_theta_full 0.978
_diffrn_measured_fraction_theta_max 0.973
_diffrn_measurement_device_type  RAPID
_diffrn_measurement_method       '\w scans'
_diffrn_radiation_type           CuK\a
_diffrn_radiation_wavelength     1.54187
_diffrn_reflns_av_R_equivalents  0.0644
_diffrn_reflns_av_unetI/netI     0.0642
_diffrn_reflns_Laue_measured_fraction_full 0.978
_diffrn_reflns_Laue_measured_fraction_max 0.973
_diffrn_reflns_limit_h_max       7
_diffrn_reflns_limit_h_min       -7
_diffrn_reflns_limit_k_max       12
_diffrn_reflns_limit_k_min       -12
_diffrn_reflns_limit_l_max       20
_diffrn_reflns_limit_l_min       -20
_diffrn_reflns_number            11113
_diffrn_reflns_point_group_measured_fraction_full 0.978
_diffrn_reflns_point_group_measured_fraction_max 0.973
_diffrn_reflns_theta_full        67.687
_diffrn_reflns_theta_max         68.249
_diffrn_reflns_theta_min         4.473
_exptl_absorpt_coefficient_mu    0.634
_exptl_absorpt_correction_T_max  1
_exptl_absorpt_correction_T_min  0.6222
_exptl_absorpt_correction_type   multi-scan
_exptl_absorpt_process_details   ABSCOR(Rigaku,1995)
_exptl_crystal_colour            'clear yellowish yellow'
_exptl_crystal_colour_lustre     clear
_exptl_crystal_colour_modifier   yellowish
_exptl_crystal_colour_primary    yellow
_exptl_crystal_density_diffrn    1.180
_exptl_crystal_description       prism
_exptl_crystal_F_000             380
_exptl_crystal_size_max          1
_exptl_crystal_size_mid          0.6
_exptl_crystal_size_min          0.3
_refine_diff_density_max         0.167
_refine_diff_density_min         -0.246
_refine_diff_density_rms         0.052
_refine_ls_extinction_method     none
_refine_ls_goodness_of_fit_ref   1.107
_refine_ls_hydrogen_treatment    constr
_refine_ls_matrix_type           full
_refine_ls_number_parameters     273
_refine_ls_number_reflns         3562
_refine_ls_number_restraints     72
_refine_ls_restrained_S_all      1.108
_refine_ls_R_factor_all          0.1131
_refine_ls_R_factor_gt           0.0738
_refine_ls_shift/su_max          0.000
_refine_ls_shift/su_mean         0.000
_refine_ls_structure_factor_coef Fsqd
_refine_ls_weighting_details
'w=1/[\s^2^(Fo^2^)+(0.0755P)^2^+0.1630P] where P=(Fo^2^+2Fc^2^)/3'
_refine_ls_weighting_scheme      calc
_refine_ls_wR_factor_gt          0.1741
_refine_ls_wR_factor_ref         0.1973
_reflns_Friedel_coverage         0.000
_reflns_number_gt                2124
_reflns_number_total             3562
_reflns_threshold_expression     'I > 2\s(I)'
_cod_data_source_file            d3sc04796b3.cif
_cod_data_source_block           6point8degC
_cod_depositor_comments
'Adding full bibliography for 1570536--1570543.cif.'
_cod_database_code               1570542
_shelx_shelxl_version_number     2014/7
_shelx_space_group_comment
;
The symmetry employed for this shelxl refinement is uniquely defined
by the following loop, which should always be used as a source of
symmetry information in preference to the above space-group names.
They are only intended as comments.
;
_olex2_refinement_description
;
1. Fixed Uiso
 At 1.2 times of:
  All C(H) groups
 At 1.5 times of:
  All C(H,H,H) groups, All O(H) groups
2. Uiso/Uaniso restraints and constraints
C00I \\sim C00R \\sim C2 \\sim C1: within 2A with sigma of 0.04 and sigma for
terminal atoms of 0.08 within 2A
C00I \\sim C00Q \\sim C00P \\sim C00O: within 2A with sigma of 0.04 and sigma
for terminal atoms of 0.08 within 2A
3. Rigid body (RIGU) restrains
 C00I, C00R, C2, C1
 with sigma for 1-2 distances of 0.004 and sigma for 1-3 distances of 0.004
 C00I, C00Q, C00P, C00O
 with sigma for 1-2 distances of 0.004 and sigma for 1-3 distances of 0.004
4. Others
 Sof(C00R)=Sof(H00Y)=Sof(H)=Sof(HA)=Sof(C1)=Sof(H1A)=Sof(H1B)=Sof(H1C)=Sof(C2)=
 Sof(H2A)=Sof(H2B)=Sof(H2C)=1-FVAR(1)
 Sof(C00O)=Sof(H00P)=Sof(H00Q)=Sof(H00R)=Sof(C00P)=Sof(H00S)=Sof(H00T)=
 Sof(H00U)=Sof(C00Q)=Sof(H00V)=Sof(H00W)=Sof(H00X)=FVAR(1)
5.a Aromatic/amide H refined with riding coordinates:
 C009(H009), C00B(H00B), C00C(H00C), C00D(H00D), C00G(H00G), C00J(H00J),
 C00K(H00K)
5.b Idealised Me refined as rotating group:
 C00L(H00A,H00E,H00F), C00M(H00H,H00I,H00L), C00N(H00M,H00N,H00O), C00O(H00P,
 H00Q,H00R), C00P(H00S,H00T,H00U), C00Q(H00V,H00W,H00X), C00R(H00Y,H,HA),
 C1(H1A,H1B,H1C), C2(H2A,H2B,H2C)
5.c Idealised tetrahedral OH refined as rotating group:
 O001(H001)
;
_shelx_res_file
;
    shelxt_a.res created by SHELXL-2014/7

TITL shelxt_a_a.res in P-1
REM Old TITL SHELXT_a.res in P-1
REM SHELXT solution in P-1
REM R1 0.250, Rweak 0.057, Alpha 0.065, Orientation as input
REM Formula found by SHELXT: C23 O2 N
CELL 1.54187 6.0455 10.3195 16.7114 101.333 92.155 101.65
ZERR 2 0.0006 0.001 0.0017 0.007 0.006 0.007
LATT 1
SFAC C H N O
UNIT 42 52 4 6
SIMU C00I C00R C2 C1
RIGU C00I C00R C2 C1
RIGU C00I C00Q C00P C00O
SIMU C00I C00Q C00P C00O

L.S. 10
PLAN  4
CONF
list 4
fmap 2
acta
MORE -1
BOND $H
OMIT -1 9 10
OMIT -7 1 3
REM <olex2.extras>
REM <HklSrc "%.\\SHELXT_a.hkl">
REM </olex2.extras>

WGHT    0.075500    0.163000
FVAR       0.90446   0.82956
O001  4    0.350014    0.396869    0.315992    11.00000    0.08280    0.06159 =
         0.07852    0.02987    0.02815    0.01630
AFIX 147
H001  2    0.268200    0.439510    0.343294    11.00000   -1.50000
AFIX   0
N002  3    0.188494    0.605201    0.380973    11.00000    0.06701    0.06220 =
         0.06276    0.01629    0.01319    0.01212
N003  3    0.153891    0.987686    0.601672    11.00000    0.10538    0.06729 =
         0.06775    0.01671    0.00829    0.01702
O004  4    0.355663    1.029944    0.598176    11.00000    0.10915    0.09060 =
         0.10692   -0.00128    0.01624   -0.01717
O005  4    0.037941    1.045591    0.648413    11.00000    0.13351    0.09231 =
         0.09610   -0.00871    0.01332    0.03551
C006  1    0.443017    0.608370    0.274131    11.00000    0.06370    0.05469 =
         0.05296    0.01491    0.00966    0.01203
C007  1    0.691848    0.635475    0.165835    11.00000    0.06489    0.05216 =
         0.05533    0.01760    0.00785    0.01094
C008  1    0.460407    0.472911    0.266160    11.00000    0.06436    0.05317 =
         0.05665    0.02214    0.00582    0.00758
C009  1    0.305882    0.669511    0.333185    11.00000    0.06905    0.05583 =
         0.06190    0.01684    0.00899    0.01344
AFIX  43
H009  2    0.302625    0.760164    0.336701    11.00000   -1.20000
AFIX   0
C00A  1    0.068783    0.675379    0.440044    11.00000    0.06238    0.05998 =
         0.05664    0.01936    0.00950    0.01239
C00B  1    0.169347    0.798720    0.489791    11.00000    0.06233    0.06088 =
         0.06169    0.02114    0.00700    0.00873
AFIX  43
H00B  2    0.318107    0.840215    0.484559    11.00000   -1.20000
AFIX   0
C00C  1    0.560516    0.686615    0.223999    11.00000    0.07322    0.04928 =
         0.05886    0.01806    0.00862    0.01290
AFIX  43
H00C  2    0.549562    0.776593    0.230167    11.00000   -1.20000
AFIX   0
C00D  1    0.704839    0.499734    0.160540    11.00000    0.06754    0.05707 =
         0.05786    0.01739    0.01043    0.01636
AFIX  43
H00D  2    0.794007    0.463299    0.121731    11.00000   -1.20000
AFIX   0
C00E  1    0.594946    0.416020    0.208724    11.00000    0.06392    0.05337 =
         0.05713    0.01986    0.00548    0.01441
C00F  1    0.042959    0.858385    0.547312    11.00000    0.07307    0.05728 =
         0.05489    0.01768    0.00565    0.01256
C00G  1   -0.152943    0.615608    0.449850    11.00000    0.07074    0.06441 =
         0.06359    0.01595    0.00797    0.00619
AFIX  43
H00G  2   -0.219597    0.531602    0.417466    11.00000   -1.20000
AFIX   0
C00H  1    0.618890    0.268364    0.199662    11.00000    0.07281    0.05302 =
         0.07187    0.02332    0.01136    0.01555
C00I  1    0.820540    0.718011    0.109286    11.00000    0.07096    0.05800 =
         0.06400    0.02542    0.01446    0.01191
C00J  1   -0.177440    0.802563    0.556736    11.00000    0.07859    0.07499 =
         0.06098    0.02028    0.01705    0.02378
AFIX  43
H00J  2   -0.258854    0.846361    0.595498    11.00000   -1.20000
AFIX   0
C00K  1   -0.274987    0.679305    0.506930    11.00000    0.06372    0.08591 =
         0.07105    0.02179    0.01541    0.01174
AFIX  43
H00K  2   -0.424483    0.638995    0.512013    11.00000   -1.20000
AFIX   0
C00L  1    0.387053    0.171672    0.177515    11.00000    0.09043    0.05353 =
         0.10386    0.01544    0.00289    0.00830
AFIX 137
H00A  2    0.289189    0.190504    0.220255    11.00000   -1.50000
H00E  2    0.405096    0.080010    0.171397    11.00000   -1.50000
H00F  2    0.321628    0.183926    0.127018    11.00000   -1.50000
AFIX   0
C00M  1    0.725765    0.248214    0.279918    11.00000    0.09252    0.07616 =
         0.09362    0.03894    0.00258    0.02646
AFIX 137
H00H  2    0.871235    0.308660    0.293409    11.00000   -1.50000
H00I  2    0.743709    0.156482    0.273413    11.00000   -1.50000
H00L  2    0.629163    0.266903    0.323105    11.00000   -1.50000
AFIX   0
C00N  1    0.773653    0.231351    0.132421    11.00000    0.11771    0.06691 =
         0.10801    0.03399    0.04329    0.04334
AFIX 137
H00M  2    0.708632    0.239642    0.080852    11.00000   -1.50000
H00N  2    0.789689    0.139856    0.129298    11.00000   -1.50000
H00O  2    0.919789    0.291320    0.144901    11.00000   -1.50000
AFIX   0
PART 1
C00O  1    0.773554    0.859194    0.120624    21.00000    0.13325    0.06616 =
         0.11348    0.04697    0.04676    0.02475
AFIX 137
H00P  2    0.819025    0.906835    0.176017    21.00000   -1.50000
H00Q  2    0.614503    0.853044    0.109247    21.00000   -1.50000
H00R  2    0.857403    0.907034    0.083783    21.00000   -1.50000
AFIX   0
C00P  1    0.751368    0.646442    0.019938    21.00000    0.12329    0.08881 =
         0.06531    0.03374    0.01508    0.00477
AFIX 137
H00S  2    0.836504    0.696946   -0.015435    21.00000   -1.50000
H00T  2    0.592528    0.640374    0.008126    21.00000   -1.50000
H00U  2    0.781705    0.557135    0.011107    21.00000   -1.50000
AFIX   0
C00Q  1    1.073738    0.730685    0.126332    21.00000    0.07460    0.10908 =
         0.12554    0.05797    0.01195    0.00321
AFIX 137
H00V  2    1.119634    0.778024    0.181756    21.00000   -1.50000
H00W  2    1.154571    0.779927    0.089481    21.00000   -1.50000
H00X  2    1.106833    0.642104    0.118518    21.00000   -1.50000
AFIX   0
PART 2
C00R  1    0.973578    0.645287    0.054812   -21.00000    0.11148    0.09562 =
         0.10245    0.03101    0.04295    0.02334
AFIX 137
H00Y  2    1.058582    0.706532    0.025092   -21.00000   -1.50000
H     2    0.882580    0.569430    0.016910   -21.00000   -1.50000
HA    2    1.075960    0.614092    0.088123   -21.00000   -1.50000
AFIX   0
C1    1    0.647597    0.771939    0.060560   -21.00000    0.08174    0.09715 =
         0.08518    0.05150    0.01933    0.00411
AFIX 137
H1A   2    0.565803    0.823649    0.098124   -21.00000   -1.50000
H1B   2    0.543256    0.697077    0.026534   -21.00000   -1.50000
H1C   2    0.726894    0.828405    0.026919   -21.00000   -1.50000
AFIX   0
C2    1    0.987998    0.850731    0.165977   -21.00000    0.08071    0.07779 =
         0.07819    0.02936    0.01575    0.00086
AFIX 137
H2A   2    1.089823    0.822472    0.201124   -21.00000   -1.50000
H2B   2    0.899295    0.904892    0.198676   -21.00000   -1.50000
H2C   2    1.073514    0.903006    0.131525   -21.00000   -1.50000
AFIX   0
HKLF 4

REM  shelxt_a_a.res in P-1
REM R1 =  0.0738 for    2124 Fo > 4sig(Fo)  and  0.1131 for all    3562 data
REM    273 parameters refined using     72 restraints

END

WGHT      0.0755      0.1631

REM Highest difference peak  0.167,  deepest hole -0.246,  1-sigma level  0.052
Q1    1  -0.2705  0.5992  0.3786  11.00000  0.05    0.17
Q2    1   0.2046  0.3769  0.2420  11.00000  0.05    0.14
Q3    1  -0.1648  0.5721  0.3198  11.00000  0.05    0.14
Q4    1  -0.5332  0.5825  0.4973  11.00000  0.05    0.14
;
_shelx_res_checksum              68253
_shelx_hkl_file
;
   0   0   2  233.19    8.07
   0   0   2  225.93    7.73
   0   0   2  235.73    7.57
   0   0   2  253.91    8.80
   0   0   2  232.41    7.98
   0   0  -2  247.93    8.73
   0   0  -2  226.14    7.73
   0   0  -2  243.04    8.02
   0   0  -2  260.10    9.75
   0   0  -2  222.81    8.53
   0   0   3 1438.16   98.15
   0   0   3 1471.20  102.57
   0   0   3 1453.85   99.18
   0   0   3 1545.74  109.07
   0   0   3 1463.63  102.63
   0   0  -3 1485.80  102.05
   0   0  -3 1483.17  106.20
   0   0  -3 1432.77   99.35
   0   0  -3 1533.09  110.53
   0   0  -3 1536.96  111.57
   0   0   4  434.83   19.26
   0   0   4  465.89   20.44
   0   0   4  449.06   22.11
   0   0   4  426.01   20.54
   0   0  -4  467.86   20.85
   0   0  -4  467.51   22.00
   0   0  -4  417.50   19.41
   0   0  -4  459.42   22.26
   0   0  -4  458.24   22.47
   0   0   5   10.39    1.01
   0   0   5    8.87    0.94
   0   0   5    8.28    1.81
   0   0   5    9.63    1.61
   0   0  -5    9.80    0.99
   0   0  -5    8.48    1.26
   0   0  -5    8.91    1.06
   0   0  -5    9.72    1.14
   0   0   6  172.19    7.10
   0   0   6  193.54    7.08
   0   0   6  186.97    8.87
   0   0   6  180.15    9.89
   0   0  -6  199.65    8.73
   0   0  -6  193.42    9.98
   0   0  -6  195.79    9.09
   0   0  -6  197.08    9.28
   0   0   7  202.92    7.82
   0   0   7  222.28    8.77
   0   0   7  202.08   10.59
   0   0   7  208.24    9.96
   0   0  -7  218.45   10.56
   0   0  -7  212.00    9.89
   0   0  -7  213.64   10.91
   0   0  -7  219.29   11.19
   0   0   8    8.64    1.07
   0   0   8   11.26    0.91
   0   0   8    9.75    1.70
   0   0   8   10.74    1.48
   0   0  -8   10.46    1.56
   0   0  -8   11.48    1.29
   0   0  -8   10.56    1.75
   0   0  -8   10.71    1.78
   0   0   9    6.51    1.33
   0   0   9    7.52    1.67
   0   0   9    7.48    1.42
   0   0  -9    6.72    2.39
   0   0  -9    7.89    1.24
   0   0  -9    8.16    2.78
   0   0  10    6.94    1.57
   0   0  10    9.97    1.95
   0   0  10    8.99    1.66
   0   0 -10   10.50    3.46
   0   0 -10    7.87    2.42
   0   0 -10    8.61    2.05
   0   0  11    5.57    3.11
   0   0 -11    6.99    2.05
   0   0 -11    5.87    2.08
   0   0  12    4.20    3.39
   0   0 -12    5.52    2.07
   0   0 -12    3.59    2.05
   0   0  13    8.78    2.84
   0   0 -13   10.63    2.85
   0   0 -13    9.61    2.89
   0   0  14    0.89    1.68
   0   0 -14    0.68    1.64
   0   0 -14    0.87    1.67
   0   0  15    0.89    1.90
   0   0 -15    2.11    2.98
   0   0  16    1.20    1.91
   0   0 -16    1.57    2.04
   0   0 -16    0.71    1.94
   0   0  17   27.70    8.50
   0   0 -17   33.65    5.55
   0   0 -17   32.71    5.48
   0   0  18   59.54    7.61
   0   0 -18   65.82    7.22
   0   0 -18   65.09    7.66
   0   0  19    1.18    1.61
   0   0 -19    2.51    2.60
   0   1 -19   64.40    6.70
   0   1 -19   56.58    6.61
   0  -1  19   45.63    6.36
   0   1 -18    9.49    3.16
   0   1 -18    6.56    3.00
   0  -1  18    6.72    4.65
   0   1 -17   65.94    8.55
   0   1 -17   65.52   12.12
   0  -1  17   52.93    7.77
   0   1 -16   10.68    5.66
   0   1 -16    5.40    5.03
   0  -1  16    6.84    3.02
   0   1 -15    0.88    1.85
   0   1 -15    1.25    1.78
   0  -1  15    0.73    1.77
   0   1 -14   15.85    3.63
   0   1 -14   13.35    3.53
   0  -1  14   11.80    5.63
   0   1 -13   41.39    5.29
   0   1 -13   41.26    5.27
   0  -1  13   33.59    4.97
   0   1 -12    2.07    1.63
   0   1 -12    1.35    2.66
   0  -1  12    0.96    1.52
   0   1 -11    6.18    3.38
   0   1 -11    6.20    3.06
   0  -1  11    4.58    1.82
   0   1 -10    3.73    2.11
   0   1 -10    2.05    1.12
   0   1 -10    3.30    1.45
   0  -1  10    3.20    1.37
   0  -1  10    2.96    1.43
   0  -1  10    2.41    2.07
   0   1  -9  185.82   10.30
   0   1  -9  192.92    9.60
   0   1  -9  157.60    8.07
   0   1  -9  199.17   11.12
   0  -1   9  186.27   13.80
   0  -1   9  172.78   10.39
   0  -1   9  181.82   12.15
   0   1  -8  117.14    5.16
   0   1  -8  117.50    6.24
   0   1  -8  123.09    5.82
   0   1  -8   97.30    4.75
   0   1  -8  124.46    6.78
   0  -1   8  108.73    3.92
   0  -1   8  112.29    4.09
   0  -1   8  111.26    6.50
   0  -1   8  104.03    6.27
   0  -1   8  111.34    5.75
   0   1  -7   43.10    3.02
   0   1  -7   44.78    2.80
   0   1  -7   44.66    2.49
   0   1  -7   39.00    2.04
   0   1  -7   44.38    4.53
   0  -1   7   39.57    1.53
   0  -1   7   48.35    2.37
   0  -1   7   41.22    2.90
   0  -1   7   37.24    2.90
   0  -1   7   41.75    2.53
   0   1  -6  449.99   21.05
   0   1  -6  441.89   21.69
   0   1  -6  451.84   21.28
   0   1  -6  390.85   18.41
   0   1  -6  401.67   20.31
   0  -1   6  391.36   17.00
   0  -1   6  456.05   19.30
   0  -1   6  430.69   21.87
   0  -1   6  375.48   19.92
   0  -1   6  382.82   19.10
   0   1  -5  305.09   14.13
   0   1  -5  315.43   13.61
   0   1  -5  322.01   13.33
   0   1  -5  283.72   11.56
   0   1  -5  298.45   13.21
   0  -1   5  268.68   10.37
   0  -1   5  284.40   11.47
   0  -1   5  307.81   16.14
   0  -1   5  280.60   13.18
   0  -1   5  276.43   12.13
   0   1  -4 2264.58  179.12
   0   1  -4 2102.32  172.36
   0   1  -4 1894.60  148.83
   0   1  -4 2155.95  172.38
   0  -1   4 1792.52  139.66
   0  -1   4 2151.20  165.16
   0  -1   4 2199.95  176.45
   0  -1   4 2007.19  163.22
   0  -1   4 1935.27  154.90
   0   1  -3 1088.68   64.05
   0   1  -3 1048.83   64.91
   0   1  -3 1033.83   61.18
   0   1  -3 1063.52   63.33
   0  -1   3 1083.37   62.45
   0  -1   3 1141.45   65.11
   0  -1   3 1187.72   70.85
   0  -1   3 1100.05   66.72
   0  -1   3 1108.36   68.43
   0   1  -2  664.85   32.41
   0   1  -2  604.84   29.08
   0   1  -2  704.64   32.99
   0   1  -2  735.39   35.61
   0   1  -2  685.19   32.65
   0  -1   2  802.40   37.10
   0  -1   2  709.95   33.73
   0  -1   2  719.92   36.50
   0  -1   2  706.62   33.86
   0   1  -1  689.63   31.18
   0   1  -1  698.65   29.98
   0   1  -1  616.43   27.78
   0   1  -1  619.06   28.46
   0  -1   1  619.40   27.06
   0  -1   1  572.52   25.74
   0  -1   1  618.84   27.92
   0  -1   1  601.51   26.95
   0   1   0 1108.31   60.18
   0   1   0 1065.00   57.79
   0   1   0 1135.43   62.88
   0   1   0 1102.64   61.67
   0  -1   0 1202.44   65.25
   0  -1   0 1123.97   61.61
   0  -1   0 1156.62   65.13
   0  -1   0 1139.14   62.63
   0   1   1  186.21    5.37
   0   1   1  179.71    5.96
   0   1   1  183.56    6.69
   0   1   1  176.90    5.62
   0  -1  -1  208.50    6.12
   0  -1  -1  177.15    4.64
   0  -1  -1  181.06    5.40
   0  -1  -1  190.00    6.00
   0  -1  -1  176.49    5.66
   0   1   2  817.45   46.30
   0   1   2  984.17   55.06
   0   1   2 1024.54   59.31
   0   1   2 1027.20   60.80
   0  -1  -2  903.17   49.85
   0  -1  -2 1064.81   60.06
   0  -1  -2 1028.47   59.18
   0  -1  -2  984.15   56.95
   0   1   3  932.11   51.51
   0   1   3  997.79   59.44
   0   1   3  858.18   48.87
   0   1   3  913.29   57.47
   0   1   3  948.63   55.79
   0  -1  -3  833.57   47.53
   0  -1  -3  920.46   53.06
   0  -1  -3  969.02   59.85
   0  -1  -3  880.05   52.72
   0   1   4  435.36   18.69
   0   1   4  445.67   20.34
   0   1   4  435.39   19.50
   0   1   4  422.13   23.16
   0   1   4  419.32   22.01
   0  -1  -4  441.42   20.11
   0  -1  -4  399.60   20.50
   0  -1  -4  482.11   23.12
   0  -1  -4  446.59   21.93
   0   1   5   51.97    1.81
   0   1   5   52.03    2.23
   0   1   5   52.49    2.14
   0   1   5   51.90    4.19
   0   1   5   50.34    2.61
   0  -1  -5   54.07    2.42
   0  -1  -5   56.68    2.75
   0  -1  -5   57.44    3.05
   0  -1  -5   53.74    2.98
   0   1   6   43.82    1.66
   0   1   6   44.98    2.84
   0   1   6   48.14    2.09
   0   1   6   40.55    4.36
   0   1   6   44.66    2.64
   0  -1  -6   44.10    2.43
   0  -1  -6   44.90    2.60
   0  -1  -6   48.69    4.54
   0  -1  -6   46.03    2.98
   0   1   7  278.97   15.71
   0   1   7  318.73   15.79
   0   1   7  402.92   18.51
   0   1   7  347.91   22.64
   0   1   7  378.40   19.49
   0  -1  -7  369.44   18.71
   0  -1  -7  378.03   19.28
   0  -1  -7  387.77   20.63
   0  -1  -7  393.43   21.18
   0   1   8    0.20    0.38
   0   1   8    0.23    0.50
   0   1   8    1.57    0.85
   0   1   8    0.12    1.48
   0   1   8    0.30    1.18
   0  -1  -8    0.65    1.14
   0  -1  -8    1.24    1.11
   0  -1  -8    1.26    0.82
   0  -1  -8   -0.16    0.91
   0   1   9  105.08    6.48
   0   1   9   90.79    9.60
   0   1   9   95.81    5.82
   0  -1  -9  112.08    9.52
   0  -1  -9   96.44    6.09
   0  -1  -9   88.94    6.44
   0  -1  -9   99.48    6.90
   0   1  10   47.53    3.05
   0   1  10   43.38    4.73
   0   1  10   48.04    3.88
   0  -1 -10   54.36    4.48
   0  -1 -10   43.31    3.83
   0  -1 -10   43.98    4.57
   0  -1 -10   49.78    4.66
   0   1  11   18.37    1.91
   0   1  11   20.85    3.28
   0  -1 -11   22.98    3.11
   0  -1 -11   18.47    2.64
   0  -1 -11   22.43    3.29
   0   1  12    1.20    1.68
   0  -1 -12    2.43    1.61
   0  -1 -12    1.69    2.74
   0   1  13    4.78    2.38
   0  -1 -13    5.16    2.21
   0  -1 -13    5.04    3.92
   0   1  14    0.72    1.66
   0  -1 -14    0.37    2.51
   0  -1 -14    0.99    1.72
   0   1  15   10.21    5.41
   0  -1 -15   10.77    3.43
   0  -1 -15    9.68    3.40
   0   1  16   12.44    3.79
   0  -1 -16    7.99    3.54
   0  -1 -16   19.97    3.91
   0   1  17    5.21    2.64
   0  -1 -17    6.69    2.42
   0  -1 -17    5.50    2.57
   0   1  18    5.05    2.09
   0  -1 -18    0.25    3.09
   0   1  19   -3.68    2.18
   0   1  19   -0.36    1.22
   0   2 -20   -0.47    2.93
   0   2 -20   -3.46    1.68
   0  -2  20   -2.37    1.69
   0   2 -19   35.62    5.45
   0   2 -19   34.59    4.95
   0  -2  19   31.15    7.52
   0   2 -18    2.43    2.16
   0   2 -18    3.45    3.17
   0  -2  18    0.03    1.85
   0   2 -17   33.89    6.22
   0   2 -17   30.74    5.30
   0  -2  17   25.83    5.36
   0   2 -16   -1.39    3.27
   0   2 -16    2.32    1.86
   0  -2  16   -0.71    3.04
   0   2 -15    0.75    1.67
   0   2 -15   -1.60    1.60
   0  -2  15    0.37    2.41
   0   2 -14   40.41    5.85
   0   2 -14   41.81    5.54
   0  -2  14   32.73    5.22
   0   2 -13    3.99    2.25
   0   2 -13    2.75    3.40
   0  -2  13    3.08    2.01
   0   2 -12  310.72   21.51
   0   2 -12  287.32   20.11
   0  -2  12  255.57   18.94
   0   2 -11   37.74    6.87
   0   2 -11   34.17    4.04
   0  -2  11   30.67    5.91
   0   2 -10   27.67    4.82
   0   2 -10   26.18    4.18
   0   2 -10   31.84    3.45
   0  -2  10   27.19    3.36
   0  -2  10   27.03    5.11
   0  -2  10   29.15    3.10
   0   2  -9   82.93    6.13
   0   2  -9   85.50    5.37
   0   2  -9   86.66    4.86
   0   2  -9   63.52    4.36
   0   2  -9   94.84    8.30
   0  -2   9   76.82    3.04
   0  -2   9   80.86    5.54
   0  -2   9   77.74    7.88
   0  -2   9   87.01    5.22
   0   2  -8  202.19    9.66
   0   2  -8  198.39   10.36
   0   2  -8  191.15    9.36
   0   2  -8  166.20    8.39
   0   2  -8  190.62    9.98
   0  -2   8  189.63    7.27
   0  -2   8  206.31    8.14
   0  -2   8  187.95   10.45
   0  -2   8  175.20   13.02
   0  -2   8  186.15    9.68
   0   2  -7   47.19    3.71
   0   2  -7   48.09    2.94
   0   2  -7   47.12    2.65
   0   2  -7   40.87    2.51
   0   2  -7   45.87    2.90
   0  -2   7   42.24    2.29
   0  -2   7   45.77    1.57
   0  -2   7   46.37    4.75
   0  -2   7   42.88    4.71
   0  -2   7   45.17    2.85
   0   2  -6  324.62   14.87
   0   2  -6  308.83   14.34
   0   2  -6  298.28   13.41
   0   2  -6  272.51   12.03
   0   2  -6  309.89   14.43
   0  -2   6  272.26   12.18
   0  -2   6  296.78   11.37
   0  -2   6  298.55   14.52
   0  -2   6  277.50   16.83
   0  -2   6  294.21   13.91
   0   2  -5 2685.46  249.10
   0   2  -5 2651.50  242.94
   0   2  -5 2654.01  240.84
   0   2  -5 2465.19  218.65
   0   2  -5 2671.13  248.77
   0  -2   5 2431.08  219.72
   0  -2   5 2897.80  257.18
   0  -2   5 2794.61  257.94
   0  -2   5 2599.72  242.69
   0  -2   5 2661.26  244.70
   0   2  -4 2833.55  255.44
   0   2  -4 2468.70  222.53
   0   2  -4 2458.50  219.86
   0   2  -4 2732.50  240.70
   0   2  -4 2739.61  245.81
   0  -2   4 2502.01  220.88
   0  -2   4 2773.02  245.57
   0  -2   4 2634.47  241.49
   0  -2   4 2633.92  237.87
   0   2  -3 4455.16  501.19
   0   2  -3 3541.13  402.26
   0   2  -3 3994.36  442.50
   0   2  -3 4334.42  475.06
   0   2  -3 4849.33  544.99
   0   2  -3 4777.03  537.81
   0  -2   3 4403.56  487.13
   0  -2   3 4498.99  497.39
   0  -2   3 4461.22  504.02
   0  -2   3 4725.11  528.93
   0   2  -2  333.45   13.25
   0   2  -2  277.24   11.39
   0   2  -2  283.69   10.34
   0   2  -2  316.83   13.09
   0   2  -2  303.65   12.23
   0  -2   2  320.84   12.35
   0  -2   2  328.57   12.71
   0  -2   2  310.02   12.96
   0  -2   2  296.31   12.24
   0   2  -1    9.44    1.09
   0   2  -1   10.40    0.55
   0   2  -1    9.00    0.83
   0   2  -1    8.63    0.72
   0  -2   1    9.42    1.09
   0  -2   1    9.05    0.72
   0  -2   1    9.62    0.85
   0  -2   1    8.75    0.77
   0   2   0 1269.73   76.84
   0   2   0 1209.71   73.20
   0   2   0 1283.52   79.92
   0   2   0 1199.01   74.26
   0  -2   0 1340.15   81.24
   0  -2   0 1284.45   79.89
   0  -2   0 1240.49   76.65
   0   2   1 1799.99  127.61
   0   2   1 1796.87  126.20
   0   2   1 1810.99  133.88
   0   2   1 1702.85  122.04
   0   2   1 1764.49  126.44
   0  -2  -1 1384.91  101.83
   0  -2  -1 1841.17  128.86
   0  -2  -1 1885.20  138.26
   0   2   2   28.25    1.72
   0   2   2   25.42    1.33
   0   2   2   26.41    1.61
   0   2   2   27.60    1.49
   0  -2  -2   28.07    1.33
   0  -2  -2   26.46    0.78
   0  -2  -2   25.99    1.94
   0  -2  -2   27.99    1.61
   0  -2  -2   25.67    1.53
   0   2   3  336.28   13.77
   0   2   3  375.51   16.77
   0   2   3  325.58   15.84
   0   2   3  346.43   18.43
   0   2   3  344.10   17.57
   0  -2  -3  363.16   15.46
   0  -2  -3  359.68   15.85
   0  -2  -3  352.52   16.15
   0  -2  -3  333.90   15.63
   0   2   4   36.67    1.44
   0   2   4   36.62    1.98
   0   2   4   39.76    2.72
   0   2   4   36.07    2.38
   0   2   4   37.12    2.16
   0  -2  -4   37.55    2.38
   0  -2  -4   36.62    1.99
   0  -2  -4   38.17    2.28
   0  -2  -4   35.62    2.28
   0   2   5  100.01    3.67
   0   2   5  108.72    4.93
   0   2   5  111.88    6.07
   0   2   5  104.60    5.60
   0   2   5  113.64    7.28
   0  -2  -5  114.12    6.15
   0  -2  -5   98.16    6.24
   0  -2  -5  116.22    5.77
   0  -2  -5  104.79    7.46
   0   2   6    3.50    0.47
   0   2   6    2.93    1.23
   0   2   6    4.35    1.32
   0   2   6    3.21    1.13
   0   2   6    3.70    0.95
   0  -2  -6    4.23    1.42
   0  -2  -6    5.37    1.07
   0  -2  -6    3.20    1.10
   0  -2  -6    4.26    1.80
   0   2   7    2.63    0.76
   0   2   7    3.30    0.80
   0   2   7    5.68    0.91
   0   2   7    5.13    1.32
   0   2   7    4.24    1.11
   0  -2  -7    4.63    1.04
   0  -2  -7    5.57    1.20
   0  -2  -7    4.88    1.25
   0  -2  -7    5.30    2.09
   0   2   8   23.41    1.89
   0   2   8   19.43    2.75
   0   2   8   23.04    2.38
   0  -2  -8   24.02    2.22
   0  -2  -8   22.32    2.40
   0  -2  -8   20.53    4.03
   0  -2  -8   22.50    4.29
   0   2   9  438.99   24.55
   0   2   9  397.31   26.84
   0   2   9  437.77   30.24
   0  -2  -9  418.88   25.51
   0  -2  -9  413.48   29.76
   0  -2  -9  374.55   25.16
   0  -2  -9  427.61   32.95
   0   2  10    2.80    1.04
   0   2  10    2.54    1.68
   0  -2 -10    3.33    1.40
   0  -2 -10    3.14    1.57
   0  -2 -10    3.59    1.68
   0   2  11   27.80    2.78
   0   2  11   31.28    4.34
   0  -2 -11   32.44    3.68
   0  -2 -11   36.09    4.32
   0   2  12   11.58    4.59
   0  -2 -12    8.24    3.91
   0  -2 -12    9.80    2.89
   0   2  13   32.60    8.57
   0  -2 -13   41.06    8.11
   0  -2 -13   36.75    5.42
   0   2  14   94.03   10.52
   0  -2 -14   98.22    9.51
   0  -2 -14  102.48   10.64
   0   2  15   36.54    6.21
   0  -2 -15   45.44    6.12
   0   2  16   34.17    5.47
   0   2  17   16.49    3.42
   0   2  17   13.42    3.08
   0   2  18    7.48    3.40
   0   2  18    5.12    1.84
   0   3 -20   -6.16    2.82
   0   3 -20   -0.20    1.48
   0  -3  20   -2.24    2.48
   0   3 -19    5.86    2.52
   0   3 -19    2.73    2.26
   0  -3  19    4.65    2.15
   0   3 -18   -0.58    1.90
   0   3 -18    1.36    1.62
   0  -3  18    0.76    1.63
   0   3 -17   -1.52    1.92
   0   3 -17   -0.32    1.64
   0  -3  17    1.55    2.62
   0   3 -16   17.65    6.75
   0   3 -16   18.14    4.15
   0  -3  16   14.51    3.86
   0   3 -15    3.47    2.39
   0   3 -15    3.16    3.89
   0  -3  15    2.52    2.12
   0   3 -14    7.27    2.93
   0   3 -14    6.98    4.46
   0  -3  14    6.99    2.69
   0   3 -13   28.20    4.57
   0   3 -13   28.71    4.27
   0  -3  13   25.05    4.24
   0   3 -12   40.23    5.20
   0   3 -12   42.27    4.85
   0  -3  12   37.61    7.34
   0   3 -11   61.49    8.85
   0   3 -11   56.27    5.31
   0  -3  11   47.80    5.14
   0   3 -10  523.58   38.47
   0   3 -10  493.60   34.74
   0   3 -10  534.30   38.87
   0  -3  10  551.60   36.18
   0  -3  10  487.39   33.24
   0  -3  10  509.14   37.43
   0   3  -9    2.34    1.81
   0   3  -9    0.53    1.23
   0   3  -9    1.61    1.62
   0   3  -9    2.46    1.19
   0  -3   9    2.29    0.58
   0  -3   9    4.79    1.29
   0  -3   9    2.40    1.29
   0  -3   9    2.48    1.89
   0   3  -8  245.96   12.80
   0   3  -8  227.76   12.32
   0   3  -8  224.88   11.34
   0   3  -8  244.05   12.81
   0  -3   8  233.28    9.94
   0  -3   8  227.57   12.75
   0  -3   8  207.21   12.34
   0  -3   8  223.83   14.91
   0   3  -7   61.12    3.61
   0   3  -7   54.02    3.30
   0   3  -7   51.36    2.91
   0   3  -7   56.04    3.38
   0  -3   7   51.80    2.30
   0  -3   7   49.47    1.91
   0  -3   7   57.54    3.72
   0  -3   7   51.13    3.63
   0  -3   7   58.65    5.22
   0   3  -6   17.75    1.62
   0   3  -6   17.09    1.58
   0   3  -6   17.26    1.37
   0   3  -6   16.66    0.85
   0   3  -6   20.90    1.65
   0  -3   6   16.96    1.16
   0  -3   6   19.84    1.00
   0  -3   6   18.80    1.89
   0  -3   6   19.26    1.91
   0  -3   6   22.68    1.85
   0   3  -5  396.90   19.27
   0   3  -5  347.78   16.33
   0   3  -5  324.71   14.98
   0   3  -5  407.14   19.88
   0   3  -5  369.19   17.44
   0  -3   5  355.72   15.99
   0  -3   5  372.81   16.18
   0  -3   5  358.97   21.13
   0  -3   5  368.64   18.06
   0   3  -4    2.30    1.05
   0   3  -4    1.77    0.44
   0   3  -4    3.05    0.80
   0   3  -4    1.80    1.12
   0  -3   4    2.23    0.55
   0  -3   4    2.28    0.50
   0  -3   4    1.34    0.78
   0  -3   4    2.42    0.72
   0   3  -3  543.86   26.85
   0   3  -3  464.04   21.52
   0   3  -3  452.60   21.69
   0   3  -3  554.45   27.84
   0   3  -3  523.66   25.63
   0  -3   3  537.47   27.46
   0  -3   3  532.40   25.60
   0  -3   3  530.97   27.16
   0  -3   3  539.54   29.61
   0   3  -2  340.05   14.56
   0   3  -2  281.30   10.40
   0   3  -2  332.77   12.21
   0   3  -2  312.53   14.04
   0   3  -2  326.19   16.04
   0  -3   2  350.54   16.20
   0  -3   2  335.81   16.27
   0  -3   2  301.86   13.43
   0   3  -1 1280.29   88.61
   0   3  -1 1296.11   78.69
   0   3  -1 1167.50   71.56
   0   3  -1 1521.19  103.45
   0   3  -1 1317.72   89.15
   0  -3   1 1442.17   96.19
   0  -3   1 1503.30  100.87
   0  -3   1 1626.25  109.63
   0  -3   1 1440.37   97.57
   0   3   0  907.00   51.65
   0   3   0  898.67   52.53
   0  -3   0  960.20   54.72
   0  -3   0  928.33   54.90
   0   3   1   44.71    1.88
   0   3   1   42.59    1.89
   0   3   1   46.33    2.49
   0   3   1   42.27    3.11
   0   3   1   43.25    2.20
   0  -3  -1   52.15    3.36
   0  -3  -1   45.74    3.46
   0   3   2   67.45    2.64
   0   3   2   67.62    2.89
   0   3   2   70.67    4.93
   0   3   2   66.31    3.14
   0   3   2   68.56    3.19
   0  -3  -2   74.44    3.15
   0  -3  -2   68.32    3.95
   0  -3  -2   74.17    3.53
   0   3   3 1614.31  122.70
   0   3   3 1660.23  129.06
   0   3   3 1732.15  138.53
   0   3   3 1673.23  132.78
   0   3   3 1820.65  143.38
   0  -3  -3 1678.44  120.95
   0  -3  -3 1907.39  148.62
   0  -3  -3 1778.39  145.21
   0   3   4  236.35   10.10
   0   3   4  277.58   13.28
   0   3   4  249.29   11.52
   0   3   4  253.77   13.21
   0   3   4  270.99   13.00
   0  -3  -4  232.61   10.09
   0  -3  -4  282.77   13.16
   0  -3  -4  269.59   13.43
   0   3   5   87.22    3.61
   0   3   5   89.14    6.29
   0   3   5   94.81    4.54
   0   3   5   92.79    5.48
   0   3   5   99.92    5.26
   0  -3  -5   86.27    3.56
   0  -3  -5   92.68    4.90
   0  -3  -5   98.44    7.37
   0  -3  -5   97.39    5.41
   0   3   6    5.77    0.70
   0   3   6    7.64    1.27
   0   3   6    9.17    1.22
   0   3   6    8.43    1.60
   0   3   6    9.87    2.32
   0  -3  -6    7.69    0.93
   0  -3  -6   10.48    2.67
   0  -3  -6    8.73    1.52
   0  -3  -6    8.23    1.54
   0   3   7   82.19    6.90
   0   3   7  107.14    5.45
   0   3   7   94.66    6.62
   0   3   7   97.68    5.72
   0  -3  -7   85.63    4.58
   0  -3  -7  111.08    6.70
   0  -3  -7   96.90    6.47
   0  -3  -7   98.57    6.52
   0   3   8  164.00    8.65
   0   3   8  143.94   10.27
   0   3   8  154.75    9.16
   0  -3  -8  133.88    9.78
   0  -3  -8  165.60   10.14
   0  -3  -8  147.56    9.96
   0  -3  -8  146.41   10.25
   0   3   9   80.81    5.20
   0   3   9   72.40    6.70
   0  -3  -9   74.75    6.78
   0   3  10    3.03    1.24
   0   3  10    3.29    1.84
   0  -3 -10    3.66    1.85
   0   3  11   51.27    6.36
   0  -3 -11   50.51    6.17
   0   3  12   30.21    5.11
   0  -3 -12   31.00    4.40
   0  -3 -12   34.23    4.93
   0   3  13    4.22    2.55
   0  -3 -13    4.75    1.95
   0   3  14   -0.74    1.75
   0   3  15    0.98    1.77
   0   3  15    1.23    1.60
   0   3  16   -1.63    2.17
   0   3  16    0.68    1.15
   0   3  17    0.97    1.37
   0   3  17    1.09    1.20
   0   4 -19   -0.27    1.75
   0   4 -19    2.56    2.53
   0  -4  19    1.60    1.52
   0   4 -18    6.45    2.84
   0   4 -18    5.76    2.49
   0  -4  18    3.92    2.46
   0   4 -17   42.62    6.77
   0   4 -17   41.01    6.13
   0  -4  17   33.25    8.71
   0   4 -16   25.49    7.86
   0   4 -16   28.57    5.00
   0  -4  16   22.44    4.66
   0   4 -15   35.43    5.76
   0   4 -15   39.27    8.80
   0  -4  15   30.82    5.28
   0   4 -14    1.97    1.79
   0   4 -14    0.75    1.69
   0  -4  14    0.20    1.64
   0   4 -13    7.08    2.77
   0   4 -13    7.48    2.66
   0  -4  13    8.15    4.20
   0   4 -12   18.93    3.63
   0   4 -12   20.12    3.51
   0  -4  12   18.57    3.41
   0   4 -11    4.42    1.80
   0   4 -11    2.41    2.59
   0  -4  11    2.56    1.77
   0   4 -10   93.26    9.89
   0   4 -10  103.22   11.14
   0   4 -10   99.17    7.16
   0   4 -10   91.97    6.65
   0  -4  10   81.84    4.58
   0  -4  10   88.25   10.23
   0   4  -9   39.12    3.61
   0   4  -9   40.76    6.36
   0   4  -9   41.20    5.70
   0   4  -9   44.60    3.70
   0  -4   9   37.53    3.61
   0  -4   9   37.07    3.75
   0  -4   9   35.39    6.01
   0  -4   9   37.89    3.78
   0   4  -8  478.51   28.58
   0   4  -8  378.04   26.22
   0   4  -8  451.89   30.78
   0   4  -8  443.41   25.62
   0  -4   8  446.67   26.00
   0  -4   8  421.58   25.93
   0  -4   8  389.05   29.34
   0  -4   8  424.27   25.27
   0   4  -7   35.50    2.84
   0   4  -7   31.50    2.49
   0   4  -7   36.26    4.27
   0   4  -7   36.35    2.62
   0  -4   7   33.76    3.01
   0  -4   7   36.30    3.16
   0  -4   7   34.80    3.16
   0  -4   7   36.78    2.96
   0   4  -6  121.98    6.44
   0   4  -6   99.35    5.00
   0   4  -6  117.70    7.37
   0   4  -6  112.15    5.50
   0  -4   6  108.20    6.33
   0  -4   6  109.14    4.58
   0  -4   6  109.75    6.38
   0  -4   6  113.79    5.96
   0   4  -5   17.22    1.82
   0   4  -5   12.79    1.14
   0   4  -5   14.64    1.99
   0   4  -5   16.09    1.80
   0   4  -5   15.83    1.43
   0  -4   5   18.08    2.21
   0  -4   5   14.19    1.84
   0  -4   5   14.47    1.77
   0  -4   5   15.60    2.76
   0   4  -4   55.30    3.07
   0   4  -4   45.69    2.73
   0   4  -4   59.55    2.45
   0   4  -4   61.54    5.03
   0   4  -4   57.30    2.92
   0  -4   4   60.36    4.15
   0  -4   4   58.24    4.03
   0  -4   4   54.55    4.96
   0  -4   4   58.58    3.25
   0   4  -3  114.85    5.36
   0   4  -3  114.86    4.73
   0   4  -3  105.32    3.61
   0   4  -3  119.16    5.62
   0   4  -3  108.74    4.76
   0  -4   3  121.71    5.15
   0  -4   3  109.12    5.01
   0  -4   3  114.31    5.84
   0  -4   3  112.01    5.19
   0   4  -2   21.24    1.64
   0   4  -2   17.17    0.79
   0   4  -2   17.32    0.59
   0   4  -2   21.55    1.77
   0  -4   2   20.22    1.55
   0  -4   2   21.07    2.19
   0   4  -1  933.82   55.02
   0   4  -1  842.54   51.72
   0   4  -1  816.09   48.65
   0  -4   1  874.83   51.29
   0  -4   1  874.38   52.36
   0  -4   1  841.01   51.77
   0  -4   1  850.03   51.01
   0   4   0   10.94    1.77
   0   4   0    8.92    1.38
   0  -4   0   12.31    1.91
   0  -4   0   11.04    1.38
   0   4   1 1528.24  116.30
   0   4   1 1681.94  131.65
   0   4   1 1584.36  123.05
   0   4   1 1621.91  126.00
   0  -4  -1 1880.23  143.97
   0  -4  -1 1704.47  133.66
   0   4   2  122.34    5.53
   0   4   2  130.51    7.32
   0   4   2  127.08    8.52
   0   4   2  130.78    6.57
   0  -4  -2  141.30    7.02
   0  -4  -2  137.25    7.42
   0   4   3    6.71    0.90
   0   4   3    7.27    1.18
   0   4   3    7.67    1.49
   0   4   3    6.64    1.24
   0   4   3    8.13    1.28
   0  -4  -3    8.60    1.33
   0  -4  -3    7.64    2.21
   0   4   4  209.97    9.84
   0   4   4  253.14   13.47
   0   4   4  230.42   11.40
   0   4   4  238.25   16.35
   0   4   4  229.43   12.29
   0   4   4  255.51   12.94
   0  -4  -4  257.96   12.94
   0  -4  -4  252.82   13.32
   0   4   5    0.41    0.51
   0   4   5    0.34    0.84
   0   4   5    0.81    0.78
   0   4   5    0.99    1.60
   0   4   5    1.64    0.85
   0   4   5    0.94    0.83
   0  -4  -5    0.77    0.87
   0  -4  -5    1.41    0.92
   0   4   6   59.98    3.27
   0   4   6   71.96    5.17
   0   4   6   80.19    4.61
   0   4   6   76.31    5.62
   0   4   6   70.24    5.14
   0   4   6   86.39    7.40
   0  -4  -6   97.64    8.76
   0  -4  -6   77.51    5.59
   0   4   7   17.25    1.95
   0   4   7   13.37    2.51
   0   4   7   12.05    2.24
   0   4   7   14.02    1.96
   0  -4  -7   16.51    2.64
   0  -4  -7   14.16    2.38
   0   4   8    4.40    1.82
   0   4   8    4.08    1.67
   0   4   9   35.53    4.59
   0   4   9   33.73    4.34
   0   4  10  139.01   12.10
   0   4  10  121.53   11.18
   0   4  11   63.66    7.85
   0   4  11   57.58    7.34
   0  -4 -11   91.52    8.03
   0   4  12   38.37    5.61
   0   4  12   24.50    4.91
   0  -4 -12   41.40    4.80
   0   4  13   18.34    6.45
   0   4  13   13.63    3.67
   0  -4 -13   23.17    3.43
   0   4  14    1.04    4.18
   0   4  14    5.28    2.24
   0  -4 -14    7.46    3.12
   0   4  15    0.03    1.46
   0   4  15    0.97    1.25
   0   4  16    0.28    1.20
   0   4  16    0.53    1.62
   0   4  17    2.23    1.39
   0   5 -19    6.07    2.07
   0  -5  19   -1.85    1.21
   0   5 -18    4.75    2.63
   0   5 -18    5.36    2.34
   0  -5  18    6.20    3.84
   0   5 -17   12.75    3.77
   0   5 -17   12.24    3.37
   0  -5  17   12.26    3.20
   0   5 -16   34.58   10.39
   0   5 -16   45.31    9.43
   0  -5  16   37.97    5.83
   0   5 -15   21.79    7.14
   0   5 -15   26.01    4.50
   0  -5  15   20.60    4.34
   0   5 -14    6.30    3.04
   0   5 -14    9.79    2.94
   0  -5  14   11.39    4.73
   0   5 -13    9.27    2.79
   0   5 -13    8.64    2.80
   0  -5  13    8.07    2.75
   0   5 -12    1.05    1.58
   0   5 -12   -0.05    2.67
   0  -5  12    1.73    1.57
   0   5 -11    1.46    1.34
   0   5 -11    0.70    1.25
   0  -5  11    0.08    1.39
   0   5 -10   62.27    5.64
   0   5 -10   59.03    5.45
   0   5 -10   64.22    5.13
   0  -5  10   52.92    3.80
   0  -5  10   59.40    8.22
   0   5  -9   66.90    5.70
   0   5  -9   57.27    5.05
   0   5  -9   56.08    4.69
   0   5  -9   63.39    4.93
   0  -5   9   61.38    3.92
   0  -5   9   57.51    5.24
   0  -5   9   59.60    7.49
   0   5  -8    8.41    2.78
   0   5  -8    6.03    1.57
   0   5  -8    6.02    1.45
   0   5  -8    6.31    2.49
   0  -5   8    6.84    1.29
   0  -5   8    8.11    1.87
   0  -5   8    8.10    2.98
   0   5  -7   10.34    1.96
   0   5  -7   11.25    1.58
   0   5  -7    8.67    1.47
   0   5  -7   11.68    1.66
   0  -5   7   11.54    1.48
   0  -5   7   11.04    2.05
   0  -5   7   10.97    1.98
   0   5  -6    6.57    1.58
   0   5  -6    4.79    1.05
   0   5  -6    4.95    0.98
   0   5  -6    6.89    1.53
   0   5  -6    6.39    1.22
   0  -5   6    6.50    1.19
   0  -5   6    5.94    0.96
   0  -5   6    5.07    2.46
   0  -5   6    6.17    1.45
   0   5  -5  158.17    8.68
   0   5  -5  115.39    5.55
   0   5  -5  119.13    5.43
   0   5  -5  154.26    8.07
   0   5  -5  135.32    8.57
   0  -5   5  145.60    7.05
   0  -5   5  132.38    6.46
   0  -5   5  139.73    7.99
   0  -5   5  141.86    7.54
   0   5  -4   12.33    2.71
   0   5  -4   13.78    0.94
   0   5  -4   10.79    1.45
   0   5  -4   14.11    3.00
   0   5  -4   13.30    1.52
   0  -5   4   15.10    1.56
   0  -5   4   12.16    2.19
   0  -5   4   14.46    1.89
   0  -5   4   14.25    2.75
   0   5  -3    1.11    0.73
   0   5  -3    0.22    0.35
   0   5  -3    0.08    0.32
   0   5  -3    0.62    0.58
   0  -5   3    0.88    0.64
   0  -5   3    0.06    0.63
   0  -5   3   -0.16    0.75
   0   5  -2  199.04   10.18
   0   5  -2  197.86   10.10
   0   5  -2  195.96   11.86
   0  -5   2  199.12    9.62
   0  -5   2  219.51   13.36
   0  -5   2  193.40    9.70
   0   5  -1   28.01    2.54
   0   5  -1   38.28    2.80
   0  -5   1   29.17    3.74
   0  -5   1   26.49    2.49
   0   5   0  352.27   18.50
   0   5   0  303.14   19.72
   0   5   0  309.67   16.64
   0   5   0  314.48   18.13
   0  -5   0  384.93   20.74
   0  -5   0  345.24   19.02
   0  -5   0  356.59   24.21
   0   5   1 1130.60   83.67
   0   5   1 1083.66   79.74
   0   5   1 1048.10   74.27
   0   5   1 1052.12   80.08
   0  -5  -1 1193.76   84.50
   0  -5  -1 1170.24   84.26
   0  -5  -1 1131.76   81.99
   0   5   2   57.51    5.34
   0   5   2   60.50    6.62
   0   5   2   51.69    3.75
   0   5   2   54.66    3.82
   0  -5  -2   55.56    4.09
   0  -5  -2   64.23    4.49
   0  -5  -2   56.42    4.41
   0   5   3  336.84   21.18
   0   5   3  331.67   20.35
   0   5   3  298.71   18.03
   0   5   3  337.49   22.39
   0  -5  -3  367.37   21.52
   0  -5  -3  345.02   19.10
   0  -5  -3  337.65   23.20
   0   5   4    7.01    2.09
   0   5   4    8.28    1.85
   0   5   4    9.12    1.86
   0   5   4    7.71    2.50
   0   5   4    7.46    1.54
   0  -5  -4    8.16    1.64
   0  -5  -4    7.47    1.67
   0   5   5    3.09    1.58
   0   5   5    3.37    1.37
   0   5   5    2.82    1.48
   0   5   5    2.00    2.08
   0   5   5    3.17    1.23
   0  -5  -5    3.40    2.18
   0  -5  -5    3.31    1.36
   0   5   6    0.71    0.77
   0   5   6    0.81    1.21
   0   5   6    0.94    1.29
   0   5   6    1.52    1.10
   0   5   6    1.11    1.72
   0   5   7    0.82    1.39
   0   5   7    1.50    1.20
   0  -5  -7    0.45    1.45
   0   5   8   26.00    4.02
   0   5   8   18.38    3.58
   0  -5  -8   33.13    4.22
   0   5   9   23.94    4.09
   0   5   9   17.21    3.66
   0  -5  -9   28.82    4.73
   0   5  10    5.28    2.39
   0   5  10    2.41    2.09
   0  -5 -10    6.62    2.43
   0   5  11    1.18    1.71
   0   5  11   -0.01    1.46
   0  -5 -11    1.49    1.59
   0   5  12    6.66    2.73
   0   5  12    3.54    3.80
   0  -5 -12    7.69    2.46
   0   5  13    2.82    2.28
   0   5  13    2.91    3.05
   0  -5 -13    6.36    3.17
   0   5  14    2.00    1.60
   0   5  14    0.20    1.30
   0  -5 -14    2.01    1.47
   0   5  15    0.67    1.06
   0   5  15   -0.02    0.81
   0  -5 -15    0.04    0.85
   0   5  16   21.43    4.09
   0   6 -19   16.12    4.49
   0   6 -19   11.48    2.40
   0  -6  19   10.75    2.41
   0   6 -18   14.79    3.18
   0   6 -18   17.14    3.09
   0  -6  18   13.97    4.84
   0   6 -17   -0.04    1.68
   0   6 -17    1.11    1.60
   0  -6  17    1.68    1.54
   0   6 -16   16.10    3.95
   0   6 -16   21.10    5.95
   0  -6  16   16.39    3.79
   0   6 -15   43.91    6.80
   0   6 -15   61.68    6.81
   0  -6  15   49.07   10.05
   0   6 -14    0.42    3.96
   0   6 -14    2.72    2.27
   0  -6  14    5.31    2.25
   0   6 -13    1.34    2.74
   0   6 -13    1.65    1.77
   0  -6  13    1.40    1.80
   0   6 -12   32.09    4.83
   0   6 -12   43.67    7.30
   0  -6  12   40.66    5.21
   0   6 -11    1.93    2.28
   0   6 -11    0.12    1.18
   0   6 -11    0.20    1.23
   0  -6  11    0.29    2.25
   0   6 -10   82.09    7.45
   0   6 -10   53.33    5.87
   0   6 -10   80.89    6.33
   0  -6  10   76.85    6.83
   0   6  -9   95.67    7.87
   0   6  -9   56.92    5.47
   0   6  -9   56.46    7.27
   0   6  -9   84.06    6.11
   0  -6   9   86.36    6.78
   0   6  -8   23.30    5.27
   0   6  -8   24.41    4.27
   0  -6   8   26.90    3.30
   0   6  -7    2.57    1.69
   0   6  -7    3.75    1.28
   0  -6   7    4.98    1.25
   0  -6   7    3.06    1.52
   0   6  -6   22.71    3.15
   0   6  -6   24.95    3.03
   0   6  -6   22.30    2.32
   0  -6   6   24.12    2.46
   0  -6   6   22.63    3.02
   0  -6   6   23.46    4.39
   0   6  -5    3.06    1.55
   0   6  -5    4.09    1.40
   0   6  -5    3.98    1.75
   0  -6   5    3.45    1.16
   0  -6   5    2.66    1.11
   0  -6   5    2.83    1.43
   0  -6   5    2.13    1.29
   0   6  -4   28.67    4.58
   0   6  -4   29.88    2.66
   0  -6   4   31.03    2.77
   0  -6   4   30.23    4.28
   0  -6   4   36.42    5.32
   0  -6   4   29.07    3.00
   0   6  -3   60.26    4.65
   0  -6   3   64.41    6.31
   0  -6   3   58.16    4.18
   0  -6   3   62.56    4.36
   0   6  -2  667.82   44.69
   0   6  -2  900.62   57.95
   0   6  -2  669.11   46.89
   0   6  -2  671.03   45.01
   0  -6   2  792.07   57.55
   0  -6   2  693.37   46.30
   0  -6   2  872.29   56.97
   0   6  -1  216.97   12.46
   0   6  -1  182.86   11.71
   0   6  -1  233.21   13.72
   0  -6   1  242.44   13.90
   0  -6   1  221.23   17.00
   0   6   0   88.82    5.77
   0   6   0   90.32    6.24
   0   6   0   84.48    5.69
   0   6   0   79.00    8.08
   0  -6   0   96.98    6.46
   0  -6   0   87.99    6.07
   0  -6   0   94.55    6.21
   0   6   1    2.59    0.97
   0   6   1    0.32    1.14
   0   6   1    0.32    0.91
   0   6   1    1.21    0.94
   0  -6  -1    1.04    1.09
   0  -6  -1    1.00    1.12
   0  -6  -1    1.09    1.12
   0   6   2    0.09    0.82
   0   6   2    0.42    0.96
   0   6   2   -0.68    1.37
   0   6   2    0.18    0.85
   0  -6  -2    1.34    1.04
   0  -6  -2    0.39    1.59
   0   6   3   48.48    3.94
   0   6   3   56.32    5.27
   0   6   3   49.51    6.95
   0   6   3   42.64    4.19
   0   6   3   48.91    5.98
   0  -6  -3   56.79    5.08
   0  -6  -3   52.47    4.55
   0   6   4    8.11    1.65
   0   6   4    9.22    2.29
   0   6   4    9.68    3.52
   0   6   4    7.14    1.89
   0   6   4    7.75    1.78
   0  -6  -4    9.57    2.40
   0   6   5   41.62    3.83
   0   6   5   51.71    5.31
   0   6   5   42.73    4.67
   0  -6  -5   60.95    5.68
   0   6   6   33.45    4.46
   0   6   6   24.44    3.89
   0  -6  -6   40.78    4.81
   0   6   7   16.85    3.62
   0   6   7   14.12    3.08
   0  -6  -7   24.73    3.82
   0   6   8    3.59    2.23
   0   6   8    2.68    1.89
   0  -6  -8    6.00    2.37
   0   6   9    4.43    2.29
   0   6   9    1.46    1.92
   0  -6  -9    5.89    2.38
   0   6  10   95.16   10.30
   0  -6 -10  119.20   10.97
   0   6  11    1.38    1.90
   0   6  11    1.85    1.57
   0  -6 -11    1.73    1.93
   0   6  12   35.03    5.57
   0  -6 -12   58.04    9.61
   0   6  13   -0.40    2.40
   0   6  13    1.14    1.14
   0  -6 -13    1.80    1.57
   0   6  14    2.23    1.52
   0  -6 -14    3.96    1.54
   0   7 -18    3.19    2.14
   0  -7  18   24.39    3.68
   0   7 -17   -0.29    1.90
   0   7 -17    0.13    1.29
   0  -7  17    1.27    1.29
   0   7 -16    0.45    1.11
   0   7 -16    0.45    1.94
   0  -7  16   -0.84    1.19
   0   7 -15   -0.26    1.35
   0   7 -15    0.41    1.39
   0  -7  15    1.73    2.30
   0   7 -14    2.89    2.33
   0   7 -14    6.22    2.43
   0  -7  14    6.28    2.46
   0   7 -13    2.41    1.77
   0  -7  13    0.27    1.76
   0   7 -12   13.26    4.68
   0  -7  12   14.82    3.37
   0   7 -11    4.80    2.56
   0   7 -11    4.90    2.05
   0  -7  11    5.77    3.67
   0   7 -10    6.61    2.76
   0   7 -10    6.13    2.05
   0  -7  10    5.00    2.37
   0   7  -9  222.01   17.28
   0   7  -9  198.88   13.46
   0  -7   9  191.60   14.55
   0   7  -8   80.47   11.32
   0   7  -8   84.22    9.02
   0  -7   8   87.98    7.46
   0   7  -7  115.88    9.64
   0   7  -7  114.00    7.55
   0   7  -6  152.40   11.60
   0   7  -6  160.50   11.16
   0   7  -6  141.89    8.84
   0   7  -5   31.40    4.40
   0   7  -5   37.75    4.33
   0   7  -5   28.88    4.55
   0   7  -4   88.05    7.57
   0   7  -4   83.27    9.44
   0   7  -4   80.49    7.72
   0  -7   4   77.59    8.72
   0   7  -3   -0.04    3.32
   0   7  -3    5.46    1.67
   0   7  -3    2.54    1.35
   0   7  -3    3.98    1.49
   0  -7   3    4.86    1.52
   0   7  -2    1.75    1.15
   0   7  -2    3.05    1.34
   0  -7   2    2.93    1.45
   0   7  -1   16.67    2.70
   0   7  -1   21.03    2.91
   0   7  -1   17.36    3.49
   0   7  -1   17.17    4.03
   0  -7   1   19.61    2.99
   0   7   0    0.56    1.20
   0   7   0    5.46    2.25
   0   7   0    0.33    1.06
   0   7   0    1.61    1.12
   0  -7   0    2.40    2.39
   0   7   1   19.90    2.72
   0   7   1   19.87    4.84
   0   7   1   17.08    2.54
   0  -7  -1   19.54    4.92
   0   7   2   31.74    3.56
   0   7   2   35.17    4.18
   0   7   2   26.80    3.42
   0  -7  -2   37.23    4.42
   0   7   3    4.74    1.61
   0   7   3    4.30    1.96
   0   7   3    4.00    1.58
   0  -7  -3    5.00    2.16
   0   7   4    0.37    1.28
   0   7   4    1.59    1.67
   0   7   4   -0.02    2.20
   0  -7  -4    8.37    2.02
   0   7   5   -0.12    0.85
   0   7   5    0.36    1.15
   0   7   5    0.73    1.63
   0  -7  -5   -0.12    1.32
   0   7   6    8.77    2.68
   0   7   6    5.19    3.73
   0  -7  -6   10.62    3.01
   0   7   7    1.79    1.45
   0   7   7    0.60    1.25
   0  -7  -7   -1.12    1.73
   0   7   8   17.63    3.88
   0   7   8   10.80    3.19
   0  -7  -8   28.80    4.40
   0   7   9    0.35    1.45
   0  -7  -9   -2.86    2.71
   0   7  10   91.92   10.19
   0  -7 -10  149.82   18.35
   0   7  11    1.25    1.57
   0  -7 -11    2.08    1.98
   0   7  12   14.59    3.29
   0  -7 -12   32.43    4.16
   0   7  13    2.86    1.11
   0  -7 -13   -1.37    1.43
   0   8 -17    5.18    1.85
   0  -8  17    7.93    1.98
   0   8 -16    1.45    1.98
   0  -8  16    0.25    1.23
   0   8 -15   15.33    2.92
   0  -8  15   12.13    4.83
   0   8 -14    2.09    1.68
   0  -8  14    1.78    1.78
   0   8 -13   25.76    4.30
   0  -8  13   29.24    4.48
   0   8 -12   41.87    9.79
   0   8 -12   35.85    6.98
   0  -8  12   41.08    5.34
   0   8 -11    7.41    3.09
   0   8 -11    6.02    2.20
   0  -8  11   11.16    4.37
   0   8 -10    4.20    2.78
   0   8 -10    4.58    1.90
   0  -8  10    4.39    2.22
   0   8  -9  220.67   18.79
   0   8  -9  196.74   13.84
   0  -8   9  194.68   15.14
   0   8  -8   10.02    5.56
   0   8  -8    7.63    3.45
   0  -8   8    6.73    2.64
   0   8  -7  680.04   54.37
   0   8  -7  663.00   46.73
   0   8  -6   36.72    5.49
   0   8  -6   36.59    4.95
   0   8  -6   31.75    3.68
   0   8  -5   -1.31    1.90
   0   8  -5    5.85    1.76
   0   8  -5    0.11    1.22
   0   8  -4  103.91    9.92
   0   8  -4  114.76    8.87
   0   8  -4   87.88    9.39
   0   8  -3   12.55    3.25
   0   8  -3   10.28    2.08
   0  -8   3   11.66    4.44
   0   8  -2   13.80    3.50
   0   8  -2   18.28    3.07
   0   8  -2   11.75    2.25
   0  -8   2   13.76    2.96
   0   8  -1   17.31    5.59
   0   8  -1   18.48    3.26
   0   8  -1   10.80    2.27
   0  -8   1   15.55    3.12
   0   8   0   31.15    6.66
   0   8   0   21.93    3.70
   0   8   0   19.10    2.86
   0  -8   0   28.30    4.10
   0   8   1    7.51    3.54
   0   8   1    7.34    2.43
   0   8   1    6.22    3.14
   0  -8  -1    8.83    2.81
   0   8   2    4.98    2.97
   0   8   2    6.73    3.39
   0   8   2    3.06    1.69
   0  -8  -2    6.18    2.52
   0   8   3   14.90    5.59
   0   8   3   14.88    5.46
   0  -8  -3   19.44    6.74
   0   8   4   -1.55    2.29
   0   8   4    0.61    1.45
   0  -8  -4    3.60    2.95
   0   8   5    0.79    1.18
   0  -8  -5   -2.96    2.39
   0   8   6   10.15    3.27
   0  -8  -6   20.92    6.74
   0   8   7    1.75    1.78
   0  -8  -7    1.69    2.29
   0   8   8    5.60    2.41
   0  -8  -8    5.63    3.04
   0   8   9   -0.43    1.18
   0  -8  -9    1.34    1.60
   0   8  10    3.86    1.77
   0  -8 -10    4.83    2.45
   0   8  11    1.12    1.86
   0  -8 -11    1.98    1.76
   0  -8 -12   -0.01    0.95
   0   9 -16    0.12    0.81
   0  -9  16    0.45    0.95
   0   9 -15    1.50    1.86
   0  -9  15    1.17    1.29
   0   9 -14    0.58    1.22
   0  -9  14    2.06    2.24
   0   9 -13    5.26    1.93
   0  -9  13    5.80    2.13
   0   9 -12    4.33    2.72
   0   9 -12    7.47    3.30
   0  -9  12    5.28    2.20
   0   9 -11   32.44    7.75
   0   9 -11   18.16    4.95
   0  -9  11   19.39    6.08
   0   9 -10   22.21    4.89
   0   9 -10   18.14    3.05
   0  -9  10   22.13    3.58
   0   9  -9   15.60    3.99
   0   9  -9    9.76    2.40
   0  -9   9   10.71    2.86
   0   9  -8    1.84    2.55
   0   9  -8    1.31    1.41
   0  -9   8    2.62    1.72
   0   9  -7   37.09    8.82
   0   9  -7   30.42    5.64
   0  -9   7   39.10    4.84
   0   9  -6   14.71    3.69
   0   9  -6   12.02    2.30
   0   9  -5   30.61    4.89
   0   9  -5   25.45    4.38
   0   9  -5   23.30    3.11
   0   9  -4   17.00    3.46
   0   9  -4    4.77    3.09
   0   9  -4   10.57    2.06
   0   9  -3    4.19    3.10
   0   9  -3   12.07    2.94
   0   9  -2    9.33    3.18
   0   9  -2    8.27    4.49
   0  -9   2   10.30    4.89
   0   9  -1    3.14    2.06
   0   9  -1   -0.79    2.99
   0  -9   1    2.37    3.05
   0   9   0   30.98    5.22
   0   9   0   30.51    4.71
   0  -9   0   33.83    5.17
   0   9   1    3.85    2.38
   0   9   1    3.93    2.16
   0  -9  -1    4.61    2.51
   0   9   2   33.07    5.27
   0   9   2   30.37    5.02
   0  -9  -2   43.19    6.04
   0   9   3    9.07    2.85
   0   9   3    8.52    2.81
   0  -9  -3   11.46    3.54
   0   9   4    1.52    1.85
   0   9   4    4.45    1.97
   0  -9  -4    4.23    2.52
   0   9   5    7.68    2.82
   0  -9  -5   16.25    3.74
   0   9   6    1.14    1.37
   0  -9  -6    0.67    1.92
   0   9   7    1.80    1.31
   0  -9  -7   -0.32    1.92
   0   9   8    1.37    1.48
   0  -9  -8    7.18    2.37
   0   9   9   -0.13    0.78
   0  -9  -9   -0.41    1.33
   0  -9 -10    1.60    2.61
   0 -10  14    0.61    1.66
   0  10 -13    2.78    1.54
   0  10 -13    2.62    1.16
   0 -10  13    3.81    1.49
   0  10 -12    4.50    1.80
   0  10 -12    0.61    1.12
   0 -10  12    1.17    1.36
   0  10 -11    0.20    2.78
   0  10 -11   -0.27    1.00
   0 -10  11    1.55    1.21
   0  10 -10    3.25    2.18
   0  10 -10    1.13    1.93
   0 -10  10    1.33    2.57
   0  10  -9    2.13    1.96
   0  10  -9    0.78    1.02
   0 -10   9   -0.19    1.30
   0  10  -8    1.47    1.86
   0 -10   8   -0.98    1.20
   0  10  -7   19.23    5.46
   0 -10   7   20.61    3.44
   0  10  -6   13.45    6.73
   0 -10   6    8.57    2.50
   0  10  -5    3.09    4.00
   0  10  -4   -0.39    1.84
   0  10  -4    1.44    1.52
   0  10  -3   10.47    3.27
   0  10  -3    7.72    2.70
   0  10  -2    6.43    2.80
   0  10  -2    2.54    2.15
   0  10  -1   19.64    4.50
   0  10  -1   20.92    3.80
   0 -10   1   23.46    4.30
   0  10   0   10.01    3.00
   0  10   0    0.20    4.17
   0 -10   0   10.18    3.11
   0  10   1    1.45    1.70
   0  10   1    0.46    2.42
   0 -10  -1    1.21    3.20
   0  10   2    4.47    2.25
   0  10   2    4.52    3.34
   0 -10  -2    8.59    4.20
   0  10   3    4.70    3.34
   0  10   3    4.80    3.27
   0 -10  -3    9.35    4.31
   0  10   4   -0.13    1.13
   0 -10  -4    4.27    2.60
   0  10   5    1.09    1.23
   0 -10  -5    4.12    3.00
   0  10   6   -0.58    1.51
   0 -10  -6   -0.91    2.45
   0 -10  -7   22.17    7.30
   0  11 -11    2.54    1.74
   0 -11  11    1.21    1.12
   0  11 -10   31.42    7.09
   0 -11  10   20.23    2.76
   0  11  -9   11.01    5.05
   0 -11   9    8.12    3.21
   0  11  -8   10.20    2.83
   0 -11   8    0.51    2.63
   0  11  -7    0.15    2.34
   0 -11   7    2.11    1.27
   0  11  -6    1.64    2.21
   0 -11   6    1.12    1.22
   0  11  -5   -0.91    2.41
   0 -11   5    2.93    1.35
   0  11  -4    6.78    3.23
   0 -11   4    5.48    1.77
   0  11  -3    0.44    1.84
   0  11  -2   -0.85    3.23
   0  11  -1    0.45    2.96
   0  11  -1    0.82    1.13
   0  11   0   16.23    4.89
   0  11   0    5.29    1.88
   0 -11   0    9.09    2.33
   0  11   1   11.78    2.89
   0  11   1    5.54    1.91
   0 -11  -1   14.37    2.61
   0  11   2    1.34    1.50
   0  11   2    1.48    1.04
   0 -11  -2    2.05    1.55
   0 -11  -3    1.08    1.43
   0 -11  -4    1.69    1.55
   0  12  -7    4.19    3.69
   0  12  -6   35.62    5.09
   0  12  -5    7.80    2.87
   0  12  -4    5.13    2.41
   0  12  -3   -0.03    1.21
   0  12  -2   16.05    3.44
   0  12  -1   -0.27    1.17
  -1  12   1    9.95    2.45
  -1  12   0   -2.69    3.20
  -1  12  -1    3.68    3.86
  -1  12  -2   49.90   10.57
  -1  12  -4   -2.13    2.18
  -1  12  -6    5.95    2.71
  -1  12  -7    8.94    2.92
  -1  12  -8   23.24    3.80
   1 -11  -5    3.71    2.12
   1 -11  -4    1.95    1.81
  -1  11   4    1.41    1.82
   1 -11  -3    2.96    1.85
  -1  11   3    0.87    1.37
   1 -11  -2    2.02    2.09
  -1  11   2    0.83    1.75
  -1  11   2    4.64    1.66
   1 -11  -1    0.59    1.61
  -1  11   1    0.35    1.44
  -1  11   1    0.82    1.37
   1 -11   0    2.11    1.85
  -1  11   0    2.02    1.78
  -1  11   0    0.64    1.69
   1 -11   1    5.02    3.09
  -1  11  -1    2.65    1.96
  -1  11  -1    1.27    1.14
   1 -11   2   29.19    6.84
  -1  11  -2   24.87    4.77
  -1  11  -3    1.48    2.19
  -1  11  -3    3.01    1.31
  -1  11  -4    1.32    1.92
  -1  11  -4    1.22    1.12
  -1  11  -5    6.34    2.36
  -1  11  -5    2.21    1.42
  -1  11  -6    3.27    3.81
  -1  11  -6    3.67    2.33
  -1  11  -7    1.56    2.19
  -1  11  -7    1.77    2.07
  -1  11  -8   -0.21    1.91
  -1  11  -8    1.41    1.12
  -1  11  -9    0.53    2.20
  -1  11  -9    4.25    1.39
  -1  11 -10    0.34    1.24
  -1  11 -10   -0.48    0.85
  -1  11 -11    3.65    1.67
  -1  11 -11    2.87    2.33
  -1  11 -12   -1.44    1.06
   1 -10  -8    3.00    2.04
   1 -10  -7   -1.03    1.76
   1 -10  -6    8.37    2.46
  -1  10   6    1.81    1.14
   1 -10  -5    1.80    1.96
  -1  10   5   -0.01    1.22
  -1  10   5    1.29    0.99
   1 -10  -4    9.73    3.02
  -1  10   4    6.60    2.13
  -1  10   4    2.80    1.63
   1 -10  -3    2.34    1.74
  -1  10   3    1.25    1.31
  -1  10   3   -0.99    0.98
   1 -10  -2   -0.90    1.77
  -1  10   2   -0.77    1.44
  -1  10   2    0.25    1.04
   1 -10  -1   -1.97    2.04
  -1  10   1    2.22    2.95
  -1  10   1    1.23    1.19
   1 -10   0   35.90    5.99
  -1  10   0   37.75    8.87
  -1  10   0   28.21    3.97
   1 -10   1    1.86    2.06
  -1  10  -1   -1.10    1.99
  -1  10  -1   -2.89    1.44
   1 -10   2   30.06    5.23
  -1  10  -2   31.02    5.35
  -1  10  -2   25.58    6.02
   1 -10   3    0.30    3.03
  -1  10  -3   -0.80    2.04
  -1  10  -3    4.26    2.22
  -1  10  -4   -0.55    2.08
  -1  10  -4    2.32    1.36
  -1  10  -5    1.63    1.89
  -1  10  -5    0.68    1.29
  -1  10  -6   10.00    2.82
  -1  10  -6    2.15    1.80
  -1  10  -7   21.67    4.52
  -1  10  -7   22.51    3.29
  -1  10  -8   31.65    7.19
  -1  10  -8    7.18    4.57
   1 -10   9   12.18    2.57
  -1  10  -9   17.92    4.17
  -1  10  -9   18.18    2.95
   1 -10  10    8.00    2.22
  -1  10 -10   15.01    3.38
  -1  10 -10   13.97    2.56
   1 -10  11    1.67    1.39
  -1  10 -11    3.67    1.92
  -1  10 -11    3.96    1.63
   1 -10  12    0.55    1.30
  -1  10 -12   -0.65    1.56
   1 -10  13    0.22    0.84
  -1  10 -13    1.13    1.16
  -1  10 -14    2.27    1.43
   1  -9 -10   93.95    8.09
   1  -9  -9    2.66    2.92
  -1   9   9    0.58    0.93
   1  -9  -8   12.85    4.68
  -1   9   8    5.34    1.82
   1  -9  -7    9.54    3.05
  -1   9   7    5.22    1.99
   1  -9  -6    3.40    2.05
  -1   9   6    0.87    2.30
  -1   9   6    0.11    1.37
   1  -9  -5    5.41    2.95
  -1   9   5    5.09    2.88
  -1   9   5    4.21    2.04
   1  -9  -4    4.90    2.57
  -1   9   4    2.70    1.74
  -1   9   4    2.45    1.84
   1  -9  -3   21.78    4.47
  -1   9   3   15.33    3.24
  -1   9   3   13.77    3.29
   1  -9  -2    1.98    3.61
  -1   9   2    1.84    1.72
  -1   9   2    2.00    2.75
   1  -9  -1    3.03    3.53
  -1   9   1    1.56    1.77
  -1   9   1    2.24    2.56
  -1   9   0    4.57    2.21
  -1   9   0    4.86    1.92
   1  -9   1    1.40    1.58
  -1   9  -1    0.74    1.27
  -1   9  -1   -0.86    1.13
   1  -9   2   11.91    3.33
  -1   9  -2    7.53    2.72
  -1   9  -2    9.95    2.41
   1  -9   3    3.39    2.17
  -1   9  -3    1.90    3.10
  -1   9  -3    2.89    1.70
   1  -9   4    0.51    2.41
  -1   9  -4    0.61    2.65
  -1   9  -4    0.10    1.98
  -1   9  -5    2.04    1.94
  -1   9  -5    0.16    2.25
   1  -9   6   18.19    2.99
  -1   9  -6   22.50    4.32
  -1   9  -6   23.30    3.27
   1  -9   7    1.11    1.30
  -1   9  -7    1.06    1.83
  -1   9  -7    1.34    1.42
   1  -9   8    2.09    1.52
  -1   9  -8    3.87    2.07
  -1   9  -8    2.04    1.65
   1  -9   9   28.02    6.47
  -1   9  -9   44.17    9.66
  -1   9  -9   40.27    7.19
   1  -9  10    1.07    1.36
  -1   9 -10    1.29    1.92
  -1   9 -10    0.87    1.50
   1  -9  11   16.96    3.14
  -1   9 -11   21.31    3.55
   1  -9  12    1.59    1.51
  -1   9 -12    3.28    1.69
   1  -9  13    0.28    2.21
  -1   9 -13    3.97    2.86
   1  -9  14    0.95    1.25
  -1   9 -14    3.09    1.64
   1  -9  15    1.63    1.20
  -1   9 -15    4.21    1.63
  -1   9 -16   -2.57    2.41
   1  -8 -12   -0.77    1.32
   1  -8 -11    1.64    2.57
  -1   8  11    1.11    1.07
   1  -8 -10   11.58    2.87
  -1   8  10    4.54    2.00
   1  -8  -9    8.06    3.11
  -1   8   9    4.85    3.43
   1  -8  -8   41.62    6.14
  -1   8   8   16.43    6.75
   1  -8  -7    4.29    2.77
  -1   8   7    3.87    3.33
   1  -8  -6   52.49    7.28
  -1   8   6   32.64    8.37
   1  -8  -5   76.80    8.83
  -1   8   5   54.21    6.01
  -1   8   5   55.85    6.68
   1  -8  -4    1.24    2.32
  -1   8   4    2.71    1.56
  -1   8   4    1.44    1.70
   1  -8  -3   49.29    6.59
  -1   8   3   41.76    4.98
  -1   8   3   40.30    5.27
   1  -8  -2    2.68    1.94
  -1   8   2    0.74    1.45
  -1   8   2    0.49    1.28
  -1   8   2    1.98    1.49
   1  -8  -1    4.23    2.18
  -1   8   1    3.38    1.72
  -1   8   1    1.74    1.50
  -1   8   1    3.46    1.74
   1  -8   0    4.27    2.21
  -1   8   0    5.50    1.84
  -1   8   0    2.81    1.61
  -1   8   0    2.57    1.84
   1  -8   1   22.35    6.05
  -1   8  -1   21.79    3.35
  -1   8  -1   20.63    4.62
  -1   8  -1   20.05    4.93
   1  -8   2    0.42    1.61
  -1   8  -2    0.99    1.34
  -1   8  -2    1.93    1.89
  -1   8  -2    0.31    1.32
   1  -8   3   11.07    2.87
  -1   8  -3    8.79    2.45
   1  -8   4  183.79   14.01
  -1   8  -4  180.70   13.09
  -1   8  -4  188.92   12.55
  -1   8  -4  196.38   13.00
   1  -8   5    8.16    3.58
  -1   8  -5    1.60    3.32
  -1   8  -5    7.53    3.43
   1  -8   6   89.96    7.26
  -1   8  -6  111.47    9.66
  -1   8  -6  106.84    7.89
   1  -8   7    0.53    1.19
  -1   8  -7    1.12    1.57
  -1   8  -7    0.71    1.34
   1  -8   8   84.49    7.31
  -1   8  -8   95.46    8.72
  -1   8  -8  105.34    7.99
   1  -8   9  156.07   15.94
  -1   8  -9  166.76   17.75
  -1   8  -9  188.00   17.07
   1  -8  10   28.45    4.30
  -1   8 -10   32.79    5.23
  -1   8 -10   36.52    4.62
   1  -8  11   92.36    8.67
  -1   8 -11  118.49    9.50
   1  -8  12    5.61    2.28
  -1   8 -12    8.03    2.46
   1  -8  13    1.86    3.79
  -1   8 -13   14.52    4.19
   1  -8  14    8.11    2.45
  -1   8 -14   13.63    3.05
   1  -8  15    2.23    1.64
  -1   8 -15    4.78    2.05
   1  -8  16    0.96    1.21
  -1   8 -16    2.26    1.56
   1  -8  17   16.48    3.36
  -1   8 -17    3.18    4.28
   1  -7 -13    0.67    2.20
  -1   7  13    1.63    1.88
   1  -7 -12    5.37    2.06
  -1   7  12    3.25    1.82
   1  -7 -11   14.58    3.44
  -1   7  11    8.66    2.79
   1  -7 -10   32.35    5.09
  -1   7  10   17.09    4.17
   1  -7  -9    1.27    2.03
  -1   7   9    0.89    1.66
   1  -7  -8  171.73   14.28
  -1   7   8   92.09    9.73
  -1   7   8  112.27   11.61
   1  -7  -7   71.64    8.20
  -1   7   7   41.15    4.75
  -1   7   7   37.89    5.28
  -1   7   7   51.67    6.71
   1  -7  -6   60.21    7.28
  -1   7   6   40.61    7.03
  -1   7   6   32.58    4.86
  -1   7   6   44.44    6.23
   1  -7  -5    3.79    2.13
  -1   7   5    1.89    2.37
  -1   7   5    0.47    1.43
  -1   7   5    1.92    1.78
   1  -7  -4   -0.30    1.67
  -1   7   4    0.96    1.11
  -1   7   4    0.83    1.39
   1  -7  -3   53.20    6.04
  -1   7   3   41.31    5.93
  -1   7   3   38.01    4.19
  -1   7   3   46.90    7.73
   1  -7  -2   13.12    3.00
  -1   7   2   11.02    3.13
  -1   7   2    9.23    3.30
  -1   7   2   10.11    3.84
   1  -7  -1    0.18    1.36
   1  -7  -1    1.41    1.36
  -1   7   1   -1.75    1.50
  -1   7   1    0.39    1.49
  -1   7   1    1.09    1.10
   1  -7   0   63.74    6.00
   1  -7   0   54.13    4.43
  -1   7   0   68.17    7.68
  -1   7   0   49.25    4.52
  -1   7   0   60.95    5.25
   1  -7   1   35.33    4.44
   1  -7   1   39.14    3.66
  -1   7  -1   35.87    4.00
  -1   7  -1   41.51    3.63
  -1   7  -1   37.29    4.45
   1  -7   2   34.91    6.52
   1  -7   2   41.28    5.10
  -1   7  -2   35.50    3.93
  -1   7  -2   42.08    5.23
  -1   7  -2   43.93    6.25
   1  -7   3   -0.04    1.31
   1  -7   3    1.72    1.00
  -1   7  -3    0.34    1.14
  -1   7  -3   -0.76    0.98
  -1   7  -3    2.55    1.16
   1  -7   4   38.57    3.96
   1  -7   4   28.70    3.11
  -1   7  -4   31.76    3.55
  -1   7  -4   33.86    3.23
  -1   7  -4   33.37    3.49
   1  -7   5   27.29    5.57
   1  -7   5   26.37    4.61
  -1   7  -5   29.42    3.31
  -1   7  -5   29.70    3.06
  -1   7  -5   30.35    3.36
   1  -7   6    3.54    1.64
  -1   7  -6    4.45    2.45
  -1   7  -6    3.84    2.48
   1  -7   7    0.75    1.07
  -1   7  -7    1.97    1.32
  -1   7  -7    0.04    1.14
   1  -7   8   14.70    2.54
  -1   7  -8   16.50    2.91
  -1   7  -8   18.61    2.79
   1  -7   9  242.08   21.22
  -1   7  -9  247.80   17.14
  -1   7  -9  286.06   22.51
   1  -7  10   83.74    7.64
  -1   7 -10   90.06    8.39
  -1   7 -10   99.66   11.65
   1  -7  11  239.43   18.59
  -1   7 -11  280.78   19.99
   1  -7  12   55.86    6.38
  -1   7 -12   45.23    5.83
  -1   7 -12   70.15    6.75
   1  -7  13    9.18    4.15
  -1   7 -13    5.95    2.53
  -1   7 -13   10.67    4.34
   1  -7  14    3.58    1.87
  -1   7 -14    1.09    1.95
  -1   7 -14    4.41    2.25
   1  -7  15    2.62    1.84
  -1   7 -15    3.91    3.04
  -1   7 -15    3.27    2.18
   1  -7  16    1.36    1.21
  -1   7 -16   -0.34    1.39
  -1   7 -16    0.07    1.50
   1  -7  17    1.02    1.66
  -1   7 -17   -0.22    1.06
  -1   7 -17   -0.21    2.00
   1  -7  18    0.33    0.78
  -1   7 -18    0.20    0.83
  -1   7 -18   -0.74    0.97
  -1   6  15   -0.58    0.96
   1  -6 -14    0.42    1.80
  -1   6  14    0.61    0.87
  -1   6  14    1.00    1.18
   1  -6 -13    2.57    1.61
  -1   6  13    1.52    2.20
  -1   6  13    1.79    1.64
   1  -6 -12    1.85    1.48
  -1   6  12   -0.87    2.07
  -1   6  12   -0.09    1.45
   1  -6 -11    3.29    1.93
  -1   6  11    0.45    1.57
  -1   6  11    1.10    1.82
   1  -6 -10   -0.16    1.35
  -1   6  10   -0.72    1.09
  -1   6  10    3.03    2.02
   1  -6  -9   47.43    8.55
  -1   6   9   20.98    4.26
  -1   6   9   29.64    7.76
   1  -6  -8  753.66   66.12
  -1   6   8  485.20   41.52
  -1   6   8  628.75   60.58
   1  -6  -7  197.61   20.50
  -1   6   7  148.11   12.76
  -1   6   7  177.01   19.77
   1  -6  -6   -1.69    2.31
  -1   6   6    0.67    0.85
  -1   6   6    1.62    1.15
  -1   6   6   -0.17    1.34
   1  -6  -5   49.01    7.50
   1  -6  -5   36.27    3.65
  -1   6   5   39.63    3.38
  -1   6   5   41.12    6.09
  -1   6   5   45.78    4.83
   1  -6  -4   27.12    5.62
   1  -6  -4   22.90    3.91
  -1   6   4   23.50    2.54
  -1   6   4   23.45    4.22
  -1   6   4   26.04    3.45
   1  -6  -3    0.83    1.88
   1  -6  -3    0.36    0.68
  -1   6   3   -0.30    0.70
  -1   6   3   -0.40    1.15
  -1   6   3    1.05    0.74
  -1   6   3   -0.77    0.94
  -1   6   3    0.14    0.96
   1  -6  -2    1.72    1.14
   1  -6  -2    3.00    1.00
  -1   6   2    3.16    1.08
  -1   6   2    3.86    1.77
  -1   6   2    2.69    1.09
  -1   6   2    3.06    1.41
  -1   6   2    3.54    1.43
   1  -6  -1   91.74    7.03
   1  -6  -1   82.55    4.98
  -1   6   1   83.20    5.12
  -1   6   1   90.18    7.55
  -1   6   1   82.57    5.09
  -1   6   1   85.11    8.85
  -1   6   1   87.06    9.12
   1  -6   0   26.58    3.43
   1  -6   0   22.62    2.45
  -1   6   0   25.07    2.57
  -1   6   0   29.65    3.74
  -1   6   0   33.81    3.23
  -1   6   0   40.46    3.68
   1  -6   1   68.18    5.30
   1  -6   1   66.02    5.30
   1  -6   1   58.47    5.52
  -1   6  -1   69.52    4.21
  -1   6  -1   59.18    4.06
  -1   6  -1   62.99    4.96
  -1   6  -1   63.45    5.21
   1  -6   2    8.40    1.85
   1  -6   2    7.28    3.02
  -1   6  -2    8.32    2.35
   1  -6   3   37.12    3.62
   1  -6   3   39.85    3.80
   1  -6   3   33.62    2.87
   1  -6   3   42.06    3.98
  -1   6  -3   43.13    3.45
  -1   6  -3   41.80    2.88
  -1   6  -3   38.26    5.01
   1  -6   4   66.91    5.03
   1  -6   4   68.18    5.30
   1  -6   4   65.58    6.21
   1  -6   4   72.89    5.61
  -1   6  -4   74.28    4.86
  -1   6  -4   71.72    4.43
  -1   6  -4   72.74    4.98
   1  -6   5   32.60    3.25
   1  -6   5   35.65    5.24
   1  -6   5   32.87    2.97
   1  -6   5   36.93    3.61
  -1   6  -5   36.73    3.14
  -1   6  -5   36.94    3.05
  -1   6  -5   38.30    3.30
   1  -6   6    8.27    1.61
   1  -6   6    7.30    1.73
   1  -6   6    8.03    1.52
   1  -6   6    7.22    1.59
   1  -6   6    9.24    3.19
  -1   6  -6    5.26    1.10
  -1   6  -6    5.58    2.17
  -1   6  -6    9.16    2.71
   1  -6   7   20.44    2.50
   1  -6   7   24.99    2.69
   1  -6   7   23.01    2.58
   1  -6   7   22.57    4.22
  -1   6  -7   26.98    2.93
  -1   6  -7   17.90    2.09
  -1   6  -7   17.69    2.47
  -1   6  -7   27.68    2.78
   1  -6   8   30.64    3.03
   1  -6   8   31.56    3.18
  -1   6  -8   33.75    3.36
  -1   6  -8   25.55    2.68
  -1   6  -8   24.41    3.20
  -1   6  -8   35.64    3.41
   1  -6   9   51.86    6.91
  -1   6  -9   49.57    6.34
  -1   6  -9   40.78    3.95
  -1   6  -9   58.22    6.93
   1  -6  10   37.59    4.30
  -1   6 -10   31.82    5.66
  -1   6 -10   45.70    4.59
   1  -6  11   18.79    3.31
  -1   6 -11   16.22    4.61
  -1   6 -11   22.19    3.53
   1  -6  12    8.31    2.81
  -1   6 -12   10.38    4.96
  -1   6 -12   13.58    2.99
   1  -6  13   57.24    9.99
  -1   6 -13   65.92    7.21
  -1   6 -13   72.59   10.73
   1  -6  14    4.42    2.13
  -1   6 -14    3.28    2.30
  -1   6 -14    4.02    2.44
   1  -6  15    1.22    1.11
  -1   6 -15   -0.43    1.25
  -1   6 -15   -1.31    1.33
   1  -6  16    1.23    1.71
  -1   6 -16    2.61    1.93
  -1   6 -16    2.55    2.04
   1  -6  17   11.45    4.80
  -1   6 -17   15.27    5.80
  -1   6 -17   16.14    5.66
   1  -6  18    1.25    1.41
  -1   6 -18    2.25    1.73
  -1   6 -18    1.87    1.68
   1  -6  19   -1.14    1.06
  -1   6 -19   -0.76    1.29
  -1   6 -19   -0.77    1.27
  -1   5  16    1.30    1.26
  -1   5  15    0.46    0.97
  -1   5  15   -0.02    1.15
  -1   5  14    0.00    1.15
  -1   5  14    2.10    2.27
   1  -5 -13    0.42    1.43
  -1   5  13    0.68    1.43
  -1   5  13    1.25    1.67
   1  -5 -12   20.46    3.54
  -1   5  12   10.36    3.31
  -1   5  12   15.33    3.78
   1  -5 -11    1.08    2.33
  -1   5  11    0.67    1.25
  -1   5  11   -0.83    1.41
   1  -5 -10   41.50    6.81
  -1   5  10   18.73    4.21
  -1   5  10   23.82    4.70
  -1   5   9   17.66    5.74
  -1   5   9   23.99    4.36
   1  -5  -8   15.83    2.80
  -1   5   8    8.62    1.55
  -1   5   8   11.70    3.87
  -1   5   8   14.25    2.86
   1  -5  -7   16.16    2.66
  -1   5   7   10.05    1.59
  -1   5   7   13.65    4.55
  -1   5   7   11.88    2.32
  -1   5   7   14.03    2.74
   1  -5  -6   53.65    4.86
   1  -5  -6   42.91    3.80
  -1   5   6   44.95    3.34
  -1   5   6   51.02    5.28
  -1   5   6   47.28    4.27
  -1   5   6   53.31    4.93
   1  -5  -5    1.67    1.33
   1  -5  -5    2.03    1.13
   1  -5  -5    1.14    0.92
  -1   5   5    1.85    1.38
  -1   5   5    3.11    1.53
  -1   5   5    1.61    1.05
  -1   5   5    2.24    1.30
  -1   5   5    2.13    1.28
   1  -5  -4   17.80    2.59
   1  -5  -4   22.51    3.13
   1  -5  -4   17.06    2.86
  -1   5   4   15.74    2.76
  -1   5   4   19.86    4.46
  -1   5   4   17.05    2.01
  -1   5   4   19.48    4.04
  -1   5   4   19.43    4.09
   1  -5  -3    3.84    1.48
   1  -5  -3    5.61    1.11
   1  -5  -3    4.06    0.99
  -1   5   3    3.69    1.66
  -1   5   3    4.31    1.70
  -1   5   3    4.53    1.08
  -1   5   3    4.25    1.45
  -1   5   3    4.56    1.47
   1  -5  -2  118.02   10.07
   1  -5  -2  132.29    6.33
   1  -5  -2  118.23    7.40
  -1   5   2  115.39    6.19
  -1   5   2  122.23    8.52
  -1   5   2  111.77    7.68
  -1   5   2  117.58    7.21
  -1   5   2  127.55    7.43
   1  -5  -1   18.59    4.06
   1  -5  -1   18.50    1.77
   1  -5  -1   15.33    1.66
  -1   5   1   19.89    1.95
  -1   5   1   20.46    2.80
  -1   5   1   13.84    1.64
  -1   5   1   16.85    2.32
  -1   5   1   22.23    2.63
   1  -5   0  391.57   24.23
  -1   5   0  368.62   20.56
  -1   5   0  545.43   33.72
   1  -5   1 1820.94  149.98
   1  -5   1 1893.85  158.68
   1  -5   1 1876.48  148.02
  -1   5  -1 1899.01  150.60
  -1   5  -1 1304.50   94.69
  -1   5  -1 1558.46  114.39
  -1   5  -1 1945.13  152.46
  -1   5  -1 1806.60  149.02
   1  -5   2   16.35    2.09
   1  -5   2   14.88    2.22
  -1   5  -2   17.18    1.79
  -1   5  -2   14.33    0.90
  -1   5  -2   12.97    1.05
   1  -5   3  628.74   37.20
   1  -5   3  634.63   39.12
   1  -5   3  597.35   33.87
   1  -5   3  608.47   38.27
  -1   5  -3  599.56   36.62
  -1   5  -3  534.68   29.74
  -1   5  -3  638.42   35.16
  -1   5  -3  662.22   43.90
   1  -5   4   51.62    3.59
   1  -5   4   53.63    3.96
   1  -5   4   49.48    3.26
   1  -5   4   50.67    6.19
  -1   5  -4   58.96    3.45
  -1   5  -4   49.00    4.32
  -1   5  -4   55.07    3.23
  -1   5  -4   54.80    3.82
   1  -5   5  141.50    7.55
   1  -5   5  138.96   10.80
   1  -5   5  131.16    9.21
   1  -5   5  145.21    8.36
  -1   5  -5  145.23    7.28
  -1   5  -5  129.68    6.59
  -1   5  -5  125.52    6.87
  -1   5  -5  150.64    7.90
   1  -5   6   12.39    1.54
   1  -5   6   10.46    1.76
   1  -5   6   11.27    1.63
   1  -5   6    9.91    1.66
   1  -5   6   12.26    2.11
  -1   5  -6   11.14    1.50
  -1   5  -6   10.73    2.29
  -1   5  -6    9.34    1.62
  -1   5  -6   11.93    2.84
   1  -5   7  262.30   14.24
   1  -5   7  265.30   19.08
   1  -5   7  259.50   14.91
   1  -5   7  245.15   14.76
   1  -5   7  285.12   16.99
  -1   5  -7  306.14   19.57
  -1   5  -7  278.36   18.34
  -1   5  -7  241.99   15.20
  -1   5  -7  247.32   13.72
  -1   5  -7  292.71   16.18
   1  -5   8  164.64    9.21
   1  -5   8  154.96    9.43
   1  -5   8  166.22   13.32
   1  -5   8  160.23   10.32
   1  -5   8  186.76   11.82
  -1   5  -8  175.65    9.98
  -1   5  -8  180.46   10.47
  -1   5  -8  160.56   11.03
  -1   5  -8  187.86   10.73
   1  -5   9    2.96    1.03
   1  -5   9    3.01    1.49
   1  -5   9    2.16    1.51
  -1   5  -9    3.43    2.34
  -1   5  -9    5.05    1.42
   1  -5  10    8.18    1.99
  -1   5 -10    5.57    1.92
  -1   5 -10    7.53    2.12
   1  -5  11   13.64    2.86
  -1   5 -11   13.89    2.90
  -1   5 -11   18.16    2.96
   1  -5  12   -0.42    2.14
  -1   5 -12   -0.96    2.06
  -1   5 -12    1.54    1.37
   1  -5  13   11.74    3.00
  -1   5 -13   13.95    5.81
  -1   5 -13   16.44    5.73
   1  -5  14    4.80    2.54
  -1   5 -14    8.76    2.96
  -1   5 -14    9.32    2.95
   1  -5  15    1.80    1.83
  -1   5 -15    2.37    2.12
  -1   5 -15    1.76    2.09
   1  -5  16    1.18    1.71
  -1   5 -16   -0.79    1.98
  -1   5 -16    7.30    3.33
   1  -5  17    0.72    2.20
  -1   5 -17   -0.29    2.42
  -1   5 -17    0.27    1.48
   1  -5  18    6.52    2.64
  -1   5 -18   11.41    5.27
  -1   5 -18   13.09    2.90
   1  -5  19    3.64    1.89
  -1   5 -19    1.00    2.30
  -1   5 -19    9.91    2.29
  -1   4  17   -2.30    2.45
  -1   4  16    1.25    1.33
  -1   4  16    3.61    2.67
  -1   4  15    2.26    1.65
  -1   4  15    3.02    1.96
  -1   4  14   12.46    5.81
  -1   4  14   24.40    4.28
  -1   4  13   32.37    8.06
  -1   4  13   43.88    6.27
   1  -4 -12  117.21   13.96
  -1   4  12   93.11    9.75
  -1   4  12  112.29   11.33
   1  -4 -11  124.47   13.08
  -1   4  11  103.66   10.19
  -1   4  11  122.59   11.59
   1  -4 -10  103.16    8.11
  -1   4  10   79.33    8.06
  -1   4  10   99.31    9.66
   1  -4  -9    0.44    1.13
  -1   4   9    0.29    1.11
  -1   4   9    0.96    1.33
   1  -4  -8   41.32    3.70
   1  -4  -8   31.76    3.18
  -1   4   8   27.66    3.65
  -1   4   8   29.96    3.97
  -1   4   8   32.03    3.54
  -1   4   8   36.98    4.16
   1  -4  -7    0.84    1.06
   1  -4  -7    2.02    0.91
   1  -4  -7    0.37    1.42
  -1   4   7    0.06    0.69
  -1   4   7    0.64    1.93
  -1   4   7    0.37    0.96
  -1   4   7    1.17    1.16
  -1   4   7    1.29    1.13
   1  -4  -6    5.09    1.48
   1  -4  -6    6.48    1.31
   1  -4  -6    4.59    1.18
  -1   4   6    4.01    1.03
  -1   4   6    4.75    1.69
  -1   4   6    4.03    1.29
  -1   4   6    5.71    1.60
  -1   4   6    6.34    1.60
   1  -4  -5    3.73    0.86
   1  -4  -5    4.80    1.35
   1  -4  -5    5.70    1.90
   1  -4  -5    3.32    0.97
  -1   4   5    3.41    0.93
  -1   4   5    3.59    1.56
  -1   4   5    3.68    1.05
  -1   4   5    4.12    1.39
  -1   4   5    5.68    1.39
   1  -4  -4    3.98    1.18
   1  -4  -4    6.00    1.32
   1  -4  -4    5.16    1.00
   1  -4  -4    4.23    1.45
  -1   4   4    3.57    0.96
  -1   4   4    6.21    2.64
  -1   4   4    5.00    0.55
  -1   4   4    4.20    1.64
  -1   4   4    3.07    1.35
  -1   4   4    5.20    1.36
   1  -4  -3   37.89    1.72
   1  -4  -3   39.54    3.06
   1  -4  -3   43.61    2.49
   1  -4  -3   38.40    2.26
  -1   4   3   38.96    2.52
  -1   4   3   39.90    3.52
  -1   4   3   39.36    2.41
  -1   4   3   39.16    3.09
  -1   4   3   42.89    3.18
   1  -4  -2   79.60    3.43
   1  -4  -2   82.09    4.86
   1  -4  -2   94.05    4.18
   1  -4  -2   85.16    5.03
  -1   4   2   86.62    4.36
  -1   4   2   89.13    5.89
  -1   4   2   88.13    2.59
  -1   4   2   82.73    3.96
  -1   4   2   83.93    7.20
  -1   4   2   86.37    7.24
   1  -4  -1  655.29   32.96
   1  -4  -1  656.94   43.35
   1  -4  -1  675.59   35.64
   1  -4  -1  618.13   32.74
  -1   4   1  638.45   34.92
  -1   4   1  636.43   39.03
  -1   4   1  596.60   28.64
  -1   4   1  598.30   34.23
  -1   4   1  586.43   34.86
  -1   4   1  604.00   36.15
   1  -4   0  112.83    3.57
   1  -4   0  111.01    6.15
   1  -4   0  108.68    4.77
  -1   4   0  115.72    6.96
  -1   4   0   96.15    3.39
  -1   4   0  102.85    4.37
  -1   4   0  102.65    5.80
  -1   4   0  100.21    5.78
   1  -4   1 1927.28  152.38
   1  -4   1 1809.26  147.52
   1  -4   1 1784.27  137.64
   1  -4   1 1803.19  145.39
  -1   4  -1 1833.07  145.88
  -1   4  -1 1664.21  127.08
  -1   4  -1 1833.71  140.09
  -1   4  -1 1795.42  148.82
   1  -4   2   85.75    4.58
   1  -4   2   81.71    6.92
   1  -4   2   85.27    3.77
  -1   4  -2   92.02    4.19
  -1   4  -2   80.31    3.63
   1  -4   3  380.03   18.84
   1  -4   3  375.53   20.30
   1  -4   3  352.07   19.21
   1  -4   3  362.88   18.89
  -1   4  -3  384.55   17.81
  -1   4  -3  320.08   17.68
  -1   4  -3  389.95   19.07
  -1   4  -3  388.90   17.93
  -1   4  -3  388.44   23.16
   1  -4   4    5.57    1.31
   1  -4   4    5.98    0.97
   1  -4   4    6.18    1.41
  -1   4  -4    6.70    1.40
  -1   4  -4    5.95    1.05
  -1   4  -4    7.29    1.05
  -1   4  -4    7.41    1.26
   1  -4   5  549.66   31.10
   1  -4   5  594.40   35.28
   1  -4   5  585.36   32.80
   1  -4   5  539.11   31.02
   1  -4   5  590.62   35.31
  -1   4  -5  649.52   34.98
  -1   4  -5  605.69   33.63
  -1   4  -5  586.62   34.28
  -1   4  -5  560.13   31.87
  -1   4  -5  629.51   35.70
   1  -4   6  565.40   34.97
   1  -4   6  632.89   37.81
   1  -4   6  589.44   34.75
   1  -4   6  560.50   37.27
   1  -4   6  644.33   43.94
  -1   4  -6  612.82   33.89
  -1   4  -6  605.63   35.94
  -1   4  -6  609.69   42.27
  -1   4  -6  566.56   35.92
  -1   4  -6  642.88   37.48
   1  -4   7  460.20   25.26
   1  -4   7  490.79   28.72
   1  -4   7  475.01   31.61
   1  -4   7  457.97   31.17
   1  -4   7  492.28   29.77
  -1   4  -7  537.18   29.19
  -1   4  -7  513.61   30.14
  -1   4  -7  413.53   30.22
  -1   4  -7  530.78   30.60
   1  -4   8 1049.52   72.16
   1  -4   8 1138.59   86.35
   1  -4   8 1095.98   81.71
   1  -4   8 1013.93   76.79
   1  -4   8 1113.92   83.79
  -1   4  -8 1079.47   75.45
  -1   4  -8 1220.95   95.31
  -1   4  -8  894.41   77.02
  -1   4  -8  999.17   79.02
  -1   4  -8 1207.52   93.21
   1  -4   9  395.43   23.10
   1  -4   9  465.71   29.08
   1  -4   9  414.92   26.99
   1  -4   9  457.84   28.94
  -1   4  -9  514.70   30.92
  -1   4  -9  373.98   31.14
  -1   4  -9  329.22   27.08
  -1   4  -9  509.63   30.70
   1  -4  10  117.27    9.00
   1  -4  10  112.35    8.58
  -1   4 -10  134.93    9.28
  -1   4 -10  131.49    9.00
   1  -4  11    2.21    2.36
  -1   4 -11   -0.05    1.47
  -1   4 -11    2.96    1.44
   1  -4  12  112.43   13.37
  -1   4 -12  116.79    9.98
  -1   4 -12  134.64   14.75
   1  -4  13    4.87    2.18
  -1   4 -13    3.46    3.62
  -1   4 -13    6.08    2.43
   1  -4  14    0.54    1.86
  -1   4 -14    3.47    3.78
  -1   4 -14    3.98    2.04
   1  -4  15    1.74    1.84
  -1   4 -15    2.84    2.21
  -1   4 -15    1.16    2.05
   1  -4  16    3.30    3.68
  -1   4 -16    3.66    2.58
  -1   4 -16    3.56    3.98
   1  -4  17    1.77    1.58
  -1   4 -17   -1.58    1.82
  -1   4 -17    1.66    1.69
   1  -4  18    3.10    1.94
  -1   4 -18    1.70    4.01
   1  -4  19    5.47    2.01
  -1   4 -19    6.92    2.54
  -1   4 -19    4.95    3.68
  -1   3  18   13.60    4.15
  -1   3  17   -0.56    0.95
  -1   3  17    1.23    1.18
  -1   3  16    1.00    2.44
  -1   3  16    1.68    1.75
  -1   3  15   19.36    2.95
  -1   3  15   -0.10    3.01
  -1   3  14   -2.05    1.88
  -1   3  13   31.94    4.96
   1  -3 -12    0.39    1.48
  -1   3  12    0.08    1.27
   1  -3 -11    9.12    2.44
   1  -3 -11    8.35    1.99
   1  -3 -11   11.13    2.84
  -1   3  11    7.20    2.38
   1  -3 -10    0.77    1.21
   1  -3 -10    0.71    1.03
   1  -3 -10    0.48    1.41
  -1   3  10    0.94    1.93
   1  -3  -9    6.26    1.68
   1  -3  -9    6.03    1.52
   1  -3  -9    4.69    1.54
   1  -3  -9    4.54    1.47
   1  -3  -9    6.53    2.05
  -1   3   9    5.12    2.68
   1  -3  -8  203.81   12.26
   1  -3  -8  224.88   12.64
   1  -3  -8  233.49   14.78
   1  -3  -8  185.79   11.37
   1  -3  -8  219.53   14.37
  -1   3   8  192.58   12.92
  -1   3   8  196.27   15.41
  -1   3   8  227.34   13.25
   1  -3  -7  298.38   16.57
   1  -3  -7  316.01   17.38
   1  -3  -7  312.77   16.23
   1  -3  -7  269.30   17.78
   1  -3  -7  315.74   19.30
  -1   3   7  248.63   15.44
  -1   3   7  294.77   18.32
  -1   3   7  290.59   19.74
  -1   3   7  361.69   24.25
   1  -3  -6   52.71    3.41
   1  -3  -6   55.53    3.65
   1  -3  -6   64.26    3.50
   1  -3  -6   53.12    4.93
   1  -3  -6   54.61    4.59
  -1   3   6   52.38    6.54
  -1   3   6   59.95    3.05
  -1   3   6   51.96    5.36
  -1   3   6   62.94    4.43
   1  -3  -5  511.77   31.48
   1  -3  -5  536.46   31.08
   1  -3  -5  555.93   32.28
   1  -3  -5  543.20   29.99
   1  -3  -5  545.00   33.18
  -1   3   5  544.02   34.03
  -1   3   5  548.53   34.24
  -1   3   5  539.04   28.09
  -1   3   5  516.93   32.42
  -1   3   5  590.51   34.53
   1  -3  -4  108.65    6.47
   1  -3  -4  105.71    5.38
   1  -3  -4  116.23    4.86
   1  -3  -4  105.89    4.80
  -1   3   4  104.28    7.07
  -1   3   4  105.95    6.68
  -1   3   4  115.07    5.18
  -1   3   4  101.17    4.82
  -1   3   4  114.83    8.37
   1  -3  -3   13.03    1.05
   1  -3  -3   13.54    1.42
   1  -3  -3   11.63    1.08
   1  -3  -3   12.18    1.49
  -1   3   3   11.96    2.16
  -1   3   3   10.37    2.68
  -1   3   3   12.31    0.73
  -1   3   3   10.70    1.02
  -1   3   3   12.44    1.51
  -1   3   3   12.27    1.52
   1  -3  -2  195.59    8.98
   1  -3  -2  190.59    8.72
   1  -3  -2  206.68    8.21
   1  -3  -2  197.80    7.56
  -1   3   2  185.65    9.58
  -1   3   2  197.98   10.22
  -1   3   2  209.37    7.48
  -1   3   2  192.44    8.73
  -1   3   2  190.04    8.96
  -1   3   2  205.66   11.68
   1  -3  -1  133.57    6.16
   1  -3  -1  142.57    8.85
   1  -3  -1  133.69    5.28
   1  -3  -1  137.71    4.84
  -1   3   1  132.88    5.57
  -1   3   1  143.97    7.28
  -1   3   1  131.59    5.74
  -1   3   1  134.43    5.86
  -1   3   1  127.03    8.05
  -1   3   1  131.03    6.23
   1  -3   0 1019.16   60.22
   1  -3   0 1029.83   65.96
   1  -3   0  998.95   58.00
  -1   3   0 1048.33   63.41
  -1   3   0  981.85   58.78
  -1   3   0 1065.75   61.38
  -1   3   0 1000.72   63.09
   1  -3   1    9.23    1.06
   1  -3   1    8.89    1.27
   1  -3   1    9.02    0.66
  -1   3  -1   10.65    0.95
  -1   3  -1    8.36    0.87
  -1   3  -1    9.84    1.12
  -1   3  -1   10.14    0.66
   1  -3   2   15.21    1.22
   1  -3   2   16.07    1.58
   1  -3   2   14.73    1.63
   1  -3   2   13.14    1.34
   1  -3   2   13.33    1.46
  -1   3  -2   15.03    1.57
  -1   3  -2   13.94    1.93
  -1   3  -2   13.42    1.27
  -1   3  -2   15.12    1.46
   1  -3   3  299.29   13.02
   1  -3   3  304.79   12.29
   1  -3   3  295.83   14.60
   1  -3   3  271.01   11.70
   1  -3   3  300.86   14.06
  -1   3  -3  308.23   12.56
  -1   3  -3  275.45   12.93
  -1   3  -3  297.42   16.44
  -1   3  -3  281.64   13.11
   1  -3   4 1324.07   93.50
   1  -3   4 1562.19  107.67
   1  -3   4 1397.18  103.68
   1  -3   4 1418.04   99.63
   1  -3   4 1313.72   93.79
   1  -3   4 1400.69  107.55
  -1   3  -4 1455.13  101.79
  -1   3  -4 1422.03  108.84
  -1   3  -4 1387.62  101.52
  -1   3  -4 1448.68  104.01
   1  -3   5   40.44    2.75
   1  -3   5   39.71    2.81
   1  -3   5   38.57    2.37
   1  -3   5   36.18    2.37
   1  -3   5   40.35    2.72
  -1   3  -5   42.33    1.96
  -1   3  -5   46.60    4.04
  -1   3  -5   37.69    2.50
  -1   3  -5   40.85    3.82
   1  -3   6  163.20    8.07
   1  -3   6  189.16    9.51
   1  -3   6  181.17   11.22
   1  -3   6  166.68    8.50
   1  -3   6  182.01    9.36
  -1   3  -6  218.36   10.20
  -1   3  -6  208.97    9.89
  -1   3  -6  164.26    8.97
  -1   3  -6  170.52    8.62
  -1   3  -6  190.05    9.09
   1  -3   7   78.74    3.21
   1  -3   7   84.90    4.83
   1  -3   7   77.87    4.74
   1  -3   7   81.17    4.77
   1  -3   7   81.43    4.97
  -1   3  -7   79.53    3.46
  -1   3  -7   79.96    5.12
  -1   3  -7   68.28    4.89
  -1   3  -7   70.72    4.25
  -1   3  -7   84.38    4.76
   1  -3   8   73.54    3.15
   1  -3   8   78.22    4.62
   1  -3   8   79.13    5.28
   1  -3   8   72.95    7.31
   1  -3   8   81.81    5.52
  -1   3  -8   97.41    4.05
  -1   3  -8   90.46    5.74
  -1   3  -8   66.81    5.36
  -1   3  -8   88.78    5.35
   1  -3   9   81.27    5.08
   1  -3   9   83.27    6.27
   1  -3   9   78.57    8.30
   1  -3   9   87.43    6.11
  -1   3  -9  104.61    9.40
  -1   3  -9   76.97    6.22
  -1   3  -9   57.72    6.62
  -1   3  -9   93.21    6.06
   1  -3  10  103.12   10.89
   1  -3  10   99.09    7.62
   1  -3  10  107.25    7.89
  -1   3 -10  123.30    8.44
  -1   3 -10  102.97    8.25
  -1   3 -10  112.98    7.71
   1  -3  11   89.70    7.57
  -1   3 -11  104.98    8.15
  -1   3 -11  111.84   11.94
   1  -3  12   75.37    7.41
  -1   3 -12   87.68    7.70
  -1   3 -12   92.91    7.93
   1  -3  13    0.39    1.27
  -1   3 -13   -0.53    1.38
  -1   3 -13   -0.76    1.37
   1  -3  14    1.99    1.84
  -1   3 -14    3.37    3.79
  -1   3 -14    1.87    1.98
   1  -3  15    3.78    4.16
  -1   3 -15    6.20    2.84
   1  -3  16    1.86    1.79
  -1   3 -16    0.52    1.97
  -1   3 -16    0.73    1.85
   1  -3  17    1.23    1.79
  -1   3 -17    1.45    1.98
  -1   3 -17    1.36    1.83
   1  -3  18    1.45    1.66
  -1   3 -18    0.51    3.41
  -1   3 -18    1.17    1.66
   1  -3  19    0.71    2.29
  -1   3 -19    0.64    1.67
  -1   3 -19    0.98    1.43
  -1   2  18    0.09    1.61
  -1   2  18    0.46    1.23
   1  -2 -17    3.85    1.81
  -1   2  17    2.93    1.74
  -1   2  17    1.87    2.03
   1  -2 -16   18.96    3.77
  -1   2  16   12.67    3.30
   1  -2 -15   39.81    8.56
   1  -2 -15   42.49    6.09
  -1   2  15   31.03    5.28
   1  -2 -14    3.77    2.48
   1  -2 -14    5.44    2.64
  -1   2  14    3.27    3.73
   1  -2 -13    3.79    2.32
   1  -2 -13    3.60    2.42
  -1   2  13    4.25    3.36
   1  -2 -12    1.47    1.68
   1  -2 -12    1.29    1.77
  -1   2  12    0.98    1.48
   1  -2 -11   13.37    2.93
   1  -2 -11   16.16    3.14
  -1   2  11   10.81    2.66
   1  -2 -10   14.92    2.55
   1  -2 -10   11.76    1.75
   1  -2 -10   10.69    1.75
   1  -2 -10   12.71    2.74
  -1   2  10   10.64    2.25
   1  -2  -9   68.29    5.37
   1  -2  -9   69.47    4.22
   1  -2  -9   65.04    4.26
   1  -2  -9   56.49    4.72
   1  -2  -9   69.86    5.91
  -1   2   9   61.37    5.08
  -1   2   9   72.11    5.27
   1  -2  -8    3.47    0.90
   1  -2  -8    1.95    1.50
   1  -2  -8    1.35    1.00
  -1   2   8    2.00    0.82
  -1   2   8    1.12    1.74
  -1   2   8    3.05    1.11
  -1   2   8    3.13    1.16
   1  -2  -7 1022.24   73.10
   1  -2  -7 1001.61   67.88
   1  -2  -7 1042.04   68.65
   1  -2  -7  894.13   62.65
   1  -2  -7  997.09   72.99
  -1   2   7  873.86   60.45
  -1   2   7 1019.88   73.47
  -1   2   7 1130.31   75.27
  -1   2   7  978.28   68.75
  -1   2   7 1039.94   72.29
   1  -2  -6   11.71    1.61
   1  -2  -6   13.91    1.35
   1  -2  -6   12.54    1.18
   1  -2  -6    9.84    1.34
   1  -2  -6   12.43    1.89
  -1   2   6    7.35    1.29
  -1   2   6   10.33    1.80
  -1   2   6   10.37    1.41
  -1   2   6   12.42    1.84
   1  -2  -5  152.72    7.38
   1  -2  -5  149.43    6.68
   1  -2  -5  154.32    7.27
   1  -2  -5  154.11    8.11
   1  -2  -5  152.01    7.99
  -1   2   5  135.62    6.71
  -1   2   5  152.69   10.83
  -1   2   5  169.08    8.29
  -1   2   5  146.55    6.74
  -1   2   5  164.83    7.98
   1  -2  -4   64.37    3.18
   1  -2  -4   65.88    3.03
   1  -2  -4   68.44    2.57
   1  -2  -4   67.15    2.81
   1  -2  -4   64.64    3.64
  -1   2   4   57.51    3.10
  -1   2   4   63.08    4.07
  -1   2   4   68.07    2.63
  -1   2   4   63.97    2.85
  -1   2   4   66.18    3.50
   1  -2  -3  615.90   35.74
   1  -2  -3  628.46   33.73
   1  -2  -3  731.49   38.27
   1  -2  -3  682.96   34.10
   1  -2  -3  628.60   35.23
  -1   2   3  584.79   32.19
  -1   2   3  658.39   38.40
  -1   2   3  702.23   38.35
  -1   2   3  660.56   33.36
  -1   2   3  676.06   37.08
   1  -2  -2  167.03    6.63
   1  -2  -2  152.83    6.24
   1  -2  -2  161.66    5.78
   1  -2  -2  173.39    6.25
  -1   2   2  155.28    6.58
  -1   2   2  181.63   11.02
  -1   2   2  156.57    5.82
  -1   2   2  169.46    5.59
  -1   2   2  166.39    6.89
   1  -2  -1    1.67    0.91
   1  -2  -1    2.20    0.67
   1  -2  -1    1.67    0.38
  -1   2   1    1.10    0.58
  -1   2   1    0.97    0.76
  -1   2   1    1.41    0.50
  -1   2   1    1.32    0.42
  -1   2   1    2.02    0.60
  -1   2   1    1.65    0.62
   1  -2   0  126.04    6.12
   1  -2   0  134.89    5.74
   1  -2   0  140.69    4.23
   1  -2   0  136.06    5.48
  -1   2   0  151.58    5.66
  -1   2   0  146.65    6.33
  -1   2   0  134.41    5.23
  -1   2   0  137.53    5.46
  -1   2   0  139.19    4.21
  -1   2   0  135.67    5.32
   1  -2   1   13.20    1.79
   1  -2   1   12.02    1.36
   1  -2   1   11.23    0.75
  -1   2  -1   11.90    1.33
  -1   2  -1   11.93    1.11
  -1   2  -1   12.79    1.24
   1  -2   2 5186.43  604.48
   1  -2   2 4806.01  571.98
   1  -2   2 4798.86  547.58
   1  -2   2 4304.27  494.18
   1  -2   2 4921.08  576.64
  -1   2  -2 5348.77  612.83
  -1   2  -2 4575.39  541.47
  -1   2  -2 4584.46  544.67
  -1   2  -2 5021.67  585.71
   1  -2   3 4090.72  462.14
   1  -2   3 4426.10  507.51
   1  -2   3 4595.12  534.40
   1  -2   3 4477.19  504.07
   1  -2   3 4106.11  470.15
   1  -2   3 4664.96  533.26
  -1   2  -3 4983.46  550.95
  -1   2  -3 4760.97  551.05
  -1   2  -3 4436.10  526.37
  -1   2  -3 4718.04  537.95
   1  -2   4 4136.74  475.65
   1  -2   4 5142.68  597.90
   1  -2   4 5019.40  605.01
   1  -2   4 4734.88  557.97
   1  -2   4 4105.76  484.28
   1  -2   4 4868.78  572.47
  -1   2  -4 4803.08  545.35
  -1   2  -4 4317.75  522.92
  -1   2  -4 4571.41  547.86
  -1   2  -4 4884.02  576.33
   1  -2   5 1799.37  142.80
   1  -2   5 2107.77  178.37
   1  -2   5 2025.17  169.31
   1  -2   5 1861.45  157.45
   1  -2   5 2115.64  177.39
  -1   2  -5 2181.84  170.99
  -1   2  -5 1897.83  163.33
  -1   2  -5 1994.59  171.27
  -1   2  -5 2132.09  176.89
   1  -2   6   87.45    2.74
   1  -2   6  102.71    7.06
   1  -2   6   90.66    4.75
   1  -2   6   84.22    4.60
   1  -2   6   89.37    6.35
  -1   2  -6   99.15    3.83
  -1   2  -6  113.91    5.30
  -1   2  -6   83.35    5.05
  -1   2  -6   87.13    4.89
  -1   2  -6   97.05    6.32
   1  -2   7  168.68    7.99
   1  -2   7  152.27    8.22
   1  -2   7  147.43    7.91
   1  -2   7  148.91    9.91
  -1   2  -7  163.52    6.08
  -1   2  -7  177.15    8.80
  -1   2  -7  133.16    8.09
  -1   2  -7  150.64    8.14
  -1   2  -7  172.72    8.30
   1  -2   8   54.78    3.35
   1  -2   8   46.76    5.44
   1  -2   8   43.32    3.53
   1  -2   8   51.07    3.35
  -1   2  -8   52.11    3.87
  -1   2  -8   41.67    3.84
  -1   2  -8   44.60    3.38
  -1   2  -8   51.37    3.53
   1  -2   9    3.42    0.89
   1  -2   9    4.29    1.36
   1  -2   9    3.69    1.39
   1  -2   9    4.20    1.27
  -1   2  -9    5.60    2.39
  -1   2  -9    6.09    1.53
  -1   2  -9    3.43    1.21
  -1   2  -9    4.87    1.34
   1  -2  10   27.60    2.28
   1  -2  10   29.51    3.34
   1  -2  10   29.31    3.30
   1  -2  10   29.46    3.09
  -1   2 -10   37.62    3.53
  -1   2 -10   33.01    3.67
  -1   2 -10   22.13    2.87
  -1   2 -10   37.22    5.50
   1  -2  11    0.51    1.21
   1  -2  11    0.95    1.25
  -1   2 -11    1.98    1.28
  -1   2 -11    0.43    1.03
  -1   2 -11    0.45    1.27
   1  -2  12   82.18    8.03
  -1   2 -12   95.15    8.08
  -1   2 -12  101.84    8.21
   1  -2  13    0.70    2.34
  -1   2 -13    1.63    1.53
  -1   2 -13   -0.08    1.50
   1  -2  14   17.34    6.48
  -1   2 -14   25.12    7.55
  -1   2 -14   21.14    6.51
   1  -2  15    0.85    1.61
  -1   2 -15    0.96    1.73
  -1   2 -15   -0.23    1.60
   1  -2  16    6.39    2.74
  -1   2 -16    7.01    2.97
  -1   2 -16    5.90    2.76
   1  -2  17    2.17    1.97
  -1   2 -17    2.29    2.12
  -1   2 -17    1.48    1.96
   1  -2  18    4.25    3.61
  -1   2 -18    5.16    4.25
  -1   2 -18    2.95    3.57
   1  -2  19    4.84    2.12
  -1   2 -19    4.90    2.41
  -1   2 -19    5.57    1.98
  -1   1  19   -0.12    0.98
  -1   1  19   -0.90    1.18
   1  -1 -18   -1.43    1.65
  -1   1  18   -1.15    1.39
   1  -1 -17    4.42    4.53
   1  -1 -17    5.82    2.73
  -1   1  17    5.23    2.28
   1  -1 -16   22.53    4.96
   1  -1 -16   33.28    5.36
  -1   1  16   14.93    6.89
   1  -1 -15    4.85    2.74
   1  -1 -15    4.94    2.66
  -1   1  15    2.96    2.41
   1  -1 -14    0.50    1.78
   1  -1 -14    1.88    1.77
  -1   1  14   -0.07    1.60
   1  -1 -13    5.54    2.46
   1  -1 -13    3.94    2.42
  -1   1  13    3.28    2.09
   1  -1 -12  144.89   11.71
   1  -1 -12  138.33   16.45
  -1   1  12  120.65   10.73
   1  -1 -11    4.48    3.39
   1  -1 -11    4.50    3.21
  -1   1  11    3.66    2.83
   1  -1 -10   23.22    5.44
   1  -1 -10   24.59    3.28
  -1   1  10   18.15    4.29
  -1   1  10   21.97    2.75
   1  -1  -9   28.12    4.68
   1  -1  -9   28.03    1.90
   1  -1  -9   23.50    1.91
   1  -1  -9   30.03    3.32
  -1   1   9   21.38    3.84
  -1   1   9   26.26    2.73
  -1   1   9   33.72    4.51
   1  -1  -8   55.89    4.05
   1  -1  -8   51.85    6.14
   1  -1  -8   53.74    2.77
   1  -1  -8   55.66    2.93
   1  -1  -8   54.72    4.39
  -1   1   8   47.26    3.66
  -1   1   8   65.74    4.14
  -1   1   8   51.76    3.78
  -1   1   8   58.76    4.04
   1  -1  -7  603.16   35.19
   1  -1  -7  497.10   34.92
   1  -1  -7  498.42   26.87
   1  -1  -7  519.67   28.91
   1  -1  -7  542.84   33.03
  -1   1   7  520.35   31.41
  -1   1   7  603.18   33.67
  -1   1   7  531.86   30.90
  -1   1   7  569.47   32.96
   1  -1  -6   44.31    3.01
   1  -1  -6   41.59    4.26
   1  -1  -6   42.08    1.99
   1  -1  -6   46.94    1.91
   1  -1  -6   44.41    2.57
   1  -1  -6   44.12    3.08
  -1   1   6   43.42    4.73
  -1   1   6   48.07    3.84
  -1   1   6   40.26    2.50
  -1   1   6   43.26    2.75
   1  -1  -5   42.48    2.85
   1  -1  -5   41.65    3.88
   1  -1  -5   42.47    1.85
   1  -1  -5   50.60    2.52
   1  -1  -5   42.19    2.72
  -1   1   5   42.52    3.04
  -1   1   5   49.28    2.32
  -1   1   5   43.80    2.26
  -1   1   5   49.28    4.06
   1  -1  -4  156.77    7.44
   1  -1  -4  156.08    7.17
   1  -1  -4  154.98    5.67
   1  -1  -4  165.67    5.38
   1  -1  -4  149.98    5.75
   1  -1  -4  155.89    6.84
  -1   1   4  156.24    7.80
  -1   1   4  162.24    6.31
  -1   1   4  152.96    5.88
  -1   1   4  169.98    7.12
   1  -1  -3   20.36    2.73
   1  -1  -3   20.98    1.59
   1  -1  -3   20.81    1.64
   1  -1  -3   22.41    0.88
   1  -1  -3   19.85    0.91
   1  -1  -3   22.20    2.32
  -1   1   3   20.09    2.95
  -1   1   3   24.48    1.47
  -1   1   3   21.52    1.01
  -1   1   3   22.62    1.42
   1  -1  -2 2146.38  187.65
   1  -1  -2 2206.28  193.88
   1  -1  -2 2408.51  201.21
   1  -1  -2 2221.83  178.31
   1  -1  -2 2392.50  201.62
  -1   1   2 2211.87  194.40
  -1   1   2 2356.02  202.79
  -1   1   2 2235.62  179.35
   1  -1  -1   40.13    2.07
   1  -1  -1   39.12    2.00
   1  -1  -1   37.32    2.49
  -1   1   1   39.46    2.23
  -1   1   1   37.36    1.86
  -1   1   1   38.11    2.25
  -1   1   1   39.75    1.58
   1  -1   0 1794.38  132.35
   1  -1   0 1845.80  135.88
   1  -1   0 1785.66  131.53
   1  -1   0 1852.54  131.33
  -1   1   0 1718.81  128.21
  -1   1   0 1780.26  131.76
  -1   1   0 1777.26  129.92
  -1   1   0 1768.12  125.87
   1  -1   1    1.25    0.58
   1  -1   1    1.61    0.61
   1  -1   1    1.35    0.17
   1  -1   1    1.57    0.37
  -1   1  -1    0.96    0.63
  -1   1  -1    1.01    0.62
  -1   1  -1    1.34    0.37
   1  -1   2 3823.83  397.40
   1  -1   2 3792.05  398.62
   1  -1   2 3522.90  359.94
   1  -1   2 3618.27  369.96
  -1   1  -2 4045.57  404.13
  -1   1  -2 3662.74  385.15
  -1   1  -2 3531.21  380.70
  -1   1  -2 3476.97  352.66
  -1   1  -2 3771.22  383.74
   1  -1   3    1.90    1.06
   1  -1   3    2.85    0.86
   1  -1   3    3.94    0.96
   1  -1   3    5.69    1.02
  -1   1  -3    3.51    0.34
  -1   1  -3    2.29    1.48
  -1   1  -3    2.88    0.89
  -1   1  -3    2.99    0.56
  -1   1  -3    3.16    0.55
   1  -1   4 1828.44  132.43
   1  -1   4 1796.07  140.00
   1  -1   4 1561.58  119.33
   1  -1   4 1620.68  118.06
  -1   1  -4 1465.27   97.20
  -1   1  -4 1572.19  118.73
  -1   1  -4 1562.87  120.45
  -1   1  -4 1689.77  123.93
  -1   1  -4 1663.36  120.54
   1  -1   5   33.69    2.14
   1  -1   5   29.96    2.04
   1  -1   5   38.28    1.93
  -1   1  -5   32.44    2.31
  -1   1  -5   31.67    2.38
  -1   1  -5   34.30    2.11
  -1   1  -5   35.14    1.91
   1  -1   6  144.32    6.66
   1  -1   6  121.17    6.16
   1  -1   6  124.35    5.76
  -1   1  -6  160.64    7.03
  -1   1  -6  112.72    6.30
  -1   1  -6  124.88    6.79
  -1   1  -6  137.55    6.60
  -1   1  -6  138.12    6.18
   1  -1   7  519.42   29.85
   1  -1   7  492.03   28.23
   1  -1   7  469.75   25.97
  -1   1  -7  566.93   30.78
  -1   1  -7  365.69   23.42
  -1   1  -7  493.97   28.99
  -1   1  -7  522.98   29.41
  -1   1  -7  517.56   28.23
   1  -1   8    4.24    0.95
   1  -1   8    3.25    1.29
   1  -1   8    3.96    1.09
  -1   1  -8    3.53    1.29
  -1   1  -8    6.64    1.26
  -1   1  -8    4.47    2.08
   1  -1   9   56.62    3.48
   1  -1   9   47.49    4.26
   1  -1   9   51.18    3.77
  -1   1  -9   64.16    6.50
  -1   1  -9   49.98    4.09
  -1   1  -9   58.79    4.32
   1  -1  10    4.63    1.87
   1  -1  10    4.25    1.71
   1  -1  10    4.70    1.76
   1  -1  10    6.65    1.46
  -1   1 -10    6.53    1.66
  -1   1 -10    5.18    1.58
  -1   1 -10    5.26    1.70
   1  -1  11   10.63    1.46
   1  -1  11   11.58    3.99
  -1   1 -11   13.68    2.44
  -1   1 -11   12.95    3.61
  -1   1 -11   15.83    2.51
   1  -1  12    6.65    1.34
   1  -1  12   10.83    4.11
  -1   1 -12   10.88    2.34
  -1   1 -12   12.56    3.78
   1  -1  13    2.95    2.05
  -1   1 -13    2.30    2.93
  -1   1 -13    3.52    1.98
   1  -1  14   13.45    3.85
  -1   1 -14   22.08    4.00
  -1   1 -14   16.52    3.68
   1  -1  15    8.36    3.41
  -1   1 -15   13.28    3.47
  -1   1 -15   13.02    3.26
   1  -1  16    0.27    1.49
  -1   1 -16    1.26    1.52
  -1   1 -16   -5.34    2.44
   1  -1  17    6.78    3.89
  -1   1 -17    2.76    3.88
  -1   1 -17    3.29    2.32
   1  -1  18   12.52    3.50
  -1   1 -18   21.00    3.86
  -1   1 -18   13.06    3.19
   1  -1  19   -0.93    1.43
  -1   1 -19    1.69    1.32
  -1   1 -19    0.49    1.15
   1   0 -19    1.94    1.73
  -1   0  19    1.85    1.40
   1   0 -18   12.21    5.92
   1   0 -18   11.07    3.25
  -1   0  18    9.30    4.44
   1   0 -17   33.65    5.42
   1   0 -17   30.72    5.25
  -1   0  17   21.69    4.57
   1   0 -16   19.08    4.25
   1   0 -16   16.21    4.07
  -1   0  16   10.04    3.63
   1   0 -15   48.41    6.98
   1   0 -15   47.00    6.48
  -1   0  15   38.89    6.21
   1   0 -14    4.77    2.75
   1   0 -14    4.93    3.98
  -1   0  14    3.25    2.22
   1   0 -13    8.60    3.04
   1   0 -13    7.37    2.77
  -1   0  13    5.61    3.87
   1   0 -12   68.36   10.54
   1   0 -12   60.10    6.31
  -1   0  12   52.28    5.54
   1   0 -11    0.07    2.24
   1   0 -11    0.31    1.38
  -1   0  11    1.63    1.19
   1   0 -10  231.32   14.25
   1   0 -10  260.35   16.41
   1   0 -10  272.39   16.87
  -1   0  10  216.30   12.37
  -1   0  10  249.68   15.35
  -1   0  10  261.36   14.87
   1   0  -9  152.02    9.16
   1   0  -9  157.90   10.01
   1   0  -9  165.91   10.04
  -1   0   9  138.43    7.79
  -1   0   9  157.18    9.38
  -1   0   9  163.08    8.86
   1   0  -8  141.50   10.68
   1   0  -8  121.93    7.60
   1   0  -8  116.87    5.78
   1   0  -8  130.58    7.66
  -1   0   8  111.71    7.89
  -1   0   8  146.69    7.68
  -1   0   8  127.16    9.41
  -1   0   8  129.75    8.97
   1   0  -7  518.62   29.60
   1   0  -7  411.52   24.66
   1   0  -7  372.24   17.79
   1   0  -7  439.40   21.35
   1   0  -7  476.50   30.55
  -1   0   7  509.87   31.03
  -1   0   7  506.81   27.11
  -1   0   7  470.08   25.72
  -1   0   7  481.19   28.96
   1   0  -6   32.60    2.60
   1   0  -6   27.80    2.43
   1   0  -6   29.28    1.07
   1   0  -6   32.59    1.19
   1   0  -6   32.19    3.62
  -1   0   6   30.07    2.44
  -1   0   6   35.65    3.31
  -1   0   6   31.90    2.09
  -1   0   6   30.72    2.07
   1   0  -5   50.02    3.18
   1   0  -5   44.84    2.84
   1   0  -5   46.46    1.79
   1   0  -5   47.96    1.34
   1   0  -5   46.88    3.89
  -1   0   5   48.59    2.98
  -1   0   5   55.63    2.57
  -1   0   5   51.66    2.46
  -1   0   5   49.55    2.38
   1   0  -4  154.36    9.61
   1   0  -4  141.71    8.33
   1   0  -4  156.79    5.31
   1   0  -4  151.59    4.52
   1   0  -4  153.49    7.75
  -1   0   4  154.56    7.14
  -1   0   4  152.95    6.13
  -1   0   4  160.61    7.12
  -1   0   4  146.40    5.67
   1   0  -3  370.36   21.46
   1   0  -3  375.16   17.82
   1   0  -3  346.27   14.12
   1   0  -3  391.29   14.03
   1   0  -3  372.46   16.14
  -1   0   3  350.19   17.32
  -1   0   3  424.51   18.89
  -1   0   3  411.25   16.77
  -1   0   3  346.21   16.23
   1   0  -2  296.67   13.25
   1   0  -2  266.57   11.72
   1   0  -2  270.49   10.61
   1   0  -2  291.29   10.43
   1   0  -2  279.62   10.43
  -1   0   2  260.76   11.86
  -1   0   2  271.12   11.49
  -1   0   2  308.54   11.32
  -1   0   2  287.63   10.65
   1   0  -1 2550.48  233.73
   1   0  -1 2940.30  265.19
   1   0  -1 2716.39  238.73
   1   0  -1 2647.97  227.79
   1   0  -1 2703.09  232.12
  -1   0   1 2523.25  234.14
  -1   0   1 2898.56  259.85
  -1   0   1 2830.94  248.07
  -1   0   1 2779.57  240.13
  -1   0   1 2776.88  239.48
   1   0   0   44.37    1.91
   1   0   0   43.71    2.06
   1   0   0   43.67    1.71
   1   0   0   46.46    1.23
  -1   0   0   43.18    1.67
  -1   0   0   45.45    2.01
  -1   0   0   45.51    1.69
  -1   0   0   47.28    1.23
  -1   0   0   46.40    1.14
   1   0   1   29.58    1.79
   1   0   1   26.68    1.52
   1   0   1   27.28    1.55
   1   0   1   26.76    1.58
   1   0   1   27.35    0.91
  -1   0  -1   28.17    1.11
  -1   0  -1   26.67    1.54
  -1   0  -1   27.16    2.55
  -1   0  -1   27.66    1.42
  -1   0  -1   26.46    0.84
   1   0   2 7651.03 1181.75
   1   0   2 9999.00 1569.12
   1   0   2 8885.72 1403.05
   1   0   2 8989.58 1411.24
   1   0   2 9240.90 1423.41
  -1   0  -2 8831.73 1353.47
  -1   0  -2 9029.11 1428.94
  -1   0  -2 8941.73 1419.32
  -1   0  -2 9273.87 1451.37
  -1   0  -2 8989.27 1391.99
   1   0   3  143.34    6.80
   1   0   3  152.25    6.63
   1   0   3  155.29    7.96
   1   0   3  155.15    6.23
  -1   0  -3  167.55    6.82
  -1   0  -3  140.19    6.72
  -1   0  -3  167.42    6.53
  -1   0  -3  147.22    5.17
   1   0   4 2726.43  240.30
   1   0   4 2695.75  244.07
   1   0   4 2311.54  215.05
   1   0   4 2306.17  205.78
  -1   0  -4 2348.94  218.30
  -1   0  -4 2771.03  248.58
  -1   0  -4 2450.87  219.90
   1   0   5   68.45    4.61
   1   0   5   63.45    5.11
   1   0   5   65.73    2.87
  -1   0  -5   69.10    4.03
  -1   0  -5   79.23    4.04
  -1   0  -5   81.70    3.59
   1   0   6    0.46    0.54
   1   0   6    0.59    1.06
  -1   0  -6   -0.14    0.55
  -1   0  -6   -0.06    0.68
  -1   0  -6    0.43    1.05
  -1   0  -6    0.32    0.56
   1   0   7   53.16    2.98
   1   0   7   42.62    5.08
   1   0   7   43.54    3.79
  -1   0  -7   47.69    3.13
  -1   0  -7   42.98    3.43
  -1   0  -7   46.48    3.55
  -1   0  -7   49.33    3.20
   1   0   8  378.44   19.49
   1   0   8  315.33   23.77
   1   0   8  300.20   18.92
  -1   0  -8  366.84   22.69
  -1   0  -8  307.38   22.40
  -1   0  -8  321.93   19.21
  -1   0  -8  331.14   18.81
   1   0   9  103.63    7.11
   1   0   9   99.68   10.28
   1   0   9   98.70    8.28
  -1   0  -9  115.18    6.79
  -1   0  -9  101.90    9.93
  -1   0  -9   99.77    7.16
  -1   0  -9  108.41    9.27
   1   0  10   65.06    3.96
   1   0  10   56.07    5.63
   1   0  10   59.56    4.55
  -1   0 -10   66.99    4.91
  -1   0 -10   58.62    5.22
  -1   0 -10   58.11    5.37
  -1   0 -10   63.94    7.66
   1   0  11   69.71    4.56
   1   0  11   68.71    6.73
  -1   0 -11   78.31    6.06
  -1   0 -11   70.52    6.47
  -1   0 -11   79.01    6.52
   1   0  12    4.93    2.14
   1   0  12    6.13    2.40
  -1   0 -12    6.93    3.16
  -1   0 -12    7.88    2.22
   1   0  13    0.61    1.76
  -1   0 -13    2.63    2.83
  -1   0 -13    1.30    1.59
   1   0  14   -0.18    1.57
  -1   0 -14    1.88    1.51
  -1   0 -14   -0.44    1.42
   1   0  15    0.30    4.64
  -1   0 -15    6.86    2.76
  -1   0 -15   13.46    4.56
   1   0  16   22.66    6.11
  -1   0 -16   13.59    3.46
  -1   0 -16   10.30    3.46
   1   0  17    7.78    3.11
  -1   0 -17   12.35    3.09
  -1   0 -17    7.98    2.68
   1   0  18    7.50    2.76
  -1   0 -18   10.18    2.46
  -1   0 -18    7.10    2.28
   1   0  19   18.79    2.91
   1   0  19    8.57    1.91
   1   1 -19    1.91    2.12
   1   1 -19    2.89    1.83
  -1  -1  19    1.74    2.67
   1   1 -18    3.12    3.93
   1   1 -18    2.37    2.20
  -1  -1  18    3.38    1.99
   1   1 -17   63.45    8.33
   1   1 -17   59.12    7.80
  -1  -1  17   50.37    7.20
   1   1 -16   34.26    6.11
   1   1 -16   30.12    8.68
  -1  -1  16   25.66    5.07
   1   1 -15  230.04   21.00
   1   1 -15  219.40   19.41
  -1  -1  15  193.46   23.44
   1   1 -14  201.61   18.20
   1   1 -14  193.21   16.55
  -1  -1  14  172.46   15.25
   1   1 -13   53.96   10.45
   1   1 -13   49.61    5.82
  -1  -1  13   38.69    5.26
   1   1 -12    0.09    2.34
   1   1 -12    1.42    1.34
  -1  -1  12   -0.27    1.21
   1   1 -11   70.08    6.55
   1   1 -11   74.46    6.43
  -1  -1  11   65.53    8.41
   1   1 -10    9.01    1.97
   1   1 -10   13.54    2.37
   1   1 -10   13.82    3.53
  -1  -1  10    7.46    1.20
  -1  -1  10   12.00    3.16
  -1  -1  10   11.58    1.82
   1   1  -9    4.86    1.43
   1   1  -9    3.96    1.63
   1   1  -9    5.58    2.33
  -1  -1   9    3.54    1.71
  -1  -1   9    4.61    1.36
  -1  -1   9    4.62    1.20
   1   1  -8   61.79    6.53
   1   1  -8   57.33    4.39
   1   1  -8   59.60    4.11
  -1  -1   8   60.17    3.63
  -1  -1   8   70.42    4.23
  -1  -1   8   60.04    4.08
  -1  -1   8   58.19    3.59
   1   1  -7   21.36    3.66
   1   1  -7   17.63    2.20
   1   1  -7   20.20    1.93
  -1  -1   7   19.15    1.71
  -1  -1   7   21.73    1.95
  -1  -1   7   20.08    3.07
  -1  -1   7   19.66    1.66
   1   1  -6   16.28    1.91
   1   1  -6   14.84    1.73
   1   1  -6   15.12    1.46
  -1  -1   6   14.34    1.41
  -1  -1   6   16.38    1.48
  -1  -1   6   14.50    1.45
  -1  -1   6   13.53    1.23
   1   1  -5   24.12    2.32
   1   1  -5   23.01    1.96
   1   1  -5   25.00    1.61
  -1  -1   5   23.38    1.74
  -1  -1   5   29.01    1.70
  -1  -1   5   26.72    1.68
  -1  -1   5   22.78    1.36
   1   1  -4   73.64    5.99
   1   1  -4   65.14    4.67
   1   1  -4   67.57    2.72
  -1  -1   4   64.99    3.18
  -1  -1   4   75.83    3.07
  -1  -1   4   64.81    2.43
   1   1  -3   42.80    2.64
   1   1  -3   43.10    2.36
   1   1  -3   48.64    2.01
   1   1  -3   43.97    2.28
  -1  -1   3   39.03    2.19
  -1  -1   3   42.07    2.71
  -1  -1   3   40.52    1.41
   1   1  -2  308.35   14.34
   1   1  -2  297.50   13.10
   1   1  -2  282.76    9.56
   1   1  -2  314.87   12.80
   1   1  -2  301.73   11.87
  -1  -1   2  297.79   13.11
  -1  -1   2  332.53   13.53
  -1  -1   2  328.13   11.51
  -1  -1   2  314.62   12.71
  -1  -1   2  312.14   11.74
   1   1  -1 2205.65  181.29
   1   1  -1 2221.08  179.69
   1   1  -1 1739.28  137.37
   1   1  -1 2259.67  179.43
   1   1  -1 1790.19  135.06
  -1  -1   1 2230.20  179.67
  -1  -1   1 2309.42  184.33
  -1  -1   1 2081.58  164.03
  -1  -1   1 2331.00  184.70
  -1  -1   1 2150.81  160.77
   1   1   0  928.64   54.17
   1   1   0  929.28   53.47
   1   1   0  777.36   45.45
   1   1   0  973.90   55.21
  -1  -1   0 1099.66   62.92
  -1  -1   0  922.08   52.87
  -1  -1   0  928.53   54.97
  -1  -1   0 1005.16   56.42
   1   1   1   84.90    4.23
   1   1   1   88.27    3.21
   1   1   1   75.14    2.95
   1   1   1   84.56    3.52
   1   1   1   78.45    1.94
  -1  -1  -1   94.85    2.70
  -1  -1  -1   82.63    3.31
  -1  -1  -1   71.49    4.22
  -1  -1  -1   89.36    3.54
   1   1   2 4163.45  509.49
   1   1   2 6163.19  749.15
   1   1   2 5087.33  627.97
   1   1   2 5594.58  693.29
   1   1   2 4661.87  560.24
  -1  -1  -2 5680.98  673.50
  -1  -1  -2 5546.22  686.38
  -1  -1  -2 4717.46  598.35
  -1  -1  -2 6084.29  758.07
  -1  -1  -2 4834.68  581.28
   1   1   3 1679.46  119.42
   1   1   3 1683.26  121.47
   1   1   3 1613.07  121.34
   1   1   3 1649.84  130.52
   1   1   3 1526.98  111.56
  -1  -1  -3 1841.88  124.68
  -1  -1  -3 1598.26  119.75
  -1  -1  -3 1402.12  114.16
  -1  -1  -3 1727.03  130.89
  -1  -1  -3 1640.61  118.71
   1   1   4  495.58   21.08
   1   1   4  540.65   22.16
   1   1   4  528.88   27.14
   1   1   4  483.35   26.39
   1   1   4  441.00   22.99
  -1  -1  -4  498.19   31.97
  -1  -1  -4  549.49   31.97
  -1  -1  -4  520.13   27.76
   1   1   5  835.68   50.33
   1   1   5  718.98   46.41
   1   1   5  703.57   40.99
  -1  -1  -5  931.90   53.15
  -1  -1  -5  770.99   50.22
  -1  -1  -5  824.34   51.37
  -1  -1  -5  779.25   46.78
   1   1   6   83.32    6.08
   1   1   6   66.17    4.65
   1   1   6   68.31    3.32
  -1  -1  -6   75.30    3.82
  -1  -1  -6   72.41    4.95
  -1  -1  -6   76.60    4.90
  -1  -1  -6   74.29    4.07
   1   1   7  449.72   26.81
   1   1   7  395.47   25.35
   1   1   7  399.40   21.61
  -1  -1  -7  470.81   27.73
  -1  -1  -7  430.07   26.80
  -1  -1  -7  461.49   28.05
  -1  -1  -7  445.39   25.41
   1   1   8   23.19    1.99
   1   1   8   20.39    2.83
   1   1   8   19.19    1.91
  -1  -1  -8   25.25    2.15
  -1  -1  -8   21.07    2.80
  -1  -1  -8   19.63    4.23
  -1  -1  -8   20.61    2.32
   1   1   9  132.10    7.05
   1   1   9  114.22    8.78
   1   1   9  113.07    6.65
  -1  -1  -9  130.14    7.46
  -1  -1  -9  122.48    8.57
  -1  -1  -9  119.23    8.49
  -1  -1  -9  120.51    8.01
   1   1  10    3.63    1.15
   1   1  10    4.50    1.80
   1   1  10    3.57    1.96
  -1  -1 -10    3.59    1.34
  -1  -1 -10    4.65    2.78
  -1  -1 -10    3.93    1.56
   1   1  11   74.94    6.91
   1   1  11   65.81    6.94
  -1  -1 -11   67.82    7.77
  -1  -1 -11   69.17    6.35
   1   1  12    7.94    2.82
   1   1  12    9.12    2.84
  -1  -1 -12   11.55    4.13
  -1  -1 -12   10.17    4.02
   1   1  13    8.02    4.60
  -1  -1 -13    5.84    2.48
  -1  -1 -13   13.91    4.23
   1   1  14    4.54    3.58
  -1  -1 -14    2.43    1.87
  -1  -1 -14    1.58    1.96
   1   1  15    8.30    3.20
  -1  -1 -15    9.36    4.37
  -1  -1 -15    8.03    2.76
   1   1  16    1.91    1.93
  -1  -1 -16    0.50    1.75
  -1  -1 -16    1.95    1.64
   1   1  17    1.68    1.60
  -1  -1 -17    0.20    1.31
   1   1  18    1.62    2.36
   1   1  18    0.57    0.94
   1   2 -20    2.10    1.69
  -1  -2  20    0.34    2.07
   1   2 -19   10.56    5.32
   1   2 -19    9.12    2.59
  -1  -2  19    7.12    2.37
   1   2 -18    4.77    2.73
   1   2 -18    4.25    2.29
  -1  -2  18    3.27    2.18
   1   2 -17   29.67    5.59
   1   2 -17   25.76    7.64
  -1  -2  17   20.78    4.62
   1   2 -16    5.64    3.23
   1   2 -16    4.43    2.69
  -1  -2  16    5.41    4.05
   1   2 -15  152.10   15.21
   1   2 -15  143.52   13.81
  -1  -2  15  132.55   12.98
   1   2 -14    7.08    3.18
   1   2 -14    5.32    2.62
  -1  -2  14    4.15    2.43
   1   2 -13   30.32    8.50
   1   2 -13   30.10    4.46
  -1  -2  13   25.02    4.07
   1   2 -12  128.03   15.31
   1   2 -12  134.21   14.68
  -1  -2  12  128.22   14.14
   1   2 -11    8.55    2.28
   1   2 -11   12.26    2.62
   1   2 -11   10.72    2.29
  -1  -2  11    8.12    2.21
  -1  -2  11   10.33    2.26
   1   2 -10  113.27   11.45
   1   2 -10  108.69    8.37
   1   2 -10  136.00    7.45
   1   2 -10  117.00    7.87
  -1  -2  10  109.38    6.07
  -1  -2  10  112.88    8.06
  -1  -2  10  115.36    7.34
   1   2  -9    7.61    1.89
   1   2  -9    7.72    1.91
   1   2  -9    9.05    1.68
  -1  -2   9    6.83    1.14
  -1  -2   9    8.70    1.70
  -1  -2   9    8.00    1.49
   1   2  -8  195.12   11.70
   1   2  -8  158.90    9.98
   1   2  -8  189.72   10.20
  -1  -2   8  173.78    8.66
  -1  -2   8  217.53   10.77
  -1  -2   8  183.24   10.07
  -1  -2   8  184.38    9.53
   1   2  -7  394.86   22.76
   1   2  -7  309.42   18.19
   1   2  -7  383.21   23.03
  -1  -2   7  343.81   17.66
  -1  -2   7  391.07   20.02
  -1  -2   7  362.81   19.60
  -1  -2   7  359.70   18.47
   1   2  -6   82.68    7.34
   1   2  -6   77.59    4.54
   1   2  -6   78.08    5.12
  -1  -2   6   75.77    3.86
  -1  -2   6   89.04    4.21
  -1  -2   6   89.80    4.62
  -1  -2   6   84.27    3.89
   1   2  -5  317.08   16.62
   1   2  -5  282.49   13.96
   1   2  -5  323.96   15.35
   1   2  -5  286.74   12.78
  -1  -2   5  277.89   13.09
  -1  -2   5  328.45   16.43
  -1  -2   5  310.36   13.49
   1   2  -4 1544.09  117.55
   1   2  -4 1504.04  115.43
   1   2  -4 1538.51  112.36
   1   2  -4 1416.81   99.82
  -1  -2   4 1352.43   99.02
  -1  -2   4 1635.58  115.26
  -1  -2   4 1440.80  101.27
   1   2  -3   33.60    3.79
   1   2  -3   27.93    1.76
   1   2  -3   31.51    1.89
   1   2  -3   30.24    1.67
  -1  -2   3   29.77    1.70
  -1  -2   3   30.27    1.36
  -1  -2   3   31.54    1.07
  -1  -2   3   29.57    1.89
  -1  -2   3   30.75    1.81
   1   2  -2  177.17    8.01
   1   2  -2  175.36    8.40
   1   2  -2  201.35    6.61
   1   2  -2  196.83    9.94
   1   2  -2  184.06    5.91
  -1  -2   2  194.92    7.82
  -1  -2   2  233.96    9.16
  -1  -2   2  190.11    6.36
  -1  -2   2  198.33    8.30
  -1  -2   2  194.19    7.12
   1   2  -1    0.49    0.51
   1   2  -1    0.82    0.60
   1   2  -1    0.23    0.24
   1   2  -1   -0.23    0.50
  -1  -2   1    0.22    0.41
  -1  -2   1    0.04    0.28
  -1  -2   1    0.86    0.32
  -1  -2   1    0.71    0.31
   1   2   0   28.68    1.66
   1   2   0   28.61    1.65
   1   2   0   28.73    1.18
   1   2   0   31.18    1.88
   1   2   0   30.12    0.77
   1   2   0   29.04    1.09
  -1  -2   0   31.65    1.83
  -1  -2   0   31.62    1.20
  -1  -2   0   25.71    1.34
  -1  -2   0   31.65    1.84
   1   2   1    2.13    0.55
   1   2   1    2.00    0.48
   1   2   1    1.98    0.73
   1   2   1    1.83    0.43
  -1  -2  -1    2.52    0.38
  -1  -2  -1    2.01    0.43
  -1  -2  -1    2.09    0.60
  -1  -2  -1    1.56    1.19
   1   2   2    1.44    0.47
   1   2   2    1.57    0.44
   1   2   2    1.11    0.87
   1   2   2    1.61    0.77
   1   2   2    1.68    0.54
  -1  -2  -2    2.22    0.57
  -1  -2  -2    1.64    0.46
  -1  -2  -2    1.60    0.72
  -1  -2  -2    1.44    0.75
   1   2   3   22.41    1.69
   1   2   3   24.17    1.56
   1   2   3   24.34    2.15
   1   2   3   22.07    1.10
  -1  -2  -3   28.05    1.41
  -1  -2  -3   22.93    2.05
  -1  -2  -3   25.98    3.23
  -1  -2  -3   24.05    1.31
   1   2   4   47.36    2.39
   1   2   4   50.23    2.75
   1   2   4   48.99    3.41
   1   2   4   46.82    2.10
  -1  -2  -4   51.11    1.79
  -1  -2  -4   55.49    2.17
  -1  -2  -4   48.29    3.39
  -1  -2  -4   53.49    3.45
  -1  -2  -4   47.96    2.46
   1   2   5  349.61   17.09
   1   2   5  321.87   18.35
   1   2   5  314.59   14.94
  -1  -2  -5  347.57   15.65
  -1  -2  -5  317.63   17.96
  -1  -2  -5  356.46   22.87
  -1  -2  -5  322.78   18.47
   1   2   6 1172.62   80.61
   1   2   6 1018.33   84.13
   1   2   6 1076.70   76.18
  -1  -2  -6 1167.80   80.77
  -1  -2  -6 1043.01   83.54
  -1  -2  -6 1154.04   85.17
  -1  -2  -6 1044.48   77.87
   1   2   7   97.23    5.14
   1   2   7   79.09    8.83
   1   2   7   77.47    4.27
  -1  -2  -7   86.58    4.45
  -1  -2  -7   94.36    9.57
  -1  -2  -7   90.37    6.28
  -1  -2  -7   80.49    7.07
   1   2   8   40.77    2.84
   1   2   8   29.94    5.78
   1   2   8   29.69    2.51
  -1  -2  -8   33.00    2.52
  -1  -2  -8   37.93    3.96
  -1  -2  -8   37.10    3.74
  -1  -2  -8   32.85    4.62
   1   2   9   10.76    1.51
   1   2   9    8.13    3.51
   1   2   9    5.53    1.33
  -1  -2  -9    6.31    1.37
  -1  -2  -9    8.37    2.27
  -1  -2  -9    6.51    2.82
   1   2  10   22.91    3.42
   1   2  10   10.00    4.74
  -1  -2 -10   10.04    3.68
  -1  -2 -10   10.06    2.48
   1   2  11   87.08    6.22
   1   2  11   72.79    7.81
  -1  -2 -11   73.94    6.28
  -1  -2 -11   70.68    6.89
   1   2  12   -0.30    0.93
   1   2  12    0.32    1.46
  -1  -2 -12   -0.55    1.24
   1   2  13   75.32    6.16
   1   2  13   82.59    8.99
  -1  -2 -13   74.77    7.93
   1   2  14    3.35    2.34
  -1  -2 -14    2.33    1.95
   1   2  15    3.85    2.54
   1   2  16   15.86    3.08
   1   2  16    5.57    2.17
   1   2  17    1.34    2.55
   1   2  17    0.71    0.96
   1   2  18    4.43    1.88
   1   3 -19    2.51    4.09
   1   3 -19    3.01    1.87
  -1  -3  19    3.89    1.86
   1   3 -18    1.88    1.58
   1   3 -18   -0.41    2.17
  -1  -3  18   -1.37    1.32
   1   3 -17    0.62    1.92
   1   3 -17    1.02    1.57
  -1  -3  17   -0.95    2.52
   1   3 -16    1.12    2.14
   1   3 -16    2.15    1.73
  -1  -3  16   -0.61    1.65
   1   3 -15    7.28    3.08
   1   3 -15    3.87    2.55
  -1  -3  15    4.13    2.49
   1   3 -14   36.18    6.12
   1   3 -14   35.61    5.45
  -1  -3  14   32.60    5.11
   1   3 -13   19.01    6.57
   1   3 -13   12.63    5.30
  -1  -3  13   16.14    5.26
   1   3 -12    4.38    3.39
   1   3 -12    4.06    1.87
  -1  -3  12    3.30    1.93
   1   3 -11   60.29    8.80
   1   3 -11   58.84    8.53
   1   3 -11   62.29    5.30
  -1  -3  11   51.78    3.48
  -1  -3  11   57.67    5.51
   1   3 -10   18.10    3.07
   1   3 -10   15.36    2.91
   1   3 -10   20.85    2.23
   1   3 -10   17.93    2.57
  -1  -3  10   14.44    2.51
  -1  -3  10   20.15    4.42
  -1  -3  10   15.02    2.29
   1   3  -9    2.40    1.52
   1   3  -9    1.09    1.37
   1   3  -9    2.94    0.99
   1   3  -9    1.55    1.18
  -1  -3   9    1.94    1.51
  -1  -3   9    4.01    1.26
  -1  -3   9    1.43    1.03
   1   3  -8  167.33   14.18
   1   3  -8  126.40    8.37
   1   3  -8  137.94    9.94
  -1  -3   8  160.61   10.13
  -1  -3   8  149.27    8.84
  -1  -3   8  142.94   10.05
   1   3  -7  110.76    7.30
   1   3  -7   88.70    5.82
   1   3  -7   97.35    5.30
  -1  -3   7  111.61    5.76
  -1  -3   7  124.95    6.00
  -1  -3   7  112.24    6.47
  -1  -3   7   99.90    7.13
   1   3  -6 1911.49  166.32
   1   3  -6 1546.62  137.26
   1   3  -6 1901.79  160.48
   1   3  -6 1686.65  137.77
  -1  -3   6 1885.68  154.94
  -1  -3   6 1914.60  155.34
  -1  -3   6 1713.11  146.49
  -1  -3   6 1840.37  154.17
   1   3  -5    4.40    1.37
   1   3  -5    3.51    1.60
   1   3  -5    2.88    1.11
   1   3  -5    3.64    0.70
  -1  -3   5    3.10    0.94
  -1  -3   5    2.95    0.73
  -1  -3   5    3.05    1.09
  -1  -3   5    3.35    0.74
   1   3  -4   -0.07    0.50
   1   3  -4    0.55    1.04
   1   3  -4    0.70    0.55
  -1  -3   4    0.12    0.91
  -1  -3   4    0.16    0.17
  -1  -3   4    0.24    0.15
  -1  -3   4   -0.09    1.02
  -1  -3   4   -0.09    0.38
   1   3  -3   15.59    1.71
   1   3  -3   15.24    1.12
   1   3  -3   16.19    1.61
   1   3  -3   15.52    0.82
  -1  -3   3   14.22    1.93
  -1  -3   3   16.19    0.76
  -1  -3   3   16.28    0.99
   1   3  -2  467.68   24.74
   1   3  -2  448.02   21.28
   1   3  -2  458.73   20.16
   1   3  -2  484.80   22.42
  -1  -3   2  506.33   24.06
  -1  -3   2  488.64   21.12
  -1  -3   2  510.07   26.51
  -1  -3   2  479.51   23.06
   1   3  -1   39.85    2.50
   1   3  -1   38.04    1.39
   1   3  -1   40.26    1.53
   1   3  -1   38.69    1.31
  -1  -3   1   48.37    2.02
  -1  -3   1   38.55    1.08
   1   3   0  481.73   24.55
   1   3   0  426.29   18.44
   1   3   0  462.19   23.14
   1   3   0  482.28   28.92
   1   3   0  459.44   20.33
   1   3   0  461.31   21.93
  -1  -3   0  507.33   23.65
  -1  -3   0  504.04   21.33
  -1  -3   0  521.15   27.37
   1   3   1  207.79   11.55
   1   3   1  212.57    8.84
   1   3   1  215.69   10.95
   1   3   1  208.26    7.98
   1   3   1  212.66    8.12
  -1  -3  -1  245.12   10.99
  -1  -3  -1  219.68    7.80
  -1  -3  -1  224.60   11.04
   1   3   2   92.38    5.68
   1   3   2   96.77    4.21
   1   3   2   94.32    5.55
   1   3   2   87.83    4.43
   1   3   2   96.70    3.63
  -1  -3  -2  108.62    4.01
  -1  -3  -2   95.70    3.66
  -1  -3  -2   92.04    4.99
  -1  -3  -2  103.19    5.56
   1   3   3   38.17    2.87
   1   3   3   52.37    2.87
   1   3   3   51.12    5.95
   1   3   3   46.68    2.39
   1   3   3   50.97    2.37
  -1  -3  -3   61.07    3.60
  -1  -3  -3   50.43    2.00
  -1  -3  -3   49.91    2.62
  -1  -3  -3   53.87    3.64
  -1  -3  -3   53.80    5.89
   1   3   4  385.26   21.16
   1   3   4  437.40   22.60
   1   3   4  405.87   24.36
   1   3   4  377.41   19.61
   1   3   4  382.43   20.55
  -1  -3  -4  442.96   20.92
  -1  -3  -4  425.31   24.14
  -1  -3  -4  444.15   25.49
   1   3   5  136.63    7.61
   1   3   5  167.78    7.31
   1   3   5  176.06    8.60
   1   3   5  165.38   10.05
   1   3   5  151.63    7.08
  -1  -3  -5  175.73    9.96
  -1  -3  -5  185.35   10.75
   1   3   6   16.15    2.61
   1   3   6   13.84    2.18
   1   3   6   11.74    1.30
  -1  -3  -6   10.30    0.99
  -1  -3  -6   13.04    2.14
  -1  -3  -6   14.35    3.36
   1   3   7    8.65    2.27
   1   3   7    7.25    1.91
  -1  -3  -7    7.38    3.03
  -1  -3  -7    5.61    1.83
  -1  -3  -7    5.43    1.38
   1   3   8   12.87    2.79
   1   3   8    9.40    2.35
   1   3   8    7.24    1.37
  -1  -3  -8    8.98    1.79
   1   3   9   10.85    1.84
   1   3   9    8.19    2.51
  -1  -3  -9    5.61    1.98
   1   3  10   -0.53    0.89
   1   3  10    0.92    1.32
  -1  -3 -10    0.64    1.02
   1   3  11   41.37    4.14
   1   3  11   35.95    5.71
   1   3  12    1.98    1.41
   1   3  12    2.89    2.18
   1   3  13    1.70    2.07
   1   3  13    1.41    1.50
   1   3  14   10.84    3.12
   1   3  14    0.42    1.32
  -1  -3 -14   -0.37    1.42
   1   3  15   -2.11    2.46
  -1  -3 -15    0.06    1.01
   1   3  16   -2.06    1.84
   1   3  17   -0.37    1.35
   1   4 -19    0.89    1.51
   1   4 -19   -0.39    1.14
  -1  -4  19   -0.79    1.18
   1   4 -18   -0.20    3.32
   1   4 -18   -2.34    2.71
   1   4 -17    3.34    2.08
   1   4 -17    0.83    1.74
  -1  -4  17    0.17    1.71
   1   4 -16   -0.62    1.79
   1   4 -16    0.16    1.46
  -1  -4  16   -0.45    1.48
   1   4 -15   25.72    5.32
   1   4 -15   24.04    4.52
  -1  -4  15   24.36    4.53
   1   4 -14    0.89    2.02
  -1  -4  14    1.07    2.82
   1   4 -13    6.46    2.87
   1   4 -13    5.39    2.32
  -1  -4  13    6.22    2.48
   1   4 -12    3.07    3.70
   1   4 -12    5.44    3.96
   1   4 -12    4.12    1.98
  -1  -4  12    4.96    2.12
   1   4 -11    6.33    2.40
   1   4 -11    5.82    3.85
   1   4 -11    4.64    1.92
  -1  -4  11    8.10    3.49
   1   4 -10    1.40    1.47
   1   4 -10   -0.06    1.96
   1   4 -10    0.69    1.10
  -1  -4  10    0.92    0.75
  -1  -4  10   -0.22    1.24
   1   4  -9  192.56   17.68
   1   4  -9  154.62   14.54
   1   4  -9  190.65   10.18
   1   4  -9  174.39   13.28
  -1  -4   9  191.18   10.03
  -1  -4   9  188.63   12.39
  -1  -4   9  175.04   12.16
  -1  -4   9  184.03   11.26
   1   4  -8  329.00   21.64
   1   4  -8  258.87   20.63
   1   4  -8  334.57   17.20
   1   4  -8  301.87   17.04
  -1  -4   8  317.29   16.90
  -1  -4   8  329.79   19.84
  -1  -4   8  293.99   18.83
  -1  -4   8  307.76   17.64
   1   4  -7  318.56   20.13
   1   4  -7  286.02   20.48
   1   4  -7  312.17   15.02
   1   4  -7  282.45   15.00
  -1  -4   7  280.44   14.84
  -1  -4   7  280.44   17.11
  -1  -4   7  289.12   15.65
   1   4  -6  225.59   13.90
   1   4  -6  195.05   10.59
   1   4  -6  217.78   12.29
   1   4  -6  201.51    9.76
  -1  -4   6  197.59   10.00
  -1  -4   6  200.42   15.16
  -1  -4   6  197.82   12.18
   1   4  -5   17.42    3.50
   1   4  -5   16.19    1.57
   1   4  -5   17.29    2.24
   1   4  -5   15.69    1.97
  -1  -4   5   19.06    1.62
  -1  -4   5   15.84    0.68
  -1  -4   5   15.85    0.59
  -1  -4   5   16.57    2.23
  -1  -4   5   15.32    2.39
   1   4  -4  400.42   22.93
   1   4  -4  379.05   19.02
   1   4  -4  446.75   23.98
   1   4  -4  393.77   18.57
  -1  -4   4  424.51   21.38
  -1  -4   4  420.03   18.77
  -1  -4   4  439.80   24.28
  -1  -4   4  426.32   20.88
   1   4  -3    4.35    1.32
   1   4  -3    3.75    0.66
   1   4  -3    6.81    1.36
   1   4  -3    4.37    0.62
  -1  -4   3    4.78    0.96
  -1  -4   3    4.81    0.64
  -1  -4   3    6.52    1.39
  -1  -4   3    3.77    1.19
   1   4  -2    1.12    0.85
   1   4  -2    0.84    0.29
   1   4  -2    0.73    0.40
  -1  -4   2    0.78    0.61
  -1  -4   2    0.39    0.45
   1   4  -1   54.71    3.42
   1   4  -1   48.14    2.15
   1   4  -1   48.53    1.91
   1   4  -1   49.59    2.16
  -1  -4   1   58.17    3.95
   1   4   0   23.55    3.42
   1   4   0   20.72    1.45
   1   4   0   20.04    1.19
   1   4   0   19.14    1.85
  -1  -4   0   28.51    1.78
   1   4   1  300.08   18.98
   1   4   1  296.23   14.28
   1   4   1  312.97   21.76
   1   4   1  270.26   13.89
   1   4   1  303.34   13.62
  -1  -4  -1  343.06   15.78
  -1  -4  -1  330.30   18.57
   1   4   2  832.73   60.15
   1   4   2  909.08   58.53
   1   4   2  912.65   64.76
   1   4   2  815.69   51.58
   1   4   2  891.26   56.99
  -1  -4  -2  968.89   62.71
  -1  -4  -2  991.30   68.32
   1   4   3  585.36   38.99
   1   4   3  662.88   39.06
   1   4   3  636.26   42.19
   1   4   3  542.99   32.28
   1   4   3  607.37   34.63
  -1  -4  -3  763.50   42.86
  -1  -4  -3  715.57   51.56
   1   4   4    1.45    1.24
   1   4   4    3.13    0.92
   1   4   4    1.27    1.27
   1   4   4    1.93    1.15
   1   4   4    2.05    0.98
  -1  -4  -4    1.22    0.70
  -1  -4  -4    0.91    1.19
   1   4   5  156.28    8.39
   1   4   5  141.07    9.98
  -1  -4  -5  150.62    9.70
  -1  -4  -5  155.49   10.22
   1   4   6    2.80    1.07
   1   4   6    2.44    2.37
   1   4   6    1.02    0.91
   1   4   6    1.14    0.77
  -1  -4  -6    3.06    2.25
   1   4   7    1.72    1.05
   1   4   7   -1.00    2.32
   1   4   7   -0.04    0.92
   1   4   7    2.13    1.30
   1   4   8   30.87    2.94
   1   4   8   24.48    6.00
   1   4   8   13.69    2.68
   1   4   9   13.03    2.34
   1   4   9   10.86    5.02
   1   4  10    9.51    2.23
   1   4  10   10.10    4.95
   1   4  11   -0.98    3.02
   1   4  12    9.84    3.39
   1   4  13   10.00    2.93
  -1  -4 -13    4.69    2.46
   1   4  14    3.17    2.21
  -1  -4 -14    3.21    1.79
   1   4  15    7.26    2.00
  -1  -4 -15    0.46    1.37
   1   4  16    8.63    2.45
   1   5 -19   -2.22    1.73
   1   5 -19    0.25    1.31
  -1  -5  19   -3.70    1.54
   1   5 -18    4.40    4.19
   1   5 -18    3.59    3.16
  -1  -5  18    5.50    2.06
   1   5 -17    6.54    4.34
   1   5 -17    4.75    2.18
  -1  -5  17    5.69    2.37
   1   5 -16   23.44    4.84
   1   5 -16   23.82    4.18
  -1  -5  16   22.35    4.32
   1   5 -15   16.34    4.18
   1   5 -15   14.43    3.59
  -1  -5  15   18.73    6.12
   1   5 -14   58.16    7.86
   1   5 -14   59.32   10.14
  -1  -5  14   65.36    7.55
   1   5 -13    6.51    3.02
   1   5 -13    7.91    2.54
  -1  -5  13    9.55    2.87
   1   5 -12   27.80    4.98
   1   5 -12   23.00    4.52
   1   5 -12   27.97    3.90
  -1  -5  12   28.81    4.45
   1   5 -11    0.15    1.57
   1   5 -11    0.70    1.32
   1   5 -11    0.43    1.14
  -1  -5  11   -0.57    2.10
   1   5 -10   -0.80    2.32
   1   5 -10   -0.11    1.10
   1   5 -10    1.47    1.57
  -1  -5  10   -0.15    1.13
   1   5  -9  135.98   10.34
   1   5  -9   99.27    8.21
   1   5  -9   97.86    6.05
   1   5  -9  112.04    7.24
  -1  -5   9  126.53    8.93
   1   5  -8  155.65   11.53
   1   5  -8  116.98    8.78
   1   5  -8  131.45    7.95
  -1  -5   8  149.31    8.27
  -1  -5   8  136.85    8.82
   1   5  -7   -0.27    1.38
   1   5  -7    0.01    0.84
   1   5  -7   -0.03    0.53
   1   5  -7    0.44    1.12
   1   5  -7    0.48    0.73
  -1  -5   7    1.48    0.81
  -1  -5   7    1.42    1.14
  -1  -5   7    0.68    0.82
   1   5  -6   15.35    4.66
   1   5  -6   10.12    1.59
   1   5  -6    9.67    1.06
   1   5  -6   13.78    2.29
   1   5  -6   15.53    2.30
  -1  -5   6   13.97    1.73
  -1  -5   6   14.21    2.33
  -1  -5   6   12.43    1.62
   1   5  -5    1.71    1.20
   1   5  -5   -1.06    1.86
   1   5  -5    1.44    0.62
  -1  -5   5    1.34    0.86
  -1  -5   5   -0.32    1.17
  -1  -5   5    1.20    1.24
   1   5  -4   41.76    3.77
   1   5  -4   36.67    2.05
  -1  -5   4   42.07    4.36
  -1  -5   4   39.65    2.21
  -1  -5   4   43.48    3.66
  -1  -5   4   38.62    2.49
   1   5  -3   93.04    6.25
   1   5  -3   84.60    4.87
  -1  -5   3  109.13    7.52
  -1  -5   3   82.79    5.43
  -1  -5   3  110.92    9.25
  -1  -5   3   89.17    4.41
   1   5  -2   10.22    1.88
   1   5  -2    8.52    0.94
   1   5  -2    8.20    1.08
  -1  -5   2   11.97    1.52
  -1  -5   2    9.75    1.26
   1   5  -1   14.22    2.07
   1   5  -1   11.23    1.04
   1   5  -1   11.60    1.20
  -1  -5   1   15.00    1.67
  -1  -5   1   14.16    1.62
   1   5   0  100.11    6.36
   1   5   0   91.83    6.91
   1   5   0   91.12    5.62
   1   5   0   92.79    4.50
  -1  -5   0  114.33    5.64
  -1  -5   0  112.43   10.14
   1   5   1   49.21    3.87
   1   5   1   50.68    3.07
   1   5   1   52.99    4.55
   1   5   1   42.53    2.61
   1   5   1   46.64    3.92
  -1  -5  -1   58.40    4.76
  -1  -5  -1   53.40    4.62
   1   5   2   10.28    2.68
   1   5   2   10.26    1.41
   1   5   2    2.54    3.45
   1   5   2    7.04    1.68
   1   5   2    7.18    1.11
  -1  -5  -2   11.60    1.56
  -1  -5  -2   10.80    2.04
   1   5   3  195.78   12.12
   1   5   3  217.93   12.15
   1   5   3  231.48   15.27
  -1  -5  -3  237.36   12.91
  -1  -5  -3  237.67   18.86
   1   5   4   29.57    2.95
   1   5   4   34.75    3.12
   1   5   4   32.98    4.19
   1   5   5   35.30    3.42
   1   5   5   35.33    4.52
   1   5   6   36.82    3.81
   1   5   6   37.49    4.82
   1   5   7    4.26    1.71
   1   5   7    5.23    2.29
   1   5   8   -0.10    1.03
   1   5   8   -0.25    1.37
   1   5   9    1.22    1.86
   1   5  10    1.51    1.99
   1   5  11    1.28    2.27
  -1  -5 -11    3.79    2.21
   1   5  12   -1.11    1.47
  -1  -5 -12    1.09    1.39
   1   5  13    1.07    1.67
  -1  -5 -13    0.77    1.49
   1   5  14    2.43    1.77
  -1  -5 -14    0.94    2.34
   1   5  15   10.50    3.95
  -1  -5 -15    9.48    2.04
   1   6 -18    0.22    1.41
   1   6 -18    1.83    1.86
  -1  -6  18    1.09    1.36
   1   6 -17    0.27    1.65
   1   6 -17    1.12    1.34
  -1  -6  17    1.46    1.57
   1   6 -16    3.66    3.51
   1   6 -16    2.61    1.92
  -1  -6  16    5.14    2.22
   1   6 -15   14.02    3.63
   1   6 -15   17.26    5.30
  -1  -6  15   12.30    6.00
   1   6 -14   27.84    5.36
   1   6 -14   36.08    7.59
  -1  -6  14   45.20    5.72
   1   6 -13   49.92    7.09
   1   6 -13   36.47    5.94
   1   6 -13   48.73    5.62
  -1  -6  13   55.87    6.49
   1   6 -12   23.40    4.77
   1   6 -12   13.88    3.81
   1   6 -12   21.24    3.49
  -1  -6  12   21.98    6.53
   1   6 -11   11.57    3.54
   1   6 -11    6.23    2.57
   1   6 -11    8.76    2.37
  -1  -6  11    9.16    2.77
   1   6 -10   33.54    7.95
   1   6 -10   23.61    4.83
  -1  -6  10   28.28    4.09
   1   6  -9   19.78    4.13
   1   6  -9   15.66    2.42
  -1  -6   9   20.62    3.26
   1   6  -8   66.04    7.06
   1   6  -8   52.35    4.14
   1   6  -7   77.72    7.61
   1   6  -7   76.34    6.37
   1   6  -7   61.00    4.28
  -1  -6   7   61.13    7.12
   1   6  -6  177.99   18.29
   1   6  -6  168.27   10.91
   1   6  -6  133.07    9.81
  -1  -6   6  138.73    8.49
   1   6  -5    3.27    1.49
   1   6  -5    0.02    2.27
   1   6  -5    0.75    0.74
  -1  -6   5    1.41    0.91
   1   6  -4   -0.31    1.10
   1   6  -4   -0.09    0.54
   1   6  -3   53.95    5.03
   1   6  -3   44.03    2.72
   1   6  -3   46.65    3.36
  -1  -6   3   60.95    4.09
  -1  -6   3   56.79    5.32
   1   6  -2  111.74    8.04
  -1  -6   2  125.50    7.03
  -1  -6   2   97.01    5.91
   1   6  -1    0.02    1.16
  -1  -6   1    0.23    0.91
  -1  -6   1    1.46    0.89
   1   6   0    0.55    1.08
   1   6   0   -0.67    1.17
  -1  -6   0    0.20    1.63
  -1  -6   0    1.18    0.93
   1   6   1   20.78    2.98
   1   6   1   22.98    3.48
  -1  -6  -1   24.90    2.89
  -1  -6  -1   24.10    3.03
   1   6   2   18.05    2.76
   1   6   2   21.15    3.38
  -1  -6  -2   19.15    2.65
   1   6   3   17.95    2.82
   1   6   3   23.13    3.58
   1   6   4   13.46    4.96
   1   6   5   88.76   12.91
   1   6   6   -0.85    2.69
   1   6   7    1.52    4.37
  -1  -6  -7    8.87    2.83
   1   6   8    7.62    3.09
  -1  -6  -8   10.00    3.11
   1   6   9    2.73    2.67
  -1  -6  -9    7.64    2.88
   1   6  10   11.74    6.40
  -1  -6 -10   19.19    3.97
   1   6  11   -0.46    2.97
  -1  -6 -11    1.72    1.79
   1   6  12   28.85    7.70
  -1  -6 -12   40.57    4.98
   1   6  13    0.67    1.41
  -1  -6 -13    1.07    2.15
   1   6  14   14.28    2.95
  -1  -6 -14   19.69    2.92
  -1  -7  18    4.78    1.72
   1   7 -17    1.78    1.25
  -1  -7  17    3.77    1.70
   1   7 -16    0.31    1.36
  -1  -7  16    4.98    1.87
   1   7 -15   -0.02    1.12
  -1  -7  15   -0.68    1.42
   1   7 -14   16.54    3.32
  -1  -7  14   -0.76    2.38
   1   7 -13   19.35    4.53
   1   7 -13   16.43    3.15
  -1  -7  13   21.23    4.00
   1   7 -12    4.78    3.14
   1   7 -12    4.58    2.04
  -1  -7  12   10.29    4.24
   1   7 -11    3.49    4.04
   1   7 -11    0.62    1.49
  -1  -7  11    3.30    1.84
   1   7 -10    3.42    4.23
   1   7 -10    3.41    2.66
  -1  -7  10    2.94    2.03
   1   7  -9   16.15    4.03
   1   7  -9    9.82    2.18
  -1  -7   9   16.17    3.14
   1   7  -8    3.07    2.62
   1   7  -7  198.26   16.95
   1   7  -7  196.69   14.96
   1   7  -6   80.33   13.83
   1   7  -6   79.93    7.96
   1   7  -5  219.89   22.82
   1   7  -5  260.99   17.98
   1   7  -4   30.77    5.32
   1   7  -4   87.41    9.22
   1   7  -3   10.25    2.85
   1   7  -2   50.41    5.65
  -1  -7   2   51.12    4.71
   1   7  -1   -0.12    1.15
  -1  -7   1    0.47    1.47
   1   7   0   25.64    4.02
   1   7   0   31.70    6.89
  -1  -7   0   28.81    3.65
   1   7   1   -0.70    1.30
   1   7   1   -0.69    2.41
  -1  -7  -1    2.06    1.26
   1   7   2    0.86    1.44
   1   7   2   -0.16    1.72
  -1  -7  -2    2.71    1.51
   1   7   3    3.29    1.82
   1   7   3    4.14    2.19
  -1  -7  -3    4.38    2.10
   1   7   4    1.23    1.81
  -1  -7  -4    1.80    1.75
   1   7   5    5.92    2.68
  -1  -7  -5    7.20    2.69
   1   7   6    1.65    2.06
  -1  -7  -6    3.22    2.07
   1   7   7   -0.03    1.72
  -1  -7  -7    1.64    1.77
   1   7   8   12.23    3.49
  -1  -7  -8   14.64    3.62
   1   7   9    4.02    2.68
  -1  -7  -9    8.73    2.77
   1   7  10   14.88    3.94
  -1  -7 -10   26.00    4.18
   1   7  11   -0.91    1.45
  -1  -7 -11   -0.59    2.51
   1   7  12   11.90    3.16
  -1  -7 -12   25.28    3.67
  -1  -8  17   -1.87    1.33
  -1  -8  16    1.25    1.39
   1   8 -15    1.75    1.14
  -1  -8  15    2.96    2.86
   1   8 -14    2.39    2.51
  -1  -8  14    0.20    1.52
   1   8 -13    6.76    2.98
  -1  -8  13    6.89    2.64
   1   8 -12   18.53    4.99
  -1  -8  12   21.73    6.49
   1   8 -11    1.36    2.21
  -1  -8  11    0.59    1.64
   1   8 -10   10.43    5.27
  -1  -8  10    5.03    2.52
   1   8  -9    5.47    2.99
  -1  -8   9    3.30    2.20
   1   8  -8   12.52    4.36
   1   8  -7  196.59   18.64
   1   8  -7  202.67   16.09
   1   8  -6    2.40    3.64
   1   8  -6   11.96    3.43
   1   8  -5  412.59   43.90
   1   8  -5  374.06   33.38
   1   8  -4   96.72   20.38
   1   8  -4  284.25   19.50
   1   8  -3   42.19    9.65
   1   8  -2   31.79    5.16
   1   8  -1   40.20    6.09
   1   8  -1   66.06    6.84
  -1  -8   1   44.77    5.42
   1   8   0    2.03    2.21
   1   8   0    5.16    2.47
  -1  -8   0    4.44    2.15
   1   8   1   56.84    6.99
   1   8   1   73.75    7.88
  -1  -8  -1   78.76   11.69
   1   8   2   17.61    3.69
   1   8   2   23.45    6.72
  -1  -8  -2   23.19    6.15
   1   8   3    0.46    2.10
   1   8   3    1.11    2.57
  -1  -8  -3   -0.04    2.41
   1   8   4   12.52    5.45
  -1  -8  -4   10.07    5.15
   1   8   5    0.07    1.51
  -1  -8  -5   -1.22    2.41
   1   8   6    8.27    3.27
  -1  -8  -6   13.48    5.32
   1   8   7    6.93    2.84
  -1  -8  -7   10.48    4.74
   1   8   8    1.04    1.71
  -1  -8  -8    2.15    3.30
   1   8   9   10.53    2.46
  -1  -8  -9    1.60    2.71
   1   8  10    0.29    2.39
  -1  -8 -10    2.38    1.77
   1   8  11   -1.26    1.82
  -1  -8 -11   -1.03    1.46
  -1  -9  15   -0.20    1.79
   1   9 -14    2.90    1.76
  -1  -9  14    4.83    1.88
   1   9 -13   -0.45    1.72
  -1  -9  13    1.94    1.50
   1   9 -12    2.49    2.20
  -1  -9  12    1.55    1.75
   1   9 -11    0.06    2.18
  -1  -9  11    2.35    2.60
   1   9 -10    2.87    4.28
  -1  -9  10    1.58    1.81
   1   9  -9    8.16    3.87
  -1  -9   9    8.97    2.96
   1   9  -8  108.79   12.33
  -1  -9   8  106.74    9.93
   1   9  -7   81.82   10.94
   1   9  -6   11.51    4.43
   1   9  -6   10.82    3.44
   1   9  -5    4.56    1.87
   1   9  -5   -2.58    1.52
   1   9  -4    9.84    4.27
   1   9  -3   26.01    9.68
   1   9  -2   11.39    8.93
   1   9  -2   30.34    7.28
   1   9  -1    6.83    3.91
   1   9  -1    0.41    1.95
   1   9   0    0.80    3.17
   1   9   0    0.73    1.62
  -1  -9   0   -2.20    1.54
   1   9   1   -3.31    2.61
   1   9   1    0.67    1.43
  -1  -9  -1   -0.28    1.36
   1   9   2    6.98    3.07
   1   9   2    9.63    2.96
  -1  -9  -2    9.08    3.00
   1   9   3   12.60    3.82
  -1  -9  -3   19.20    3.96
   1   9   4   27.01    4.54
  -1  -9  -4   28.57    4.98
   1   9   5   -1.76    1.57
  -1  -9  -5   -0.04    1.76
   1   9   6    0.73    1.42
  -1  -9  -6    0.82    1.65
   1   9   7    0.30    1.08
  -1  -9  -7   -0.02    1.32
   1   9   8   -0.53    1.10
  -1  -9  -8    2.29    1.49
   1  10 -13    5.29    2.25
  -1 -10  13   -0.24    1.25
   1  10 -12    7.99    2.65
  -1 -10  12    7.04    2.17
   1  10 -11   28.96    5.33
  -1 -10  11   28.94    6.34
   1  10 -10    0.55    2.22
  -1 -10  10    1.88    2.43
   1  10  -9    0.43    3.96
  -1 -10   9    1.64    1.59
   1  10  -8    0.72    1.99
  -1 -10   8    0.52    1.39
   1  10  -7    5.66    3.16
  -1 -10   7    4.54    2.19
   1  10  -6    3.03    2.82
   1  10  -5    0.72    2.34
   1  10  -5    1.38    1.72
   1  10  -4    3.22    2.87
   1  10  -3    0.95    2.18
   1  10  -2    0.37    1.78
   1  10  -2    0.31    1.46
   1  10  -1   21.02    4.83
   1  10  -1   22.89    4.08
   1  10   0    1.19    2.04
   1  10   0    2.69    2.91
   1  10   1   12.97    3.41
   1  10   1   13.92    5.14
  -1 -10  -1   14.34    5.03
   1  10   2    3.06    1.93
   1  10   2    6.18    3.35
  -1 -10  -2    4.59    3.14
   1  10   3    8.60    3.48
  -1 -10  -3    2.44    3.54
   1  10   4    2.97    1.74
  -1 -10  -4    5.74    3.05
   1  10   5   -1.23    1.25
  -1 -10  -5   -1.92    2.36
   1  10   6    4.90    2.46
  -1 -10  -6    3.76    2.99
   1  11 -10   16.04    3.75
  -1 -11  10   15.07    2.53
   1  11  -9   24.95    4.80
  -1 -11   9   21.63    4.92
   1  11  -8   34.47    5.78
  -1 -11   8   29.82    3.67
   1  11  -7   20.58    7.27
  -1 -11   7   16.54    2.89
   1  11  -6    1.20    3.43
  -1 -11   6   -2.14    1.46
   1  11  -5    1.79    2.70
  -1 -11   5    6.52    1.94
   1  11  -4    8.92    3.23
   1  11  -3    0.12    1.41
   1  11  -2    7.99    2.84
   1  11  -2    8.69    2.28
   1  11  -1    0.96    1.71
   1  11  -1    2.42    1.43
   1  11   0    0.93    2.36
   1  11   0    1.95    1.33
   1  11   1    4.12    1.59
   1  11   2    7.14    1.74
   2 -12  -1    3.09    1.32
  -2  12   1   -1.11    1.24
   2 -12   0   -0.33    1.34
  -2  12   0   -0.17    0.80
   2 -12   1    7.98    1.79
  -2  12  -1    1.77    2.01
  -2  12  -1    2.25    1.19
   2 -12   2    1.30    1.28
  -2  12  -2    1.00    0.97
   2 -12   3    2.87    2.11
  -2  12  -3    0.89    2.12
  -2  12  -3    3.72    1.21
  -2  12  -4   -2.32    1.59
  -2  12  -4   -0.77    1.00
  -2  12  -5    5.03    2.67
  -2  12  -5   -0.18    1.77
  -2  12  -6    8.23    3.06
  -2  12  -6   14.43    3.21
  -2  12  -7   -0.61    1.54
  -2  12  -7   -1.88    1.06
  -2  12  -8    5.82    2.33
  -2  12  -8   24.01    2.19
   2 -11  -5    2.04    3.77
  -2  11   5    3.25    1.34
  -2  11   5    4.12    1.20
   2 -11  -4   -1.87    2.50
  -2  11   4   -0.80    1.06
  -2  11   4    0.14    0.85
   2 -11  -3    7.15    4.04
  -2  11   3    4.79    1.91
  -2  11   3    2.68    1.48
  -2  11   2    1.70    1.64
  -2  11   2    1.18    1.25
   2 -11  -1   -1.09    3.51
  -2  11   1    2.29    1.89
  -2  11   1    2.11    1.41
   2 -11   0    4.96    4.15
  -2  11   0    5.37    2.42
  -2  11   0    3.55    1.79
   2 -11   1   10.00    3.00
  -2  11  -1    6.64    2.97
  -2  11  -1    5.83    3.58
   2 -11   2    2.43    2.09
  -2  11  -2    3.71    2.17
  -2  11  -2    0.45    2.54
   2 -11   3    3.36    2.31
  -2  11  -3    2.07    2.48
  -2  11  -3    5.82    1.89
   2 -11   4   18.82    3.74
  -2  11  -4   13.93    3.89
  -2  11  -4   16.37    2.87
   2 -11   5    2.65    2.45
  -2  11  -5    2.21    1.78
  -2  11  -5    0.07    1.38
  -2  11  -6    1.30    1.89
  -2  11  -6    2.50    1.46
  -2  11  -7    0.77    2.75
  -2  11  -7    2.36    2.30
  -2  11  -8    3.34    4.58
  -2  11  -8   11.98    3.80
  -2  11  -9   -1.62    1.41
  -2  11  -9   -0.42    1.27
  -2  11 -10    9.12    2.41
  -2  11 -10   24.30    2.72
  -2  11 -11   49.06    4.49
  -2  11 -12    3.13    2.59
   2 -10  -8   -1.84    1.73
  -2  10   8   -1.54    1.68
   2 -10  -7   -0.03    1.33
  -2  10   7    0.04    0.71
  -2  10   7    0.32    1.33
   2 -10  -6    8.23    2.87
  -2  10   6    3.49    3.14
  -2  10   6    5.83    3.17
   2 -10  -5   -0.14    1.86
  -2  10   5    0.63    1.76
  -2  10   5    1.30    2.07
   2 -10  -4    3.91    2.79
  -2  10   4    3.44    1.78
  -2  10   4    3.87    2.94
   2 -10  -3    8.87    3.38
  -2  10   3    5.41    2.30
  -2  10   3    5.93    3.63
   2 -10  -2   15.31    4.05
  -2  10   2   11.14    2.93
  -2  10   2    9.36    2.86
   2 -10  -1   64.71    8.74
  -2  10   1   52.55    6.93
  -2  10   1   60.94    6.80
   2 -10   0    8.07    2.95
  -2  10   0    3.65    2.33
  -2  10   0    2.44    2.22
   2 -10   1   21.16    5.11
  -2  10  -1   17.34    4.14
  -2  10  -1   27.43    4.25
   2 -10   2   76.90   13.85
  -2  10  -2   67.26    7.69
  -2  10  -2   71.69    7.46
   2 -10   3    0.30    1.86
  -2  10  -3    1.36    2.44
   2 -10   4   34.54    5.59
  -2  10  -4   37.46    9.08
  -2  10  -4   35.15    7.20
   2 -10   5    5.28    2.32
  -2  10  -5    3.25    2.42
  -2  10  -5    2.22    2.02
  -2  10  -6    1.23    1.66
  -2  10  -6    0.29    1.40
  -2  10  -7    7.47    2.80
  -2  10  -7    7.78    2.41
  -2  10  -8    1.64    1.95
  -2  10  -8    4.02    1.81
  -2  10  -9   26.49    7.55
  -2  10  -9   33.64    6.72
  -2  10 -10    2.45    1.76
  -2  10 -11    0.57    1.30
  -2  10 -12    0.92    1.34
  -2  10 -13    1.75    2.57
  -2  10 -14   -1.33    1.34
   2  -9 -10    6.16    1.87
  -2   9  10    1.12    1.41
   2  -9  -9    0.97    1.35
  -2   9   9   -0.33    0.99
   2  -9  -8    6.02    2.46
  -2   9   8    1.95    1.82
   2  -9  -7   -0.27    1.59
  -2   9   7   -0.04    0.88
  -2   9   7   -0.20    1.16
   2  -9  -6    2.20    2.36
  -2   9   6    1.51    1.39
  -2   9   6    1.52    1.70
   2  -9  -5    2.70    1.91
  -2   9   5   -1.23    1.16
  -2   9   5   -0.11    1.36
   2  -9  -4   21.15    4.95
  -2   9   4   12.68    3.35
  -2   9   4   15.84    3.72
  -2   9   3    3.73    2.16
  -2   9   3    3.95    2.37
   2  -9  -2   -0.54    2.06
  -2   9   2   -0.76    1.45
  -2   9   2    2.68    1.59
   2  -9  -1   -1.50    2.55
  -2   9   1    0.30    1.87
  -2   9   1   15.91    3.47
   2  -9   0    3.12    2.83
  -2   9   0    3.91    2.14
  -2   9   0    4.51    3.58
   2  -9   1    0.55    1.60
  -2   9  -1    0.21    1.20
  -2   9  -1   -0.27    1.20
  -2   9  -2    1.25    1.37
  -2   9  -2   -0.23    1.38
   2  -9   3    1.91    2.96
  -2   9  -3   -0.33    1.40
  -2   9  -3    1.43    1.50
   2  -9   4    7.53    3.24
  -2   9  -4    8.64    2.54
  -2   9  -4    9.43    2.62
   2  -9   5    1.52    1.37
  -2   9  -5    0.69    1.74
  -2   9  -5   -3.87    1.91
   2  -9   6   15.75    3.89
  -2   9  -6   17.24    6.15
  -2   9  -6   19.72    3.24
  -2   9  -7    5.73    2.59
  -2   9  -7    7.27    2.34
  -2   9  -8   -1.00    1.42
  -2   9  -8    1.71    1.34
  -2   9  -9    3.88    2.12
  -2   9  -9    7.76    3.54
  -2   9 -10    5.27    2.37
  -2   9 -11    2.67    1.96
  -2   9 -12    0.66    1.45
  -2   9 -13   15.22    4.94
  -2   9 -14    0.33    1.33
  -2   9 -15   17.96    3.22
  -2   8  12   -0.45    0.99
   2  -8 -11    1.62    1.35
  -2   8  11   -0.16    1.21
   2  -8 -10    8.82    2.78
  -2   8  10    4.23    3.79
   2  -8  -9    3.82    2.48
  -2   8   9    2.41    3.23
   2  -8  -8   14.98    6.01
  -2   8   8    7.87    2.05
  -2   8   8   11.03    4.91
   2  -8  -7    3.03    3.12
  -2   8   7    0.35    2.07
  -2   8   7   -0.15    2.86
   2  -8  -6   13.17    5.73
  -2   8   6    6.38    3.37
  -2   8   6   10.94    4.93
   2  -8  -5  153.85   21.81
  -2   8   5  132.03   14.18
  -2   8   5  148.00   19.01
  -2   8   4  195.01   14.88
  -2   8   4  218.17   18.69
   2  -8  -3  151.83   21.23
  -2   8   3  120.55   10.44
  -2   8   3  132.93   12.46
   2  -8  -2   22.49    7.70
  -2   8   2   18.81    3.46
  -2   8   2   15.99    3.73
   2  -8  -1    2.78    1.47
  -2   8   1   -0.05    0.96
  -2   8   1   -1.74    1.16
   2  -8   0   27.21    5.16
  -2   8   0   25.49    4.12
   2  -8   1    1.96    1.78
  -2   8  -1    0.49    2.31
  -2   8  -1   -1.75    2.41
   2  -8   2    3.50    2.44
  -2   8  -2    2.83    3.14
  -2   8  -2    5.51    3.09
   2  -8   3    5.81    2.37
  -2   8  -3    4.51    1.87
  -2   8  -3    1.67    2.03
   2  -8   4   11.80    4.97
  -2   8  -4    9.69    2.39
  -2   8  -4    9.20    2.69
   2  -8   5   18.32    3.70
  -2   8  -5   14.14    2.84
  -2   8  -5   17.73    3.17
   2  -8   6   49.15    6.12
  -2   8  -6   48.19    5.03
  -2   8  -6   56.83    7.97
   2  -8   7   60.07   10.84
  -2   8  -7   68.97   10.37
  -2   8  -7   75.50    6.57
  -2   8  -8   18.93    3.62
  -2   8  -8   25.80    3.66
  -2   8  -9    3.81    2.00
  -2   8 -10   64.81   10.22
  -2   8 -11   42.63    5.56
  -2   8 -12    5.27    2.46
  -2   8 -13  187.51   14.52
  -2   8 -14   32.80    7.87
  -2   8 -15   -0.80    1.92
  -2   8 -15    2.91    1.72
  -2   8 -16    1.21    1.18
  -2   8 -16    2.73    1.67
  -2   8 -17    2.48    2.60
  -2   7  13   -2.89    2.75
   2  -7 -12    2.59    1.57
  -2   7  12    1.19    1.72
   2  -7 -11   -0.21    1.41
  -2   7  11    0.84    1.40
   2  -7 -10    8.09    4.00
  -2   7  10    1.42    2.25
   2  -7  -9    2.07    2.77
  -2   7   9    0.09    1.72
   2  -7  -8   82.27    9.27
  -2   7   8   68.81    9.65
   2  -7  -7    1.23    2.12
  -2   7   7    1.86    1.25
  -2   7   7    0.53    2.00
   2  -7  -6  357.36   31.46
  -2   7   6  303.24   22.57
  -2   7   6  373.76   30.89
   2  -7  -5    6.82    2.97
  -2   7   5    2.75    1.86
  -2   7   5    5.49    2.75
   2  -7  -4   82.67    9.16
  -2   7   4   75.06    6.78
  -2   7   4   81.20    9.37
   2  -7  -3    6.28    2.71
  -2   7   3    5.91    1.79
  -2   7   3    4.10    4.13
   2  -7  -2    1.05    2.74
  -2   7   2    0.83    1.11
  -2   7   2    1.35    2.37
   2  -7  -1    0.68    2.89
  -2   7   1    1.02    1.08
  -2   7   1    0.64    1.33
   2  -7   0    4.05    2.23
  -2   7   0    2.37    1.40
  -2   7   0    4.29    1.83
   2  -7   1   15.21    3.62
  -2   7  -1   13.46    2.37
  -2   7  -1   26.79    3.22
   2  -7   2   25.45    4.08
  -2   7  -2   19.98    2.73
  -2   7  -2   34.01    5.64
   2  -7   3   10.91    2.78
  -2   7  -3    7.15    2.86
  -2   7  -3    8.67    2.14
   2  -7   4    3.63    2.51
  -2   7  -4    2.24    1.88
  -2   7  -4   -0.43    1.32
   2  -7   5    8.98    2.68
  -2   7  -5    9.34    1.97
  -2   7  -5    9.85    2.28
   2  -7   6    1.62    1.61
  -2   7  -6    1.02    1.14
  -2   7  -6    2.48    2.34
   2  -7   7    2.60    3.37
  -2   7  -7    3.91    2.33
  -2   7  -7    4.87    1.81
   2  -7   8   33.26    4.60
  -2   7  -8   37.03    4.22
  -2   7  -8   50.34    4.56
  -2   7  -9    9.11    2.13
  -2   7  -9   14.09    2.66
  -2   7 -10   84.56    7.46
  -2   7 -10  146.64   13.86
  -2   7 -11   16.05    3.10
  -2   7 -11   28.93    4.09
  -2   7 -12    7.61    3.94
  -2   7 -12   13.23    3.17
  -2   7 -13  126.59   16.81
  -2   7 -13  154.03   12.68
   2  -7  14    5.72    2.20
  -2   7 -14    7.27    2.77
  -2   7 -14   15.84    3.12
   2  -7  15    0.49    2.35
  -2   7 -15    2.34    1.80
  -2   7 -15    3.52    2.04
   2  -7  16   -0.36    0.93
  -2   7 -16    0.12    1.23
  -2   7 -16    2.58    1.46
   2  -7  17    1.09    0.93
  -2   7 -17    3.45    2.47
  -2   7 -17    2.82    2.66
  -2   6  15    4.50    1.77
  -2   6  14    2.88    1.80
  -2   6  13    3.14    2.04
   2  -6 -12    1.96    1.70
  -2   6  12    1.37    1.88
   2  -6 -11    2.54    2.61
  -2   6  11    0.38    1.84
   2  -6 -10   28.28    4.63
  -2   6  10   24.85    5.19
   2  -6  -9   75.85    8.17
  -2   6   9   68.40    8.90
   2  -6  -8   11.01    2.99
  -2   6   8    6.22    1.95
  -2   6   8   12.07    3.31
   2  -6  -7   11.37    3.47
  -2   6   7    9.89    3.48
  -2   6   7   11.36    3.57
   2  -6  -6  470.42   37.82
  -2   6   6  424.85   34.85
  -2   6   6  496.69   39.15
   2  -6  -5    1.34    1.31
  -2   6   5   -0.63    1.50
  -2   6   5   -1.11    1.29
   2  -6  -4  228.86   17.53
  -2   6   4  217.41   18.54
  -2   6   4  232.60   17.31
   2  -6  -3   24.48    3.82
  -2   6   3   23.00    4.53
  -2   6   3   23.75    3.61
   2  -6  -2   18.60    3.23
  -2   6   2   15.25    3.77
  -2   6   2   17.25    2.96
   2  -6  -1    3.13    2.51
   2  -6  -1    2.45    1.71
  -2   6   1    0.05    1.72
  -2   6   1    2.36    2.75
  -2   6   1    1.44    2.31
  -2   6   1    1.52    2.43
   2  -6   0   46.70    3.53
  -2   6   0   43.98    3.71
  -2   6   0   42.10    5.36
  -2   6   0   56.47    4.70
  -2   6   0   64.24    5.40
   2  -6   1   51.01    5.48
   2  -6   1   50.02    3.63
  -2   6  -1   48.11    3.77
  -2   6  -1   49.96    5.52
  -2   6  -1   64.71    5.22
  -2   6  -1   63.95    5.52
   2  -6   2    5.11    1.98
   2  -6   2    4.34    1.22
  -2   6  -2    4.00    1.23
  -2   6  -2    4.22    1.98
   2  -6   3    0.72    1.15
   2  -6   3   -0.64    0.70
   2  -6   3   -0.41    1.00
  -2   6  -3    0.61    0.70
  -2   6  -3    0.75    1.13
  -2   6  -3    1.28    1.49
   2  -6   4   -0.16    2.16
   2  -6   4    1.26    1.21
  -2   6  -4    0.57    0.78
  -2   6  -4    0.72    1.52
  -2   6  -4    0.87    1.05
   2  -6   5   51.24    4.99
  -2   6  -5   53.93    5.55
  -2   6  -5   36.98    3.32
  -2   6  -5   37.83    5.89
  -2   6  -5   58.15    4.19
   2  -6   6    9.32    2.31
  -2   6  -6    8.30    1.54
  -2   6  -6    6.80    1.67
  -2   6  -6    7.75    2.00
  -2   6  -6   12.01    3.30
   2  -6   7   76.60    9.17
   2  -6   7   61.42    4.49
  -2   6  -7   68.28    4.70
  -2   6  -7   64.07    5.60
  -2   6  -7   69.84    6.41
  -2   6  -7   91.76    5.78
   2  -6   8    7.51    2.30
   2  -6   8    7.79    1.71
   2  -6   8    7.95    2.84
  -2   6  -8    8.87    3.33
  -2   6  -8   13.73    2.18
   2  -6   9   15.68    2.96
   2  -6   9   12.89    2.36
  -2   6  -9   19.01    4.78
  -2   6  -9   24.05    2.95
   2  -6  10  146.73   15.18
  -2   6 -10  199.32   14.03
  -2   6 -10  242.36   20.05
  -2   6 -11  197.70   15.75
  -2   6 -11  250.73   17.48
  -2   6 -12  129.11   11.43
  -2   6 -12  156.37   12.09
   2  -6  13    6.91    2.41
  -2   6 -13   11.85    2.84
  -2   6 -13   13.08    4.63
   2  -6  14   -0.15    2.29
  -2   6 -14    1.79    3.21
  -2   6 -14    1.97    1.88
   2  -6  15    2.19    3.41
  -2   6 -15    7.17    2.64
  -2   6 -15    7.43    2.64
   2  -6  16   -0.69    1.09
  -2   6 -16    1.68    1.43
  -2   6 -16    0.61    1.43
   2  -6  17   -0.12    0.98
  -2   6 -17    1.87    1.35
  -2   6 -17   -0.75    2.30
  -2   6 -18   20.73    3.92
  -2   6 -18    1.98    1.98
  -2   5  16    1.41    1.39
  -2   5  15    1.54    1.60
  -2   5  14    2.36    3.22
  -2   5  13    7.25    4.69
  -2   5  12    9.38    3.30
   2  -5 -11   15.10    3.34
  -2   5  11   17.04    4.04
   2  -5 -10    0.19    1.44
  -2   5  10    1.16    1.65
   2  -5  -9   49.08    5.39
  -2   5   9   28.17    5.89
  -2   5   9   46.29    6.07
   2  -5  -8   56.99    5.82
  -2   5   8   44.82    4.37
  -2   5   8   51.48    6.25
   2  -5  -7   35.83    4.59
  -2   5   7   31.82    3.51
  -2   5   7   35.25    4.77
   2  -5  -6   98.96    8.34
  -2   5   6   88.59    6.82
  -2   5   6  101.61    8.55
   2  -5  -5   90.51    7.60
   2  -5  -5  106.78    6.03
  -2   5   5   85.35    6.30
  -2   5   5   98.30    9.34
  -2   5   5   93.74   11.15
   2  -5  -4   28.42    3.66
   2  -5  -4   30.57    2.64
  -2   5   4   24.49    2.79
  -2   5   4   26.06    4.39
  -2   5   4   28.41    5.54
  -2   5   4   32.51    3.59
   2  -5  -3   17.54    2.84
   2  -5  -3   20.70    3.14
  -2   5   3   15.95    2.18
  -2   5   3   16.98    3.50
  -2   5   3   18.40    2.76
  -2   5   3   19.97    2.77
   2  -5  -2   42.47    2.98
   2  -5  -2   54.33    4.70
   2  -5  -2   60.60    3.66
  -2   5   2   52.06    3.93
  -2   5   2   54.16    8.79
  -2   5   2   45.48    2.74
  -2   5   2   54.58    4.45
  -2   5   2   58.51    4.55
   2  -5  -1  149.83    9.85
   2  -5  -1  192.90   15.93
   2  -5  -1  203.76   10.20
  -2   5   1  194.42   10.62
  -2   5   1  193.89   17.51
  -2   5   1  204.30   11.75
  -2   5   1  210.97   12.04
   2  -5   0    1.44    0.56
   2  -5   0    1.21    1.21
   2  -5   0    0.86    0.76
  -2   5   0    1.11    0.81
  -2   5   0    0.48    1.25
  -2   5   0   -0.78    0.64
   2  -5   1   75.25    4.00
   2  -5   1   78.24    6.26
  -2   5  -1   81.12    4.77
  -2   5  -1   70.50    6.16
  -2   5  -1   80.18    5.53
   2  -5   2  121.24    6.98
   2  -5   2  141.84    9.54
   2  -5   2  130.60    4.86
  -2   5  -2  140.85    8.92
  -2   5  -2  125.71    7.45
   2  -5   3  513.66   26.80
   2  -5   3  504.07   38.04
   2  -5   3  427.40   21.32
   2  -5   3  412.53   22.90
   2  -5   3  536.79   31.94
  -2   5  -3  513.03   28.00
  -2   5  -3  456.86   31.91
  -2   5  -3  557.04   32.62
  -2   5  -3  600.23   37.94
   2  -5   4    0.61    0.63
   2  -5   4    0.70    1.24
   2  -5   4    0.61    0.80
   2  -5   4    1.00    0.53
   2  -5   4    2.91    1.18
  -2   5  -4    0.45    0.67
  -2   5  -4    1.12    0.98
  -2   5  -4    0.80    0.99
   2  -5   5   66.37    5.53
   2  -5   5   52.84    4.33
   2  -5   5   53.72    4.57
   2  -5   5   69.24    7.60
  -2   5  -5   64.59    4.83
  -2   5  -5   59.38    4.97
  -2   5  -5   67.97    4.86
  -2   5  -5   75.35    4.67
   2  -5   6  160.17   14.92
   2  -5   6  125.04    7.06
   2  -5   6  128.29    7.04
   2  -5   6  166.01   10.03
  -2   5  -6  152.76    7.95
  -2   5  -6  148.55   10.25
  -2   5  -6  150.19    9.23
  -2   5  -6  169.13   12.09
   2  -5   7   32.55    2.87
   2  -5   7   34.30    2.91
   2  -5   7   47.05    4.26
  -2   5  -7   36.21    2.63
  -2   5  -7   39.98    3.98
  -2   5  -7   39.35    6.92
  -2   5  -7   37.36    3.55
  -2   5  -7   49.83    3.71
   2  -5   8    3.57    1.62
   2  -5   8    1.86    1.18
   2  -5   8    2.61    1.20
  -2   5  -8    3.03    1.68
  -2   5  -8   11.21    2.93
  -2   5  -8    2.21    1.34
  -2   5  -8    4.79    1.48
   2  -5   9   65.53    9.02
   2  -5   9   58.74    6.98
   2  -5   9   53.46    4.88
  -2   5  -9   73.18    6.92
  -2   5  -9   82.78    8.24
   2  -5  10   20.45    3.06
   2  -5  10   18.09    2.93
  -2   5 -10   28.36    6.25
  -2   5 -10   36.39    3.61
   2  -5  11    0.62    1.37
  -2   5 -11    1.42    1.68
  -2   5 -11    3.73    1.62
   2  -5  12   -0.10    1.26
  -2   5 -12    0.41    1.51
  -2   5 -12    1.71    1.43
   2  -5  13    5.02    2.17
  -2   5 -13    7.65    2.56
  -2   5 -13    8.47    4.44
   2  -5  14    3.54    3.18
  -2   5 -14    3.79    2.24
  -2   5 -14    3.27    2.34
   2  -5  15    6.61    2.54
  -2   5 -15    6.87    5.59
  -2   5 -15   11.66    3.00
   2  -5  16    1.87    1.73
  -2   5 -16    4.00    2.24
  -2   5 -16    3.77    3.36
   2  -5  17    1.11    1.25
  -2   5 -17    0.66    1.70
  -2   5 -17    0.98    1.54
   2  -5  18    0.41    1.68
  -2   5 -18   -0.36    1.42
  -2   5 -18    1.61    1.26
  -2   4  17   17.21    2.85
  -2   4  16    2.98    3.09
  -2   4  15   -0.65    1.58
  -2   4  14   12.06    3.46
  -2   4  13   16.09    4.03
  -2   4  12   10.13    3.33
  -2   4  11    1.83    1.98
   2  -4 -10    1.23    1.29
  -2   4  10    0.41    0.93
  -2   4  10    1.02    1.61
   2  -4  -9    0.94    1.23
  -2   4   9    0.39    0.92
  -2   4   9    1.10    1.47
   2  -4  -8    2.49    1.55
   2  -4  -8    2.16    1.54
  -2   4   8    2.16    1.14
  -2   4   8    2.69    1.20
  -2   4   8    2.55    1.76
   2  -4  -7    2.34    1.94
   2  -4  -7    1.10    1.21
   2  -4  -7    1.68    0.92
  -2   4   7    1.43    1.54
  -2   4   7    0.84    1.59
  -2   4   7    0.67    0.92
  -2   4   7    0.58    1.36
   2  -4  -6  178.92   14.33
   2  -4  -6  166.74   11.31
   2  -4  -6  186.54    9.43
  -2   4   6  160.44   14.47
  -2   4   6  184.24   14.05
  -2   4   6  178.01   11.45
  -2   4   6  184.11   12.44
  -2   4   6  203.74   12.70
   2  -4  -5    4.66    2.19
   2  -4  -5    5.32    1.57
   2  -4  -5    5.29    1.07
  -2   4   5    2.34    2.38
  -2   4   5    4.38    3.31
  -2   4   5    4.98    0.93
  -2   4   5    3.21    1.61
  -2   4   5    5.53    1.61
   2  -4  -4  177.17   10.13
   2  -4  -4  181.86   11.21
   2  -4  -4  199.37   11.77
  -2   4   4  187.52   14.41
  -2   4   4  189.56   13.43
  -2   4   4  185.02    8.52
  -2   4   4  187.48   11.42
  -2   4   4  208.20   12.12
   2  -4  -3  142.34    7.84
   2  -4  -3  138.56    8.80
   2  -4  -3  155.59    7.50
  -2   4   3  143.01   11.69
  -2   4   3  144.80   10.61
  -2   4   3  150.09    7.14
  -2   4   3  139.19   11.80
   2  -4  -2  193.67   12.05
   2  -4  -2  200.95   11.68
   2  -4  -2  216.80   10.27
  -2   4   2  185.68   14.26
  -2   4   2  210.14   13.97
  -2   4   2  200.64    9.52
  -2   4   2  217.16   11.80
   2  -4  -1  356.22   18.22
   2  -4  -1  398.46   27.02
   2  -4  -1  350.85   17.60
   2  -4  -1  303.93   11.27
  -2   4   1  339.16   20.60
  -2   4   1  388.74   28.88
  -2   4   1  350.52   17.98
  -2   4   1  374.98   20.11
   2  -4   0    2.40    0.82
   2  -4   0    0.92    1.23
  -2   4   0    0.57    0.82
  -2   4   0    1.53    1.33
  -2   4   0    2.07    0.99
  -2   4   0    4.16    1.13
   2  -4   1   37.38    2.33
   2  -4   1   36.97    3.60
   2  -4   1   31.88    0.93
  -2   4  -1   35.27    2.50
  -2   4  -1   36.30    2.77
  -2   4  -1   39.75    2.98
  -2   4  -1   42.29    2.95
   2  -4   2    8.28    1.18
   2  -4   2    6.55    1.80
   2  -4   2    6.07    0.66
   2  -4   2    6.21    0.73
  -2   4  -2    7.45    1.07
  -2   4  -2    7.00    2.29
  -2   4  -2    8.18    1.45
   2  -4   3  522.90   29.60
   2  -4   3  423.08   30.50
   2  -4   3  312.65   15.77
   2  -4   3  417.86   23.04
  -2   4  -3  459.48   25.24
  -2   4  -3  402.71   23.76
  -2   4  -3  410.40   27.08
  -2   4  -3  429.08   25.77
   2  -4   4    6.78    1.07
   2  -4   4    6.92    1.76
   2  -4   4    5.02    0.68
   2  -4   4    5.36    0.70
   2  -4   4    5.80    2.37
  -2   4  -4    6.02    0.86
  -2   4  -4    6.98    1.57
  -2   4  -4    7.02    2.64
  -2   4  -4    6.47    1.37
   2  -4   5  369.98   18.87
   2  -4   5  351.18   21.52
   2  -4   5  297.99   14.96
   2  -4   5  303.65   15.10
   2  -4   5  337.70   19.18
  -2   4  -5  340.21   16.03
  -2   4  -5  336.25   25.71
  -2   4  -5  383.66   19.74
   2  -4   6  747.81   42.92
   2  -4   6  457.07   30.90
   2  -4   6  520.02   34.04
   2  -4   6  640.61   40.41
  -2   4  -6  622.60   34.47
  -2   4  -6  558.22   44.10
  -2   4  -6  621.94   41.07
  -2   4  -6  675.84   40.00
   2  -4   7  662.35   45.74
   2  -4   7  551.90   38.55
   2  -4   7  562.41   35.48
   2  -4   7  661.33   43.82
  -2   4  -7  598.84   43.47
  -2   4  -7  610.42   42.59
  -2   4  -7  706.57   43.96
   2  -4   8  172.67   16.83
   2  -4   8  159.84   12.48
   2  -4   8  145.03    9.42
   2  -4   8  194.12   12.29
  -2   4  -8  217.34   13.87
  -2   4  -8  162.03   12.64
  -2   4  -8  172.86   11.82
  -2   4  -8  209.32   14.74
   2  -4   9    2.88    1.47
   2  -4   9    2.72    1.31
   2  -4   9    3.76    1.34
  -2   4  -9    4.37    1.89
  -2   4  -9    2.47    1.57
  -2   4  -9    5.92    1.55
   2  -4  10   13.77    2.47
   2  -4  10   11.12    2.32
  -2   4 -10   15.48    3.17
  -2   4 -10   17.28    2.61
   2  -4  11    0.20    1.57
   2  -4  11    0.23    1.19
  -2   4 -11    1.64    2.66
  -2   4 -11    1.89    1.32
   2  -4  12   21.52    3.85
  -2   4 -12   35.66    4.71
  -2   4 -12   40.85    7.20
   2  -4  13    2.82    2.78
  -2   4 -13    2.37    2.06
  -2   4 -13    2.70    1.98
   2  -4  14   19.34    4.14
  -2   4 -14   27.88    4.73
  -2   4 -14   30.78    4.54
   2  -4  15    1.82    1.59
  -2   4 -15    1.33    2.82
  -2   4 -15   -0.02    1.73
   2  -4  16    5.27    2.26
  -2   4 -16    7.02    2.90
  -2   4 -16    5.74    2.52
   2  -4  17   -0.62    1.30
  -2   4 -17    0.36    1.68
  -2   4 -17    2.45    1.43
   2  -4  18    1.97    2.34
  -2   4 -18    1.12    1.90
  -2   4 -18    3.42    1.56
  -2   4 -19    1.27    2.23
  -2   4 -19   -0.71    0.95
  -2   3  17    2.36    1.75
  -2   3  16    9.32    2.89
  -2   3  15    0.95    1.79
   2  -3 -14   54.47    7.01
  -2   3  14   54.20    7.36
   2  -3 -13    3.96    2.37
  -2   3  13    2.68    2.35
   2  -3 -12    1.67    2.01
   2  -3 -11    3.72    2.32
   2  -3 -10   77.41    7.07
  -2   3  10   51.75    7.48
   2  -3  -9    5.97    2.09
   2  -3  -9    5.60    1.55
   2  -3  -9    5.28    1.86
  -2   3   9    4.07    1.54
  -2   3   9    3.11    2.21
   2  -3  -8    7.12    1.91
   2  -3  -8    4.43    1.44
   2  -3  -8    4.59    1.12
  -2   3   8    4.67    1.49
  -2   3   8    5.41    3.40
  -2   3   8    5.98    1.55
  -2   3   8    2.62    1.95
   2  -3  -7   14.43    2.42
   2  -3  -7   11.76    1.94
   2  -3  -7   15.86    2.43
  -2   3   7   11.24    2.05
  -2   3   7   13.64    2.83
  -2   3   7   15.53    2.87
  -2   3   7    9.60    2.36
   2  -3  -6   32.37    3.20
   2  -3  -6   24.63    2.63
   2  -3  -6   31.40    1.98
  -2   3   6   23.03    2.78
  -2   3   6   26.53    3.87
  -2   3   6   34.68    2.29
  -2   3   6   19.05    2.74
   2  -3  -5   43.78    3.53
   2  -3  -5   38.82    3.12
   2  -3  -5   43.32    2.37
  -2   3   5   33.29    3.25
  -2   3   5   39.94    4.61
  -2   3   5   41.65    2.53
  -2   3   5   39.68    3.61
   2  -3  -4   19.64    3.64
   2  -3  -4   18.68    2.17
   2  -3  -4   20.78    1.61
  -2   3   4   15.76    2.25
  -2   3   4   13.30    5.21
  -2   3   4   20.09    3.07
  -2   3   4   19.17    2.36
   2  -3  -3  761.72   47.76
   2  -3  -3  704.30   45.13
   2  -3  -3  738.05   43.02
  -2   3   3  667.55   43.40
  -2   3   3  727.81   50.83
  -2   3   3  784.37   47.11
  -2   3   3  750.26   47.38
   2  -3  -2   16.53    1.86
   2  -3  -2   17.76    3.27
  -2   3   2   13.77    1.82
  -2   3   2   15.67    2.50
  -2   3   2   16.00    2.72
  -2   3   2   15.72    2.80
   2  -3  -1   21.06    3.12
   2  -3  -1   19.25    2.20
  -2   3   1   19.66    1.85
  -2   3   1   19.72    2.48
  -2   3   1   19.09    1.80
  -2   3   1   20.95    1.83
  -2   3   1   18.17    1.80
   2  -3   0   29.14    2.33
   2  -3   0   32.03    2.82
  -2   3   0   30.42    2.27
  -2   3   0   32.25    2.50
  -2   3   0   31.97    2.34
  -2   3   0   32.81    2.23
   2  -3   1  358.93   18.23
   2  -3   1  341.69   19.05
   2  -3   1  334.31   16.77
  -2   3  -1  365.73   20.37
  -2   3  -1  330.68   17.88
  -2   3  -1  378.19   23.19
  -2   3  -1  366.17   17.44
   2  -3   2   37.84    2.47
   2  -3   2   36.43    3.25
   2  -3   2   31.18    1.13
   2  -3   2   32.92    1.17
  -2   3  -2   35.64    2.01
  -2   3  -2   36.33    2.91
  -2   3  -2   37.33    2.95
   2  -3   3  179.80    8.37
   2  -3   3  154.56    9.16
   2  -3   3  124.97    5.32
   2  -3   3  138.70    5.66
   2  -3   3  154.74    9.32
  -2   3  -3  161.90    6.68
  -2   3  -3  151.29    8.73
  -2   3  -3  154.29    8.49
  -2   3  -3  165.37    7.16
   2  -3   4   27.95    3.07
   2  -3   4   28.35    3.02
   2  -3   4   22.50    1.93
   2  -3   4   24.57    1.33
   2  -3   4   29.12    2.20
  -2   3  -4   29.62    2.07
  -2   3  -4   29.12    2.98
  -2   3  -4   28.36    2.71
  -2   3  -4   33.60    2.11
   2  -3   5    4.38    1.01
   2  -3   5    4.40    1.36
   2  -3   5    2.75    1.10
   2  -3   5    2.61    0.69
   2  -3   5    3.80    1.06
  -2   3  -5    3.50    0.48
  -2   3  -5    6.97    2.21
  -2   3  -5    1.65    2.14
  -2   3  -5    3.02    1.50
   2  -3   6  264.26   13.07
   2  -3   6  242.86   14.55
   2  -3   6  194.47   10.27
   2  -3   6  194.99   12.14
   2  -3   6  239.54   15.44
  -2   3  -6  212.89   13.64
  -2   3  -6  245.56   12.02
   2  -3   7    4.57    1.11
   2  -3   7    5.11    1.82
   2  -3   7    6.53    2.19
  -2   3  -7    4.60    1.86
  -2   3  -7    6.87    2.02
   2  -3   8   28.50    3.13
   2  -3   8   23.07    2.60
   2  -3   8   23.64    4.05
   2  -3   8   29.79    2.94
  -2   3  -8   36.51    3.65
  -2   3  -8   28.40    3.85
  -2   3  -8   36.02    2.90
   2  -3   9   96.01    7.10
   2  -3   9   76.27    6.02
   2  -3   9   78.19    8.50
   2  -3   9   92.38    6.41
  -2   3  -9   99.44    7.74
  -2   3  -9   74.86    7.95
  -2   3  -9   88.45   10.73
  -2   3  -9  104.27    6.54
   2  -3  10   49.14    6.91
   2  -3  10   38.92    4.34
  -2   3 -10   53.82    5.55
  -2   3 -10   43.78    7.61
  -2   3 -10   52.58    4.42
   2  -3  11    3.08    1.16
   2  -3  11    0.12    2.31
  -2   3 -11    0.59    2.95
  -2   3 -11    0.80    2.58
   2  -3  12   27.96    3.43
   2  -3  12   29.95    6.87
  -2   3 -12   41.81    5.13
  -2   3 -12   43.66    4.73
   2  -3  13    4.33    2.39
  -2   3 -13    8.89    2.72
  -2   3 -13    6.98    2.49
   2  -3  14   82.91    9.57
  -2   3 -14  114.26   10.72
  -2   3 -14  112.05   10.09
   2  -3  15    2.02    1.87
  -2   3 -15    2.11    3.25
  -2   3 -15    2.17    3.18
   2  -3  16    1.46    1.87
  -2   3 -16    3.19    2.25
  -2   3 -16    2.84    1.91
   2  -3  17    2.77    1.87
  -2   3 -17   -0.45    1.39
  -2   3 -17   -0.50    1.13
   2  -3  18    1.04    1.16
  -2   3 -18    0.07    1.44
  -2   3 -18   -0.15    1.92
   2  -3  19    8.07    1.62
  -2   3 -19   -1.88    2.11
  -2   2  18   15.34    3.12
   2  -2 -17    3.90    3.44
  -2   2  17    4.72    2.27
   2  -2 -16    7.61    2.74
  -2   2  16    4.59    2.66
   2  -2 -15    5.36    2.75
  -2   2  15    4.20    1.87
   2  -2 -14   18.75    4.16
  -2   2  14    7.66    4.54
   2  -2 -13    2.48    2.36
   2  -2 -13    2.86    2.14
  -2   2  13    1.16    2.59
   2  -2 -12    3.59    3.66
   2  -2 -12    3.74    2.04
  -2   2  12    1.24    1.48
   2  -2 -11    2.97    3.12
   2  -2 -11    1.27    1.71
  -2   2  11    1.11    1.14
  -2   2  11    1.71    1.23
   2  -2 -10    9.70    3.70
   2  -2 -10    7.43    2.25
  -2   2  10    4.76    1.64
  -2   2  10    6.27    1.61
   2  -2  -9    8.77    3.70
   2  -2  -9   11.48    2.23
  -2   2   9    5.96    1.70
  -2   2   9    8.22    2.23
  -2   2   9   12.58    2.10
  -2   2   9    6.00    1.56
   2  -2  -8  214.01   18.34
   2  -2  -8  172.91   10.32
   2  -2  -8  217.18   14.28
  -2   2   8  208.26   14.80
  -2   2   8  254.82   14.19
  -2   2   8  199.37   11.28
   2  -2  -7   17.73    4.43
   2  -2  -7   14.60    1.67
   2  -2  -7   17.82    2.09
   2  -2  -7   16.82    2.39
  -2   2   7   15.44    4.62
  -2   2   7   21.26    1.96
  -2   2   7   12.37    1.54
   2  -2  -6  516.01   33.64
   2  -2  -6  485.93   30.85
   2  -2  -6  408.83   23.81
   2  -2  -6  472.20   23.67
   2  -2  -6  457.82   28.48
  -2   2   6  476.73   32.24
  -2   2   6  527.08   28.97
   2  -2  -5 2678.50  262.69
   2  -2  -5 2597.28  253.25
   2  -2  -5 2218.14  210.10
   2  -2  -5 2580.02  234.15
   2  -2  -5 2535.36  240.56
  -2   2   5 2513.06  251.22
  -2   2   5 2577.50  246.32
  -2   2   5 1886.18  199.88
   2  -2  -4    1.62    1.23
   2  -2  -4   -0.68    1.07
   2  -2  -4    0.41    1.17
   2  -2  -4    1.29    0.51
  -2   2   4    2.44    1.30
  -2   2   4    1.38    0.88
  -2   2   4    1.03    0.34
   2  -2  -3  754.39   49.14
   2  -2  -3  737.46   46.43
   2  -2  -3  742.60   44.80
  -2   2   3  729.25   48.63
  -2   2   3  721.18   43.53
  -2   2   3  647.13   32.83
  -2   2   3  754.22   44.53
   2  -2  -2    1.97    0.92
   2  -2  -2    0.62    0.85
   2  -2  -2    1.04    0.73
  -2   2   2    0.12    1.66
  -2   2   2    1.68    0.78
  -2   2   2    0.41    0.61
  -2   2   2    0.44    0.61
   2  -2  -1  120.96    6.47
   2  -2  -1  113.88    6.07
   2  -2  -1  108.85    5.66
  -2   2   1  111.38    5.65
  -2   2   1  113.73    6.70
  -2   2   1  114.75    4.87
   2  -2   0  306.49   18.38
   2  -2   0  322.61   19.67
  -2   2   0  324.06   16.69
  -2   2   0  338.25   16.43
  -2   2   0  335.90   14.78
   2  -2   1   11.40    1.64
   2  -2   1   14.60    1.74
  -2   2  -1   12.86    1.15
  -2   2  -1   12.52    2.85
  -2   2  -1   11.86    1.57
   2  -2   2  104.06    7.22
   2  -2   2  122.76    6.46
   2  -2   2  103.09    2.95
   2  -2   2  106.22    5.94
  -2   2  -2  115.25    4.72
  -2   2  -2  104.68    6.16
  -2   2  -2  114.57    5.69
   2  -2   3  162.72    7.89
   2  -2   3  146.96   11.12
   2  -2   3  141.05    5.96
   2  -2   3  135.43    4.90
   2  -2   3  147.39    6.28
  -2   2  -3  152.98    8.64
  -2   2  -3  152.03    8.48
  -2   2  -3  161.00    6.28
   2  -2   4    2.96    1.08
   2  -2   4    3.81    1.20
   2  -2   4    2.60    0.86
   2  -2   4    2.60    0.54
   2  -2   4    2.47    0.78
  -2   2  -4    2.65    0.39
  -2   2  -4    3.60    2.20
  -2   2  -4    4.72    1.28
  -2   2  -4    3.21    1.09
   2  -2   5    1.00    0.72
   2  -2   5    0.00    0.99
   2  -2   5    0.13    0.51
   2  -2   5    0.84    0.52
   2  -2   5    0.19    1.00
  -2   2  -5    0.79    0.21
  -2   2  -5    1.05    1.00
  -2   2  -5    1.63    1.04
  -2   2  -5    0.93    0.57
   2  -2   6   52.11    6.05
   2  -2   6   39.75    2.91
   2  -2   6   43.56    2.89
   2  -2   6   50.03    3.09
  -2   2  -6   61.89    4.60
  -2   2  -6   52.45    4.55
  -2   2  -6   55.09    4.22
   2  -2   7    4.29    1.39
   2  -2   7    3.27    1.07
   2  -2   7    3.82    1.05
   2  -2   7    4.52    1.09
  -2   2  -7    2.33    1.68
  -2   2  -7    4.59    1.61
  -2   2  -7    4.96    1.07
   2  -2   8    5.23    2.33
   2  -2   8    6.57    1.50
   2  -2   8    6.71    1.44
  -2   2  -8    9.37    1.84
  -2   2  -8    6.43    2.15
  -2   2  -8    5.95    1.98
  -2   2  -8    8.03    1.41
   2  -2   9   14.57    3.78
   2  -2   9   12.14    3.38
   2  -2   9   10.69    2.15
   2  -2   9   15.05    2.04
  -2   2  -9   14.57    2.56
  -2   2  -9   11.11    2.89
  -2   2  -9   12.91    2.67
  -2   2  -9   19.37    3.18
   2  -2  10    1.24    1.01
   2  -2  10    1.18    1.98
  -2   2 -10    1.25    1.37
  -2   2 -10    0.75    1.20
   2  -2  11    1.77    1.18
   2  -2  11    2.05    1.49
  -2   2 -11    4.33    2.79
  -2   2 -11    1.21    1.47
   2  -2  12    1.43    1.86
   2  -2  12    1.23    1.52
  -2   2 -12    1.20    1.64
  -2   2 -12    1.20    1.45
   2  -2  13   54.62    7.15
  -2   2 -13   77.49    7.66
  -2   2 -13   67.89    9.96
   2  -2  14    1.34    2.00
  -2   2 -14    3.62    2.04
  -2   2 -14    2.09    1.90
   2  -2  15    4.72    2.28
  -2   2 -15    6.53    4.44
  -2   2 -15    2.94    2.16
   2  -2  16    3.87    3.99
  -2   2 -16    7.39    2.81
  -2   2 -16    5.02    2.27
   2  -2  17   -0.52    1.31
  -2   2 -17   -0.89    1.53
  -2   2 -17    0.61    2.01
   2  -2  18    0.41    1.17
  -2   2 -18    1.87    2.15
  -2   2 -18    0.05    1.00
   2  -2  19    0.10    1.00
  -2   2 -19    1.04    1.20
   2  -1 -18    2.03    1.46
  -2   1  18    0.36    0.87
  -2   1  18    0.21    1.37
   2  -1 -17    5.40    2.27
  -2   1  17    1.52    1.45
   2  -1 -16    4.91    2.57
  -2   1  16    0.34    2.75
   2  -1 -15   -0.68    1.83
   2  -1 -15   -0.15    1.60
  -2   1  15   -0.16    1.21
   2  -1 -14   23.36    7.09
   2  -1 -14   17.73    3.82
  -2   1  14   10.21    2.99
   2  -1 -13   21.42    6.49
   2  -1 -13   19.46    3.80
  -2   1  13   12.06    3.02
   2  -1 -12    3.28    2.16
   2  -1 -12    2.77    1.93
  -2   1  12    1.46    1.51
   2  -1 -11   24.32    4.20
   2  -1 -11   23.91    3.81
  -2   1  11   16.78    4.67
   2  -1 -10    1.59    1.40
   2  -1 -10    2.02    1.61
   2  -1 -10    2.15    1.39
  -2   1  10    0.31    1.83
  -2   1  10    0.41    1.00
   2  -1  -9   59.52    5.82
   2  -1  -9   55.78    5.77
   2  -1  -9   56.73    5.18
  -2   1   9   61.92    5.71
  -2   1   9   71.58    5.53
  -2   1   9   51.07    4.09
   2  -1  -8   13.02    2.52
   2  -1  -8   12.80    2.60
   2  -1  -8   17.45    2.26
  -2   1   8   12.46    2.45
  -2   1   8   16.13    3.40
  -2   1   8   10.28    1.54
   2  -1  -7  133.61    9.64
   2  -1  -7  123.46    8.56
   2  -1  -7  114.50    7.04
   2  -1  -7  125.71    7.87
  -2   1   7  130.09    9.25
  -2   1   7  158.01    8.00
  -2   1   7  117.89    6.18
  -2   1   7  135.23    7.41
   2  -1  -6   87.68   10.22
   2  -1  -6   90.60    9.00
   2  -1  -6   85.32    4.06
   2  -1  -6   89.84    5.48
  -2   1   6   88.97    6.50
  -2   1   6  101.97    5.34
  -2   1   6   83.43    4.14
  -2   1   6   94.10    4.95
   2  -1  -5  661.19   50.76
   2  -1  -5  694.21   50.24
   2  -1  -5  629.81   35.88
   2  -1  -5  729.44   38.55
   2  -1  -5  632.83   38.50
  -2   1   5  618.99   47.35
  -2   1   5  797.96   51.92
  -2   1   5  597.78   34.70
   2  -1  -4   73.61    7.87
   2  -1  -4   70.14    4.71
   2  -1  -4   65.40    3.08
   2  -1  -4   66.20    3.42
  -2   1   4   67.61    7.68
  -2   1   4   74.35    4.17
  -2   1   4   59.68    2.87
   2  -1  -3    3.65    2.15
   2  -1  -3    3.09    1.23
   2  -1  -3    3.02    1.20
  -2   1   3    5.25    1.33
  -2   1   3    2.35    1.63
  -2   1   3    3.22    0.61
  -2   1   3    3.46    0.69
   2  -1  -2  206.41   14.27
   2  -1  -2  203.80   13.46
   2  -1  -2  188.82   10.40
  -2   1   2  203.76   10.98
  -2   1   2  205.02   10.08
  -2   1   2  226.78   10.77
  -2   1   2  190.02    5.60
  -2   1   2  206.84    6.45
  -2   1   2  202.40    8.02
   2  -1  -1    5.79    2.28
   2  -1  -1    6.55    1.44
   2  -1  -1    7.52    1.07
  -2   1   1    7.66    2.13
  -2   1   1    8.53    0.95
  -2   1   1    6.70    1.08
   2  -1   0   15.78    2.57
   2  -1   0   18.33    3.13
   2  -1   0   17.37    1.62
   2  -1   0   16.66    0.36
  -2   1   0   18.08    1.95
  -2   1   0   18.12    2.54
  -2   1   0   19.25    1.41
   2  -1   1    9.02    1.11
   2  -1   1    9.00    1.49
   2  -1   1    9.28    2.20
   2  -1   1    8.69    0.42
   2  -1   1    9.91    0.68
  -2   1  -1    9.07    2.64
  -2   1  -1    9.34    0.40
   2  -1   2  356.31   16.21
   2  -1   2  358.16   22.09
   2  -1   2  328.16   17.50
   2  -1   2  335.07   13.54
   2  -1   2  311.20   14.55
  -2   1  -2  331.40   18.32
  -2   1  -2  320.94   17.31
  -2   1  -2  345.45   14.64
  -2   1  -2  362.64   14.40
   2  -1   3  850.44   52.60
   2  -1   3  828.36   52.81
   2  -1   3  760.85   43.18
   2  -1   3  783.86   43.95
  -2   1  -3  789.16   42.60
  -2   1  -3  829.63   54.05
  -2   1  -3  800.37   57.42
  -2   1  -3  832.98   48.67
  -2   1  -3  834.31   45.45
   2  -1   4 1019.59   61.58
   2  -1   4  804.76   56.19
   2  -1   4  749.07   44.83
   2  -1   4  770.73   46.46
  -2   1  -4  741.37   38.64
  -2   1  -4  758.92   44.59
  -2   1  -4  865.30   62.68
  -2   1  -4  821.25   59.94
  -2   1  -4  842.79   50.45
  -2   1  -4  848.38   49.41
   2  -1   5  219.06   10.70
   2  -1   5  215.58   11.87
   2  -1   5  184.61    9.61
   2  -1   5  200.25    8.97
  -2   1  -5  202.78   12.43
  -2   1  -5  210.06   10.12
  -2   1  -5  217.44    9.38
   2  -1   6 1507.77  112.98
   2  -1   6 1460.99  115.29
   2  -1   6 1158.29   90.60
   2  -1   6 1291.10   96.27
  -2   1  -6 1277.96  105.92
  -2   1  -6 1303.35   98.91
  -2   1  -6 1331.14   97.87
   2  -1   7    0.35    0.93
   2  -1   7   -1.21    0.80
   2  -1   7    1.75    0.62
  -2   1  -7    1.65    1.09
  -2   1  -7   -0.43    0.75
  -2   1  -7   -0.34    0.99
   2  -1   8  117.96    9.63
   2  -1   8  101.27    7.39
   2  -1   8  100.07    6.30
  -2   1  -8  149.46    8.55
  -2   1  -8  115.68    8.92
  -2   1  -8  108.02    7.28
  -2   1  -8  124.68    7.23
   2  -1   9  121.89    8.00
   2  -1   9  104.30    8.11
   2  -1   9   98.79    6.91
  -2   1  -9  133.94    8.93
  -2   1  -9  121.08   13.25
  -2   1  -9  126.93    7.88
   2  -1  10   78.20    5.82
   2  -1  10   63.11    6.28
   2  -1  10   60.24    5.29
  -2   1 -10   79.77    6.67
  -2   1 -10   76.24    5.88
   2  -1  11   93.54    9.34
   2  -1  11   66.94    7.35
  -2   1 -11   94.72   11.12
  -2   1 -11   79.15    9.48
   2  -1  12    1.53    1.16
   2  -1  12    0.54    1.76
  -2   1 -12    3.25    1.69
  -2   1 -12    2.99    1.59
   2  -1  13    8.13    1.91
   2  -1  13   10.44    2.98
  -2   1 -13   13.01    2.82
  -2   1 -13   10.50    2.64
   2  -1  14    1.75    1.21
   2  -1  14    2.79    3.27
  -2   1 -14    4.70    3.02
  -2   1 -14    3.06    1.81
   2  -1  15   -0.55    2.91
  -2   1 -15    1.64    1.84
  -2   1 -15    1.54    2.51
   2  -1  16    1.35    1.96
  -2   1 -16    4.57    2.04
  -2   1 -16    1.78    1.69
   2  -1  17   -0.06    1.38
  -2   1 -17    1.49    1.37
  -2   1 -17    0.14    1.10
   2  -1  18    0.08    1.09
  -2   1 -18    0.37    1.89
   2   0 -19    3.11    1.66
  -2   0  19    0.40    1.41
   2   0 -18   14.89    3.16
  -2   0  18    5.48    1.91
   2   0 -17    4.72    2.73
   2   0 -17    3.57    2.23
  -2   0  17    2.25    2.82
   2   0 -16   17.88    4.04
   2   0 -16   11.82    3.19
  -2   0  16    3.55    2.54
   2   0 -15   45.87   10.99
   2   0 -15   38.85    5.63
  -2   0  15   26.14    4.66
   2   0 -14   45.23   10.24
   2   0 -14   39.62    5.66
  -2   0  14   25.25    7.35
   2   0 -13   48.64    6.97
   2   0 -13   46.72    5.91
  -2   0  13   31.82    7.39
   2   0 -12   32.32    5.01
   2   0 -12   48.00    6.21
   2   0 -12   46.00    8.02
  -2   0  12   38.71    4.42
   2   0 -11   91.11    8.72
   2   0 -11  107.88    9.69
   2   0 -11  106.30   11.90
  -2   0  11   95.76    7.37
   2   0 -10  103.74    8.87
   2   0 -10  106.23    9.14
   2   0 -10  106.96   11.00
  -2   0  10   98.93    7.45
  -2   0  10  100.52    7.09
   2   0  -9   28.01    5.73
   2   0  -9   19.25    3.37
   2   0  -9   18.34    2.64
  -2   0   9   16.76    2.50
  -2   0   9   25.50    2.98
  -2   0   9   18.18    3.44
  -2   0   9   19.48    2.24
   2   0  -8   55.40    5.36
   2   0  -8   48.30    4.91
   2   0  -8   46.23    3.80
  -2   0   8   46.11    5.93
  -2   0   8   61.37    6.31
  -2   0   8   49.40    3.43
  -2   0   8   52.49    4.95
   2   0  -7  166.06   11.29
   2   0  -7  144.65    9.64
   2   0  -7  140.71    8.09
  -2   0   7  163.81   14.01
  -2   0   7  179.37    8.99
  -2   0   7  146.62    7.49
  -2   0   7  159.40    9.97
   2   0  -6   20.67    2.87
   2   0  -6   20.74    2.58
   2   0  -6   17.08    0.77
   2   0  -6   18.52    0.84
   2   0  -6   19.50    1.80
  -2   0   6   20.16    2.68
  -2   0   6   23.66    2.01
  -2   0   6   19.13    1.48
  -2   0   6   20.35    1.64
   2   0  -5  301.54   18.11
   2   0  -5  274.11   19.09
   2   0  -5  260.60   11.35
   2   0  -5  265.23   14.90
  -2   0   5  290.58   17.00
  -2   0   5  285.60   16.71
  -2   0   5  283.46   13.88
  -2   0   5  287.87   13.01
   2   0  -4  112.63    7.13
   2   0  -4  118.37    6.88
   2   0  -4  100.80    4.67
   2   0  -4  109.18    5.86
  -2   0   4  113.71    6.84
  -2   0   4  124.60    6.24
  -2   0   4  119.60    4.35
  -2   0   4  107.64    4.26
   2   0  -3   74.42    5.09
   2   0  -3   79.65    4.86
   2   0  -3   70.59    3.61
   2   0  -3   78.61    2.93
  -2   0   3   79.26    4.91
  -2   0   3   81.57    4.23
  -2   0   3   88.35    3.77
  -2   0   3   76.98    3.41
   2   0  -2   32.79    4.50
   2   0  -2   34.29    4.46
   2   0  -2   32.45    1.66
   2   0  -2   37.26    1.30
  -2   0   2   35.89    2.74
  -2   0   2   37.12    2.67
  -2   0   2   33.33    2.29
  -2   0   2   37.64    1.35
  -2   0   2   36.23    1.74
   2   0  -1    4.42    2.10
   2   0  -1    6.48    1.45
   2   0  -1    7.45    0.89
   2   0  -1    6.59    0.50
  -2   0   1    6.27    1.16
  -2   0   1    6.14    1.22
  -2   0   1    6.98    0.86
  -2   0   1    6.75    0.51
  -2   0   1    6.15    0.36
  -2   0   1    6.35    0.35
   2   0   0 1082.03   75.35
   2   0   0 1166.43   86.42
   2   0   0 1072.99   72.76
   2   0   0 1109.12   68.72
  -2   0   0 1145.41   77.68
  -2   0   0 1169.99   81.33
  -2   0   0 1147.30   80.54
  -2   0   0 1260.77   77.40
  -2   0   0 1094.62   63.34
  -2   0   0 1235.51   71.61
   2   0   1   -0.11    0.91
   2   0   1   -0.37    0.30
  -2   0  -1    0.83    0.67
  -2   0  -1   -0.07    0.66
  -2   0  -1    0.85    0.54
  -2   0  -1   -0.30    0.46
  -2   0  -1   -0.03    0.15
   2   0   2  854.64   51.60
   2   0   2  965.47   65.56
   2   0   2  808.55   51.62
   2   0   2  853.19   50.42
   2   0   2  831.25   45.40
  -2   0  -2  848.50   49.26
  -2   0  -2  911.33   58.82
  -2   0  -2  856.43   56.24
  -2   0  -2  938.42   54.69
  -2   0  -2  885.49   46.66
   2   0   3   13.89    1.32
   2   0   3   15.59    1.73
   2   0   3   15.33    1.85
   2   0   3   13.90    1.28
   2   0   3   13.93    1.12
  -2   0  -3   15.95    1.19
  -2   0  -3   15.63    2.00
  -2   0  -3   14.49    2.18
  -2   0  -3   19.03    2.02
  -2   0  -3   15.93    1.05
   2   0   4 2108.03  177.10
   2   0   4 1784.76  149.55
   2   0   4 1605.98  136.57
   2   0   4 1617.78  124.45
  -2   0  -4 1689.41  145.51
  -2   0  -4 1578.10  138.84
  -2   0  -4 1849.71  148.07
  -2   0  -4 1814.79  140.10
   2   0   5    1.16    0.70
   2   0   5    5.57    1.67
   2   0   5   -0.73    1.28
   2   0   5    0.92    0.74
  -2   0  -5    1.27    1.16
  -2   0  -5    0.28    0.78
  -2   0  -5    0.36    0.50
   2   0   6 1019.44   66.60
   2   0   6  875.79   65.61
   2   0   6  797.54   56.98
   2   0   6  803.84   53.98
  -2   0  -6  885.15   66.51
  -2   0  -6  943.06   68.97
  -2   0  -6  921.76   59.34
   2   0   7    4.36    1.19
   2   0   7    2.23    1.20
   2   0   7    1.79    1.19
  -2   0  -7    2.85    1.64
  -2   0  -7    2.10    1.97
  -2   0  -7    1.69    0.89
   2   0   8   42.01    3.53
   2   0   8   31.66    3.65
   2   0   8   24.30    3.58
  -2   0  -8   40.47    3.49
  -2   0  -8   39.08    4.48
  -2   0  -8   35.19    3.58
  -2   0  -8   33.83    4.23
   2   0   9  101.85    6.60
   2   0   9   74.83    6.67
   2   0   9   56.37    6.35
  -2   0  -9   88.15    6.45
  -2   0  -9   79.89    6.53
  -2   0  -9   80.31    7.93
   2   0  10   54.67    6.34
   2   0  10   43.78    5.40
  -2   0 -10   66.12    8.01
  -2   0 -10   49.80    4.64
   2   0  11   10.12    1.90
   2   0  11    9.64    4.20
  -2   0 -11   10.37    2.28
  -2   0 -11    8.27    2.17
   2   0  12    1.87    1.21
   2   0  12   -0.10    2.96
  -2   0 -12    2.35    1.55
  -2   0 -12    1.88    1.46
   2   0  13    5.29    1.62
   2   0  13    5.39    2.49
  -2   0 -13    6.02    2.11
  -2   0 -13    4.64    3.36
   2   0  14   -0.18    1.64
   2   0  14   -0.49    1.59
  -2   0 -14    5.14    2.61
  -2   0 -14    0.16    2.19
   2   0  15   -0.07    0.79
   2   0  15    1.27    1.42
  -2   0 -15   -0.28    1.29
   2   0  16    0.18    1.65
  -2   0 -16    1.67    1.46
   2   0  17    2.58    1.94
  -2   0 -17    5.96    3.11
   2   0  18   -5.53    3.24
   2   1 -19   13.25    3.33
  -2  -1  19   10.63    2.49
   2   1 -18    0.01    2.55
  -2  -1  18    4.22    1.58
   2   1 -17    4.77    2.50
   2   1 -17    2.12    1.90
  -2  -1  17    0.58    1.60
   2   1 -16   17.35    6.17
   2   1 -16    5.08    2.77
  -2  -1  16    4.97    2.41
   2   1 -15  139.09   20.20
   2   1 -15  127.69   12.44
  -2  -1  15  103.10   14.66
   2   1 -14   16.24    4.31
  -2  -1  14    9.12    2.87
   2   1 -13  356.11   29.23
   2   1 -13  338.68   32.53
  -2  -1  13  301.03   23.75
   2   1 -12   60.28    7.19
   2   1 -12   81.76    8.60
   2   1 -12   74.13    7.24
  -2  -1  12   71.16    6.55
   2   1 -11   11.14    5.02
   2   1 -11   13.04    3.34
   2   1 -11   11.53    2.56
  -2  -1  11   10.87    3.71
   2   1 -10    4.82    2.27
   2   1 -10    5.86    2.33
   2   1 -10    4.45    1.70
  -2  -1  10    5.68    2.72
  -2  -1  10    5.87    1.57
  -2  -1  10    5.25    2.27
   2   1  -9   81.80    7.43
   2   1  -9   66.24    6.64
   2   1  -9   72.80    5.45
  -2  -1   9   74.90    5.71
  -2  -1   9   87.33    6.01
  -2  -1   9   74.85    5.19
  -2  -1   9   72.43    4.70
   2   1  -8    0.90    1.35
   2   1  -8    0.05    1.27
   2   1  -8    0.56    0.86
  -2  -1   8    0.17    0.99
  -2  -1   8   -0.05    1.58
  -2  -1   8    2.19    0.82
  -2  -1   8    0.45    0.70
   2   1  -7    7.16    3.13
   2   1  -7    5.23    1.73
   2   1  -7    5.14    1.13
  -2  -1   7    4.96    1.46
  -2  -1   7    5.42    1.33
  -2  -1   7    4.72    1.10
  -2  -1   7    4.76    0.93
   2   1  -6  488.57   37.24
   2   1  -6  445.08   27.46
   2   1  -6  420.92   23.28
  -2  -1   6  449.23   27.12
  -2  -1   6  511.52   27.93
  -2  -1   6  477.03   25.37
  -2  -1   6  449.00   22.95
   2   1  -5   38.40    3.81
   2   1  -5   36.33    4.89
   2   1  -5   33.04    1.91
  -2  -1   5   33.63    2.94
  -2  -1   5   38.44    2.54
  -2  -1   5   34.37    1.71
   2   1  -4    0.84    1.00
   2   1  -4    0.94    0.88
   2   1  -4    0.48    0.21
   2   1  -4    0.59    0.49
   2   1  -4    0.40    0.37
  -2  -1   4    1.24    0.74
  -2  -1   4    1.07    0.71
  -2  -1   4    0.39    0.15
  -2  -1   4    0.53    0.30
   2   1  -3    3.23    1.09
   2   1  -3    2.09    0.93
   2   1  -3    1.60    0.50
   2   1  -3    1.98    0.87
   2   1  -3    0.68    0.50
  -2  -1   3    0.41    0.80
  -2  -1   3    1.03    0.77
  -2  -1   3    1.08    0.53
  -2  -1   3    1.16    0.50
  -2  -1   3    1.18    0.40
   2   1  -2    5.75    1.42
   2   1  -2    5.83    2.09
   2   1  -2    5.31    0.59
   2   1  -2    6.50    0.75
  -2  -1   2    4.46    1.08
  -2  -1   2    5.54    1.82
  -2  -1   2    5.03    1.12
  -2  -1   2    5.41    0.23
   2   1  -1  384.46   21.73
   2   1  -1  409.53   22.03
   2   1  -1  399.52   18.78
   2   1  -1  443.50   20.51
  -2  -1   1  400.51   20.24
  -2  -1   1  410.34   21.03
  -2  -1   1  416.00   20.18
  -2  -1   1  431.23   19.78
   2   1   0  500.66   29.22
   2   1   0  571.01   35.77
   2   1   0  527.26   28.13
   2   1   0  558.86   30.90
  -2  -1   0  589.75   30.70
  -2  -1   0  561.52   34.62
  -2  -1   0  531.37   29.25
  -2  -1   0  615.76   33.06
   2   1   1   37.84    2.39
   2   1   1   38.69    2.50
   2   1   1   40.65    3.53
   2   1   1   37.97    2.17
  -2  -1  -1   32.61    2.21
  -2  -1  -1   37.49    2.57
  -2  -1  -1   38.90    3.76
  -2  -1  -1   39.67    2.07
   2   1   2  518.09   28.21
   2   1   2  547.09   32.72
   2   1   2  515.89   31.02
   2   1   2  552.78   33.02
  -2  -1  -2  626.37   30.12
  -2  -1  -2  562.12   35.40
  -2  -1  -2  511.42   34.00
  -2  -1  -2  614.89   34.71
   2   1   3  169.82    8.04
   2   1   3  179.47    8.43
   2   1   3  153.14    7.57
   2   1   3  157.23    8.11
  -2  -1  -3  169.65    6.20
  -2  -1  -3  166.90    8.87
  -2  -1  -3  146.75   11.75
  -2  -1  -3  183.23    8.60
   2   1   4  729.49   38.28
   2   1   4  750.08   46.70
   2   1   4  824.35   50.28
   2   1   4  751.86   47.56
   2   1   4  643.87   35.82
  -2  -1  -4  873.46   42.15
  -2  -1  -4  720.85   48.56
  -2  -1  -4  852.52   55.51
  -2  -1  -4  648.34   39.11
   2   1   5    0.55    0.63
   2   1   5    1.93    0.90
   2   1   5    0.79    0.90
   2   1   5    0.34    0.36
  -2  -1  -5   -0.01    1.85
  -2  -1  -5    0.84    0.45
   2   1   6 1032.65   69.80
   2   1   6  830.57   59.90
   2   1   6  663.36   42.47
  -2  -1  -6  877.66   71.99
  -2  -1  -6  970.46   67.16
  -2  -1  -6  844.86   53.63
   2   1   7   67.42    4.96
   2   1   7   52.73    4.95
  -2  -1  -7   66.00    4.26
  -2  -1  -7   61.71    8.84
  -2  -1  -7   56.57    5.05
  -2  -1  -7   50.36    3.41
   2   1   8   10.68    2.59
   2   1   8    7.68    2.07
   2   1   8    5.31    1.18
  -2  -1  -8    9.05    1.59
  -2  -1  -8   10.67    4.16
  -2  -1  -8    9.01    3.25
  -2  -1  -8    7.75    1.44
   2   1   9   27.06    2.78
   2   1   9   22.04    3.54
  -2  -1  -9   22.83    4.26
   2   1  10   18.84    2.45
   2   1  10   15.30    3.21
  -2  -1 -10   16.34    2.50
   2   1  11   11.66    2.18
   2   1  11   10.67    2.95
  -2  -1 -11   11.32    2.23
   2   1  12   11.02    2.12
   2   1  12    8.52    3.01
  -2  -1 -12    9.52    2.27
   2   1  13    1.05    2.00
   2   1  13    1.38    1.78
  -2  -1 -13    0.74    2.63
   2   1  14    0.25    1.03
   2   1  14    0.98    1.63
  -2  -1 -14    0.65    1.34
   2   1  15    3.17    1.37
   2   1  15    6.12    2.34
   2   1  16    2.87    3.27
   2   1  17    0.51    1.30
   2   2 -19   27.81    3.97
  -2  -2  19    2.76    3.59
   2   2 -18    1.45    2.39
   2   2 -18    2.05    1.64
  -2  -2  18    2.14    1.50
   2   2 -17    3.97    2.77
   2   2 -17    3.36    1.95
  -2  -2  17    1.69    1.83
   2   2 -16   52.39   10.34
   2   2 -16   24.85    4.77
  -2  -2  16   22.83    6.75
   2   2 -15   40.92   10.04
   2   2 -15   33.12    7.95
  -2  -2  15   30.29    4.85
   2   2 -14    1.47    2.43
   2   2 -14    1.42    3.01
  -2  -2  14    2.45    1.79
   2   2 -13  108.34   16.73
   2   2 -13  155.24   14.55
   2   2 -13  148.51   12.51
  -2  -2  13  155.52   16.66
   2   2 -12   22.69    4.68
   2   2 -12   27.89    4.98
   2   2 -12   24.76    3.80
  -2  -2  12   25.75    3.70
   2   2 -11   75.79    8.26
   2   2 -11   70.86    7.69
   2   2 -11   66.07    6.15
  -2  -2  11   72.61    6.37
   2   2 -10    3.52    2.17
   2   2 -10    3.55    2.13
   2   2 -10    3.72    1.49
  -2  -2  10    4.64    1.54
  -2  -2  10    3.14    1.31
   2   2  -9    8.94    3.84
   2   2  -9    6.55    2.18
   2   2  -9    5.84    1.52
  -2  -2   9    6.52    1.46
  -2  -2   9    6.75    1.75
  -2  -2   9    6.58    2.50
  -2  -2   9    4.89    1.33
   2   2  -8   32.00    4.20
   2   2  -8   28.07    3.68
   2   2  -8   27.19    3.95
  -2  -2   8   27.75    4.15
  -2  -2   8   35.27    2.96
  -2  -2   8   28.49    2.72
  -2  -2   8   28.26    2.35
   2   2  -7   54.29    5.37
   2   2  -7   50.51    4.48
   2   2  -7   44.97    4.48
  -2  -2   7   45.89    5.24
  -2  -2   7   61.32    5.55
  -2  -2   7   53.67    3.59
  -2  -2   7   47.79    2.94
   2   2  -6  180.67   11.91
   2   2  -6  159.04   13.08
   2   2  -6  142.88    9.14
  -2  -2   6  185.81   13.78
  -2  -2   6  189.65    9.29
  -2  -2   6  156.92    7.23
   2   2  -5  224.02   13.91
   2   2  -5  218.88   15.89
   2   2  -5  215.16   10.75
   2   2  -5  180.37    9.91
  -2  -2   5  233.28   16.08
  -2  -2   5  228.01   10.80
  -2  -2   5  204.11    8.53
   2   2  -4  289.01   22.22
   2   2  -4  281.26   15.41
   2   2  -4  295.19   16.53
   2   2  -4  255.92   11.71
  -2  -2   4  312.39   19.82
  -2  -2   4  280.30   15.48
  -2  -2   4  291.46   14.12
  -2  -2   4  263.98   11.60
   2   2  -3   22.50    4.34
   2   2  -3   24.64    2.33
   2   2  -3   23.04    0.81
  -2  -2   3   22.94    2.98
  -2  -2   3   28.43    1.93
  -2  -2   3   25.03    1.70
  -2  -2   3   27.30    1.87
  -2  -2   3   23.08    1.07
   2   2  -2   64.95    4.68
   2   2  -2   68.68    5.74
   2   2  -2   74.26    3.37
   2   2  -2   73.76    3.72
  -2  -2   2   70.30    3.66
  -2  -2   2   75.70    3.55
  -2  -2   2   70.38    3.12
   2   2  -1  193.81   10.93
   2   2  -1  208.65   10.55
   2   2  -1  229.95    9.30
   2   2  -1  247.05   11.32
  -2  -2   1  217.90    9.94
  -2  -2   1  237.73   12.94
  -2  -2   1  218.03   11.73
   2   2   0  224.03   12.27
   2   2   0  244.53   11.97
   2   2   0  260.52   11.52
   2   2   0  282.78   13.55
  -2  -2   0  284.13   12.39
  -2  -2   0  260.90   12.42
  -2  -2   0  246.92   12.15
  -2  -2   0  319.94   16.97
   2   2   1  123.83    6.55
   2   2   1  143.57    8.52
   2   2   1  140.95    6.33
   2   2   1  138.01    7.11
  -2  -2  -1  168.28    7.73
  -2  -2  -1  142.56    9.01
  -2  -2  -1  129.00    6.85
  -2  -2  -1  154.03    7.49
   2   2   2   58.59    4.66
   2   2   2   64.78    3.27
   2   2   2   67.10    3.59
   2   2   2   64.16    4.10
  -2  -2  -2   79.18    2.68
  -2  -2  -2   60.50    3.75
  -2  -2  -2   58.28    4.20
  -2  -2  -2   69.74    6.23
   2   2   3   15.91    2.11
   2   2   3   12.52    1.66
   2   2   3   16.62    1.74
   2   2   3   15.01    1.91
  -2  -2  -3   15.71    1.20
  -2  -2  -3   13.46    1.67
  -2  -2  -3   14.56    2.20
  -2  -2  -3   16.79    1.92
   2   2   4  137.38    5.86
   2   2   4  137.75    6.26
   2   2   4  163.73   11.07
   2   2   4  139.23   11.19
  -2  -2  -4  144.11    5.54
  -2  -2  -4  136.66    9.00
  -2  -2  -4  153.17    8.57
   2   2   5  170.01   11.41
   2   2   5  152.32   10.34
  -2  -2  -5  161.09   10.86
  -2  -2  -5  170.92   13.55
   2   2   6   69.53    4.33
   2   2   6   59.13    5.19
  -2  -2  -6   61.47    3.71
  -2  -2  -6   65.12    5.87
  -2  -2  -6   68.16    5.33
   2   2   7    2.10    1.01
   2   2   7    0.77    1.28
  -2  -2  -7    1.51    0.79
  -2  -2  -7    0.23    1.23
   2   2   8   12.37    2.05
   2   2   8    7.62    2.54
  -2  -2  -8   15.89    2.74
   2   2   9    5.17    1.60
   2   2   9    3.55    2.11
  -2  -2  -9    5.05    1.36
   2   2  10    2.42    1.34
   2   2  10    0.25    1.78
   2   2  11   12.92    3.93
   2   2  11   11.55    3.30
   2   2  12    2.42    1.42
   2   2  12    0.76    1.98
   2   2  13   51.97    5.04
   2   2  13   49.66    6.87
   2   2  14    0.70    1.14
   2   2  14    1.50    2.82
   2   2  15   12.23    3.34
   2   2  16    1.05    1.46
  -2  -2 -16    0.74    0.96
   2   2  17    1.30    1.37
   2   3 -19    1.68    2.07
  -2  -3  19    2.10    1.38
   2   3 -18    1.64    1.91
   2   3 -18    0.70    1.30
  -2  -3  18    0.55    1.31
   2   3 -17    1.01    2.37
   2   3 -17    1.89    1.62
  -2  -3  17    2.01    2.62
   2   3 -16   21.59    8.98
   2   3 -16   24.75    6.30
  -2  -3  16   18.99    3.97
   2   3 -15   16.99    6.86
   2   3 -15   11.72    5.15
  -2  -3  15   13.50    3.27
   2   3 -14   10.40    3.41
   2   3 -14    6.10    2.60
  -2  -3  14    9.32    4.36
   2   3 -13   14.00    3.92
   2   3 -13   16.51    4.15
   2   3 -13   14.05    3.14
  -2  -3  13   16.22    3.27
   2   3 -12    0.55    1.93
   2   3 -12    2.07    1.89
   2   3 -12    1.10    1.37
  -2  -3  12    0.70    1.46
   2   3 -11    1.84    2.34
   2   3 -11    0.73    1.34
   2   3 -11    0.86    0.97
  -2  -3  11   -1.45    1.07
   2   3 -10    0.50    3.39
   2   3 -10    2.32    1.82
   2   3 -10    2.27    2.11
  -2  -3  10    2.22    2.29
   2   3  -9   54.16    6.13
   2   3  -9   42.27    5.01
   2   3  -9   40.67    5.46
  -2  -3   9   49.69    4.28
  -2  -3   9   39.92    5.32
   2   3  -8   19.22    3.66
   2   3  -8   16.87    2.84
   2   3  -8   14.53    2.92
  -2  -3   8   17.77    2.29
  -2  -3   8   19.84    2.26
  -2  -3   8   17.48    2.37
  -2  -3   8   14.68    2.93
   2   3  -7    4.47    1.96
   2   3  -7    3.51    2.34
   2   3  -7    2.42    0.88
  -2  -3   7    3.96    1.23
  -2  -3   7    3.70    1.09
  -2  -3   7    2.09    0.86
   2   3  -6    1.65    2.33
   2   3  -6   -0.04    1.74
   2   3  -6    0.49    0.94
   2   3  -6    0.84    0.54
  -2  -3   6    0.59    0.90
  -2  -3   6    1.94    1.22
  -2  -3   6    0.29    0.53
   2   3  -5   74.88    9.37
   2   3  -5   75.13    5.16
   2   3  -5   80.49    4.97
   2   3  -5   57.93    2.94
  -2  -3   5   77.10    4.84
  -2  -3   5   82.55    4.28
  -2  -3   5   68.88    4.00
   2   3  -4 1755.10  155.54
   2   3  -4 1675.31  143.09
   2   3  -4 1894.86  162.39
   2   3  -4 1331.91  108.98
  -2  -3   4 1859.41  154.48
  -2  -3   4 1943.83  154.78
  -2  -3   4 1732.08  129.75
   2   3  -3   31.08    3.40
   2   3  -3   31.68    3.75
  -2  -3   3   35.13    2.60
  -2  -3   3   28.37    2.64
  -2  -3   3   28.49    2.34
  -2  -3   3   29.56    0.92
   2   3  -2   26.12    2.99
   2   3  -2   25.92    2.07
   2   3  -2   24.78    1.77
  -2  -3   2   31.51    2.27
  -2  -3   2   30.24    2.70
  -2  -3   2   25.65    1.71
   2   3  -1  157.98    9.48
   2   3  -1  151.60    8.88
   2   3  -1  172.16    6.91
   2   3  -1  171.09    9.15
  -2  -3   1  173.79    9.43
  -2  -3   1  172.94    7.39
  -2  -3   1  169.40    8.14
   2   3   0   23.56    2.50
   2   3   0   21.73    2.41
   2   3   0   22.87    1.49
  -2  -3   0   25.39    1.59
  -2  -3   0   21.28    2.18
  -2  -3   0   21.33    2.04
   2   3   1  116.94    6.84
   2   3   1  124.46    5.82
   2   3   1  129.13   10.17
  -2  -3  -1  143.39    5.75
  -2  -3  -1  114.86    5.66
  -2  -3  -1  114.59    6.83
  -2  -3  -1  144.92    8.00
   2   3   2  254.09   13.92
   2   3   2  254.59   13.02
   2   3   2  278.12   15.98
  -2  -3  -2  320.35   15.48
  -2  -3  -2  222.57   14.20
  -2  -3  -2  307.95   17.14
   2   3   3    5.98    1.16
   2   3   3    5.05    0.66
   2   3   3    6.67    1.17
   2   3   3    6.44    1.64
  -2  -3  -3    7.20    0.74
  -2  -3  -3    4.88    1.70
  -2  -3  -3    7.04    1.72
  -2  -3  -3    7.31    1.58
   2   3   4   61.76    3.90
   2   3   4   61.69    5.03
  -2  -3  -4   57.13    5.30
  -2  -3  -4   64.61    5.04
   2   3   5   14.25    1.82
   2   3   5   11.97    2.37
  -2  -3  -5   13.23    2.71
  -2  -3  -5   11.86    2.29
   2   3   6   39.09    3.38
   2   3   6   33.31    6.49
   2   3   7   29.46    3.09
   2   3   7   25.10    6.20
   2   3   8   63.61    5.46
   2   3   8   51.34    9.54
   2   3   9    4.10    2.61
   2   3   9    0.11    3.34
   2   3  10    1.93    1.54
   2   3  10    4.52    3.37
   2   3  11    4.88    1.89
   2   3  11    3.39    4.18
   2   3  12    1.22    1.44
   2   3  12    2.61    2.02
   2   3  13   17.37    2.86
   2   3  13   10.62    3.82
   2   3  14    6.68    2.77
   2   3  15   -0.07    1.50
  -2  -3 -15   -1.20    1.18
   2   3  16   -3.84    1.94
  -2  -3 -16    7.91    1.28
   2   4 -19    2.08    2.41
  -2  -4  19    8.28    1.79
   2   4 -18    3.05    2.09
   2   4 -18    1.31    1.30
  -2  -4  18    3.02    2.51
   2   4 -17    0.79    2.14
   2   4 -17    0.91    1.39
  -2  -4  17    2.17    1.55
   2   4 -16   16.95    4.22
   2   4 -16    8.46    4.56
  -2  -4  16   11.91    3.12
   2   4 -15   14.43    6.24
   2   4 -15    7.43    2.56
  -2  -4  15   10.32    4.60
   2   4 -14    1.53    2.26
   2   4 -14    2.92    3.85
   2   4 -14    0.81    1.73
  -2  -4  14    4.66    1.97
   2   4 -13    6.03    2.96
   2   4 -13    5.53    4.51
   2   4 -13    4.40    2.07
  -2  -4  13    6.14    2.36
   2   4 -12    0.53    3.04
   2   4 -12    2.87    2.71
   2   4 -12    0.01    1.20
  -2  -4  12    0.72    1.43
   2   4 -11   32.45    8.13
   2   4 -11   21.26    6.70
   2   4 -11   18.25    5.03
  -2  -4  11   27.56    6.08
   2   4 -10   18.26    4.11
   2   4 -10   15.17    5.18
   2   4 -10    9.72    3.66
  -2  -4  10   16.87    2.82
   2   4  -9    3.47    1.86
   2   4  -9    1.58    2.29
   2   4  -9    0.37    0.95
  -2  -4   9    1.28    1.24
  -2  -4   9    0.35    0.91
   2   4  -8   26.76    4.88
   2   4  -8   22.68    5.90
  -2  -4   8   27.66    2.79
   2   4  -7  287.39   27.89
   2   4  -7  238.76   16.67
   2   4  -7  272.10   17.55
  -2  -4   7  246.33   17.97
  -2  -4   7  277.30   15.13
   2   4  -6  383.14   27.14
   2   4  -6  358.01   23.05
   2   4  -6  413.86   25.06
  -2  -4   6  362.68   24.49
  -2  -4   6  359.86   20.10
   2   4  -5  150.26   11.26
   2   4  -5  131.00    8.37
   2   4  -5  159.90    9.54
  -2  -4   5  146.03   10.53
  -2  -4   5  145.01    7.22
   2   4  -4   47.31    4.93
   2   4  -4   40.57    4.70
   2   4  -4   47.82    3.81
  -2  -4   4   45.71    3.16
  -2  -4   4   39.38    3.36
   2   4  -3    0.00    1.15
   2   4  -3    0.29    0.61
  -2  -4   3    0.13    0.68
  -2  -4   3    0.57    0.69
   2   4  -2   30.38    3.54
  -2  -4   2   30.91    2.27
  -2  -4   2   25.47    2.11
  -2  -4   2   32.85    3.16
   2   4  -1    4.75    1.79
   2   4  -1    5.22    0.84
   2   4  -1    3.70    1.63
  -2  -4   1    7.33    1.13
  -2  -4   1    5.69    1.25
   2   4   0    4.93    1.58
   2   4   0    4.51    1.41
   2   4   0    3.04    1.61
  -2  -4   0    5.21    1.55
  -2  -4   0    3.83    1.28
  -2  -4   0    4.07    1.55
   2   4   1   54.23    4.58
   2   4   1   61.49    4.95
   2   4   1   61.08    4.93
  -2  -4  -1   69.69    3.59
  -2  -4  -1   45.48    4.32
  -2  -4  -1   67.57    5.16
   2   4   2    1.12    1.15
   2   4   2    1.51    1.42
   2   4   2    5.66    2.19
  -2  -4  -2    2.10    0.73
  -2  -4  -2    1.46    1.28
  -2  -4  -2    1.66    1.36
   2   4   3    6.17    1.48
   2   4   3    7.08    2.13
   2   4   3    7.52    1.94
  -2  -4  -3    4.97    1.50
  -2  -4  -3    6.85    1.96
  -2  -4  -3    6.12    1.80
   2   4   4    4.74    2.57
   2   4   4   11.72    2.31
   2   4   5   76.88    7.94
   2   4   5   71.68    6.94
   2   4   6   11.50    3.40
   2   4   6    9.04    2.82
   2   4   7   58.65    5.10
   2   4   7   47.37    6.36
   2   4   8    1.56    1.43
   2   4   8    1.98    1.93
   2   4   9   32.87    3.97
   2   4   9   24.36    5.02
   2   4  10    3.99    1.88
   2   4  10    5.37    2.57
   2   4  11    1.21    1.37
   2   4  11    0.98    1.90
   2   4  12    1.75    2.09
   2   4  13    0.49    1.59
   2   4  14    1.79    1.49
  -2  -4 -14   -0.07    1.28
   2   4  15   -4.58    2.50
  -2  -4 -15    2.55    1.16
   2   5 -18   18.46    3.57
  -2  -5  18   13.17    4.62
   2   5 -17    8.46    2.60
   2   5 -17    2.45    1.66
  -2  -5  17    8.91    2.24
   2   5 -16   32.41    5.60
  -2  -5  16   33.82    4.88
   2   5 -15   18.03    4.31
   2   5 -15   12.52    2.90
  -2  -5  15   21.74    5.81
   2   5 -14    6.02    3.42
   2   5 -14    8.95    3.38
  -2  -5  14   10.21    2.93
   2   5 -13    6.40    3.32
   2   5 -13    5.41    3.04
  -2  -5  13    7.05    2.62
   2   5 -12   18.46    7.86
   2   5 -12   12.81    6.77
  -2  -5  12   20.41    5.92
   2   5 -11    9.98    3.76
   2   5 -11    6.29    3.07
  -2  -5  11   10.05    2.73
   2   5 -10   33.78    6.03
   2   5 -10   22.41    4.62
  -2  -5  10   31.96    4.29
   2   5  -9   54.98    7.31
   2   5  -9   35.16    5.28
  -2  -5   9   49.63    5.16
   2   5  -8   10.95    5.64
   2   5  -8    6.90    2.28
   2   5  -7   68.56    7.82
   2   5  -7   73.17    6.24
   2   5  -6   47.30    6.05
   2   5  -6   49.33    4.79
   2   5  -5    1.37    1.50
   2   5  -5   -1.03    1.93
   2   5  -4   35.74    5.28
   2   5  -4   50.61    4.61
   2   5  -3   35.64    4.73
  -2  -5   3   37.01    3.00
   2   5  -2    3.68    2.07
  -2  -5   2    5.16    2.01
   2   5  -1   30.47    4.59
   2   5  -1   47.17    6.93
  -2  -5   1   37.62    4.83
  -2  -5   1   66.37    7.41
   2   5   0   88.49    7.74
   2   5   0   92.54    5.45
   2   5   0  111.20    8.84
  -2  -5   0  125.67    6.61
   2   5   1   92.53    7.81
   2   5   1   96.30    6.00
   2   5   1  114.00    8.81
  -2  -5  -1  122.76    6.55
   2   5   2    1.57    1.33
   2   5   2    1.62    0.96
   2   5   2    1.30    1.50
  -2  -5  -2    0.57    1.35
   2   5   3   26.23    2.77
   2   5   3   25.14    3.99
   2   5   4    0.91    1.10
   2   5   4    1.47    2.56
   2   5   5  103.72    7.68
   2   5   5   97.24   13.77
   2   5   6   10.65    2.31
   2   5   6    9.54    3.12
   2   5   7   71.91    6.41
   2   5   7   60.89    7.76
   2   5   8   13.59    2.82
   2   5   8   13.11    3.67
   2   5   9    1.62    1.55
   2   5   9    1.46    2.00
   2   5  10    2.91    2.41
   2   5  11   11.96    5.75
   2   5  12    3.68    4.53
  -2  -5 -12    8.94    2.70
   2   5  13    3.23    3.30
  -2  -5 -13    4.24    1.91
   2   5  14    0.22    1.27
  -2  -5 -14    1.20    1.13
  -2  -6  18    3.67    2.40
   2   6 -17    2.42    2.61
  -2  -6  17    3.44    1.66
   2   6 -16    2.94    1.97
  -2  -6  16    5.27    2.02
   2   6 -15    1.10    1.86
  -2  -6  15    4.04    3.03
   2   6 -14   33.67    5.07
   2   6 -14   12.07    4.12
  -2  -6  14   19.38    4.11
   2   6 -13   23.26    8.89
  -2  -6  13   27.01    4.52
   2   6 -12   25.41    6.10
  -2  -6  12   29.68    7.36
   2   6 -11   31.21    6.27
  -2  -6  11   28.55    4.49
   2   6 -10   82.13   10.42
  -2  -6  10   75.29    7.46
   2   6  -9   10.84    4.11
  -2  -6   9   10.50    2.81
   2   6  -8   -1.74    3.82
   2   6  -7   10.49    3.49
   2   6  -7    7.96    2.62
   2   6  -6    5.96    3.01
   2   6  -6    6.01    2.30
   2   6  -5    4.90    2.73
   2   6  -5    4.64    2.07
   2   6  -4   68.81    8.38
   2   6  -4   87.80   10.77
   2   6  -3   27.81    4.87
   2   6  -2    7.88    2.90
   2   6  -1   34.50    5.25
   2   6  -1   42.53    5.12
  -2  -6   1   37.85    3.65
   2   6   0    9.71    3.07
   2   6   0   14.74    4.96
   2   6   1   21.84    4.05
   2   6   1   25.33    4.10
   2   6   2    0.87    1.53
   2   6   2    1.23    1.64
   2   6   3    2.75    2.04
   2   6   4    4.98    2.46
   2   6   5    1.56    1.91
   2   6   6    2.73    2.22
   2   6   7   30.94    5.27
   2   6   8    1.95    2.11
   2   6   9    4.26    2.68
  -2  -6  -9    6.99    2.75
   2   6  10    4.34    2.60
  -2  -6 -10    7.08    2.66
   2   6  11    1.20    1.52
  -2  -6 -11    0.22    1.52
   2   6  12    3.43    1.88
  -2  -6 -12    3.92    1.89
  -2  -6 -13   -1.59    2.12
  -2  -7  17    0.47    1.05
  -2  -7  16    0.27    1.13
   2   7 -15   -0.02    2.33
  -2  -7  15   14.18    2.48
   2   7 -14    6.09    3.07
  -2  -7  14    9.85    2.66
   2   7 -13    3.69    4.98
  -2  -7  13    6.23    2.44
   2   7 -12    1.46    2.16
  -2  -7  12   -0.54    2.77
   2   7 -11   29.48    6.34
  -2  -7  11   28.55    4.54
   2   7 -10    0.91    2.77
  -2  -7  10    2.46    1.89
   2   7  -9    3.98    4.51
  -2  -7   9   11.58    2.89
   2   7  -8   -2.81    4.61
   2   7  -7    2.07    2.48
   2   7  -7    1.46    1.95
   2   7  -6    4.56    3.54
   2   7  -6    7.17    2.82
   2   7  -5   82.10   12.44
   2   7  -5  175.53   12.61
   2   7  -4  242.42   25.98
   2   7  -4  677.30   49.69
   2   7  -3  517.26   44.76
   2   7  -2    2.05    2.38
   2   7  -1   -0.14    3.29
   2   7  -1   20.81    4.12
   2   7   0  109.34   11.50
   2   7   0  133.09   12.09
  -2  -7   0  113.63    9.07
   2   7   1    6.96    2.69
   2   7   1    5.70    4.63
  -2  -7  -1    5.92    2.14
   2   7   2    2.10    2.45
  -2  -7  -2   -0.26    1.20
   2   7   3    5.16    2.27
  -2  -7  -3    1.61    2.00
   2   7   4    0.89    1.72
  -2  -7  -4    0.58    1.54
   2   7   5   13.06    3.65
  -2  -7  -5   14.49    3.44
   2   7   6    0.90    1.80
  -2  -7  -6    0.97    1.71
   2   7   7    6.56    2.88
  -2  -7  -7    7.81    2.82
   2   7   8    6.84    2.81
  -2  -7  -8    7.76    2.73
   2   7   9   -2.58    1.58
  -2  -7  -9    0.64    1.57
   2   7  10    0.44    1.15
  -2  -7 -10   -0.55    1.15
   2   7  11   -2.98    1.71
  -2  -7 -11   -3.37    2.74
  -2  -8  15   13.32    4.75
   2   8 -14    4.63    2.44
  -2  -8  14    7.34    2.21
   2   8 -13    0.42    2.99
  -2  -8  13   -1.01    1.45
   2   8 -12    6.61    3.53
  -2  -8  12   10.04    4.37
   2   8 -11    1.12    2.72
  -2  -8  11    2.82    1.89
   2   8 -10    7.45    3.41
  -2  -8  10    2.52    2.32
   2   8  -9    0.77    2.71
  -2  -8   9    1.90    1.82
   2   8  -8    4.88    6.02
   2   8  -7   -0.24    5.27
   2   8  -7    5.49    2.65
   2   8  -6   12.76    4.96
   2   8  -6   18.76    4.38
   2   8  -5   76.58   10.73
   2   8  -5   95.56   10.15
   2   8  -4   19.02    5.28
   2   8  -3   91.18   11.22
   2   8  -2   80.58   10.11
   2   8  -2   77.96   10.67
   2   8  -1   41.98    6.00
   2   8  -1   18.41    7.17
   2   8   0   11.88    3.92
   2   8   0   15.80    4.13
   2   8   1   10.95    3.76
   2   8   1   16.82    3.91
  -2  -8  -1   19.28    5.51
   2   8   2    1.26    1.95
  -2  -8  -2    1.72    2.53
   2   8   3   -0.65    2.09
  -2  -8  -3    3.59    1.72
   2   8   4    5.32    2.00
  -2  -8  -4   -0.77    1.71
   2   8   5    8.76    4.74
  -2  -8  -5    8.06    2.61
   2   8   6    2.71    3.30
  -2  -8  -6    2.82    3.10
   2   8   7    6.28    3.96
  -2  -8  -7    6.02    3.75
   2   8   8    2.73    2.80
  -2  -8  -8    1.89    3.09
   2   8   9   -5.07    1.84
  -2  -8  -9   -3.87    2.01
  -2  -9  14    0.62    1.15
   2   9 -13    2.70    1.90
  -2  -9  13    1.25    1.71
   2   9 -12    8.09    5.54
  -2  -9  12   10.47    2.61
   2   9 -11    3.04    2.78
  -2  -9  11    4.53    3.30
   2   9 -10    0.77    2.15
  -2  -9  10    0.67    1.51
   2   9  -9    2.32    2.64
  -2  -9   9    1.69    1.82
   2   9  -8   11.52    4.51
  -2  -9   8   11.21    3.09
   2   9  -7   36.04   11.91
   2   9  -6   95.22   15.31
   2   9  -6   64.31   10.94
   2   9  -5   98.73   17.06
   2   9  -5   85.95   12.77
   2   9  -4   21.19    5.51
   2   9  -3    2.94    2.74
   2   9  -2   -0.19    1.86
   2   9  -2    1.29    1.88
   2   9  -1    7.20    3.24
   2   9  -1   10.04    5.11
   2   9   0    3.67    2.78
   2   9   0   -1.77    2.91
   2   9   1    2.85    2.15
   2   9   2    0.47    1.45
  -2  -9  -2    0.22    1.18
   2   9   3    0.33    1.56
  -2  -9  -3    1.15    1.36
   2   9   4   10.03    2.44
  -2  -9  -4    2.36    2.12
   2   9   5    0.90    1.46
  -2  -9  -5    1.05    1.37
   2   9   6   15.14    2.43
  -2  -9  -6    1.64    2.23
   2   9   7   -0.23    1.06
  -2  -9  -7    1.11    1.09
   2  10 -11   17.61    4.46
  -2 -10  11    3.62    1.95
   2  10 -10   22.37    4.54
  -2 -10  10    8.19    4.64
   2  10  -9   13.07    4.04
  -2 -10   9   13.06    2.78
   2  10  -8    2.92    2.76
  -2 -10   8    3.80    1.91
   2  10  -7    3.57    3.11
  -2 -10   7    5.52    2.15
   2  10  -6    8.30    3.71
   2  10  -5    0.97    2.14
   2  10  -4    1.42    2.24
   2  10  -3    3.54    4.39
   2  10  -2    1.95    2.63
   2  10  -2    7.98    2.41
   2  10  -1    1.32    1.57
   2  10  -1    0.45    1.49
   2  10   0    0.43    1.11
   2  10   0   -0.96    1.22
   2  10   1    2.11    1.64
   2  10   2   -1.00    1.39
   2  10   3   -4.94    3.08
   2  11  -4    1.12    1.56
   3 -12   1    5.17    2.78
  -3  12  -1    3.64    1.80
  -3  12  -1    3.16    1.39
   3 -12   2   18.42    4.36
  -3  12  -2   16.91    3.12
  -3  12  -2   13.90    2.46
   3 -12   3    8.24    2.18
  -3  12  -3   12.87    2.64
  -3  12  -3   12.89    2.31
  -3  12  -4    6.63    2.45
  -3  12  -4   14.85    2.25
  -3  12  -5    5.99    3.25
  -3  12  -5    7.03    2.92
  -3  12  -6   -2.54    2.26
   3 -11  -4   -1.54    1.74
  -3  11   4   -1.07    2.20
  -3  11   4   -0.98    1.17
   3 -11  -3    7.46    3.12
  -3  11   3    6.04    3.36
  -3  11   3    9.14    2.17
   3 -11  -2    0.92    1.86
  -3  11   2    0.05    2.17
  -3  11   2    1.66    1.32
   3 -11  -1    4.33    2.42
  -3  11   1    4.37    2.93
  -3  11   1    2.59    1.76
  -3  11   0    1.83    2.64
   3 -11   1   10.39    3.33
  -3  11  -1   11.28    4.20
  -3  11  -1    5.94    4.20
   3 -11   2   -1.25    2.23
  -3  11  -2   -8.60    3.56
  -3  11  -2   -1.27    2.75
   3 -11   3    1.11    1.64
  -3  11  -3   -2.37    2.62
  -3  11  -3    1.13    1.31
   3 -11   4    5.24    3.68
  -3  11  -4    4.10    2.30
  -3  11  -4    5.28    2.00
   3 -11   5    1.43    1.16
  -3  11  -5    0.17    1.20
  -3  11  -5   -1.77    1.11
   3 -11   6    8.30    2.36
  -3  11  -6   11.26    2.50
  -3  11  -6   10.26    2.40
   3 -11   7    0.45    1.23
  -3  11  -7    2.10    1.32
  -3  11  -7    3.41    2.27
  -3  11  -8    0.73    1.10
  -3  11  -8    0.08    2.03
  -3  11  -9    0.92    1.26
  -3  11 -10   -1.00    1.25
   3 -10  -7    7.98    2.43
  -3  10   7    8.39    2.32
  -3  10   7   -3.07    2.93
  -3  10   6    0.75    1.10
  -3  10   6    2.14    2.09
   3 -10  -5   10.41    5.17
  -3  10   5    7.18    2.08
   3 -10  -4    1.95    3.05
  -3  10   4   -0.85    1.26
  -3  10   4   -1.10    2.21
   3 -10  -3   16.90    6.83
  -3  10   3   13.16    2.98
  -3  10   3   12.14    4.99
   3 -10  -2   41.26   10.32
  -3  10   2   31.19    4.92
  -3  10   2   36.00    5.11
   3 -10  -1   55.96   12.07
  -3  10   1   45.46    6.03
  -3  10   1   46.94    6.14
   3 -10   0   26.23    5.30
  -3  10   0   21.57    4.05
  -3  10   0   17.14    4.28
   3 -10   1   26.60    5.31
  -3  10  -1   21.00    3.96
  -3  10  -1   20.60    4.34
   3 -10   2   -3.66    2.46
  -3  10  -2   -0.97    1.77
   3 -10   3   -2.99    2.56
  -3  10  -3   -3.17    1.84
  -3  10  -3   -0.79    1.98
   3 -10   4    7.13    3.00
  -3  10  -4    2.96    2.19
  -3  10  -4    8.91    3.70
   3 -10   5   -1.49    4.08
  -3  10  -5   -1.45    3.64
  -3  10  -5   -4.91    2.03
   3 -10   6    6.77    2.66
  -3  10  -6    5.84    2.48
  -3  10  -6    8.27    2.34
   3 -10   7    0.89    1.59
  -3  10  -7    0.77    1.46
  -3  10  -7    1.88    1.53
   3 -10   8    2.25    1.69
  -3  10  -8    3.11    1.75
  -3  10  -9   13.92    4.80
  -3  10 -10    0.80    1.39
  -3  10 -11    9.98    2.42
  -3  10 -12   -0.10    0.98
  -3  10 -13   13.07    2.72
  -3   9  10    0.88    1.11
   3  -9  -9    1.32    1.68
  -3   9   9    0.32    0.54
  -3   9   9   -1.75    0.98
   3  -9  -8    1.93    3.00
  -3   9   8    1.86    1.13
  -3   9   8    1.75    1.61
   3  -9  -7    3.07    1.94
  -3   9   7    1.16    1.29
  -3   9   7    0.52    1.63
   3  -9  -6    0.67    1.65
  -3   9   6   -0.13    1.88
  -3   9   6    0.12    1.36
   3  -9  -5   21.50    4.88
  -3   9   5   16.03    5.57
  -3   9   5   17.44    4.01
   3  -9  -4    0.03    2.62
  -3   9   4    4.34    2.62
  -3   9   4    1.85    2.12
   3  -9  -3   16.93    5.06
  -3   9   3   13.20    5.00
  -3   9   3   18.66    4.03
   3  -9  -2    7.01    2.99
  -3   9   2    0.48    2.81
  -3   9   2    1.34    2.21
  -3   9   1    2.37    2.43
  -3   9   1   -0.50    3.07
   3  -9   0    5.56    5.21
  -3   9   0    4.36    3.76
   3  -9   1   19.02    7.81
  -3   9  -1   14.27    5.70
  -3   9  -1   16.76    3.77
   3  -9   2    1.71    2.76
  -3   9  -2    1.55    1.97
  -3   9  -2    6.41    2.23
   3  -9   3    2.78    2.56
  -3   9  -3    1.87    1.81
  -3   9  -3    3.64    2.07
   3  -9   4    8.46    3.47
  -3   9  -4    7.35    2.45
  -3   9  -4    8.95    2.79
   3  -9   5   19.68    3.77
  -3   9  -5    6.26    2.50
  -3   9  -5    6.88    4.52
   3  -9   6   55.68   11.03
  -3   9  -6   40.71    7.96
  -3   9  -6   68.50    6.29
   3  -9   7    4.44    2.55
  -3   9  -7    3.02    2.15
  -3   9  -7    8.25    2.24
   3  -9   8    2.86    2.22
  -3   9  -8    4.93    2.05
  -3   9  -9   -1.45    2.72
  -3   9 -10    0.96    1.56
  -3   9 -11    3.73    2.00
  -3   9 -12    0.75    1.37
  -3   9 -13   22.31    5.89
  -3   9 -14    6.85    2.31
  -3   8  11   -2.41    1.62
   3  -8 -10    1.81    2.12
  -3   8  10    0.02    0.79
  -3   8  10    2.21    1.36
   3  -8  -9    1.75    1.68
  -3   8   9    1.51    1.83
  -3   8   9    0.21    1.61
   3  -8  -8    3.77    2.33
  -3   8   8    1.80    2.24
  -3   8   8    5.26    3.41
   3  -8  -7    4.02    2.61
  -3   8   7    3.56    1.57
  -3   8   7    1.87    2.28
   3  -8  -6   33.34    5.96
  -3   8   6   25.39    3.75
  -3   8   6   32.06    5.26
   3  -8  -5   -0.50    1.85
  -3   8   5   -0.42    1.16
  -3   8   5    0.15    1.54
   3  -8  -4   11.83    4.20
  -3   8   4   10.55    2.68
  -3   8   4   12.28    3.39
   3  -8  -3   17.64    4.80
  -3   8   3   13.73    3.02
  -3   8   3   18.25    3.80
  -3   8   2   18.91    3.34
  -3   8   2   21.92    4.12
   3  -8  -1   11.44    3.32
  -3   8   1    2.37    1.94
  -3   8   1    4.22    2.42
   3  -8   0    5.80    5.59
  -3   8   0    8.00    2.17
  -3   8   0    6.57    2.80
   3  -8   1    2.17    3.90
  -3   8  -1    0.66    1.44
  -3   8  -1    7.01    2.97
   3  -8   2   -0.08    1.79
  -3   8  -2   -0.68    1.12
  -3   8  -2    2.32    1.39
   3  -8   3    7.48    3.19
  -3   8  -3    4.68    3.10
  -3   8  -3    8.37    2.42
   3  -8   4   -0.79    2.05
  -3   8  -4   -1.06    1.36
  -3   8  -4   -1.53    1.62
   3  -8   5    7.24    2.83
  -3   8  -5    4.21    1.86
  -3   8  -5    5.66    3.67
   3  -8   6    7.54    4.80
  -3   8  -6    6.14    2.01
  -3   8  -6   10.47    2.42
   3  -8   7   17.98    4.18
  -3   8  -7   22.50    3.52
   3  -8   8   42.56    6.52
  -3   8  -8   62.24    5.88
   3  -8   9   21.50    7.09
  -3   8  -9   31.12    6.41
  -3   8 -10    2.63    1.96
  -3   8 -11    4.20    2.19
  -3   8 -12   37.17    8.08
  -3   8 -12   62.20    5.97
  -3   8 -13    4.91    1.98
  -3   8 -13   10.05    3.66
  -3   8 -14    1.93    1.32
  -3   8 -14    1.46    1.74
  -3   8 -15   65.68    6.61
  -3   8 -15  157.74    9.82
  -3   8 -16    5.14    2.73
  -3   7  13   -1.08    2.12
  -3   7  12    0.45    2.20
  -3   7  11    1.00    1.61
   3  -7 -10    0.42    1.41
  -3   7  10    0.49    0.85
  -3   7  10    0.70    1.55
   3  -7  -9    3.27    2.03
  -3   7   9    2.21    1.25
  -3   7   9   -0.41    2.05
   3  -7  -8    7.75    2.96
  -3   7   8    5.52    1.87
  -3   7   8    7.53    2.80
   3  -7  -7   26.55    5.11
  -3   7   7   20.40    3.36
  -3   7   7   25.24    4.68
   3  -7  -6    7.69    3.08
  -3   7   6    5.33    2.09
  -3   7   6    5.22    2.76
   3  -7  -5    0.57    2.21
  -3   7   5    1.87    2.36
  -3   7   5    1.80    3.15
   3  -7  -4  236.87   21.64
  -3   7   4  206.08   21.14
  -3   7   4  242.66   27.21
   3  -7  -3    7.53    3.41
  -3   7   3    6.66    3.48
  -3   7   3    6.63    4.50
   3  -7  -2  347.23   29.57
  -3   7   2  308.64   27.79
  -3   7   2  340.24   26.36
   3  -7  -1   14.59    3.73
  -3   7   1   10.96    2.35
  -3   7   1    7.74    3.13
   3  -7   0    4.78    2.66
  -3   7   0    3.67    1.59
   3  -7   1   35.06    8.95
  -3   7  -1   31.79    3.61
  -3   7  -1   38.21    4.72
   3  -7   2   62.32    7.78
  -3   7  -2   54.87    5.14
  -3   7  -2   97.02    9.87
   3  -7   3   52.63    6.97
  -3   7  -3   43.56    4.50
  -3   7  -3   77.61    6.20
   3  -7   4    1.18    1.93
  -3   7  -4    1.21    1.04
   3  -7   5    7.83    2.98
  -3   7  -5    4.64    3.01
  -3   7  -5    9.66    2.30
   3  -7   6   16.76    5.61
  -3   7  -6   11.56    2.23
  -3   7  -6   23.32    4.36
   3  -7   7    3.55    2.01
  -3   7  -7    1.22    1.55
  -3   7  -7    2.38    1.59
   3  -7   8    0.63    1.76
  -3   7  -8    2.01    1.50
  -3   7  -8    0.90    1.45
   3  -7   9   13.04    5.78
  -3   7  -9   11.67    4.86
  -3   7  -9   21.12    4.87
   3  -7  10   -0.26    1.36
  -3   7 -10    0.71    1.29
  -3   7 -10    1.35    1.43
  -3   7 -11    1.12    1.77
  -3   7 -11    4.43    1.92
  -3   7 -12   16.26    3.42
  -3   7 -12   23.59    3.68
  -3   7 -13    2.85    1.82
  -3   7 -13    4.07    3.45
  -3   7 -14    5.33    4.56
  -3   7 -14   10.66    2.74
  -3   7 -15   42.86    5.36
  -3   7 -15   54.82    5.67
  -3   7 -16    1.57    1.50
  -3   7 -16    3.68    2.41
  -3   6  14   18.73    3.29
  -3   6  13    2.46    1.85
  -3   6  12    6.75    2.73
  -3   6  11    0.30    0.74
  -3   6  11   -0.61    1.39
  -3   6  10    0.96    1.16
  -3   6  10    3.15    1.91
   3  -6  -9    1.63    1.93
  -3   6   9    1.36    2.27
  -3   6   9    1.99    2.01
   3  -6  -8   -0.67    1.66
  -3   6   8    1.08    1.18
  -3   6   8    0.82    1.68
   3  -6  -7    2.79    2.17
  -3   6   7    2.45    1.58
  -3   6   7    2.11    2.18
   3  -6  -6  115.96   12.14
  -3   6   6  121.74   10.37
  -3   6   6  131.03   12.51
   3  -6  -5   17.55    4.09
  -3   6   5   14.18    3.04
  -3   6   5   16.30    3.88
   3  -6  -4  456.92   38.47
  -3   6   4  437.89   33.21
  -3   6   4  494.28   38.40
   3  -6  -3    0.93    1.44
  -3   6   3   -0.21    1.04
  -3   6   3   -0.14    1.26
   3  -6  -2  220.95   18.02
  -3   6   2  201.01   14.19
  -3   6   2  209.42   20.26
   3  -6  -1    0.82    1.93
  -3   6   1    0.79    1.30
  -3   6   1    3.27    1.66
   3  -6   0   68.38    7.59
  -3   6   0   64.64    5.71
  -3   6   0   83.87    7.04
   3  -6   1   19.94    3.96
   3  -6   1   30.24    6.77
  -3   6  -1   27.64    4.41
  -3   6  -1   18.81    2.82
   3  -6   2    1.17    1.12
   3  -6   2    1.23    1.53
  -3   6  -2    0.22    1.39
  -3   6  -2   -0.36    1.03
   3  -6   3  185.45   10.54
   3  -6   3  214.71   16.06
  -3   6  -3  189.59   11.18
  -3   6  -3  136.21   16.23
  -3   6  -3  225.94   13.09
   3  -6   4    2.45    1.11
   3  -6   4    5.46    2.18
  -3   6  -4    3.36    1.11
   3  -6   5    5.64    1.36
   3  -6   5    7.62    2.55
  -3   6  -5    4.29    1.22
  -3   6  -5    6.69    1.85
   3  -6   6    3.37    3.51
  -3   6  -6    4.03    2.56
   3  -6   7   14.47    3.48
  -3   6  -7   11.36    3.10
  -3   6  -7   18.53    2.59
   3  -6   8    2.73    1.99
  -3   6  -8    0.95    1.90
  -3   6  -8    3.12    1.49
  -3   6  -9   24.97    4.87
  -3   6  -9   38.23    6.01
   3  -6  10   21.07    3.93
  -3   6 -10   19.54    7.11
  -3   6 -10   32.33    3.87
   3  -6  11    6.33    2.54
  -3   6 -11    9.75    5.15
  -3   6 -11   12.06    2.56
  -3   6 -12   15.59    3.65
  -3   6 -12   19.60    3.36
  -3   6 -13    1.73    1.82
  -3   6 -13    1.92    2.98
  -3   6 -14   17.80    3.62
  -3   6 -14   19.35    3.60
  -3   6 -15   -0.67    2.47
  -3   6 -15   -0.22    1.25
  -3   6 -16    5.98    2.37
  -3   6 -16    6.96    3.29
  -3   6 -17   -0.16    1.15
  -3   6 -17   -0.35    0.93
  -3   5  15   30.12    4.19
  -3   5  14   -0.11    1.30
  -3   5  13    2.48    2.00
  -3   5  12    0.00    2.09
  -3   5  11    0.59    1.77
  -3   5  11    1.35    2.87
  -3   5  10    0.25    0.99
  -3   5  10   -0.16    2.39
   3  -5  -9   16.67    3.49
  -3   5   9   15.13    2.76
  -3   5   9   16.59    5.98
   3  -5  -8    2.80    1.90
  -3   5   8    1.75    1.50
  -3   5   8    3.06    3.29
   3  -5  -7   15.28    3.34
  -3   5   7   12.41    2.78
  -3   5   7   17.62    5.50
   3  -5  -6    6.36    2.41
  -3   5   6    4.67    1.99
  -3   5   6    5.96    2.47
   3  -5  -5   40.65    6.90
   3  -5  -5   48.96    5.64
  -3   5   5   44.99    4.91
  -3   5   5   47.74    3.75
  -3   5   5   54.70    5.87
   3  -5  -4    4.39    1.64
   3  -5  -4    4.71    2.18
  -3   5   4    4.53    1.64
  -3   5   4    3.79    1.91
  -3   5   4    4.68    1.93
   3  -5  -3   22.93    2.99
   3  -5  -3   27.16    3.87
  -3   5   3   21.28    3.00
  -3   5   3   24.19    2.74
  -3   5   3   24.48    3.48
   3  -5  -2   97.87    7.34
   3  -5  -2   98.52    8.63
   3  -5  -2  107.07    6.59
  -3   5   2   88.83    6.89
  -3   5   2   95.13    6.52
  -3   5   2  107.92    7.98
   3  -5  -1   99.36   10.07
   3  -5  -1  110.89    9.03
   3  -5  -1  103.80    6.62
  -3   5   1   98.37    7.07
  -3   5   1  104.71    9.98
  -3   5   1  111.87   10.30
   3  -5   0   -0.10    1.32
   3  -5   0    2.51    2.14
  -3   5   0    0.09    0.84
  -3   5   0    0.43    0.96
   3  -5   1   28.85    3.05
   3  -5   1   34.76    7.00
  -3   5  -1   29.94    2.95
  -3   5  -1   27.82    3.32
  -3   5  -1   37.19    3.82
  -3   5  -1   34.42    3.30
  -3   5  -1   35.84    3.57
   3  -5   2    0.43    0.96
   3  -5   2    1.70    1.45
  -3   5  -2    0.95    0.80
  -3   5  -2   -0.22    1.20
  -3   5  -2    0.60    1.17
   3  -5   3  149.69   11.99
   3  -5   3  124.54   10.44
  -3   5  -3  116.52    9.10
  -3   5  -3  114.93    9.31
  -3   5  -3  134.34    9.33
  -3   5  -3  134.62    7.88
   3  -5   4    4.30    1.24
   3  -5   4    4.82    2.16
   3  -5   4    4.01    1.66
  -3   5  -4    2.53    0.99
  -3   5  -4    4.09    1.90
  -3   5  -4    8.51    1.58
   3  -5   5  180.84   10.62
   3  -5   5  165.37   17.70
   3  -5   5  167.44   10.90
  -3   5  -5  156.96   17.68
  -3   5  -5  192.02   14.21
   3  -5   6    1.71    1.15
  -3   5  -6    2.28    1.21
  -3   5  -7   79.79    5.62
   3  -5   8    3.02    3.08
  -3   5  -8    2.49    1.91
  -3   5  -8    1.98    1.33
   3  -5   9    3.08    1.87
  -3   5  -9    2.39    2.28
  -3   5  -9    5.77    2.66
  -3   5 -10    0.30    1.71
  -3   5 -10    0.76    1.22
  -3   5 -11    0.69    2.37
  -3   5 -11   -0.03    1.08
   3  -5  12    2.06    1.56
  -3   5 -12    4.91    2.23
  -3   5 -12    7.03    3.36
  -3   5 -13    2.83    2.01
  -3   5 -13    1.50    1.81
  -3   5 -14    1.59    2.73
  -3   5 -14   11.10    2.42
  -3   5 -15    2.93    2.96
  -3   5 -15    1.52    2.66
  -3   5 -16    6.87    2.08
  -3   5 -16   -0.07    1.55
  -3   5 -17    1.46    1.55
  -3   5 -17    0.96    1.06
  -3   4  16   16.05    2.97
  -3   4  15    0.04    1.89
  -3   4  14    5.02    3.95
  -3   4  13    1.78    2.00
  -3   4  12   20.81    3.00
  -3   4  12   39.09    5.04
  -3   4  11    0.28    1.02
  -3   4  11    0.59    1.56
   3  -4 -10   14.77    3.28
  -3   4  10    8.68    2.25
  -3   4  10   11.58    3.19
   3  -4  -9   19.19    3.69
  -3   4   9   10.51    4.19
  -3   4   9   17.33    3.52
   3  -4  -8    0.67    1.67
   3  -4  -8    1.27    1.45
  -3   4   8    1.98    2.50
  -3   4   8    1.36    1.56
   3  -4  -7   30.49    4.23
   3  -4  -7   22.23    3.76
  -3   4   7   25.19    3.78
  -3   4   7   27.44    4.02
   3  -4  -6   22.43    3.59
   3  -4  -6   19.59    3.33
  -3   4   6   19.09    3.36
  -3   4   6   25.53    2.57
  -3   4   6   21.76    5.32
   3  -4  -5   18.92    3.16
   3  -4  -5   17.57    3.01
   3  -4  -5   19.54    2.95
  -3   4   5   16.77    2.96
  -3   4   5   17.83    3.34
  -3   4   5   16.48    4.66
   3  -4  -4   -0.30    1.04
   3  -4  -4    0.91    1.04
   3  -4  -4   -0.97    0.62
  -3   4   4   -0.31    0.96
  -3   4   4    0.95    1.38
  -3   4   4    0.11    0.83
  -3   4   4    0.64    0.93
   3  -4  -3  192.52   16.39
   3  -4  -3  169.70   11.83
   3  -4  -3  163.03    9.11
  -3   4   3  167.34   11.50
  -3   4   3  171.56   14.21
  -3   4   3  186.87   10.85
  -3   4   3  181.16   11.43
   3  -4  -2  284.19   18.27
   3  -4  -2  275.92   18.94
  -3   4   2  270.71   18.04
  -3   4   2  317.49   23.54
  -3   4   2  312.47   18.55
   3  -4  -1   61.78    5.07
   3  -4  -1   58.60    8.39
  -3   4   1   55.99    4.96
  -3   4   1   61.79    5.03
  -3   4   1   71.47    5.10
  -3   4   1   61.61    6.84
   3  -4   0   44.30    4.20
   3  -4   0   40.54    4.78
  -3   4   0   40.28    5.94
  -3   4   0   40.63    4.15
  -3   4   0   48.68    4.21
  -3   4   0   58.54    4.02
  -3   4   0   58.96    4.24
   3  -4   1   75.31    7.73
   3  -4   1   85.49    7.02
  -3   4  -1   72.63    6.52
  -3   4  -1   81.36    9.44
  -3   4  -1   85.73    6.13
  -3   4  -1   92.91    5.70
  -3   4  -1   90.68    5.90
   3  -4   2    3.55    1.39
   3  -4   2    4.24    1.84
  -3   4  -2    3.48    1.00
  -3   4  -2    4.92    1.70
  -3   4  -2    5.57    2.39
   3  -4   3    8.04    1.68
   3  -4   3    7.97    2.20
   3  -4   3    7.12    1.45
  -3   4  -3    5.18    1.07
  -3   4  -3    5.87    2.06
  -3   4  -3    6.25    3.27
  -3   4  -3    7.52    1.32
   3  -4   4   -0.15    2.13
   3  -4   4    2.38    1.06
  -3   4  -4    0.68    1.13
  -3   4  -4    1.53    2.58
  -3   4  -4    2.18    0.95
   3  -4   5  270.35   15.49
   3  -4   5  253.10   14.64
  -3   4  -5  241.94   18.30
  -3   4  -5  267.23   16.77
   3  -4   6    5.95    1.62
   3  -4   6    4.24    2.33
   3  -4   6    6.96    2.60
  -3   4  -6    6.11    2.49
  -3   4  -6    7.28    1.42
   3  -4   7  107.97    7.05
   3  -4   7   94.72    8.72
   3  -4   7   86.45    9.20
  -3   4  -7   95.36    6.05
   3  -4   8    0.79    1.42
  -3   4  -8    1.75    1.79
   3  -4   9   -0.05    1.32
  -3   4  -9    0.00    1.53
  -3   4  -9    1.33    1.05
   3  -4  10   -0.04    1.27
  -3   4 -10   -0.09    1.54
  -3   4 -10    0.70    1.02
   3  -4  11    2.15    2.14
  -3   4 -11   -0.92    2.12
  -3   4 -11    3.36    2.20
   3  -4  12    2.24    1.55
  -3   4 -12    4.97    4.04
  -3   4 -12    3.53    1.84
   3  -4  13    3.06    1.75
  -3   4 -13    6.16    2.54
  -3   4 -13    6.47    2.16
  -3   4 -14   12.36    3.54
  -3   4 -14   11.92    4.46
  -3   4 -15    2.82    2.06
  -3   4 -15    2.09    1.63
  -3   4 -16   17.18    5.48
  -3   4 -16    8.32    2.20
  -3   4 -17    1.31    1.52
  -3   4 -17    0.41    1.53
  -3   3  17    1.04    1.29
   3  -3 -16    1.29    1.42
  -3   3  16    4.91    2.75
   3  -3 -15    1.38    1.77
  -3   3  15    2.11    1.80
   3  -3 -14    0.91    1.50
  -3   3  14   -0.48    1.46
   3  -3 -13    5.79    4.63
  -3   3  13    4.75    2.62
   3  -3 -12   78.26   13.73
  -3   3  12   66.72    8.55
   3  -3 -11    7.77    4.78
  -3   3  11    5.15    2.56
   3  -3 -10    2.62    3.74
  -3   3  10    3.04    1.68
  -3   3  10    2.18    1.90
   3  -3  -9    2.24    3.33
  -3   3   9    1.74    1.55
  -3   3   9    2.43    1.66
   3  -3  -8    0.97    2.69
  -3   3   8    0.62    1.30
  -3   3   8    1.17    1.32
   3  -3  -7   54.49    8.52
   3  -3  -7   36.95    4.09
  -3   3   7   41.34    4.84
  -3   3   7   51.06    4.97
   3  -3  -6   60.97    8.61
   3  -3  -6   45.27    4.34
   3  -3  -6   52.59    3.10
  -3   3   6   45.76    4.99
  -3   3   6   63.80    4.22
  -3   3   6   57.41    4.90
   3  -3  -5    0.43    1.18
   3  -3  -5    0.62    0.91
   3  -3  -5    0.22    0.89
  -3   3   5   -0.25    0.99
  -3   3   5   -0.15    1.41
  -3   3   5    0.55    1.57
  -3   3   5    0.43    0.89
   3  -3  -4   27.13    3.50
   3  -3  -4   22.98    2.86
   3  -3  -4   24.21    1.97
  -3   3   4   21.89    3.06
  -3   3   4   26.39    4.20
  -3   3   4   30.12    2.92
  -3   3   4   25.30    4.16
   3  -3  -3   68.16    5.49
   3  -3  -3   59.21    7.05
  -3   3   3   50.24    4.86
  -3   3   3   59.12    6.28
  -3   3   3   61.36    4.52
  -3   3   3   60.94    4.41
   3  -3  -2  143.26   13.22
   3  -3  -2  118.95   11.52
  -3   3   2  106.41    7.86
  -3   3   2  138.09    8.93
  -3   3   2  150.85    8.30
  -3   3   2  130.46    7.55
   3  -3  -1  569.68   36.83
   3  -3  -1  534.91   35.72
  -3   3   1  482.70   32.30
  -3   3   1  575.88   37.44
  -3   3   1  611.40   37.33
  -3   3   1  591.99   38.26
   3  -3   0   28.37    3.19
   3  -3   0   25.21    3.13
  -3   3   0   20.03    2.44
  -3   3   0   23.60    4.84
  -3   3   0   25.55    4.08
  -3   3   0   25.24    2.02
   3  -3   1   -0.32    1.20
   3  -3   1    0.77    1.25
  -3   3  -1    0.85    0.83
  -3   3  -1    0.29    1.28
  -3   3  -1    4.62    1.23
  -3   3  -1    1.23    0.80
   3  -3   2    0.41    0.75
  -3   3  -2   -0.12    0.53
  -3   3  -2    0.15    0.93
  -3   3  -2    0.29    0.83
  -3   3  -2   -0.62    0.78
   3  -3   3   13.03    1.99
   3  -3   3    9.22    1.32
  -3   3  -3    5.78    1.64
  -3   3  -3    9.97    2.35
  -3   3  -3   10.95    2.12
  -3   3  -3   10.84    1.22
   3  -3   4   15.43    2.27
   3  -3   4   14.77    2.68
   3  -3   4   12.12    1.54
  -3   3  -4   12.99    4.46
  -3   3  -4   12.17    2.48
  -3   3  -4   12.31    2.14
   3  -3   5  151.29   11.40
   3  -3   5  155.60   11.31
   3  -3   5  145.16   10.19
  -3   3  -5  153.33   11.67
  -3   3  -5  152.54   10.88
  -3   3  -5  159.07    7.64
   3  -3   6  133.95    8.12
   3  -3   6  120.25    9.39
  -3   3  -6  120.73   10.49
  -3   3  -6  128.28    6.60
   3  -3   7   18.09    2.34
   3  -3   7   12.77    2.83
   3  -3   7   13.67    2.08
  -3   3  -7   16.93    2.96
   3  -3   8    2.60    1.48
   3  -3   8    0.91    1.11
  -3   3  -8    1.39    1.04
   3  -3   9    4.75    2.05
  -3   3  -9    4.35    2.26
  -3   3  -9    5.08    1.47
   3  -3  10    0.31    1.89
  -3   3 -10    1.82    1.61
  -3   3 -10   -0.65    1.89
   3  -3  11    6.77    2.16
  -3   3 -11    9.68    3.07
  -3   3 -11    8.68    2.19
   3  -3  12    1.36    1.30
   3  -3  12    1.00    2.16
  -3   3 -12    0.04    3.07
  -3   3 -12    0.86    1.38
   3  -3  13   19.89    4.89
   3  -3  13   10.25    5.13
  -3   3 -13   27.17    4.35
  -3   3 -13   18.57    5.28
   3  -3  14    0.02    0.82
   3  -3  14   -0.02    1.10
  -3   3 -14   -1.12    1.43
  -3   3 -14    0.04    1.12
   3  -3  15    1.21    1.52
  -3   3 -15    3.88    2.01
   3  -3  16   10.59    2.50
  -3   3 -16   39.12    6.44
   3  -3  17    0.53    1.87
  -3   3 -17    4.75    1.86
   3  -2 -17    0.61    1.12
  -3   2  17   -0.20    1.07
   3  -2 -16    0.57    1.32
  -3   2  16   -0.30    1.20
   3  -2 -15   25.48    7.46
  -3   2  15   19.20    4.10
   3  -2 -14   44.84   10.49
  -3   2  14   34.53    5.74
   3  -2 -13   24.96    4.99
  -3   2  13    9.92    3.77
   3  -2 -12    0.00    1.71
  -3   2  12    0.19    1.11
  -3   2  12    0.23    1.32
   3  -2 -11    9.14    3.00
  -3   2  11    4.61    1.99
  -3   2  11    4.07    2.28
   3  -2 -10   -0.45    1.57
  -3   2  10    0.43    1.07
   3  -2  -9    8.21    3.14
   3  -2  -8    2.54    1.88
  -3   2   8    1.22    1.35
   3  -2  -7    2.59    1.84
   3  -2  -7    2.21    1.83
  -3   2   7    2.75    1.27
  -3   2   7    1.03    1.27
   3  -2  -6  139.87   11.32
   3  -2  -6  146.32   15.03
   3  -2  -6  102.92    9.42
  -3   2   6  130.66   10.86
  -3   2   6  139.47   10.90
  -3   2   6  124.20    8.27
   3  -2  -5   35.26    4.60
   3  -2  -5   40.22    6.83
   3  -2  -5   29.18    2.89
  -3   2   5   33.36    6.94
  -3   2   5   44.35    3.70
  -3   2   5   32.30    3.06
   3  -2  -4    4.45    1.39
   3  -2  -4    1.13    1.37
   3  -2  -4    0.25    0.90
  -3   2   4    1.08    2.43
  -3   2   4    0.15    1.12
  -3   2   4    0.73    0.80
   3  -2  -3  375.18   26.07
   3  -2  -3  391.45   25.41
   3  -2  -3  356.00   21.77
  -3   2   3  383.53   27.50
  -3   2   3  422.93   22.64
  -3   2   3  386.21   23.85
   3  -2  -2   93.51    7.59
   3  -2  -2  103.45    7.58
   3  -2  -2   90.10    6.12
  -3   2   2  104.00    7.13
  -3   2   2  100.27    5.70
  -3   2   2   92.38    4.94
   3  -2  -1  123.65    8.64
   3  -2  -1  115.34   11.15
   3  -2  -1  115.67    7.51
  -3   2   1  122.49    8.22
  -3   2   1  123.09   10.11
  -3   2   1  120.73    7.40
   3  -2   0  193.62   12.00
   3  -2   0  181.20   11.26
  -3   2   0  195.48   16.59
  -3   2   0  193.69   11.18
  -3   2   0  185.70    8.27
   3  -2   1   -1.59    1.09
  -3   2  -1   -0.91    1.18
  -3   2  -1    0.62    0.91
   3  -2   2  268.08   19.09
   3  -2   2  269.72   16.59
  -3   2  -2  276.22   17.64
  -3   2  -2  269.44   20.47
  -3   2  -2  280.73   12.10
   3  -2   3   37.21    3.46
   3  -2   3   35.02    3.77
   3  -2   3   33.99    2.00
  -3   2  -3   33.69    6.36
  -3   2  -3   39.52    6.05
  -3   2  -3   35.07    2.57
   3  -2   4    3.62    1.39
   3  -2   4    1.62    0.75
  -3   2  -4    3.32    2.77
  -3   2  -4    3.74    1.65
  -3   2  -4    2.84    0.65
   3  -2   5   43.72    5.07
   3  -2   5   46.18    6.66
   3  -2   5   40.96    3.83
  -3   2  -5   46.68    5.13
  -3   2  -5   46.01    4.93
   3  -2   6   11.58    1.82
   3  -2   6   11.29    2.41
   3  -2   6    4.92    1.98
   3  -2   6    9.61    1.38
  -3   2  -6   10.25    2.81
  -3   2  -6   12.73    2.70
  -3   2  -6    9.86    1.25
   3  -2   7    0.96    1.05
   3  -2   7    1.66    1.36
   3  -2   7    1.06    1.36
   3  -2   7    0.86    0.80
   3  -2   7    1.48    0.85
  -3   2  -7    0.71    0.76
   3  -2   8   20.54    2.95
   3  -2   8    8.67    3.14
   3  -2   8   11.01    2.00
   3  -2   8   13.09    2.00
  -3   2  -8   17.87    3.23
   3  -2   9    0.64    2.13
   3  -2   9   -0.04    1.86
  -3   2  -9    2.54    1.58
   3  -2  10    3.18    1.59
   3  -2  10    2.17    2.41
  -3   2 -10    2.31    1.96
   3  -2  11    3.52    1.61
   3  -2  11    0.05    2.59
  -3   2 -11    2.25    2.03
   3  -2  12   15.67    2.77
   3  -2  12    6.37    2.77
  -3   2 -12   19.25    5.65
   3  -2  13    2.03    1.41
   3  -2  13    1.65    1.72
  -3   2 -13    4.78    2.07
   3  -2  14    1.26    1.16
   3  -2  14    1.64    1.56
  -3   2 -14    2.04    1.82
   3  -2  15    4.53    1.42
   3  -2  15    5.05    2.02
  -3   2 -15   13.30    3.72
   3  -2  16    1.05    1.35
  -3   2 -16    2.56    1.79
   3  -2  17    0.12    1.23
  -3   2 -17   -0.02    1.02
   3  -1 -18   -1.41    1.45
  -3   1  18   -0.96    1.16
   3  -1 -17    8.34    4.00
  -3   1  17    3.66    1.88
   3  -1 -16    3.89    3.97
  -3   1  16    2.28    1.82
   3  -1 -15    6.49    3.07
  -3   1  15    3.16    2.26
   3  -1 -14    0.55    2.09
   3  -1 -13    3.04    2.46
  -3   1  13    1.30    1.46
   3  -1 -12   24.45    5.79
   3  -1 -11   -0.11    1.66
   3  -1 -10   -1.18    1.46
   3  -1 -10    1.56    1.58
   3  -1 -10    0.35    1.09
   3  -1  -9   13.49    3.33
   3  -1  -9   11.75    3.52
   3  -1  -9    9.20    2.37
   3  -1  -8   34.19    5.07
   3  -1  -8   35.00    5.20
   3  -1  -7    0.89    1.86
   3  -1  -7    2.12    1.90
  -3   1   7    1.80    1.87
  -3   1   7    3.51    1.32
   3  -1  -6    5.48    2.05
   3  -1  -6    3.98    2.03
  -3   1   6    2.98    1.99
  -3   1   6    6.64    2.27
  -3   1   6    3.53    0.99
   3  -1  -5   11.57    3.96
   3  -1  -5   12.05    4.09
   3  -1  -5    7.79    1.99
  -3   1   5   12.09    2.46
  -3   1   5   14.68    2.09
  -3   1   5    8.29    1.37
  -3   1   5    8.68    1.16
   3  -1  -4   23.57    5.46
   3  -1  -4   27.96    5.71
   3  -1  -4   21.46    3.12
  -3   1   4   24.92    3.48
  -3   1   4   29.92    3.06
   3  -1  -3  211.20   18.59
   3  -1  -3  236.63   14.50
   3  -1  -3  183.59   12.50
  -3   1   3  206.92   13.83
  -3   1   3  225.92   16.38
  -3   1   3  233.45   10.92
  -3   1   3  200.16   11.29
   3  -1  -2    6.40    2.90
   3  -1  -2    7.13    2.06
  -3   1   2    7.37    1.79
  -3   1   2    7.42    1.91
  -3   1   2    6.95    1.23
  -3   1   2    5.29    0.77
   3  -1  -1  396.26   29.14
   3  -1  -1  454.75   33.04
   3  -1  -1  394.02   22.94
  -3   1   1  431.27   25.80
  -3   1   1  438.10   24.20
  -3   1   1  352.52   18.51
   3  -1   0   17.11    2.29
   3  -1   0   20.91    2.71
   3  -1   0   18.97    2.26
  -3   1   0   22.69    4.55
  -3   1   0   18.52    1.38
   3  -1   1   84.58    5.73
   3  -1   1  102.00    7.02
   3  -1   1  102.40    6.43
  -3   1  -1  103.22    7.52
  -3   1  -1  104.06    6.75
  -3   1  -1  100.54    4.12
   3  -1   2  227.79   17.67
   3  -1   2  209.89   16.59
  -3   1  -2  199.53   13.49
  -3   1  -2  209.90   13.24
  -3   1  -2  203.77    7.36
   3  -1   3  310.85   18.52
   3  -1   3  290.21   21.44
  -3   1  -3  299.80   19.96
  -3   1  -3  302.95   19.47
  -3   1  -3  308.41   13.50
   3  -1   4   -1.00    1.04
   3  -1   4    0.85    1.04
   3  -1   4   -0.16    0.83
  -3   1  -4    2.13    1.18
  -3   1  -4    0.68    0.48
   3  -1   5   67.73    6.48
   3  -1   5   76.61    5.87
  -3   1  -5   68.13    6.23
  -3   1  -5   53.63    3.55
   3  -1   6  323.07   18.45
   3  -1   6  338.93   21.37
  -3   1  -6  285.46   20.79
  -3   1  -6  226.70   13.71
   3  -1   7   25.18    2.61
   3  -1   7   25.71    5.40
   3  -1   7   11.55    2.28
  -3   1  -7   16.00    2.31
   3  -1   8   71.80    6.12
   3  -1   8   47.17    4.95
   3  -1   9   -0.79    1.15
   3  -1   9    0.46    1.06
  -3   1  -9    1.27    1.20
   3  -1  10   72.94    6.36
   3  -1  10   38.36    5.55
  -3   1 -10   63.20    6.65
   3  -1  11   64.90    8.49
   3  -1  11   33.10    5.33
  -3   1 -11   54.11    9.23
   3  -1  12    0.17    0.92
   3  -1  12    0.20    1.12
  -3   1 -12   -0.26    1.18
   3  -1  13    1.29    1.45
   3  -1  13    2.90    1.80
  -3   1 -13    3.75    1.89
   3  -1  14   -1.54    1.19
   3  -1  14   -2.42    1.56
  -3   1 -14    0.36    1.60
   3  -1  15   -0.48    1.23
   3  -1  15    0.04    1.06
  -3   1 -15    0.84    2.11
   3  -1  16    0.24    0.75
   3  -1  16    3.05    1.99
  -3   1 -16    1.91    1.36
   3  -1  17    6.12    1.33
  -3   1 -17   -0.98    1.40
   3   0 -18   17.69    2.90
  -3   0  18    3.31    1.83
   3   0 -17    4.26    3.72
  -3   0  17    1.77    1.56
   3   0 -16    8.93    3.25
  -3   0  16    3.96    2.18
   3   0 -15   -1.83    2.70
   3   0 -14    0.89    1.97
  -3   0  14    0.09    1.09
   3   0 -13   12.86    4.22
   3   0 -13    8.35    2.91
   3   0 -12  150.62   15.51
   3   0 -12  177.44   16.83
   3   0 -12  137.39   12.74
   3   0 -11   40.95    6.61
   3   0 -11   44.32    6.81
   3   0 -11   31.91    4.84
   3   0 -10   17.24    3.82
   3   0 -10   16.39    4.21
   3   0 -10   12.58    2.73
   3   0  -9   13.63    5.20
   3   0  -9   13.43    3.54
   3   0  -9    8.74    2.10
   3   0  -8    7.86    3.95
   3   0  -8    4.20    2.36
   3   0  -8    3.28    1.36
  -3   0   8    3.89    1.09
   3   0  -7   29.20    4.52
   3   0  -7   30.94    4.22
   3   0  -7   19.01    2.40
  -3   0   7   27.28    3.41
  -3   0   7   35.28    3.08
  -3   0   7   24.28    2.10
   3   0  -6    2.76    1.97
   3   0  -6    3.93    1.84
  -3   0   6    2.29    2.41
  -3   0   6    2.72    2.04
  -3   0   6    2.27    1.15
   3   0  -5    2.07    1.63
   3   0  -5    1.11    1.56
  -3   0   5    3.26    2.04
  -3   0   5    2.98    1.29
  -3   0   5    0.94    0.88
  -3   0   5    1.53    0.87
   3   0  -4   10.78    2.31
   3   0  -4    7.82    3.57
   3   0  -4    7.87    1.39
  -3   0   4    8.98    3.52
  -3   0   4   10.09    1.84
  -3   0   4    7.95    0.84
  -3   0   4    8.39    0.73
  -3   0   4    7.86    1.21
  -3   0   4    5.66    1.12
   3   0  -3   33.38    3.95
   3   0  -3   37.20    3.93
   3   0  -3   24.30    2.81
  -3   0   3   38.34    5.00
  -3   0   3   32.36    3.10
  -3   0   3   35.36    1.55
   3   0  -2   16.34    2.65
   3   0  -2   16.54    2.64
   3   0  -2   15.01    0.88
  -3   0   2   17.63    2.48
  -3   0   2   14.12    1.50
   3   0  -1   70.56    5.72
   3   0  -1   81.45    8.91
   3   0  -1   66.20    5.75
   3   0  -1   67.89    3.49
  -3   0   1   60.83    6.16
  -3   0   1   78.41    5.57
  -3   0   1   82.54    6.85
  -3   0   1   81.25    3.80
   3   0   0   17.02    2.36
   3   0   0   19.22    2.56
   3   0   0   15.34    1.85
   3   0   0   14.06    1.59
  -3   0   0   15.87    1.78
  -3   0   0   17.04    4.09
  -3   0   0   18.84    2.15
  -3   0   0   17.81    1.07
   3   0   1    3.47    1.24
   3   0   1    3.68    1.54
   3   0   1    3.79    1.20
   3   0   1    3.21    0.64
  -3   0  -1    3.88    0.95
  -3   0  -1    4.18    1.73
  -3   0  -1    3.73    1.42
  -3   0  -1    3.51    0.63
   3   0   2  583.33   48.55
   3   0   2  800.51   56.68
   3   0   2  791.05   51.56
   3   0   2  653.97   43.52
  -3   0  -2  685.11   46.77
  -3   0  -2  838.02   57.22
  -3   0  -2  825.77   60.70
  -3   0  -2  690.71   45.15
   3   0   3   11.04    1.31
   3   0   3   16.78    2.17
   3   0   3   16.56    2.22
   3   0   3   12.48    1.37
  -3   0  -3   10.01    1.42
  -3   0  -3   16.47    2.61
  -3   0  -3   17.68    4.02
  -3   0  -3   11.66    1.31
   3   0   4  157.78    9.23
   3   0   4  150.46    9.44
   3   0   4  109.50    8.68
  -3   0  -4  137.84   13.10
  -3   0  -4  135.36   13.72
  -3   0  -4  120.13    6.79
   3   0   5   16.61    2.07
   3   0   5   18.70    3.71
   3   0   5   12.12    2.93
  -3   0  -5   16.66    3.20
  -3   0  -5   14.12    1.86
   3   0   6 1147.53   81.65
   3   0   6 1061.94   79.82
   3   0   6  811.77   62.60
  -3   0  -6 1041.06   84.72
  -3   0  -6  846.64   67.69
   3   0   7    0.70    0.94
   3   0   7    0.39    1.18
   3   0   7    0.23    0.99
  -3   0  -7    0.00    0.92
   3   0   8  713.51   49.94
   3   0   8  427.88   35.24
  -3   0  -8  693.54   48.20
   3   0   9    6.76    2.18
   3   0   9    2.89    1.99
  -3   0  -9    5.93    1.98
   3   0  10    2.22    1.79
   3   0  10    0.51    1.26
  -3   0 -10   -0.56    1.22
   3   0  11    1.43    1.58
   3   0  11   -0.41    1.86
  -3   0 -11   17.48    3.31
   3   0  12   -0.66    1.08
   3   0  12   -0.34    1.30
  -3   0 -12    0.19    1.21
   3   0  13    1.50    1.14
   3   0  13    0.78    1.46
  -3   0 -13   -0.49    1.31
   3   0  14   -0.27    1.56
   3   0  14    1.49    2.00
  -3   0 -14   -0.05    1.72
   3   0  15    0.62    0.78
   3   0  15   -1.35    1.09
  -3   0 -15    0.32    1.04
   3   0  16   -0.63    0.56
   3   0  16    0.57    0.89
  -3   0 -16    0.95    0.78
   3   0  17    2.03    1.13
   3   1 -17    1.25    2.46
  -3  -1  17    3.09    1.50
   3   1 -16    2.55    2.65
   3   1 -15    0.78    2.36
   3   1 -14    0.77    1.59
   3   1 -14    1.49    1.98
   3   1 -14   -0.68    1.28
   3   1 -13   33.17    5.88
   3   1 -13   50.85    7.11
   3   1 -13   24.13    4.52
   3   1 -12  107.91   11.76
   3   1 -12  115.83   12.26
   3   1 -12   68.00    8.07
   3   1 -11  568.18   52.61
   3   1 -11  516.33   43.77
   3   1 -11  368.80   29.48
   3   1 -10   -0.59    2.64
   3   1 -10   -1.46    1.61
   3   1 -10    0.17    0.93
  -3  -1  10    0.51    0.84
   3   1  -9    1.35    1.96
   3   1  -9    2.95    1.87
   3   1  -9    0.92    1.03
  -3  -1   9    0.65    0.96
  -3  -1   9    0.81    1.45
   3   1  -8   57.73    6.72
   3   1  -8   57.75    6.18
  -3  -1   8   48.87    3.65
  -3  -1   8   39.96    4.55
   3   1  -7    1.92    1.59
   3   1  -7    0.63    1.47
  -3  -1   7    0.07    1.19
  -3  -1   7    0.38    0.99
  -3  -1   7    0.55    1.13
   3   1  -6   44.13    5.45
   3   1  -6   47.00    4.93
  -3  -1   6   42.89    4.25
  -3  -1   6   48.39    3.67
  -3  -1   6   39.49    2.61
   3   1  -5   41.35    5.15
   3   1  -5   41.28    7.16
  -3  -1   5   41.17    4.06
  -3  -1   5   50.56    6.27
  -3  -1   5   42.36    2.47
   3   1  -4    0.47    2.56
   3   1  -4    3.52    2.27
   3   1  -4    1.40    0.67
  -3  -1   4    1.32    1.18
  -3  -1   4    1.75    1.17
  -3  -1   4    0.89    1.07
   3   1  -3  149.30   15.93
   3   1  -3  156.74   10.80
   3   1  -3  162.76    7.34
  -3  -1   3  159.44    9.96
  -3  -1   3  174.35    9.94
  -3  -1   3  176.39    8.05
   3   1  -2  491.27   40.10
   3   1  -2  500.80   33.37
   3   1  -2  442.19   29.05
   3   1  -2  519.42   30.35
  -3  -1   2  525.13   32.96
  -3  -1   2  596.75   41.94
  -3  -1   2  519.20   30.04
  -3  -1   2  574.09   32.98
   3   1  -1   24.29    5.11
   3   1  -1   25.73    4.82
   3   1  -1   25.63    3.29
  -3  -1   1   27.77    2.61
  -3  -1   1   30.85    3.15
  -3  -1   1   26.64    2.48
   3   1   0   92.66    9.57
   3   1   0  101.23    6.82
   3   1   0  105.21    8.06
   3   1   0   96.78    6.78
  -3  -1   0  110.92    8.14
  -3  -1   0  105.77    6.93
  -3  -1   0  107.13    8.75
  -3  -1   0  108.82    5.26
   3   1   1   65.24    4.99
   3   1   1   79.56    5.46
   3   1   1   63.38    5.59
   3   1   1   68.45    3.91
  -3  -1  -1   67.96    3.58
  -3  -1  -1   71.13    7.48
  -3  -1  -1   77.93    7.51
  -3  -1  -1   74.49    3.87
   3   1   2    6.01    1.35
   3   1   2    7.92    1.47
   3   1   2    6.43    1.27
   3   1   2    6.43    1.96
  -3  -1  -2    6.13    0.88
  -3  -1  -2    7.73    1.79
  -3  -1  -2    7.76    1.80
  -3  -1  -2    6.53    1.13
   3   1   3    1.32    0.93
   3   1   3    0.68    0.88
   3   1   3    0.21    0.81
  -3  -1  -3    1.15    1.14
  -3  -1  -3    1.18    1.25
  -3  -1  -3    1.11    1.23
   3   1   4   28.48    3.67
   3   1   4   34.37    3.10
   3   1   4   25.45    2.79
  -3  -1  -4   32.78    3.74
  -3  -1  -4   32.73    4.04
  -3  -1  -4   30.09    4.23
   3   1   5    0.66    0.86
   3   1   5    0.18    1.12
   3   1   5    1.38    1.02
  -3  -1  -5    2.26    1.54
  -3  -1  -5    1.00    1.04
   3   1   6  145.53    8.70
   3   1   6  167.56   10.95
   3   1   6  122.75   12.57
  -3  -1  -6  128.44    9.33
   3   1   7   16.18    2.95
   3   1   7    9.63    4.36
   3   1   8  184.72   17.17
   3   1   8  115.78   14.44
  -3  -1  -8  140.05   10.05
   3   1   9   22.39    3.09
   3   1   9   10.97    5.32
  -3  -1  -9   17.92    2.81
   3   1  10    1.83    1.59
   3   1  10    2.26    2.97
  -3  -1 -10    5.52    2.69
   3   1  11   10.40    2.32
   3   1  11    4.17    4.33
  -3  -1 -11    8.35    2.18
   3   1  12    4.26    1.64
   3   1  12    3.38    3.32
  -3  -1 -12    1.84    1.57
   3   1  13   27.00    4.58
   3   1  13    5.71    3.31
   3   1  14    2.04    1.34
   3   1  14    1.80    1.71
   3   1  15    2.83    1.16
   3   1  15    1.03    1.57
   3   1  16    6.39    1.94
   3   2 -18   10.19    5.42
   3   2 -17   -0.35    2.86
  -3  -2  17    6.39    1.59
   3   2 -16    1.16    1.85
  -3  -2  16   -0.01    1.02
   3   2 -15   -2.25    2.33
   3   2 -15    2.45    1.43
  -3  -2  15    0.87    1.33
   3   2 -14   13.55    3.72
   3   2 -14   25.01    4.59
   3   2 -14    7.87    2.73
  -3  -2  14   11.35    2.69
   3   2 -13   88.30   10.27
   3   2 -13  107.02   11.13
  -3  -2  13   66.32    7.15
   3   2 -12    2.23    4.71
   3   2 -12    3.96    3.00
  -3  -2  12    3.21    2.85
   3   2 -11  158.42   15.74
   3   2 -11  130.68   13.87
  -3  -2  11  123.24    9.97
   3   2 -10   48.80    7.30
   3   2 -10   46.11    6.68
  -3  -2  10   41.81    4.31
   3   2  -9  132.96   13.01
   3   2  -9  119.02   11.38
  -3  -2   9  111.63   10.98
   3   2  -8   -0.79    1.63
   3   2  -8    2.82    1.45
  -3  -2   8   -0.17    0.81
   3   2  -7   38.78    9.22
   3   2  -7   41.87    5.03
  -3  -2   7   38.46    3.17
   3   2  -6    0.82    2.89
   3   2  -6    0.09    1.46
  -3  -2   6    1.46    1.76
  -3  -2   6    1.31    1.01
   3   2  -5    7.29    2.72
   3   2  -5    8.31    3.56
   3   2  -5    7.01    1.41
  -3  -2   5    5.55    2.71
  -3  -2   5    8.07    1.52
   3   2  -4  132.37   11.21
   3   2  -4  135.18    9.47
   3   2  -4  138.59    7.36
  -3  -2   4  125.17   10.75
  -3  -2   4  160.31   12.14
  -3  -2   4  141.21    7.91
   3   2  -3  164.92   13.10
   3   2  -3  175.91   11.91
  -3  -2   3  174.53   10.30
  -3  -2   3  198.87   11.27
   3   2  -2  360.92   24.96
   3   2  -2  400.37   29.41
   3   2  -2  307.61   19.55
  -3  -2   2  401.68   22.42
  -3  -2   2  437.28   24.14
  -3  -2   2  314.18   20.03
   3   2  -1  135.37   10.22
   3   2  -1  139.72    8.77
   3   2  -1  132.36    6.89
  -3  -2   1  150.87    7.98
  -3  -2   1  161.44   12.67
  -3  -2   1  142.63   10.81
  -3  -2   1  151.43    8.15
   3   2   0   23.44    3.11
   3   2   0   23.71    2.76
   3   2   0   23.76    2.11
   3   2   0   25.30    2.34
  -3  -2   0   28.62    2.17
  -3  -2   0   28.03    2.74
  -3  -2   0   26.18    2.75
   3   2   1    9.07    1.89
   3   2   1    8.08    2.41
   3   2   1    8.31    1.42
   3   2   1    8.76    1.54
  -3  -2  -1   10.59    1.90
  -3  -2  -1    8.92    1.75
  -3  -2  -1    9.29    1.93
  -3  -2  -1    9.95    2.48
   3   2   2   15.12    3.41
   3   2   2   15.47    1.99
   3   2   2   19.40    2.07
   3   2   2   17.05    3.31
  -3  -2  -2   15.80    1.25
  -3  -2  -2   17.01    2.28
  -3  -2  -2   19.65    2.70
  -3  -2  -2   17.08    2.06
   3   2   3  146.71   11.53
   3   2   3  161.47    9.31
   3   2   3  136.51   12.02
  -3  -2  -3  135.65   10.48
  -3  -2  -3  145.17    9.14
   3   2   4   11.60    1.55
   3   2   4   20.10    3.57
   3   2   4   15.40    2.29
  -3  -2  -4   15.32    3.54
   3   2   5   17.30    1.93
   3   2   5   28.64    4.02
   3   2   5   18.10    2.80
   3   2   6    0.98    1.04
   3   2   6    0.21    1.24
   3   2   7   52.21    4.71
   3   2   7   37.92    5.33
   3   2   8    6.99    1.91
   3   2   8    1.83    2.18
   3   2   9   18.61    3.05
   3   2   9   11.97    3.47
   3   2  10   -0.57    1.14
   3   2  10    0.47    1.35
   3   2  11    2.43    2.18
   3   2  11   -0.46    1.64
   3   2  12   -2.30    1.58
   3   2  12   -1.67    1.94
   3   2  13    0.10    0.95
   3   2  13    0.05    1.21
   3   2  14   -0.71    1.07
   3   2  14   -0.97    1.40
   3   2  15    1.18    1.38
   3   3 -18   -3.41    3.54
   3   3 -17   -0.47    2.64
  -3  -3  17    0.34    0.87
   3   3 -16   24.08    4.18
  -3  -3  16    9.73    2.44
   3   3 -15    7.82    3.11
   3   3 -15   18.46    4.05
  -3  -3  15    8.93    2.45
   3   3 -14  116.59   12.91
   3   3 -14  149.10   14.62
  -3  -3  14  118.93   10.47
   3   3 -13  110.77   19.27
   3   3 -13  112.53   12.75
  -3  -3  13   90.33   12.66
   3   3 -12   25.98    5.94
   3   3 -12   27.72    5.54
  -3  -3  12   22.71    3.80
   3   3 -11   21.30    5.20
   3   3 -11   18.58    4.57
  -3  -3  11   16.80    3.21
   3   3 -10   13.97    4.52
   3   3 -10   12.22    3.84
  -3  -3  10   13.21    4.23
   3   3  -9    0.54    3.38
   3   3  -9    1.45    1.76
  -3  -3   9    0.54    1.13
   3   3  -8    0.22    3.23
   3   3  -8    0.61    1.59
  -3  -3   8    0.73    1.06
   3   3  -7  102.90   11.11
   3   3  -7   95.20    8.80
   3   3  -6   53.46    6.71
   3   3  -6   46.83    7.87
   3   3  -6   46.74    4.14
  -3  -3   6   49.96    3.98
   3   3  -5    6.11    2.72
   3   3  -5    5.70    2.03
   3   3  -5    6.03    1.60
  -3  -3   5    6.23    1.41
   3   3  -4  133.79   11.88
   3   3  -4  131.48    9.59
   3   3  -4  147.32   11.84
  -3  -3   4  147.41    9.21
  -3  -3   4  143.17    8.09
   3   3  -3   69.65    7.50
   3   3  -3   64.77    8.53
  -3  -3   3   78.90    5.61
  -3  -3   3   83.29    7.66
   3   3  -2  190.09   14.95
   3   3  -2  184.04   12.01
  -3  -3   2  246.25   13.46
  -3  -3   2  219.20   12.62
   3   3  -1   93.32    7.69
   3   3  -1   79.63    5.88
  -3  -3   1  103.44    7.10
  -3  -3   1   91.13    5.80
  -3  -3   1   95.30    6.41
   3   3   0   26.83    3.66
   3   3   0   18.08    3.60
   3   3   0   25.13    2.04
   3   3   0   28.62    3.00
  -3  -3   0   30.66    2.19
  -3  -3   0   25.74    2.56
  -3  -3   0   26.99    3.15
  -3  -3   0   38.77    3.51
   3   3   1   23.91    3.34
   3   3   1   25.36    2.20
   3   3   1   26.53    3.01
  -3  -3  -1   28.16    2.01
  -3  -3  -1   28.24    3.36
  -3  -3  -1   29.51    4.82
   3   3   2   13.18    1.72
   3   3   2   12.70    2.35
  -3  -3  -2   13.20    2.68
  -3  -3  -2   13.86    2.25
   3   3   3    9.53    1.69
   3   3   3   10.07    3.50
   3   3   4   25.65    2.81
   3   3   4   22.23    5.50
   3   3   5  104.32    7.43
   3   3   5   83.20    7.99
   3   3   6   76.83    6.30
   3   3   6   59.10    6.87
   3   3   7   22.09    3.24
   3   3   7   15.77    3.80
   3   3   8   -1.30    1.40
   3   3   8   -0.26    1.64
   3   3   9    2.18    2.57
   3   3   9    1.21    1.86
   3   3  10    2.71    1.69
   3   3  10    2.13    2.06
   3   3  11    3.68    1.99
   3   3  11    6.70    2.45
   3   3  12    0.30    1.05
   3   3  12   -0.05    1.32
   3   3  13    0.70    1.09
   3   3  13    0.27    1.37
   3   3  14    1.29    2.29
   3   4 -18    2.13    1.62
   3   4 -17    7.50    3.67
  -3  -4  17    2.74    2.33
   3   4 -16    7.92    4.37
  -3  -4  16    4.52    1.75
   3   4 -15    1.12    1.72
   3   4 -15    1.89    2.03
  -3  -4  15    0.84    1.38
   3   4 -14    9.85    4.12
  -3  -4  14   13.75    4.53
   3   4 -13   42.83    7.47
   3   4 -13   42.69    6.82
  -3  -4  13   39.38    5.20
   3   4 -12    0.36    2.06
   3   4 -12   -1.93    1.80
  -3  -4  12    0.00    1.30
   3   4 -11    8.46    4.27
   3   4 -11   10.00    3.44
  -3  -4  11    9.44    4.26
   3   4 -10    2.01    4.66
   3   4 -10    2.41    2.25
  -3  -4  10    2.71    1.66
   3   4  -9    6.55    5.87
   3   4  -9    2.96    4.39
  -3  -4   9    6.94    2.06
   3   4  -8    2.30    2.60
   3   4  -8    3.27    3.10
  -3  -4   8    2.00    1.48
   3   4  -7    3.98    3.02
   3   4  -7    4.43    3.38
   3   4  -6   56.04    7.39
   3   4  -6   43.01    5.32
   3   4  -6   56.69    4.96
   3   4  -5   51.47    6.81
   3   4  -5   37.61    4.78
   3   4  -5   51.58    4.62
  -3  -4   5   47.52    5.27
   3   4  -4   16.94    4.28
   3   4  -4   21.26    4.80
   3   4  -3   25.95    8.39
   3   4  -3  180.17    9.46
   3   4  -2  241.17   20.32
   3   4  -2  308.23   19.65
   3   4  -1   26.60    7.28
   3   4  -1  173.84    9.15
   3   4   0   -0.50    1.43
   3   4   0    0.93    1.17
   3   4   0    1.20    2.07
  -3  -4   0    1.04    1.19
   3   4   1    9.83    2.54
   3   4   1    8.98    2.42
   3   4   1    9.42    2.33
  -3  -4  -1   10.02    2.41
   3   4   2    9.64    2.75
   3   4   2   10.94    2.54
   3   4   3    1.84    1.53
   3   4   3   -0.27    1.37
   3   4   4   -0.09    1.45
   3   4   4    0.36    1.26
   3   4   5    6.14    3.05
   3   4   5    6.46    4.12
   3   4   6   13.46    4.22
   3   4   6   11.03    5.25
   3   4   7   31.16    3.97
   3   4   7   23.16    7.63
   3   4   8    5.18    2.11
   3   4   8    7.44    4.33
   3   4   9   24.05    3.71
   3   4   9   18.89    7.00
   3   4  10    0.75    1.33
   3   4  10    1.40    2.74
   3   4  11    5.12    1.86
   3   4  11    1.35    3.56
   3   4  12    2.76    1.87
   3   4  13    1.35    1.71
  -3  -4 -13    5.68    1.82
   3   5 -17    3.38    1.69
  -3  -5  17    3.95    2.10
   3   5 -16    3.51    1.91
   3   5 -16    9.46    2.30
  -3  -5  16    7.77    1.85
   3   5 -15    6.53    2.52
   3   5 -15    7.73    4.18
  -3  -5  15    6.78    2.07
   3   5 -14    9.89    3.74
   3   5 -14   10.89    5.13
  -3  -5  14   11.26    2.65
   3   5 -13   24.91    4.87
   3   5 -13    8.55    6.11
  -3  -5  13   12.16    3.18
   3   5 -12    3.12    2.98
   3   5 -12    2.53    3.64
  -3  -5  12    2.96    1.94
   3   5 -11   26.67    9.59
   3   5 -11   18.18    6.86
  -3  -5  11   20.96    5.97
   3   5 -10   23.09   10.07
  -3  -5  10   24.92    3.83
   3   5  -9    6.81    3.41
  -3  -5   9    4.17    2.07
   3   5  -8   60.77    9.04
  -3  -5   8   60.06    5.89
   3   5  -7    1.02    2.34
   3   5  -6    2.62    2.85
   3   5  -6    3.50    1.81
   3   5  -5    4.34    2.59
   3   5  -5    1.84    1.73
   3   5  -4    7.73    4.43
   3   5  -4   28.62    5.44
   3   5  -3   36.41    6.71
   3   5  -3   54.13    5.59
   3   5  -2   19.86    6.42
   3   5  -2   76.93    6.40
   3   5  -1   85.32    9.44
   3   5  -1   83.49    9.03
   3   5   0   56.31    7.41
   3   5   0   70.63   10.47
   3   5   1   88.17    6.28
   3   5   1  119.68   13.37
   3   5   2  173.10   11.70
   3   5   2  201.60   15.37
   3   5   3   59.26    5.35
   3   5   3   60.68    7.07
   3   5   4   30.13    3.61
   3   5   4   27.33    4.78
   3   5   5   10.26    2.30
   3   5   5    8.97    3.11
   3   5   6    0.35    1.09
   3   5   6    0.07    1.45
   3   5   7   35.69    4.39
   3   5   7   29.33    5.37
   3   5   8    0.97    1.39
   3   5   8    0.58    1.72
   3   5   9    9.40    2.34
   3   5   9    6.92    2.87
   3   5  10    3.39    2.11
   3   5  11    1.93    1.72
  -3  -5 -11    2.97    1.86
   3   5  12    4.95    2.26
  -3  -5 -12   11.96    2.41
  -3  -6  16   -0.04    0.84
   3   6 -15    3.24    3.24
  -3  -6  15    5.11    2.78
   3   6 -14    3.24    2.30
  -3  -6  14    2.50    1.66
   3   6 -13    0.38    2.37
  -3  -6  13    2.34    1.63
   3   6 -12   29.12    6.43
  -3  -6  12   32.31    4.51
   3   6 -11   21.23    9.03
  -3  -6  11   19.81    5.79
   3   6 -10   54.12   13.50
  -3  -6  10   48.17    5.74
   3   6  -9   22.23    5.74
  -3  -6   9   20.06    3.74
   3   6  -8    2.91    2.62
  -3  -6   8    0.76    1.63
   3   6  -7   42.13    7.90
   3   6  -6   11.00    4.44
   3   6  -6   12.07    3.06
   3   6  -5   12.20    4.22
   3   6  -5    9.87    2.97
   3   6  -4    0.95    1.64
   3   6  -4   -0.44    1.22
   3   6  -3   21.25    5.36
   3   6  -2    3.12    2.75
   3   6  -1    3.76    2.55
   3   6  -1    2.70    2.21
   3   6   0    0.73    1.41
   3   6   0   -0.49    1.30
   3   6   1    4.05    2.41
   3   6   2    4.31    3.96
   3   6   3    5.04    4.43
   3   6   4    3.93    2.41
   3   6   5   -0.76    1.69
   3   6   6    4.14    2.46
   3   6   7    2.58    2.09
   3   6   8   -1.39    1.48
  -3  -6  -8    0.11    1.49
   3   6   9    1.92    1.98
  -3  -6  -9    4.82    2.10
   3   6  10   -0.29    1.04
  -3  -6 -10    0.13    1.08
   3   6  11   -3.86    1.75
  -3  -6 -11    0.85    1.12
   3   7 -15    0.35    0.96
  -3  -7  15    0.00    0.86
   3   7 -14    1.36    1.65
  -3  -7  14    0.71    1.20
   3   7 -13    3.27    2.42
  -3  -7  13    2.30    1.64
   3   7 -12   10.77    3.71
  -3  -7  12    8.16    2.50
   3   7 -11    2.49    3.61
  -3  -7  11   -2.01    2.31
   3   7 -10   -1.21    3.45
  -3  -7  10    0.52    1.34
   3   7  -9   15.93    5.23
  -3  -7   9   15.05    3.54
   3   7  -8   14.87    5.17
  -3  -7   8   14.98    3.36
   3   7  -7    2.96    3.11
   3   7  -6    3.12    2.78
   3   7  -6    1.18    2.09
   3   7  -5   32.57    7.94
   3   7  -5   51.94    6.46
   3   7  -4   47.40    8.41
   3   7  -3    0.47    2.11
   3   7  -2  199.20   20.17
   3   7  -2  162.93   30.62
   3   7  -1  204.64   19.78
   3   7  -1  178.02   25.71
   3   7   0   17.19    4.55
   3   7   1    5.28    2.71
   3   7   2    1.32    1.76
  -3  -7  -2    0.57    1.31
   3   7   3   12.57    2.59
  -3  -7  -3   -0.20    1.93
  -3  -7  -4    0.17    1.18
   3   7   5    2.89    2.68
  -3  -7  -5    0.21    1.40
   3   7   6    0.70    2.41
  -3  -7  -6    0.47    1.31
   3   7   7   -1.70    2.29
  -3  -7  -7    1.24    1.28
   3   7   8   -0.28    1.09
  -3  -7  -8   -0.06    1.06
   3   7   9    2.46    1.62
  -3  -7  -9    3.80    1.59
   3   8 -13    7.18    2.80
  -3  -8  13    6.92    1.96
   3   8 -12   -0.04    1.98
  -3  -8  12    1.76    1.34
   3   8 -11    0.71    1.74
  -3  -8  11   -1.33    1.93
   3   8 -10    4.41    4.99
  -3  -8  10    4.06    1.95
   3   8  -9    6.17    3.46
  -3  -8   9    4.95    2.19
   3   8  -8    1.05    2.89
  -3  -8   8    2.92    1.84
   3   8  -7    2.37    2.89
   3   8  -6   13.71    4.87
   3   8  -5   13.86    5.45
   3   8  -5   24.66    4.78
   3   8  -4   23.75    5.84
   3   8  -3   45.10    7.96
   3   8  -2    1.74    2.34
   3   8  -1   77.41    9.63
   3   8   0    3.62    3.96
   3   8   1   17.69    3.81
   3   8   2   26.41    4.46
   3   8   3   -0.35    1.39
   3   8   4   -1.20    1.62
   3   8   5    1.75    1.61
   3   8   6   15.53    2.53
  -3  -8  -6    5.37    2.23
   3   9 -11   11.93    3.01
  -3  -9  11    5.46    1.96
   3   9 -10   26.15    4.78
  -3  -9  10   17.21    5.21
   3   9  -9    7.44    5.35
  -3  -9   9    7.86    2.19
   3   9  -8    3.68    3.46
  -3  -9   8    0.81    1.41
   3   9  -7   -1.02    1.71
  -3  -9   7    0.14    1.18
   3   9  -6    3.74    2.80
   3   9  -5    5.28    2.98
   3   9  -4    4.97    2.84
   3   9  -3    5.95    2.84
   3   9  -2    1.67    1.83
   3   9  -2   -5.81    1.97
   3   9  -1   16.90    4.72
   3   9  -1   14.05    3.29
   3   9   0    0.03    1.09
   3   9   1   15.68    3.11
   3   9   2    0.75    2.26
   3   9   3    1.00    2.18
  -3 -10   6   -1.05    1.16
   3  10  -5   -0.81    2.48
  -3 -10   5    1.89    1.29
  -3 -10   4    0.22    1.04
   4 -11  -2   -0.93    2.81
  -4  11   2    1.30    1.21
  -4  11   2    1.36    1.24
   4 -11  -1   12.84    4.73
  -4  11   1    7.01    2.07
  -4  11   1    8.74    3.51
  -4  11   0   10.24    2.55
  -4  11   0   24.10    4.29
  -4  11  -1   -3.32    2.56
   4 -11   2    4.47    2.01
  -4  11  -2    2.23    2.34
  -4  11  -2    2.29    1.56
   4 -11   3    7.38    2.59
  -4  11  -3    5.42    3.68
  -4  11  -3    9.25    2.06
   4 -11   4    1.84    1.42
  -4  11  -4    0.58    1.15
  -4  11  -4    0.15    1.19
   4 -11   5   -1.84    1.27
  -4  11  -5    0.26    0.97
   4 -11   6   10.87    4.85
  -4  11  -6   27.13    4.60
  -4  11  -7    0.75    1.13
  -4  11  -8    8.36    1.87
   4 -10  -6    0.08    1.04
  -4  10   6    0.33    0.80
  -4  10   6   -0.72    0.88
   4 -10  -5   21.19    3.56
  -4  10   5   13.87    2.73
  -4  10   5   15.37    2.89
  -4  10   4    1.43    1.34
  -4  10   4    0.74    1.36
   4 -10  -3    9.51    3.22
  -4  10   3    8.18    2.43
  -4  10   3    8.40    2.39
   4 -10  -2    2.03    2.68
  -4  10   2    1.70    1.95
  -4  10   2    8.09    2.06
   4 -10  -1    4.70    2.60
  -4  10   1    1.86    1.94
  -4  10   1    3.82    1.93
   4 -10   0   15.57    3.98
  -4  10   0   10.61    2.77
  -4  10   0   10.27    2.86
   4 -10   1    8.69    2.94
  -4  10  -1    4.41    2.00
  -4  10  -1    2.59    2.18
   4 -10   2    2.19    3.96
  -4  10  -2    1.83    1.63
  -4  10  -2    4.14    2.96
   4 -10   3    2.21    3.24
  -4  10  -3    0.68    1.35
  -4  10  -3    2.64    2.39
   4 -10   4    2.95    1.95
  -4  10  -4    0.69    1.32
  -4  10  -4    1.80    1.49
   4 -10   5    4.43    2.30
  -4  10  -5    2.87    2.88
  -4  10  -5    3.56    1.80
   4 -10   6    0.20    1.61
  -4  10  -6    0.51    1.15
  -4  10  -6    1.87    1.30
   4 -10   7    2.22    2.83
  -4  10  -7    1.58    2.38
   4 -10   8    7.85    2.21
  -4  10  -8   18.27    3.87
   4 -10   9    0.72    0.96
  -4  10  -9    1.03    1.19
  -4  10 -10    4.83    1.69
  -4  10 -11    4.08    2.40
   4  -9  -8   -0.25    1.35
  -4   9   8   -2.24    1.14
  -4   9   8   -5.56    2.43
   4  -9  -7   -0.12    1.37
  -4   9   7    1.20    1.86
  -4   9   7    1.14    1.28
   4  -9  -6   10.97    2.93
  -4   9   6    6.55    3.23
  -4   9   6    8.73    2.56
   4  -9  -5    1.58    1.55
  -4   9   5    0.35    1.68
  -4   9   5   -2.72    2.25
   4  -9  -4   10.50    3.29
  -4   9   4    6.90    2.21
  -4   9   4    7.14    4.43
   4  -9  -3    0.38    2.23
  -4   9   3    2.40    1.44
  -4   9   3   -0.29    2.68
   4  -9  -2    7.38    3.36
  -4   9   2    4.92    2.15
  -4   9   2    9.44    3.90
   4  -9  -1   18.68    4.55
  -4   9   1   12.25    2.89
  -4   9   1   15.91    3.45
   4  -9   0    5.78    3.61
  -4   9   0    7.30    3.45
  -4   9   0    6.48    2.58
   4  -9   1   17.98    4.95
  -4   9  -1   16.21    5.68
   4  -9   2    4.45    3.20
  -4   9  -2    4.71    2.36
   4  -9   3   23.75    7.12
  -4   9  -3    8.97    2.75
  -4   9  -3   18.22    5.09
   4  -9   4    5.70    2.39
  -4   9  -4   -0.55    1.52
  -4   9  -4    6.18    2.93
   4  -9   5   21.27    4.76
  -4   9  -5   17.43    3.02
  -4   9  -5   26.32    3.69
   4  -9   6    2.42    2.20
  -4   9  -6    1.95    1.65
   4  -9   7    0.68    1.56
  -4   9  -7    0.16    1.19
   4  -9   8   15.69    5.55
  -4   9  -8   24.60    5.07
   4  -9   9    1.84    1.70
  -4   9  -9    4.79    1.71
   4  -9  10   -0.05    0.96
  -4   9 -10    0.50    1.05
   4  -9  11   -0.16    1.10
  -4   9 -11    0.91    1.02
  -4   9 -12   -3.39    2.66
  -4   9 -13   -0.38    0.89
  -4   8  10    6.69    2.21
  -4   8  10    4.70    1.91
   4  -8  -9    2.39    1.35
  -4   8   9    2.40    1.76
  -4   8   9    1.52    1.60
   4  -8  -8    2.54    1.74
  -4   8   8    2.04    1.32
  -4   8   8    3.36    1.82
   4  -8  -7    0.80    1.75
  -4   8   7    1.12    1.23
  -4   8   7    1.52    1.60
   4  -8  -6    1.51    2.10
  -4   8   6    2.03    1.47
  -4   8   6    1.90    1.82
   4  -8  -5   -2.08    1.60
  -4   8   5    0.33    1.11
  -4   8   5    0.38    1.35
   4  -8  -4    4.59    2.50
  -4   8   4    1.27    1.68
  -4   8   4    2.80    2.03
   4  -8  -3   15.55    4.82
  -4   8   3   17.94    3.24
  -4   8   3   19.06    3.89
   4  -8  -2   17.28    4.89
  -4   8   2   15.59    3.19
  -4   8   2   20.44    3.86
   4  -8  -1    1.83    2.10
  -4   8   1    0.34    1.28
  -4   8   1   -0.34    2.66
   4  -8   0   19.44    4.77
  -4   8   0   14.76    3.01
  -4   8   0   16.33    3.50
   4  -8   1    4.05    3.48
  -4   8  -1    2.22    1.98
  -4   8  -1   14.90    2.80
   4  -8   2   39.33    6.80
  -4   8  -2   29.34    4.10
  -4   8  -2   46.31    5.20
   4  -8   3   10.51    7.34
  -4   8  -3    7.81    3.96
  -4   8  -3   21.44    3.45
   4  -8   4   16.59    4.29
  -4   8  -4    1.12    2.70
  -4   8  -4   -2.12    3.19
   4  -8   5   15.38    4.00
  -4   8  -5    7.97    2.42
  -4   8  -5   18.88    2.86
   4  -8   6    3.00    2.63
  -4   8  -6    4.21    1.84
   4  -8   7    6.64    3.03
  -4   8  -7    6.80    2.16
   4  -8   8   -5.62    4.64
  -4   8  -8   -6.03    3.35
   4  -8   9    0.82    1.41
  -4   8  -9    0.32    1.27
   4  -8  10    3.39    1.99
  -4   8 -10    3.46    1.61
  -4   8 -10    7.11    1.89
   4  -8  11    0.27    1.99
  -4   8 -11    1.06    1.05
  -4   8 -11    0.76    1.21
  -4   8 -12    3.07    1.99
  -4   8 -12    1.88    2.59
  -4   8 -13   -1.86    1.45
  -4   8 -13    0.56    0.85
  -4   8 -14   20.60    2.19
  -4   7  12    5.62    1.79
  -4   7  11    0.46    0.66
  -4   7  11   -0.04    1.12
  -4   7  10    0.70    0.93
  -4   7  10    1.36    1.42
  -4   7   9    1.14    1.15
  -4   7   9    1.98    2.57
   4  -7  -8    5.78    2.46
  -4   7   8    6.36    1.91
  -4   7   8    7.28    3.98
   4  -7  -7    0.43    2.73
  -4   7   7    6.89    3.33
  -4   7   7    9.80    2.62
   4  -7  -6    0.04    1.78
  -4   7   6    0.55    2.14
  -4   7   6    1.07    1.56
   4  -7  -5   40.62    6.71
  -4   7   5   44.49    8.41
  -4   7   5   41.74    6.07
   4  -7  -4    2.39    2.71
  -4   7   4    3.40    3.30
  -4   7   4    4.50    2.27
   4  -7  -3    2.02    2.57
  -4   7   3    2.77    2.96
  -4   7   3    2.65    2.07
   4  -7  -2  167.86   17.21
  -4   7   2  167.62   18.29
  -4   7   2  182.16   15.68
   4  -7  -1   12.77    4.22
  -4   7   1    8.60    4.15
  -4   7   1   14.05    3.73
   4  -7   0  120.82   13.14
  -4   7   0  112.83   12.50
  -4   7   0  108.83   15.83
   4  -7   1   53.69    7.57
  -4   7  -1   39.88    4.72
  -4   7  -1   54.87    6.11
   4  -7   2   18.95    4.85
  -4   7  -2   12.27    2.68
  -4   7  -2   31.18    3.82
   4  -7   3   19.44    7.09
  -4   7  -3   11.32    2.32
  -4   7  -3   20.26    3.24
   4  -7   4    6.20    1.72
   4  -7   4    9.35    5.23
  -4   7  -4    6.57    1.68
  -4   7  -4   12.13    3.72
   4  -7   5    9.68    3.47
  -4   7  -5    9.27    2.30
   4  -7   6    4.56    2.39
  -4   7  -6    0.36    1.84
  -4   7  -6    3.41    1.61
   4  -7   7    0.35    1.83
  -4   7  -7    0.84    1.53
  -4   7  -7    0.52    1.20
   4  -7   8   -0.31    3.14
  -4   7  -8    0.92    1.66
  -4   7  -8    1.00    2.08
   4  -7   9    3.34    2.22
  -4   7  -9    2.04    2.36
  -4   7  -9    4.92    1.82
   4  -7  10    3.77    2.18
  -4   7 -10   -3.29    3.79
  -4   7 -10    5.96    1.89
   4  -7  11    0.98    2.41
  -4   7 -11    1.00    1.47
  -4   7 -11    1.27    1.26
   4  -7  12    0.31    0.74
  -4   7 -12   -0.21    0.99
  -4   7 -12   -0.95    1.56
  -4   7 -13    0.26    1.32
  -4   7 -13    1.77    1.20
  -4   7 -14    1.57    1.79
  -4   7 -14    0.47    0.95
  -4   7 -15   35.87    3.79
  -4   6  13   -2.92    2.39
  -4   6  12    0.72    0.69
  -4   6  12   -0.17    2.09
  -4   6  11    1.54    1.07
  -4   6  11    2.47    1.69
  -4   6  10    0.61    1.83
  -4   6  10    0.54    1.46
  -4   6   9   -2.00    1.45
  -4   6   9   -0.40    1.86
  -4   6   8    1.59    1.54
  -4   6   8    1.25    1.84
   4  -6  -7   12.60    3.63
  -4   6   7   13.93    3.16
  -4   6   7   17.52    3.74
   4  -6  -6   17.18    4.06
  -4   6   6   15.89    3.35
  -4   6   6   20.12    6.22
   4  -6  -5    1.43    1.91
  -4   6   5    0.79    1.50
  -4   6   5    2.25    2.72
   4  -6  -4   24.62    5.03
  -4   6   4   26.10    4.03
  -4   6   4   24.09    4.49
   4  -6  -3    3.17    2.38
  -4   6   3    1.86    1.81
  -4   6   3    3.14    1.95
   4  -6  -2  197.59   18.33
  -4   6   2  181.67   14.85
  -4   6   2  207.34   16.23
   4  -6  -1    1.66    1.66
   4  -6  -1    2.71    2.50
  -4   6   1    1.05    1.66
  -4   6   1    7.26    2.14
   4  -6   0  232.74   18.21
   4  -6   0  268.91   23.03
  -4   6   0  237.93   17.64
  -4   6   0  279.99   24.34
   4  -6   1    0.62    1.30
   4  -6   1    0.38    1.93
  -4   6  -1    0.73    1.13
   4  -6   2   17.43    4.29
   4  -6   2   28.21    5.18
  -4   6  -2   19.71    4.32
  -4   6  -2   28.76    3.37
   4  -6   3    2.69    1.30
   4  -6   3    2.95    3.75
  -4   6  -3    2.09    1.16
  -4   6  -3    2.71    1.65
   4  -6   4   30.90    3.53
   4  -6   4   34.85    5.71
  -4   6  -4   38.51    5.97
   4  -6   5   17.27    2.78
   4  -6   5   20.70    4.48
  -4   6  -5   22.04    2.78
   4  -6   6    1.40    1.34
   4  -6   6   -0.16    2.21
  -4   6  -6    2.92    1.33
   4  -6   7   -0.14    1.86
  -4   6  -7    1.06    1.14
  -4   6  -8    3.97    2.52
  -4   6  -8    3.09    2.77
  -4   6  -9    2.08    2.08
  -4   6  -9    0.77    1.33
   4  -6  10    0.77    1.68
  -4   6 -10    0.66    2.09
  -4   6 -10    1.25    1.27
   4  -6  11   -2.41    2.21
  -4   6 -11   -2.27    2.62
  -4   6 -11    1.95    1.65
   4  -6  12    0.04    1.05
  -4   6 -12    1.83    1.48
  -4   6 -12   -0.07    1.15
   4  -6  13    0.77    1.06
  -4   6 -13    2.50    1.59
  -4   6 -13    1.01    1.18
  -4   6 -14    0.07    1.29
  -4   6 -14    0.98    1.43
  -4   6 -15   -6.38    3.87
  -4   5  14   -0.04    0.93
  -4   5  13    0.31    0.66
  -4   5  13    1.70    1.24
  -4   5  12    8.37    2.89
  -4   5  12    9.09    2.66
  -4   5  11    1.67    1.26
  -4   5  11    1.11    1.71
  -4   5  10    2.20    1.58
  -4   5  10    1.48    1.98
  -4   5   9    7.89    2.53
  -4   5   9   10.07    2.98
  -4   5   8    3.05    1.85
  -4   5   8    3.21    2.11
   4  -5  -7    4.78    2.19
  -4   5   7    2.84    1.94
  -4   5   7    4.36    2.16
   4  -5  -6    5.15    2.25
   4  -5  -6    3.79    2.35
  -4   5   6    4.63    3.23
  -4   5   6    4.03    2.18
   4  -5  -5    4.30    2.28
   4  -5  -5    5.86    2.42
  -4   5   5    5.70    3.29
  -4   5   5    3.89    2.16
   4  -5  -4   23.69    4.18
   4  -5  -4   23.80    4.52
  -4   5   4   22.53    5.81
  -4   5   4   23.52    6.25
   4  -5  -3    3.77    2.08
   4  -5  -3    4.91    2.32
  -4   5   3    3.16    2.92
  -4   5   3    2.49    2.83
   4  -5  -2    2.54    2.76
   4  -5  -2    0.98    1.90
  -4   5   2    1.99    1.39
  -4   5   2    1.13    1.37
   4  -5  -1   17.98    4.87
   4  -5  -1   22.00    4.09
  -4   5   1   16.07    2.84
  -4   5   1   18.57    2.91
   4  -5   0   20.27    3.20
   4  -5   0   23.21    4.19
  -4   5   0   15.63    2.70
  -4   5   0   17.54    2.86
   4  -5   1   32.92    4.07
   4  -5   1   33.69    5.19
  -4   5  -1   23.16    3.14
  -4   5  -1   29.05    4.92
   4  -5   2   11.21    2.72
   4  -5   2   12.35    5.34
  -4   5  -2    9.10    1.91
  -4   5  -2   14.51    2.16
   4  -5   3   28.01    5.73
   4  -5   3   24.85    4.35
  -4   5  -3   13.77    3.64
  -4   5  -3   23.94    2.78
   4  -5   4   -0.11    0.95
   4  -5   4   -0.35    1.50
  -4   5  -4   -0.19    1.36
   4  -5   5   16.61    2.67
   4  -5   5   15.10    4.00
  -4   5  -5   17.22    2.31
   4  -5   6   29.88    3.61
   4  -5   6   27.59    5.19
  -4   5  -6   29.10    3.04
   4  -5   7   42.68    4.53
  -4   5  -7   39.65    5.67
   4  -5   8   -0.32    1.64
  -4   5  -8    0.50    1.00
  -4   5  -9  116.16   11.82
  -4   5  -9   87.44    6.99
  -4   5 -10   10.48    3.90
   4  -5  11    3.40    2.57
  -4   5 -11    0.80    2.55
   4  -5  12    1.72    1.36
  -4   5 -12   -2.52    3.43
   4  -5  13    1.44    1.20
  -4   5 -13    1.25    1.73
   4  -5  14   -0.25    1.12
  -4   5 -14   -0.23    1.32
  -4   5 -15    2.57    2.64
  -4   5 -16    6.07    2.06
  -4   4  15    0.84    1.08
  -4   4  14   -0.18    1.06
   4  -4 -13    1.36    2.05
  -4   4  13    0.40    0.89
  -4   4  13    0.86    1.32
   4  -4 -12    2.61    2.91
  -4   4  12    0.82    1.19
  -4   4  12    1.41    1.58
   4  -4 -11   26.48    6.79
  -4   4  11   16.16    2.97
  -4   4  11   16.98    3.79
   4  -4 -10   49.48    6.93
  -4   4  10   38.87    7.47
  -4   4  10   37.37    5.88
   4  -4  -9    0.53    2.08
  -4   4   9    0.93    2.86
  -4   4   9    1.35    1.61
   4  -4  -8    0.03    1.53
  -4   4   8    0.77    1.30
  -4   4   8   -0.49    1.17
   4  -4  -7    2.70    3.32
  -4   4   7    2.29    1.74
  -4   4   7    0.39    1.52
   4  -4  -6   15.69    5.57
  -4   4   6   11.17    2.97
  -4   4   6    9.03    2.61
   4  -4  -5   20.59    5.71
   4  -4  -5   14.06    3.22
  -4   4   5   17.74    3.45
  -4   4   5   14.52    2.95
   4  -4  -4    2.03    1.57
   4  -4  -4    0.52    1.47
  -4   4   4    0.29    1.46
  -4   4   4    0.75    1.21
   4  -4  -3   29.66    4.17
   4  -4  -3   23.71    4.06
  -4   4   3   23.50    3.73
  -4   4   3   19.61    4.57
   4  -4  -2   -0.13    1.29
   4  -4  -2   -0.05    1.27
  -4   4   2    0.61    1.10
  -4   4   2    0.22    0.87
   4  -4  -1    7.83    2.31
   4  -4  -1    5.66    2.32
  -4   4   1    5.62    1.91
  -4   4   1    4.41    1.54
   4  -4   0   25.00    6.03
   4  -4   0   23.41    6.25
  -4   4   0   16.67    4.66
  -4   4   0   20.24    3.82
   4  -4   1    0.94    1.56
   4  -4   1    2.25    2.91
  -4   4  -1    1.66    1.72
  -4   4  -1    2.43    1.02
   4  -4   2    7.89    2.17
   4  -4   2    6.36    2.46
  -4   4  -2    3.63    1.32
  -4   4  -2    7.14    1.34
   4  -4   3    6.52    2.02
   4  -4   3    5.61    2.30
  -4   4  -3    2.93    1.14
  -4   4  -3    6.33    1.95
  -4   4  -3    4.45    1.46
   4  -4   4    7.45    3.89
   4  -4   5    0.70    1.31
   4  -4   5    3.30    1.91
   4  -4   6    1.02    0.91
   4  -4   6   -5.64    2.03
   4  -4   7  121.93    9.35
   4  -4   7  105.25   10.80
   4  -4   9   45.20    6.41
  -4   4  -9   52.03    7.26
   4  -4  10    5.39    4.45
  -4   4 -10    6.50    3.16
   4  -4  11    4.96    1.99
  -4   4 -11    3.63    2.96
   4  -4  12    0.22    1.18
  -4   4 -12   -3.59    2.95
   4  -4  13    0.04    2.04
  -4   4 -13    1.60    1.71
   4  -4  14   -0.35    0.72
  -4   4 -14    0.66    1.23
   4  -4  15    0.18    0.63
  -4   4 -15    1.70    1.32
  -4   4 -16   -0.40    1.27
   4  -3 -15    4.42    2.87
  -4   3  15    2.83    1.49
   4  -3 -14    3.39    1.84
  -4   3  14    1.08    0.97
  -4   3  14    2.16    1.46
   4  -3 -13    0.95    1.60
  -4   3  13   -0.24    0.91
  -4   3  13    0.82    1.20
   4  -3 -12   -0.54    2.50
  -4   3  12   -5.34    3.14
   4  -3 -11    0.98    2.09
  -4   3  11    0.51    2.48
   4  -3 -10   35.06    6.01
  -4   3  10   17.36    6.75
   4  -3  -9    0.02    2.22
  -4   3   9    1.81    1.76
  -4   3   9    2.59    2.54
   4  -3  -8    8.87    3.19
  -4   3   8    6.97    2.54
  -4   3   8    3.71    3.53
   4  -3  -7    0.48    1.77
  -4   3   7    0.86    1.42
  -4   3   7    0.17    1.16
   4  -3  -6   14.68    3.42
  -4   3   6    8.45    2.77
  -4   3   6    8.73    2.21
   4  -3  -5   11.55    3.08
   4  -3  -5    8.27    3.56
  -4   3   5    8.28    2.47
  -4   3   5    6.52    1.88
   4  -3  -4    1.49    2.73
   4  -3  -4   -1.14    1.98
  -4   3   4    0.75    1.29
  -4   3   4    0.80    0.96
   4  -3  -3   39.62    4.50
   4  -3  -3   29.64    6.00
  -4   3   3   23.92    3.79
  -4   3   3   22.30    4.13
   4  -3  -2   54.28    6.05
   4  -3  -2   47.08    7.68
  -4   3   2   45.69    5.09
  -4   3   2   55.99    4.78
   4  -3  -1  170.52   12.59
   4  -3  -1  143.48   14.93
  -4   3   1  122.67   10.12
   4  -3   0   73.06    7.05
   4  -3   0   71.46    6.95
  -4   3   0   49.44    5.11
   4  -3   1   95.52   10.59
  -4   3  -1   77.01    6.22
   4  -3   2   11.72    2.50
  -4   3  -2    5.77    2.65
   4  -3   3    3.44    1.78
   4  -3   3    2.18    1.99
   4  -3   4    2.27    1.65
   4  -3   4    1.05    3.13
   4  -3   5   14.36    3.88
   4  -3   5   12.65    3.13
   4  -3   6  144.62   10.12
   4  -3   6  128.01   11.49
   4  -3   7   62.68    5.84
   4  -3   7   56.05    7.05
   4  -3   8   20.47    4.45
   4  -3   9    3.35    3.72
  -4   3  -9    2.87    2.35
   4  -3  10    1.21    1.40
  -4   3 -10   -0.14    1.78
   4  -3  11   -1.67    1.18
  -4   3 -11    2.30    1.53
   4  -3  12    0.77    1.23
  -4   3 -12   -1.59    2.68
   4  -3  13    0.44    1.60
  -4   3 -13    0.32    1.51
   4  -3  14    0.41    0.96
  -4   3 -14    2.11    1.53
   4  -3  15    1.96    0.91
  -4   3 -15    2.04    1.62
  -4   3 -16   -2.05    1.51
   4  -2 -16   10.31    1.93
  -4   2  16   -0.07    1.24
   4  -2 -15    2.41    1.63
  -4   2  15   -0.25    1.07
   4  -2 -14    4.04    2.08
  -4   2  14   -0.64    1.68
  -4   2  14    1.73    2.22
   4  -2 -13   15.14    3.68
  -4   2  13    7.54    2.45
  -4   2  13    4.44    3.91
   4  -2 -12   13.08    3.87
  -4   2  12    9.10    2.70
  -4   2  12    4.75    4.07
   4  -2 -11   -1.15    1.83
  -4   2  11    0.40    1.34
  -4   2  11    0.46    1.16
   4  -2 -10   63.87    8.14
  -4   2  10   47.29    6.52
   4  -2  -9   34.67    5.72
  -4   2   9   13.51    5.61
   4  -2  -8    1.35    2.00
  -4   2   8    0.18    1.97
   4  -2  -7    8.35    3.41
   4  -2  -6   -0.31    1.86
   4  -2  -6    1.45    1.79
   4  -2  -5   14.94    4.35
   4  -2  -5   22.78    4.31
   4  -2  -4    5.29    2.87
   4  -2  -4   11.14    2.98
   4  -2  -4    5.98    1.76
   4  -2  -3    0.68    1.68
   4  -2  -3    0.90    2.67
   4  -2  -3    0.41    1.14
  -4   2   3    1.82    0.99
   4  -2  -2    0.13    1.64
   4  -2  -2    3.20    1.75
   4  -2  -2    1.11    1.27
  -4   2   2    1.50    1.08
   4  -2  -1   72.54    7.02
   4  -2  -1   59.96    5.90
   4  -2   0   32.11    4.58
   4  -2   0   24.57    3.70
  -4   2   0   28.71    3.74
   4  -2   1  259.01   23.47
   4  -2   1  199.96   16.18
  -4   2  -1  234.75   16.73
   4  -2   2    7.37    2.09
  -4   2  -2    4.43    1.29
   4  -2   3   18.10    3.18
   4  -2   3   15.70    2.98
   4  -2   4   31.34    4.09
   4  -2   4   24.82    3.93
   4  -2   5   25.30    5.03
   4  -2   5   28.21    4.10
   4  -2   6    4.45    1.73
   4  -2   6    4.48    2.24
   4  -2   7   29.46    3.61
   4  -2   7   27.16    4.68
   4  -2   8    3.19    3.18
   4  -2   9   49.47    6.06
  -4   2  -9   55.63    6.71
   4  -2  10    0.51    1.62
  -4   2 -10    2.40    1.85
   4  -2  11   -0.56    1.24
  -4   2 -11    1.09    1.45
   4  -2  12   -0.56    1.64
  -4   2 -12    0.75    2.28
   4  -2  13    3.80    1.66
  -4   2 -13    6.90    2.30
   4  -2  14   -1.10    0.96
  -4   2 -14    0.07    1.35
   4  -2  15    0.11    1.15
  -4   2 -15    0.63    1.69
  -4   2 -16    7.83    1.93
   4  -1 -16    3.76    1.83
  -4   1  16    0.59    0.92
   4  -1 -15    1.43    2.00
  -4   1  15    0.84    1.42
  -4   1  15    1.00    1.82
   4  -1 -14    3.00    2.54
  -4   1  14    2.20    1.50
  -4   1  14    1.93    2.38
  -4   1  13   11.80    2.82
   4  -1 -12    1.79    2.66
   4  -1 -11    4.03    3.23
   4  -1 -10    4.35    3.67
   4  -1 -10    9.49    3.59
   4  -1  -9   40.89    7.91
   4  -1  -9   46.14    7.60
   4  -1  -8  129.64   14.63
   4  -1  -8  129.07   13.60
   4  -1  -7   85.12   10.51
   4  -1  -7   94.77   10.49
   4  -1  -6  309.50   26.92
   4  -1  -6  319.26   26.13
   4  -1  -5   89.70   10.17
   4  -1  -5  107.68   10.25
   4  -1  -4    3.05    2.21
   4  -1  -4    3.96    2.36
   4  -1  -3   25.96    4.60
   4  -1  -3   32.16    7.95
   4  -1  -3   33.73    4.46
   4  -1  -2    3.84    1.82
   4  -1  -2    4.34    2.00
   4  -1  -2    2.07    1.93
  -4   1   2    1.21    1.86
   4  -1  -1   18.62    3.29
   4  -1  -1   22.78    3.71
   4  -1  -1   15.39    3.84
  -4   1   1   21.07    2.71
   4  -1   0   42.96    4.95
   4  -1   0   60.72    5.93
   4  -1   0   48.77    4.58
   4  -1   1    4.73    2.00
   4  -1   1   11.90    4.34
   4  -1   1   11.00    2.05
   4  -1   2  108.16    8.48
   4  -1   2  100.40    8.16
   4  -1   3  100.93    8.28
   4  -1   3   89.19    7.74
   4  -1   4    1.55    1.56
   4  -1   4    1.58    1.56
   4  -1   5   19.44    4.29
   4  -1   5   20.32    5.75
   4  -1   6    1.20    1.27
   4  -1   6    1.21    2.30
   4  -1   7   16.03    2.74
   4  -1   7   14.13    3.15
   4  -1   8   64.19    7.13
   4  -1   9   10.10    2.81
  -4   1  -9    8.64    2.81
   4  -1  10   48.38    5.64
  -4   1 -10   37.47    5.61
   4  -1  11    2.38    2.66
  -4   1 -11    3.25    3.12
   4  -1  12   -0.79    1.16
  -4   1 -12    1.83    1.32
   4  -1  13    5.43    1.68
  -4   1 -13    3.55    1.94
   4  -1  14    4.55    1.90
  -4   1 -14   -0.05    1.40
   4  -1  15    0.39    0.80
  -4   1 -15    0.97    1.04
   4   0 -17    9.98    3.03
   4   0 -16    2.22    2.22
   4   0 -15    4.01    2.55
  -4   0  15    2.40    1.34
   4   0 -14    0.24    2.07
  -4   0  14    0.71    1.23
   4   0 -12    3.18    2.64
   4   0 -12   -0.01    4.70
   4   0 -11   29.34    6.21
   4   0 -11   27.79   10.30
   4   0 -10   95.66   12.54
   4   0 -10   90.79   17.68
   4   0  -9   50.45    9.58
   4   0  -9   59.26    8.79
   4   0  -8    8.48    3.55
   4   0  -8    5.03    3.52
   4   0  -7    2.27    2.69
   4   0  -7    4.68    2.71
   4   0  -6    4.78    4.10
   4   0  -6    2.82    2.50
   4   0  -5   64.46   12.64
   4   0  -5   83.77    8.71
   4   0  -4   22.11    7.64
   4   0  -4   27.64    4.66
   4   0  -3   13.36    5.74
   4   0  -3   15.54    5.78
   4   0  -2   28.70    6.41
   4   0  -2   41.01    4.30
   4   0  -2   20.16    2.60
  -4   0   2   27.82    2.93
   4   0  -1    6.78    3.58
   4   0  -1    9.46    2.45
   4   0  -1    4.82    1.63
  -4   0   1    8.81    1.79
   4   0   0   14.38    2.84
   4   0   0   20.55    3.35
   4   0   0   16.41    2.47
  -4   0   0   16.93    4.10
   4   0   1   12.68    2.61
   4   0   1   19.98    4.74
   4   0   1   18.75    2.70
  -4   0  -1   21.77    3.16
   4   0   2   10.51    2.40
   4   0   2    9.72    3.69
   4   0   3    1.02    1.45
   4   0   3    2.54    1.92
   4   0   4    0.33    2.63
   4   0   4    2.34    1.36
   4   0   5   25.12    3.16
   4   0   5   29.60    3.63
   4   0   6    0.75    1.21
   4   0   6    2.05    1.44
   4   0   7    9.91    2.75
   4   0   8  213.62   16.82
  -4   0  -8  189.05   15.25
   4   0   9    5.89    3.70
  -4   0  -9    3.31    1.97
   4   0  10  201.48   14.87
  -4   0 -10  160.83   13.92
   4   0  11    0.38    1.45
  -4   0 -11    3.09    2.32
   4   0  12    6.95    1.99
  -4   0 -12    5.12    1.95
   4   0  13    0.56    2.14
  -4   0 -13    2.18    1.29
   4   0  14    3.20    1.21
  -4   0 -14    0.91    1.21
   4   0  15   -0.08    0.65
   4   1 -17    6.32    2.60
   4   1 -16   -1.36    1.52
  -4  -1  16    0.12    0.68
   4   1 -15    1.30    2.10
  -4  -1  15    0.91    1.16
   4   1 -14    4.79    3.20
   4   1 -13   -0.51    1.96
   4   1 -12   59.11    9.17
   4   1 -12   58.37   14.05
   4   1 -11    8.34    3.51
   4   1 -11   -0.68    5.98
   4   1 -10  277.19   27.67
   4   1 -10  261.70   35.46
   4   1  -9  812.21   91.11
   4   1  -9  771.27   73.45
   4   1  -8    9.49    6.21
   4   1  -8    5.55    3.42
   4   1  -7   46.25    8.08
   4   1  -7   49.58    7.12
   4   1  -6  103.37   12.44
   4   1  -6  106.81   10.82
   4   1  -5   14.82    4.39
   4   1  -5   19.40    4.14
   4   1  -4    0.41    1.48
   4   1  -4   -0.11    1.41
   4   1  -3    0.06    1.45
   4   1  -3   -0.74    2.04
   4   1  -2    4.70    2.43
   4   1  -2    6.04    2.18
   4   1  -1    2.85    1.66
   4   1  -1    1.73    1.58
   4   1  -1    0.97    0.86
  -4  -1   1    1.51    1.86
   4   1   0    7.29    3.57
   4   1   0    8.74    3.65
   4   1   0    5.24    1.39
  -4  -1   0    6.20    1.41
  -4  -1   0    8.14    1.99
   4   1   1    5.17    1.86
   4   1   1    5.30    1.42
   4   1   2    5.75    1.86
   4   1   2    4.61    1.54
   4   1   3    1.95    1.48
   4   1   3    2.24    1.32
   4   1   4    2.59    1.33
   4   1   4    4.33    1.59
   4   1   5   10.33    2.02
   4   1   5   13.52    2.54
   4   1   6    1.09    1.05
   4   1   6    0.01    2.38
   4   1   7   79.95   10.21
   4   1   8  195.97   13.77
  -4  -1  -8  133.69   11.26
   4   1   9  104.45    7.68
  -4  -1  -9   42.56    5.77
   4   1  10    1.20    1.52
   4   1  11    5.18    1.95
   4   1  11    0.89    2.91
   4   1  12    8.48    2.91
   4   1  12   -0.93    2.68
   4   1  13    3.78    1.43
   4   1  13   -0.05    2.02
   4   1  14   -3.92    1.37
   4   2 -17   -0.96    1.58
   4   2 -16   10.57    2.37
  -4  -2  16    1.68    1.14
   4   2 -15   -1.64    2.27
   4   2 -14   -0.68    1.70
   4   2 -14   -0.23    1.92
   4   2 -13   -2.98    2.66
   4   2 -12   22.15    5.89
   4   2 -12   27.30    6.05
   4   2 -11   72.01   17.09
   4   2 -11   84.50   11.18
   4   2 -10   -1.90    4.36
   4   2 -10    2.29    2.42
   4   2  -9  126.41   16.27
   4   2  -9  114.48   13.31
   4   2  -8    6.38    3.66
   4   2  -8    4.98    3.11
   4   2  -7   33.60    7.20
   4   2  -7   38.55    6.15
   4   2  -6   74.36   10.07
   4   2  -6   69.47    8.38
   4   2  -5   31.32    5.91
   4   2  -5   30.28    5.14
   4   2  -4   10.27    3.53
   4   2  -4    8.63    4.45
   4   2  -3   41.32    6.35
   4   2  -3   42.48    5.12
   4   2  -2   90.97    9.70
   4   2  -2  105.75    9.02
   4   2  -1    3.04    1.96
   4   2  -1    2.23    1.73
   4   2   0    3.51    2.02
   4   2   0    4.34    2.62
   4   2   0    3.59    1.71
   4   2   1   51.62    4.93
   4   2   1   44.46    5.27
   4   2   2    0.82    1.21
   4   2   2    1.55    1.54
   4   2   3    1.89    1.75
   4   2   3    2.52    1.90
   4   2   4   -0.26    0.96
   4   2   5    6.75    1.86
   4   2   5    3.62    1.89
   4   2   6    1.20    1.34
   4   2   6    0.76    1.40
   4   2   7    8.01    2.07
   4   2   7    2.03    2.08
   4   2   8    1.17    1.39
   4   2   8   -0.50    2.25
   4   2   9    1.38    1.44
   4   2   9    0.19    2.29
   4   2  10    0.37    2.13
   4   2  10    0.77    2.00
   4   2  11   -0.27    2.23
   4   2  11    1.21    1.21
   4   2  12    3.44    1.48
   4   2  12    0.68    1.29
   4   2  13    0.34    0.91
   4   2  13    0.13    0.75
   4   3 -16   11.49    2.29
  -4  -3  16    1.96    1.16
   4   3 -15    2.96    2.25
   4   3 -15    6.84    2.57
   4   3 -14   15.86    4.32
   4   3 -14   18.98    4.32
   4   3 -13    2.75    2.74
   4   3 -13    4.24    2.68
   4   3 -12   43.32   12.28
   4   3 -12   39.25    7.14
   4   3 -11   16.35    8.91
   4   3 -11   15.19    4.65
   4   3 -10    0.46    2.38
   4   3 -10    0.66    1.93
   4   3  -9    5.70    3.68
   4   3  -9    4.15    2.96
   4   3  -8   22.45    6.01
   4   3  -8   18.64    4.69
   4   3  -7    4.62    3.31
   4   3  -7    4.00    2.59
   4   3  -6    9.75    4.16
   4   3  -6    9.51    3.23
   4   3  -5   22.90    5.31
   4   3  -5   18.28    5.93
   4   3  -4    1.89    2.27
   4   3  -4    1.61    1.63
   4   3  -3    1.89    1.94
   4   3  -3    0.38    1.39
   4   3  -2   21.72    4.38
   4   3  -2   16.08    5.22
   4   3  -1    9.84    2.47
   4   3  -1    1.81    1.77
   4   3   0  110.36   10.73
   4   3   0  110.65    8.50
   4   3   1    1.01    0.91
   4   3   1    0.70    1.21
   4   3   2   69.11    5.45
   4   3   2   65.61    9.08
   4   3   3   27.28    3.14
   4   3   3   19.64    3.62
   4   3   4  158.33   11.01
   4   3   4  108.89   10.79
   4   3   5   71.63    6.21
   4   3   5   44.05    6.25
   4   3   6   60.32    5.63
   4   3   6   30.68    5.47
   4   3   7   32.12    5.68
   4   3   7   14.59    3.66
   4   3   8    3.65    3.12
   4   3   8    3.40    1.93
   4   3   9   -1.46    1.27
   4   3   9    0.46    1.29
   4   3  10    3.48    1.62
   4   3  10    1.61    1.60
   4   3  11    1.69    1.45
   4   3  11    1.11    1.27
   4   3  12   -0.45    1.03
   4   3  12   -0.52    0.89
   4   4 -16    7.16    2.20
   4   4 -15    2.54    2.04
   4   4 -15    5.67    2.05
   4   4 -14   15.69    3.15
   4   4 -14    1.75    2.80
   4   4 -13    2.68    2.61
   4   4 -13    3.34    2.23
   4   4 -12    3.66    4.38
   4   4 -12    1.08    2.06
   4   4 -11    5.53    3.38
   4   4 -11    1.70    2.41
   4   4 -10    6.76    3.49
   4   4 -10    2.30    2.54
   4   4  -9   53.24    6.84
   4   4  -9    9.69    4.59
   4   4  -8   -1.08    2.16
   4   4  -8    0.91    2.47
   4   4  -7   20.29    5.73
   4   4  -6    8.40    4.02
   4   4  -5   68.23   14.03
   4   4  -5   63.63    5.88
   4   4  -4   13.37    4.87
   4   4  -4    3.33    1.90
   4   4  -3    9.94    6.32
   4   4  -3   12.46    2.60
   4   4  -2    8.75    5.77
   4   4  -2   11.38    3.95
   4   4  -1    5.83    3.93
   4   4  -1    3.12    1.82
   4   4   0    8.75    2.40
   4   4   1    0.92    1.39
   4   4   2   33.59    5.23
   4   4   2   35.33    4.67
   4   4   3    2.67    2.28
   4   4   3    3.43    3.07
   4   4   4    6.78    1.93
   4   4   4    9.21    4.09
   4   4   5    0.43    1.13
   4   4   5    0.89    1.41
   4   4   6   -0.54    1.20
   4   4   6   -1.22    1.44
   4   4   7    0.91    1.12
   4   4   7   -0.36    1.30
   4   4   8    3.94    1.62
   4   4   8    2.04    1.80
   4   4   9    9.06    2.04
   4   4   9    3.86    2.11
   4   4  10   -0.64    1.01
   4   4  10   -0.04    1.01
   4   4  11    0.95    1.81
   4   5 -15   -0.85    1.31
   4   5 -14    1.11    1.68
   4   5 -14    1.18    1.69
   4   5 -13    5.92    4.69
   4   5 -12    0.09    2.27
  -4  -5  12    1.35    1.13
   4   5 -11    2.55    2.30
  -4  -5  11    0.30    1.16
   4   5 -10    1.54    4.04
  -4  -5  10   13.18    3.61
   4   5  -9   18.48    5.34
  -4  -5   9   15.44    2.84
   4   5  -8  119.82   13.98
  -4  -5   8   99.72    8.26
   4   5  -7    7.27    4.41
  -4  -5   7   11.33    2.56
   4   5  -6   12.54    7.79
   4   5  -5   21.79    8.60
   4   5  -5   19.84    3.38
   4   5  -4    5.45    4.99
   4   5  -4    4.18    2.05
   4   5  -3    3.47    5.07
   4   5  -3    5.61    2.14
   4   5  -2    1.57    3.39
   4   5  -2    0.95    2.59
   4   5  -1   32.42    8.94
   4   5  -1   32.64    7.28
   4   5   0   37.17    5.14
   4   5   1   46.05    5.93
   4   5   2   14.09    3.34
   4   5   3    2.22    1.31
   4   5   3    4.19    1.91
   4   5   4    1.42    1.23
   4   5   4    2.51    1.75
   4   5   5    0.99    1.06
   4   5   5   -0.55    2.31
   4   5   6   -0.11    0.79
   4   5   6    0.53    1.64
   4   5   7   -0.03    1.64
   4   5   8    0.38    1.82
   4   5   9    0.54    1.71
   4   5  10    5.69    1.17
  -4  -5 -10   -0.74    1.64
   4   6 -14    2.41    1.74
   4   6 -13    0.39    2.46
   4   6 -12   -0.05    2.00
  -4  -6  12    1.12    0.99
   4   6 -11    0.47    2.09
  -4  -6  11    0.69    1.06
   4   6 -10   -0.46    1.79
  -4  -6  10    0.22    1.55
   4   6  -9   10.76    4.32
  -4  -6   9   10.57    2.35
   4   6  -8   31.98    6.46
  -4  -6   8   27.14    3.77
   4   6  -7   23.82    6.50
  -4  -6   7   29.36    3.91
   4   6  -6   23.38    9.84
   4   6  -5    8.34    5.46
   4   6  -5    5.14    2.22
   4   6  -4    5.53    5.81
   4   6  -4    8.02    2.50
   4   6  -3   -0.53    3.93
   4   6  -3    2.62    1.80
   4   6  -2    2.27    3.94
   4   6  -2    3.15    1.91
   4   6  -1   -2.84    3.10
   4   6   0   23.25    6.32
   4   6   1    5.24    2.29
   4   6   2   19.27    3.64
   4   6   3    0.99    1.49
   4   6   4    3.35    1.91
   4   6   5   -1.03    1.07
  -4  -6  -5    0.56    0.97
   4   6   6   -0.34    0.93
  -4  -6  -6    0.21    0.91
   4   6   7   -0.78    0.94
  -4  -6  -7    0.36    0.95
   4   6   8    9.53    1.66
  -4  -6  -8    2.65    1.73
   4   7 -11   11.22    3.56
  -4  -7  11    9.80    1.83
   4   7 -10    6.76    3.04
  -4  -7  10    4.89    1.61
   4   7  -9    1.27    2.40
  -4  -7   9    1.84    2.08
   4   7  -8    1.51    2.52
  -4  -7   8    2.35    1.41
   4   7  -7   -0.12    1.80
  -4  -7   7   -0.25    1.04
   4   7  -6    2.35    2.14
  -4  -7   6    0.47    1.30
   4   7  -5    2.79    2.60
   4   7  -4    0.13    1.41
   4   7  -4   -0.04    1.05
   4   7  -3    0.15    1.82
   4   7  -3    1.20    1.41
   4   7  -2    0.39    1.51
   4   7  -2   -1.10    1.31
   4   7  -1    5.50    2.14
   4   7   0    0.72    1.37
   4   7   1   16.69    5.11
   4   7   2    7.91    3.87
   4   7   3    4.38    3.08
   4   7   4    1.25    1.30
   4   7   5    1.78    1.35
   4   8  -9   -0.65    1.68
   4   8  -8   11.83    3.67
   4   8  -7    0.14    1.58
  -4  -8   7    0.50    0.93
   4   8  -6    2.84    1.76
  -4  -8   6    0.47    1.16
   4   8  -5   -1.14    1.68
  -4  -8   5    1.88    1.18
   4   8  -4    0.14    1.23
   4   8  -3    0.79    1.33
   4   8  -2    0.64    1.20
   4   8  -1    1.92    1.45
   4   8   0    2.32    1.50
   4   8   1   37.49    4.39
   4   8   2    0.84    1.23
   5 -10  -2    8.25    2.14
  -5  10   2    5.16    1.72
  -5  10   2    2.34    2.50
   5 -10  -1    0.54    1.45
  -5  10   1    1.22    1.11
  -5  10   1   -0.29    1.54
   5 -10   0   18.18    3.16
  -5  10   0    8.02    2.13
   5 -10   1   -1.49    1.81
  -5  10  -1   -0.22    1.09
  -5  10  -1   -2.50    1.11
   5 -10   2   -1.23    1.70
  -5  10  -2    1.32    0.96
  -5  10  -2    1.55    1.02
  -5  10  -3    0.11    1.37
  -5  10  -3    0.44    0.97
  -5  10  -4   -0.64    0.90
   5 -10   5   15.58    4.19
  -5  10  -5    8.69    3.05
   5 -10   6    0.66    1.11
  -5  10  -6    0.40    0.82
   5 -10   7    0.83    1.11
  -5   9   6   -2.00    1.81
  -5   9   6    1.42    0.90
   5  -9  -5    3.42    1.60
  -5   9   5    4.95    2.29
  -5   9   5    1.82    1.34
   5  -9  -4    1.14    1.38
  -5   9   4    0.52    1.76
  -5   9   4    0.92    1.07
   5  -9  -3    1.12    1.55
  -5   9   3    1.54    1.88
  -5   9   3    0.77    1.17
   5  -9  -2   13.96    3.07
  -5   9   2    8.84    3.45
  -5   9   2    7.82    2.21
   5  -9  -1    4.87    2.34
  -5   9   1    7.89    2.52
  -5   9   1    0.68    1.61
   5  -9   0    3.68    2.29
  -5   9   0    4.18    2.62
  -5   9   0    0.47    2.54
   5  -9   1    5.65    2.53
  -5   9  -1    2.78    1.68
  -5   9  -1    4.43    2.61
   5  -9   2   10.49    3.05
  -5   9  -2    5.12    1.82
  -5   9  -2    7.35    1.85
   5  -9   3   -0.03    1.71
  -5   9  -3    0.44    0.93
  -5   9  -3    0.73    1.01
   5  -9   4   -1.53    2.03
  -5   9  -4    2.39    1.15
   5  -9   6    2.68    2.77
  -5   9  -6    1.31    1.92
   5  -9   7    4.14    1.77
  -5   9  -7    2.41    1.22
   5  -9   8   -0.37    0.99
  -5   9  -8    0.29    0.68
   5  -9   9    0.32    1.03
  -5   8   8   -0.44    1.06
  -5   8   8    8.26    1.73
  -5   8   7    8.85    1.76
  -5   8   7    3.68    2.72
   5  -8  -6    0.70    1.05
  -5   8   6   -0.18    0.99
  -5   8   6    0.81    1.58
   5  -8  -5   -0.54    1.38
  -5   8   5    2.29    1.17
  -5   8   5   -1.45    1.84
   5  -8  -4    7.48    3.79
  -5   8   4    5.38    1.86
  -5   8   4    3.97    1.82
   5  -8  -3    9.25    4.54
  -5   8   3    6.85    2.11
  -5   8   3    7.05    2.09
   5  -8  -2    1.00    2.51
  -5   8   2    0.02    1.05
  -5   8   2    0.33    1.08
   5  -8  -1    2.35    1.92
  -5   8   1    1.02    1.21
  -5   8   1    0.21    1.29
   5  -8   0   15.09    3.71
  -5   8   0    9.64    2.25
  -5   8   0    9.34    2.45
   5  -8   1    7.93    2.84
  -5   8  -1    3.05    1.61
  -5   8  -1    3.12    2.94
   5  -8   2   15.90    3.95
  -5   8  -2    7.86    3.25
  -5   8  -2   11.89    3.68
   5  -8   3   -0.49    1.73
  -5   8  -3    0.32    1.60
  -5   8  -3   -0.40    1.00
   5  -8   4   11.91    3.47
  -5   8  -4    7.90    2.00
   5  -8   5   10.64    3.19
  -5   8  -5    6.73    1.84
   5  -8   6   -0.06    2.12
   5  -8   7    0.79    1.38
  -5   8  -7   -0.54    1.62
  -5   8  -7    0.27    0.87
   5  -8   8   -3.08    1.43
  -5   8  -8    0.77    1.77
  -5   8  -8    0.12    0.87
   5  -8   9    1.07    1.06
  -5   8  -9   -0.37    0.73
  -5   8  -9   -0.09    1.05
   5  -8  10    1.26    1.45
  -5   8 -10    0.03    0.77
   5  -8  11   -1.09    0.90
  -5   7  10    0.56    0.78
  -5   7   9    0.62    0.71
  -5   7   9   -0.79    0.73
  -5   7   8    0.59    1.01
  -5   7   8    0.33    1.01
  -5   7   7    1.67    1.35
  -5   7   7    1.68    1.34
   5  -7  -6    5.88    2.21
  -5   7   6    9.50    3.34
  -5   7   6    5.15    2.04
   5  -7  -5    6.13    4.10
  -5   7   5    8.20    3.53
  -5   7   5    6.05    3.54
   5  -7  -4    0.84    2.63
  -5   7   4    0.38    2.09
  -5   7   4    0.96    2.16
   5  -7  -3    4.27    3.88
  -5   7   3    3.64    2.98
  -5   7   3    2.59    2.80
   5  -7  -2    4.17    3.80
  -5   7   2    0.59    2.69
  -5   7   2    3.23    1.65
   5  -7  -1    2.49    1.84
  -5   7   1    2.01    1.93
  -5   7   1   -0.87    1.27
   5  -7   0   95.43   10.28
  -5   7   0   70.90    6.68
  -5   7   0   73.51    7.05
   5  -7   1    2.09    1.43
   5  -7   1    5.02    2.74
  -5   7  -1    1.95    1.49
  -5   7  -1    3.86    1.87
   5  -7   2   63.55    6.22
   5  -7   2  117.77   10.78
  -5   7  -2   65.52    6.03
  -5   7  -2   83.07    9.13
   5  -7   3    0.94    1.29
   5  -7   3    4.67    2.36
  -5   7  -3    1.25    1.34
   5  -7   4    4.50    2.96
   5  -7   5   33.00    9.66
   5  -7   6    0.90    2.89
  -5   7  -6    0.80    1.73
   5  -7   7    1.04    1.98
  -5   7  -7    2.30    1.98
   5  -7   8    0.39    1.41
  -5   7  -8    0.04    1.51
   5  -7   9    1.70    1.71
  -5   7  -9    1.25    1.92
  -5   7 -10    3.80    3.49
   5  -7  11    2.61    1.27
  -5   7 -11    2.07    1.45
   5  -7  12    2.77    1.25
  -5   7 -12    6.51    1.57
  -5   6  11   -0.52    0.89
  -5   6  11    2.49    0.82
  -5   6  10    2.45    1.77
  -5   6  10    0.80    1.07
  -5   6   9    1.42    1.73
  -5   6   9   -0.80    0.95
  -5   6   8    3.92    1.71
  -5   6   8    2.09    1.56
  -5   6   7    2.88    1.78
  -5   6   7    2.61    1.58
  -5   6   6   -0.43    1.27
  -5   6   6    1.01    1.16
   5  -6  -5    1.29    1.38
  -5   6   5   -1.06    1.33
  -5   6   5    0.80    1.16
   5  -6  -4    1.99    1.50
   5  -6  -4    2.75    2.90
  -5   6   4    1.22    1.52
  -5   6   4    0.28    1.42
   5  -6  -3    4.30    2.09
   5  -6  -3    4.04    3.88
  -5   6   3    3.75    1.94
  -5   6   3    1.67    3.02
   5  -6  -2   -1.15    1.56
   5  -6  -2    1.78    1.93
  -5   6   2    3.18    1.45
  -5   6   2   -0.14    2.08
   5  -6  -1    0.14    1.39
   5  -6  -1   -0.31    1.73
  -5   6   1   -0.88    1.24
   5  -6   0   48.54    6.16
   5  -6   0   49.20    7.31
  -5   6   0   38.23    4.95
   5  -6   1    3.32    2.60
   5  -6   1    1.12    2.00
  -5   6  -1   -1.04    1.80
   5  -6   2  106.89    9.47
   5  -6   2  131.34   13.43
   5  -6   3   -1.06    1.18
   5  -6   3    4.29    1.92
   5  -6   4   16.24    2.84
   5  -6   4   11.03    4.39
   5  -6   5    1.31    1.48
   5  -6   5    3.20    3.87
   5  -6   5    2.51    3.37
  -5   6  -7    2.58    2.52
  -5   6  -8   -0.21    1.74
   5  -6   9    0.29    1.48
  -5   6  -9    0.27    1.79
   5  -6  10    0.79    2.53
  -5   6 -10    2.79    2.31
  -5   6 -11    2.87    3.64
   5  -6  12   -0.86    0.96
  -5   6 -12   -0.02    1.23
   5  -6  13    1.16    1.02
  -5   6 -13   -0.42    1.09
  -5   5  12    5.80    2.11
  -5   5  11   -0.25    0.82
  -5   5  11    0.13    0.71
   5  -5 -10    9.18    4.24
  -5   5  10   19.05    2.64
  -5   5  10    7.54    2.17
   5  -5  -9    1.13    1.37
  -5   5   9    0.78    1.26
  -5   5   9    0.00    1.07
   5  -5  -8    0.39    1.27
  -5   5   8    0.04    1.14
  -5   5   8    0.00    0.96
   5  -5  -7   -0.08    1.83
  -5   5   7    2.50    1.63
   5  -5  -6    4.84    2.52
  -5   5   6    4.27    2.11
   5  -5  -5   11.28    4.96
  -5   5   5    6.04    2.41
   5  -5  -4    0.12    2.51
   5  -5  -4   -0.32    1.31
  -5   5   4   -0.10    1.18
   5  -5  -3    2.04    3.45
   5  -5  -3    2.41    2.20
  -5   5   3    3.55    1.82
   5  -5  -2    3.41    2.05
   5  -5  -2    1.91    2.09
  -5   5   2    1.39    1.62
   5  -5  -1   46.56    6.21
   5  -5  -1   45.53    6.47
  -5   5   1   36.03    4.92
   5  -5   0   57.71    7.18
   5  -5   0   60.86    7.53
  -5   5   0   43.40    5.27
   5  -5   1   62.65    7.76
   5  -5   1   52.74    8.08
   5  -5   2    6.47    4.87
   5  -5   2    8.64    3.40
   5  -5   3    0.22    2.33
   5  -5   3    2.29    2.19
   5  -5   4    1.40    1.49
   5  -5   4    2.22    3.20
   5  -5   5    2.68    1.70
   5  -5   6    1.59    1.55
   5  -5   7   -2.53    2.31
  -5   5  -8   27.69    6.02
  -5   5  -9    1.22    2.24
   5  -5  10    1.15    1.33
  -5   5 -10   -0.79    1.96
   5  -5  11   22.73    3.55
  -5   5 -11   27.90    7.56
   5  -5  12    0.04    1.09
  -5   5 -12    1.66    1.40
   5  -5  13   -3.15    1.63
  -5   5 -13   -1.59    1.69
  -5   4  13    0.35    1.26
   5  -4 -12    0.01    1.12
  -5   4  12    0.71    0.94
   5  -4 -11    1.47    1.63
  -5   4  11    1.86    1.38
   5  -4 -10    3.66    2.10
  -5   4  10    2.75    1.72
   5  -4  -9    3.67    2.20
  -5   4   9    0.89    2.86
   5  -4  -8   15.27    3.87
  -5   4   8   10.53    6.04
   5  -4  -7    9.80    3.54
  -5   4   7   10.22    5.54
   5  -4  -6   21.25    5.02
  -5   4   6   23.98    4.58
   5  -4  -5   -0.50    2.09
  -5   4   5    2.89    2.00
   5  -4  -4    0.34    1.75
  -5   4   4    0.54    1.57
   5  -4  -3    2.16    1.63
   5  -4  -3    0.60    1.32
  -5   4   3   -1.74    1.45
   5  -4  -2    2.06    3.57
   5  -4  -2    1.39    1.81
  -5   4   2    0.46    2.86
   5  -4  -1    1.90    2.09
   5  -4  -1    2.19    2.08
  -5   4   1    2.54    2.40
   5  -4   0    2.58    2.14
   5  -4   0    2.29    2.20
  -5   4   0    2.39    2.28
   5  -4   1    8.43    2.69
   5  -4   1    6.14    2.79
  -5   4  -1    4.08    1.64
   5  -4   2    6.74    2.94
   5  -4   2   13.71    5.49
   5  -4   3    3.79    3.96
   5  -4   4    6.84    2.30
   5  -4   4    7.90    2.86
   5  -4   5    0.48    1.22
   5  -4   5   -1.54    1.53
   5  -4   6    0.99    1.46
   5  -4   7    2.79    1.79
   5  -4   9   24.69    4.16
  -5   4  -9   25.76    5.59
   5  -4  10    3.40    1.81
  -5   4 -10    0.63    2.54
   5  -4  11   11.93    2.80
  -5   4 -11   13.76    3.93
   5  -4  12    8.71    3.23
  -5   4 -12    3.96    2.26
   5  -4  13   -0.30    0.77
  -5   4 -13   -0.02    1.18
   5  -4  14    3.38    0.76
  -5   4 -14   -0.58    1.45
   5  -3 -14    3.62    1.47
   5  -3 -13    2.07    1.57
  -5   3  13    1.88    1.12
   5  -3 -12   -0.83    1.57
  -5   3  12   -0.78    1.14
   5  -3 -11    1.36    2.05
  -5   3  11    3.27    3.00
   5  -3 -10    2.30    1.97
  -5   3  10    0.60    1.73
   5  -3  -9   -1.30    2.18
  -5   3   9   -1.71    1.96
   5  -3  -8   45.48    7.36
   5  -3  -7   -2.35    2.57
   5  -3  -6   77.49    9.52
  -5   3   6   66.44    8.41
   5  -3  -5   12.48    3.77
  -5   3   5    7.78    3.10
   5  -3  -4  147.66   14.55
  -5   3   4  118.17   12.27
   5  -3  -3  186.79   16.98
  -5   3   3  136.58   13.49
   5  -3  -2   33.06    5.56
   5  -3  -2   20.24    6.21
  -5   3   2   18.23    3.93
   5  -3  -1   67.00   11.27
   5  -3  -1   44.66    8.92
  -5   3   1   36.17    5.13
   5  -3   0   26.02    4.98
   5  -3   0   35.85    7.08
   5  -3   1   22.90    4.36
   5  -3   2   -0.15    2.93
   5  -3   2   16.82    3.04
   5  -3   3   36.45    5.50
   5  -3   3   27.56    4.93
   5  -3   4    0.93    2.27
   5  -3   5    1.76    1.69
   5  -3   5    2.93    2.12
   5  -3   6    1.03    1.45
   5  -3   6    0.79    1.79
   5  -3   7    2.32    1.68
   5  -3   7    0.94    2.90
   5  -3   8   12.34    3.16
   5  -3   9    7.20    2.56
  -5   3  -9    6.25    3.11
   5  -3  10    2.00    1.55
  -5   3 -10   -0.02    1.96
   5  -3  11   -3.14    2.45
  -5   3 -11    3.29    1.84
   5  -3  12    4.72    2.18
  -5   3 -12   24.62    3.00
   5  -3  13    1.49    0.96
  -5   3 -13   -0.21    1.32
   5  -3  14    2.02    0.85
  -5   3 -14    0.62    1.21
   5  -2 -14   10.30    2.16
  -5   2  14    2.83    1.27
   5  -2 -13    1.01    2.48
  -5   2  13    0.41    1.61
   5  -2 -12    1.03    2.16
  -5   2  12   -0.19    1.06
   5  -2 -11    3.90    4.00
  -5   2  11    1.62    1.81
  -5   2  10   -0.57    1.61
   5  -2  -9    1.66    4.09
  -5   2   9   -2.10    1.92
   5  -2  -8    0.32    3.32
  -5   2   8   -0.95    1.74
   5  -2  -7    0.45    3.09
  -5   2   7    0.37    1.61
   5  -2  -6    1.41    2.24
  -5   2   6    0.90    1.82
   5  -2  -5    7.42    3.55
   5  -2  -4    5.65    3.15
   5  -2  -3   11.75    3.49
  -5   2   3    5.39    2.59
   5  -2  -2    1.46    2.55
   5  -2  -2    3.54    1.61
  -5   2   2    2.46    1.81
   5  -2  -1   -0.33    3.05
   5  -2  -1   -0.34    1.20
  -5   2   1    1.29    1.21
   5  -2   0   -0.41    2.82
   5  -2   0   -2.10    1.41
  -5   2   0   -0.14    1.23
   5  -2   1   56.85    6.75
   5  -2   1   39.26    5.80
   5  -2   2   -2.86    2.26
   5  -2   3   76.03    8.20
   5  -2   3   57.60    7.59
   5  -2   4    0.45    2.35
   5  -2   4   -2.12    1.76
   5  -2   5   29.58    4.00
   5  -2   5   32.23    7.91
   5  -2   6    0.94    1.37
   5  -2   6    0.43    1.45
   5  -2   7    0.51    1.57
   5  -2   7    3.53    1.75
   5  -2   8    3.81    2.13
   5  -2   9    3.39    2.14
  -5   2  -9    4.61    2.41
   5  -2  10    1.05    2.32
  -5   2 -10   -1.08    1.52
   5  -2  11    0.96    1.61
  -5   2 -11   -1.50    1.93
   5  -2  12    0.34    0.87
  -5   2 -12   -0.43    0.97
   5  -2  13    0.36    0.99
  -5   2 -13    0.73    1.09
   5  -1 -14    1.37    2.54
  -5   1  14    0.38    1.79
   5  -1 -13   10.55    5.25
  -5   1  13    6.34    2.18
   5  -1 -12    1.66    2.86
  -5   1  12   -0.05    1.22
   5  -1 -11    4.26    2.87
  -5   1  11    2.54    2.07
  -5   1  10    4.51    2.45
   5  -1  -9   41.97   13.14
   5  -1  -8   35.74   12.06
   5  -1  -7  130.85   17.17
   5  -1  -7  140.97   20.97
   5  -1  -6  147.68   17.89
   5  -1  -6  156.33   22.30
   5  -1  -5    2.92    2.75
   5  -1  -5    3.21    2.70
   5  -1  -4   51.53    8.37
   5  -1  -4   64.51    8.00
   5  -1  -3    3.36    2.59
   5  -1  -3    4.25    2.69
   5  -1  -2    7.32    3.14
   5  -1  -1   13.83    5.30
   5  -1  -1    5.74    2.11
   5  -1   0    1.53    1.88
   5  -1   0    1.38    2.36
   5  -1   1   20.53    3.99
   5  -1   1   12.23    5.18
   5  -1   2    5.09    2.48
   5  -1   2    4.23    2.89
   5  -1   3   13.36    3.26
   5  -1   3    8.02    3.97
   5  -1   4    8.27    3.73
   5  -1   4    8.87    2.41
   5  -1   5    4.76    1.95
   5  -1   5    5.46    2.10
   5  -1   6    4.29    1.75
   5  -1   6    2.37    1.97
   5  -1   7    3.15    1.96
   5  -1   8    1.02    1.64
  -5   1  -8    1.84    1.71
   5  -1   9    8.45    4.00
  -5   1  -9    5.12    2.34
   5  -1  10    1.23    1.23
  -5   1 -10   -0.45    1.25
   5  -1  11   34.32    4.20
  -5   1 -11   29.93    3.95
   5  -1  12   60.16    5.03
  -5   1 -12   42.13    4.52
   5  -1  13    2.90    2.34
  -5   1 -13    6.22    1.90
   5   0 -15    0.30    2.13
   5   0 -14    8.83    4.40
  -5   0  14    4.56    1.72
   5   0 -13  103.00   11.12
  -5   0  13   32.41    4.45
   5   0 -12    4.32    3.00
  -5   0  12    4.49    2.16
   5   0 -11   -0.84    2.27
   5   0 -10    8.96    4.00
   5   0  -9    3.04    3.34
   5   0  -9    8.34    5.43
   5   0  -8   25.92    6.66
   5   0  -8   36.55   10.48
   5   0  -7   55.72   10.70
   5   0  -7   77.82   13.80
   5   0  -6   20.50    6.35
   5   0  -6   30.11    5.60
   5   0  -5   45.28    8.27
   5   0  -5   61.47    7.82
   5   0  -4    8.66    3.50
   5   0  -4    8.34    3.43
   5   0  -3    1.28    1.95
   5   0  -3    1.20    2.04
   5   0  -2    0.01    1.54
   5   0  -2   -0.78    1.68
   5   0  -1    0.51    1.55
   5   0  -1    1.48    2.96
   5   0   0    5.61    2.15
   5   0   0    2.25    1.41
   5   0   1   -0.65    1.19
   5   0   1    0.43    0.84
   5   0   2   -1.06    1.38
   5   0   2    0.24    1.05
   5   0   3    8.84    4.18
   5   0   3    5.06    2.01
   5   0   4    2.60    1.51
   5   0   4    2.35    1.66
   5   0   5    1.16    1.32
   5   0   5    1.95    1.54
   5   0   6    1.77    1.21
   5   0   6   -3.40    2.51
   5   0   7    0.97    2.16
   5   0   8    6.08    2.04
  -5   0  -8    4.34    1.99
   5   0   9    6.69    2.03
  -5   0  -9    4.41    1.86
   5   0  10   14.18    2.77
   5   0  11   -0.25    1.04
  -5   0 -11   -0.18    0.82
   5   0  12   -2.17    2.40
   5   1 -15   -3.84    4.71
  -5  -1  15   17.35    1.89
   5   1 -14    0.34    3.04
  -5  -1  14   -1.39    1.25
   5   1 -13    1.08    4.08
  -5  -1  13    3.29    1.75
   5   1 -12    4.71    5.07
   5   1 -11    4.58    3.24
   5   1 -11    7.63    5.23
   5   1 -10    1.00    2.38
   5   1  -9   14.00    4.97
   5   1  -9   18.89    7.97
   5   1  -8   22.30    5.84
   5   1  -8   17.69    8.01
   5   1  -7  224.04   25.09
   5   1  -7  235.87   29.96
   5   1  -6   32.62    7.36
   5   1  -6   40.44    6.63
   5   1  -5   77.49   11.63
   5   1  -5   95.03   10.50
   5   1  -4   41.23    7.47
   5   1  -4   53.92    7.26
   5   1  -3    2.46    2.08
   5   1  -3    0.87    2.11
   5   1  -2   -0.24    1.26
   5   1  -2    0.65    2.18
   5   1  -1    1.41    1.89
   5   1  -1    2.62    1.82
   5   1   0   25.87    4.13
   5   1   1    3.68    1.94
   5   1   1    1.82    2.31
   5   1   2   -0.32    2.09
   5   1   2   -0.13    1.64
   5   1   3    6.17    1.84
   5   1   3    7.62    2.76
   5   1   4    0.08    1.04
   5   1   4    2.08    1.72
   5   1   5    1.43    1.18
   5   1   5    1.29    1.33
   5   1   6   17.55    2.98
   5   1   7   23.03    3.41
   5   1   8   15.97    2.85
   5   1   9   11.15    2.43
   5   1  10   43.23    6.71
   5   1  11    8.65    3.22
   5   1  12    3.17    1.31
   5   2 -14   28.79    5.15
  -5  -2  14   11.15    2.50
   5   2 -13   -0.32    2.29
   5   2 -12    0.53    2.00
   5   2 -12    1.96    3.05
   5   2 -11    0.50    1.99
   5   2 -11    0.87    3.07
   5   2 -10    5.88    3.77
   5   2 -10   10.97    5.03
   5   2  -9   13.75    5.01
   5   2  -9   22.30    7.11
   5   2  -8   33.99    7.12
   5   2  -8   31.43    5.93
   5   2  -7   58.17    9.93
   5   2  -7   62.54    8.23
   5   2  -6    2.96    4.36
   5   2  -6    1.84    2.24
   5   2  -5   51.19   12.96
   5   2  -5   55.38    7.50
   5   2  -4    2.42    3.31
   5   2  -4    0.74    1.86
   5   2  -3    5.80    4.66
   5   2  -3    5.85    4.34
   5   2  -2    5.90    2.75
   5   2  -2    6.31    2.30
   5   2  -1    0.70    1.35
   5   2   0    2.91    1.73
   5   2   1    3.34    2.92
   5   2   2   13.33    2.18
   5   2   3    5.77    1.64
   5   2   4    0.77    1.08
   5   2   5    2.71    1.44
   5   2   6   -0.49    1.07
   5   2   7    0.73    1.14
   5   2   8    1.14    1.96
   5   2   9    0.10    0.89
   5   2  10    4.60    1.54
   5   2  11    1.52    1.10
   5   3 -14    6.23    1.97
   5   3 -13   10.71    3.25
   5   3 -13    9.15    2.47
   5   3 -12   -0.53    1.91
   5   3 -12   -1.14    1.44
   5   3 -11    0.20    1.83
   5   3 -11    0.42    1.34
   5   3 -10    1.51    2.20
   5   3 -10    0.42    1.61
   5   3  -9    3.56    2.93
   5   3  -9    2.68    2.13
   5   3  -8    5.71    6.50
   5   3  -8    8.01    2.91
   5   3  -7    0.27    3.66
   5   3  -7   -0.64    1.52
   5   3  -6   25.91    9.20
   5   3  -6   18.14    4.03
   5   3  -5   12.09    6.78
   5   3  -5    8.87    4.83
   5   3  -4    5.59    5.42
   5   3  -3   19.00    7.88
   5   3  -2    1.51    3.09
   5   3   3    2.50    2.02
   5   3   4   17.97    4.04
   5   3   5    0.79    1.70
   5   3   6    0.16    0.87
   5   3   7    3.50    1.40
   5   3   8   -0.86    0.99
   5   3   9    1.38    1.10
   5   4 -13    0.00    1.18
   5   4 -12    0.83    1.74
   5   4 -12    0.66    0.97
   5   4 -11    2.58    1.95
   5   4 -11    0.21    1.16
   5   4 -10    3.04    2.52
   5   4  -9    0.12    2.66
   5   4  -8    1.58    4.13
   5   4  -7    1.69    4.14
   5   4  -6    1.38    3.93
   5   4  -5   11.28    4.24
   5   4  -4   -5.65    5.22
   5   4  -3   -0.87    3.14
   5   4   4    2.12    1.04
   5   4   5   -0.03    0.65
   5   4   6    1.60    0.97
   5   5 -12    1.44    1.68
   5   5 -11   15.93    3.73
   5   5 -10    1.89    2.03
   5   5  -9    2.08    3.49
   5   5  -8   13.82    6.89
   5   5  -7    8.59    5.91
   5   5  -6   17.82    7.54
   5   5  -5    3.71    4.30
   5   5  -4    5.85    4.69
   5   5  -3    2.55    3.41
   5   6 -10   -2.11    1.77
   5   6  -9   -0.32    1.40
   5   6  -8   -1.80    2.96
   5   6  -7    2.80    3.60
   5   6  -6   10.59    5.19
   5   6  -5    2.15    3.14
   5   6  -4    3.02    2.79
  -6   8   4   -0.77    0.86
   6  -8  -3   -1.21    1.34
  -6   8   3   -0.12    0.77
   6  -8  -2    1.41    2.34
  -6   8   2    3.30    1.15
   6  -8  -1    0.18    1.92
  -6   8   1    1.05    1.31
   6  -8   0    3.96    2.57
  -6   8   0    1.83    1.82
   6  -8   1    0.64    1.34
  -6   8  -1    0.71    0.74
   6  -8   2    1.69    1.66
   6  -8   3    0.59    1.43
   6  -8   4   -2.32    1.79
   6  -8   5   11.13    2.73
   6  -8   6    3.03    1.77
   6  -8   7   -0.23    1.75
  -6   7   6   -3.31    1.30
  -6   7   5   -0.54    0.95
   6  -7  -4   -0.21    0.80
  -6   7   4    1.14    0.91
   6  -7  -3    2.05    1.75
  -6   7   3    0.51    1.01
   6  -7  -2    0.64    1.66
  -6   7   2    0.09    0.82
   6  -7  -1    0.20    0.70
   6  -7  -1    0.55    1.85
  -6   7   1    0.26    0.81
   6  -7   0    0.54    0.86
   6  -7   0   -1.69    2.30
  -6   7   0    1.32    0.86
   6  -7   1    3.32    1.25
   6  -7   1    7.80    2.09
  -6   7  -1    2.54    1.07
   6  -7   2    2.94    2.14
   6  -7   3    9.39    3.05
   6  -7   4   80.92    7.95
  -6   7  -4   52.76    7.23
   6  -7   5   12.11    2.98
  -6   7  -5    7.76    2.88
   6  -7   6   -0.30    1.25
  -6   7  -6    0.62    1.27
   6  -7   7   -5.17    1.89
  -6   7  -7    2.06    1.16
   6  -7   8   -2.00    1.19
  -6   7  -8    1.70    2.16
  -6   6   8    5.18    2.35
   6  -6  -6    0.45    1.60
  -6   6   6    1.94    1.95
   6  -6  -5   -0.25    0.98
  -6   6   5    2.64    1.80
   6  -6  -4    4.02    1.89
  -6   6   4   -2.97    1.85
   6  -6  -3   -0.37    1.95
   6  -6  -3    0.97    1.04
  -6   6   3   -0.52    1.73
   6  -6  -2    1.11    2.34
   6  -6  -2    0.59    2.11
  -6   6   2    0.94    1.74
   6  -6  -1    0.16    1.55
   6  -6  -1   -0.07    1.89
  -6   6   1   -0.57    1.41
   6  -6   0    3.86    1.60
   6  -6   0    4.03    1.97
  -6   6   0    2.25    1.23
   6  -6   1    2.95    1.71
   6  -6   1    4.59    2.16
   6  -6   2   30.10    4.12
   6  -6   2   32.74    5.12
   6  -6   3   -2.46    1.52
   6  -6   3   -0.46    1.93
   6  -6   4   51.86    5.58
   6  -6   4   52.45    6.97
   6  -6   5    0.22    1.48
   6  -6   6    9.67    2.98
  -6   6  -6    8.06    3.36
  -6   6  -7   -0.09    1.49
   6  -6   8    1.43    1.21
  -6   6  -8   -0.27    1.79
   6  -6   9   -3.06    1.51
  -6   6  -9   -4.29    3.22
  -6   5   9   -0.89    1.06
   6  -5  -8    2.97    1.42
  -6   5   8    4.44    1.58
   6  -5  -7   -0.11    0.89
  -6   5   7    0.07    0.91
   6  -5  -6   -0.22    0.95
  -6   5   6    0.18    0.95
   6  -5  -5   -0.14    1.25
  -6   5   5    0.64    1.11
   6  -5  -4    2.66    1.81
  -6   5   4    1.99    1.50
   6  -5  -3    0.66    1.40
  -6   5   3    0.20    1.09
   6  -5  -2   11.80    2.77
   6  -5  -2    4.10    2.11
  -6   5   2    5.87    1.96
   6  -5  -1   21.54    3.69
   6  -5  -1   11.30    2.93
  -6   5   1   10.07    2.39
   6  -5   0   17.40    5.46
   6  -5   0    8.42    2.74
  -6   5   0    7.24    3.12
   6  -5   1   46.04    8.28
   6  -5   1   42.78    5.93
   6  -5   2   35.67    5.07
   6  -5   2   38.39    5.58
   6  -5   3    2.10    1.74
   6  -5   3    2.69    2.12
   6  -5   4    0.70    1.30
   6  -5   5    1.50    1.37
   6  -5   5   -0.27    1.82
   6  -5   6    0.31    2.52
   6  -5   7    3.45    1.72
  -6   5  -7    1.70    2.57
  -6   5  -8   -0.67    1.82
   6  -5   9   -1.07    1.08
  -6   5  -9    1.00    1.64
   6  -5  10    5.34    1.63
  -6   5 -10    1.91    3.59
   6  -4 -10    0.71    1.04
  -6   4  10   -2.15    1.06
   6  -4  -9   -1.78    1.70
  -6   4   9    0.86    0.99
   6  -4  -8    5.39    3.11
  -6   4   8    3.95    1.75
   6  -4  -7   -0.32    1.81
  -6   4   7    0.04    0.98
   6  -4  -6   17.05    5.70
  -6   4   6   16.14    2.97
   6  -4  -5   -0.50    1.63
  -6   4   5    1.50    1.28
   6  -4  -4    3.37    2.14
  -6   4   4    1.86    1.59
   6  -4  -3    3.24    2.12
  -6   4   3    1.51    1.50
   6  -4  -2   -0.18    1.55
  -6   4   2   -0.20    1.02
   6  -4  -1   -0.06    2.02
   6  -4  -1   -1.43    1.42
  -6   4   1   -0.99    1.17
   6  -4   0    2.08    2.27
   6  -4   0    1.69    1.73
   6  -4   1   -6.33    3.11
   6  -4   1    2.58    1.52
   6  -4   2   32.39    6.96
   6  -4   3    2.08    1.72
   6  -4   3    2.16    2.03
   6  -4   4   10.21    2.53
   6  -4   4    5.16    4.95
   6  -4   5    0.28    1.18
   6  -4   6    2.57    1.71
   6  -4   7    1.14    1.34
  -6   4  -7    0.03    1.95
   6  -4   8    0.04    1.02
  -6   4  -8    0.21    1.52
   6  -4   9    0.26    0.99
  -6   4  -9   -0.79    1.42
   6  -4  10   -2.99    2.66
  -6   4 -10   -3.96    3.29
   6  -3 -11   11.04    3.30
  -6   3  11    4.27    1.55
   6  -3 -10    3.95    3.00
  -6   3  10    2.09    1.39
   6  -3  -9    1.15    1.50
  -6   3   9   -0.44    1.86
   6  -3  -8    0.25    2.00
  -6   3   8   -5.52    2.98
   6  -3  -7    6.07    4.20
  -6   3   7    2.16    3.52
   6  -3  -6    9.62    5.01
  -6   3   6    3.10    3.98
   6  -3  -5   13.21    5.34
  -6   3   5    7.18    4.65
   6  -3  -4   65.56   11.34
  -6   3   4   43.87    9.70
   6  -3  -3   15.71    4.49
  -6   3   3   23.26    5.92
   6  -3  -2   19.00    3.89
  -6   3   2    5.73    3.65
   6  -3  -1    2.04    2.05
  -6   3   1    0.87    1.16
   6  -3   0   -2.09    2.07
   6  -3   0    0.05    2.48
   6  -3   1    1.99    2.11
   6  -3   1    0.57    2.69
   6  -3   2    9.90    3.33
   6  -3   2   -4.21    3.66
   6  -3   3    0.00    1.04
   6  -3   4    1.57    1.43
   6  -3   4    0.32    1.40
   6  -3   5    6.11    2.05
   6  -3   5    4.17    2.09
   6  -3   6   -1.20    1.46
   6  -3   7   -1.13    1.49
  -6   3  -7   -2.00    2.00
   6  -3   8   -0.01    1.32
  -6   3  -8    2.57    1.74
   6  -3   9    2.86    2.37
  -6   3  -9    1.21    1.77
   6  -3  10   -2.85    1.29
  -6   3 -10   -1.11    2.74
   6  -2 -11    5.42    1.85
  -6   2  11   -2.46    2.23
   6  -2 -10    1.82    1.84
  -6   2  10    1.06    2.65
   6  -2  -9   10.21    2.98
  -6   2   9    4.21    2.45
   6  -2  -8    4.04    2.55
  -6   2   8    3.66    2.16
   6  -2  -7    6.02    2.69
  -6   2   7    2.59    2.16
   6  -2  -6    2.39    2.29
  -6   2   6    1.41    1.80
   6  -2  -5    3.38    4.43
  -6   2   5    2.84    2.02
   6  -2  -4   -3.32    3.54
  -6   2   4    3.59    1.86
   6  -2  -3   10.75    2.85
  -6   2   3    2.14    2.18
   6  -2  -2   -0.34    1.37
  -6   2   2    0.20    0.98
   6  -2  -1    0.49    1.67
   6  -2   0   17.47    4.10
   6  -2   1   -2.98    2.03
   6  -2   1   -0.41    1.26
   6  -2   2   10.69    3.26
   6  -2   2    1.18    1.73
   6  -2   3    6.96    2.22
   6  -2   3    3.68    1.98
   6  -2   4    4.83    1.88
   6  -2   4    2.28    1.76
   6  -2   5   27.84    3.73
   6  -2   5   21.09    3.73
   6  -2   6    0.29    1.15
   6  -2   7    1.41    2.43
  -6   2  -7    1.86    1.78
   6  -2   8    0.44    1.79
  -6   2  -8    1.04    1.40
   6  -2   9    0.45    1.10
  -6   2  -9    1.76    1.32
   6  -2  10   -0.36    0.93
  -6   2 -10   -0.75    1.00
  -6   1  12    1.93    2.25
   6  -1 -11   36.06    4.18
  -6   1  11   10.75    3.22
   6  -1 -10    3.87    2.12
  -6   1  10    2.00    1.83
   6  -1  -9   15.66    3.60
  -6   1   9    8.07    2.96
   6  -1  -8    2.11    1.90
  -6   1   8    0.08    1.55
   6  -1  -7    0.24    1.77
  -6   1   7    0.48    1.41
   6  -1  -6    1.21    1.53
  -6   1   6   -0.82    1.21
   6  -1  -5   -0.04    2.57
   6  -1  -4    2.79    3.51
  -6   1   4    2.00    1.93
   6  -1  -3    7.71    2.34
  -6   1   3   -0.19    1.73
   6  -1  -2   -2.00    1.39
  -6   1   2    0.98    0.99
   6  -1  -1   -0.63    1.72
   6  -1   0   -1.31    1.89
   6  -1   1    8.49    3.32
   6  -1   1    0.22    1.19
   6  -1   2   -2.87    3.11
   6  -1   2    6.17    1.66
   6  -1   3   20.68    3.17
   6  -1   3   12.93    2.82
   6  -1   4    1.82    1.38
   6  -1   4    0.48    2.24
   6  -1   5    1.86    1.37
   6  -1   5    1.89    2.34
   6  -1   6    2.36    2.14
   6  -1   7   25.30    2.39
  -6   1  -7    2.99    2.62
   6  -1   8    0.12    1.03
  -6   1  -8    1.55    1.11
   6  -1   9    3.73    1.39
   6   0 -11   22.80    3.46
  -6   0  11   10.70    2.98
   6   0 -10   -0.29    1.57
  -6   0  10    1.19    1.35
   6   0  -9    1.70    2.12
  -6   0   9    2.34    1.80
   6   0  -8    2.38    2.05
  -6   0   8    1.30    1.71
   6   0  -7    2.95    2.32
  -6   0   7    2.44    1.90
   6   0  -6    5.80    4.89
   6   0  -5   10.62    5.95
   6   0  -4   22.76    5.60
  -6   0   4    9.39    2.91
   6   0  -3    6.59    2.67
  -6   0   3    4.90    2.07
   6   0  -2    7.61    2.89
   6   0  -1   10.39    3.18
   6   0   0   -0.38    1.52
   6   0   1    5.51    2.98
   6   0   2    1.61    1.28
   6   0   2    1.02    0.95
   6   0   3    0.64    0.93
   6   0   3   -0.23    0.77
   6   0   4    0.30    0.90
   6   0   4    0.05    0.80
   6   0   5    0.46    0.91
   6   0   6    0.35    0.88
   6   0   7    0.50    0.90
   6   0   8    0.71    0.93
   6   0   9    2.71    1.87
   6   1 -11    1.18    1.21
  -6  -1  11   -0.35    1.10
   6   1 -10    7.07    2.36
  -6  -1  10    4.91    2.14
   6   1  -9    1.95    1.91
   6   1  -8    3.86    2.37
   6   1  -7   16.31    6.39
   6   1  -6    3.71    3.44
   6   1  -5   41.48    8.64
   6   1  -4   22.57    4.22
   6   1  -3   53.81    6.55
   6   1  -2    2.15    1.82
   6   1  -1    3.88    2.04
   6   1   0    1.19    1.87
   6   1   1   -0.04    0.78
   6   1   2    2.94    1.22
   6   1   3    0.58    0.87
   6   1   3    0.55    0.76
   6   1   4    0.06    0.65
   6   1   5    0.80    0.85
   6   1   6   -0.34    1.25
   6   1   7   -0.91    1.45
   6   1   8    1.54    0.93
  -6  -2  11    0.45    1.06
   6   2 -10    1.48    2.41
   6   2  -9   -0.50    1.79
   6   2  -8    3.58    2.76
   6   2  -7    7.10    2.28
   6   2  -6   -1.23    1.65
   6   2  -6   -0.27    1.26
   6   2  -5   12.89    2.80
   6   2  -4    0.19    1.07
   6   2  -3   17.58    3.08
   6   2  -2    1.08    2.05
   6   2   4    0.17    0.57
   6   2   5   -0.11    0.56
   6   2   6    1.70    0.82
   6   3  -7    1.05    1.57
   6   3  -6    5.99    2.35
   6   3  -5    3.60    1.94
   7  -5  -3    0.03    0.63
   7  -5  -2    2.25    1.11
   7  -5  -1   -0.06    0.75
   7  -5   0    1.52    1.14
   7  -5   1   -2.41    1.21
   7  -5   3    7.34    1.34
   7  -4  -3    0.28    1.47
   7  -4  -2    9.20    1.99
   7  -4  -1    4.80    1.74
   7  -4   0    7.14    1.98
   7  -4   1   32.07    3.52
   7  -4   2   -3.94    1.61
   7  -4   3    0.25    0.69
   7  -4   4   61.15    6.14
   7  -3  -5   17.91    2.02
  -7   3   5    0.96    1.09
   7  -3  -4    6.83    2.37
   7  -3  -3   12.27    5.11
   7  -3  -2   -0.70    1.79
   7  -3  -1   -0.33    1.00
   7  -3   0    0.78    1.10
   7  -3   1   -0.09    0.91
   7  -3   2    4.69    1.63
   7  -2  -6   -0.11    1.59
  -7   2   6    3.67    0.89
   7  -2  -5    1.26    1.80
  -7   2   5    4.02    0.95
   7  -2  -4   14.51    3.11
   7  -2  -3    5.94    3.89
   7  -2  -2    1.90    2.05
   7  -2  -1    0.78    1.08
   7  -2   0    0.21    0.91
   7  -2   1   -2.64    1.34
   7  -2   2   22.20    2.65
  -7   2  -4    3.78    1.70
   7  -1  -5    6.14    2.05
   7  -1  -4   -1.03    1.38
   7  -1  -3  153.82   15.39
   7  -1  -2   -5.49    2.60
   7  -1  -1   -2.21    1.23
   7  -1   0    4.77    1.50
   7  -1   1    6.23    1.54
   7   0  -5    0.25    1.58
   7   0  -4   22.56    3.97
   7   0  -3    1.98    1.10
   7   0  -2    2.60    1.15
   7   0  -1   -0.41    0.77
   7   0   0    1.44    0.89

_computing_structure_solution     'SHELXT 2014/4 (Sheldrick, 2014)'
_computing_structure_solution     'SHELXT 2014/4 (Sheldrick, 2014)'
;
_shelx_hkl_checksum              55188
_olex2_submission_special_instructions 'No special instructions were received'
loop_
_space_group_symop_operation_xyz
'x, y, z'
'-x, -y, -z'
loop_
_atom_site_label
_atom_site_type_symbol
_atom_site_fract_x
_atom_site_fract_y
_atom_site_fract_z
_atom_site_U_iso_or_equiv
_atom_site_adp_type
_atom_site_occupancy
_atom_site_site_symmetry_order
_atom_site_calc_flag
_atom_site_refinement_flags_posn
_atom_site_refinement_flags_adp
_atom_site_refinement_flags_occupancy
_atom_site_disorder_assembly
_atom_site_disorder_group
O001 O 0.3500(3) 0.39687(18) 0.31599(12) 0.0715(6) Uani 1 1 d . . . . .
H001 H 0.2682 0.4395 0.3433 0.107 Uiso 1 1 calc R U . . .
N002 N 0.1885(4) 0.6052(2) 0.38097(14) 0.0636(6) Uani 1 1 d . . . . .
N003 N 0.1539(6) 0.9877(3) 0.60167(16) 0.0799(8) Uani 1 1 d . . . . .
O004 O 0.3557(5) 1.0299(2) 0.59818(16) 0.1106(9) Uani 1 1 d . . . . .
O005 O 0.0379(5) 1.0456(2) 0.64841(15) 0.1095(9) Uani 1 1 d . . . . .
C006 C 0.4430(5) 0.6084(3) 0.27413(15) 0.0566(7) Uani 1 1 d . . . . .
C007 C 0.6918(5) 0.6355(3) 0.16584(16) 0.0567(7) Uani 1 1 d . . . . .
C008 C 0.4604(5) 0.4729(3) 0.26616(16) 0.0573(7) Uani 1 1 d . . . . .
C009 C 0.3059(5) 0.6695(3) 0.33319(16) 0.0615(7) Uani 1 1 d . . . . .
H009 H 0.3026 0.7602 0.3367 0.074 Uiso 1 1 calc R U . . .
C00A C 0.0688(5) 0.6754(3) 0.44004(16) 0.0586(7) Uani 1 1 d . . . . .
C00B C 0.1693(5) 0.7987(3) 0.48979(16) 0.0610(7) Uani 1 1 d . . . . .
H00B H 0.3181 0.8402 0.4846 0.073 Uiso 1 1 calc R U . . .
C00C C 0.5605(5) 0.6866(3) 0.22400(16) 0.0594(7) Uani 1 1 d . . . . .
H00C H 0.5496 0.7766 0.2302 0.071 Uiso 1 1 calc R U . . .
C00D C 0.7048(5) 0.4997(3) 0.16054(15) 0.0595(7) Uani 1 1 d . . . . .
H00D H 0.7940 0.4633 0.1217 0.071 Uiso 1 1 calc R U . . .
C00E C 0.5949(5) 0.4160(3) 0.20872(16) 0.0567(7) Uani 1 1 d . . . . .
C00F C 0.0430(5) 0.8584(3) 0.54731(16) 0.0611(7) Uani 1 1 d . . . . .
C00G C -0.1529(5) 0.6156(3) 0.44985(17) 0.0670(8) Uani 1 1 d . . . . .
H00G H -0.2196 0.5316 0.4175 0.080 Uiso 1 1 calc R U . . .
C00H C 0.6189(5) 0.2684(3) 0.19966(17) 0.0640(8) Uani 1 1 d . . . . .
C00I C 0.8205(5) 0.7180(3) 0.10929(17) 0.0626(7) Uani 1 1 d . U . . .
C00J C -0.1774(6) 0.8026(3) 0.55674(17) 0.0693(8) Uani 1 1 d . . . . .
H00J H -0.2589 0.8464 0.5955 0.083 Uiso 1 1 calc R U . . .
C00K C -0.2750(5) 0.6793(3) 0.50693(18) 0.0731(8) Uani 1 1 d . . . . .
H00K H -0.4245 0.6390 0.5120 0.088 Uiso 1 1 calc R U . . .
C00L C 0.3871(5) 0.1717(3) 0.1775(2) 0.0839(10) Uani 1 1 d . . . . .
H00A H 0.2892 0.1905 0.2203 0.126 Uiso 1 1 calc R U . . .
H00E H 0.4051 0.0800 0.1714 0.126 Uiso 1 1 calc R U . . .
H00F H 0.3216 0.1839 0.1270 0.126 Uiso 1 1 calc R U . . .
C00M C 0.7258(5) 0.2482(3) 0.27992(19) 0.0834(10) Uani 1 1 d . . . . .
H00H H 0.8712 0.3087 0.2934 0.125 Uiso 1 1 calc R U . . .
H00I H 0.7437 0.1565 0.2734 0.125 Uiso 1 1 calc R U . . .
H00L H 0.6292 0.2669 0.3231 0.125 Uiso 1 1 calc R U . . .
C00N C 0.7737(6) 0.2314(3) 0.1324(2) 0.0910(11) Uani 1 1 d . . . . .
H00M H 0.7086 0.2396 0.0809 0.137 Uiso 1 1 calc R U . . .
H00N H 0.7897 0.1399 0.1293 0.137 Uiso 1 1 calc R U . . .
H00O H 0.9198 0.2913 0.1449 0.137 Uiso 1 1 calc R U . . .
C00O C 0.7736(9) 0.8592(4) 0.1206(3) 0.0989(17) Uani 0.830(5) 1 d . U P A 1
H00P H 0.8190 0.9068 0.1760 0.148 Uiso 0.830(5) 1 calc R U P A 1
H00Q H 0.6145 0.8530 0.1092 0.148 Uiso 0.830(5) 1 calc R U P A 1
H00R H 0.8574 0.9070 0.0838 0.148 Uiso 0.830(5) 1 calc R U P A 1
C00P C 0.7514(8) 0.6464(4) 0.0199(2) 0.0924(15) Uani 0.830(5) 1 d . U P A 1
H00S H 0.8365 0.6969 -0.0154 0.139 Uiso 0.830(5) 1 calc R U P A 1
H00T H 0.5925 0.6404 0.0081 0.139 Uiso 0.830(5) 1 calc R U P A 1
H00U H 0.7817 0.5571 0.0111 0.139 Uiso 0.830(5) 1 calc R U P A 1
C00Q C 1.0737(7) 0.7307(5) 0.1263(3) 0.1006(17) Uani 0.830(5) 1 d . U P A 1
H00V H 1.1196 0.7780 0.1818 0.151 Uiso 0.830(5) 1 calc R U P A 1
H00W H 1.1546 0.7799 0.0895 0.151 Uiso 0.830(5) 1 calc R U P A 1
H00X H 1.1068 0.6421 0.1185 0.151 Uiso 0.830(5) 1 calc R U P A 1
C00R C 0.974(4) 0.645(2) 0.0548(15) 0.101(6) Uani 0.170(5) 1 d . U P A 2
H00Y H 1.0586 0.7065 0.0251 0.151 Uiso 0.170(5) 1 calc R U P A 2
H H 0.8826 0.5694 0.0169 0.151 Uiso 0.170(5) 1 calc R U P A 2
HA H 1.0760 0.6141 0.0881 0.151 Uiso 0.170(5) 1 calc R U P A 2
C1 C 0.648(3) 0.772(2) 0.0606(13) 0.085(6) Uani 0.170(5) 1 d . U P A 2
H1A H 0.5658 0.8236 0.0981 0.128 Uiso 0.170(5) 1 calc R U P A 2
H1B H 0.5433 0.6971 0.0265 0.128 Uiso 0.170(5) 1 calc R U P A 2
H1C H 0.7269 0.8284 0.0269 0.128 Uiso 0.170(5) 1 calc R U P A 2
C2 C 0.988(3) 0.8507(19) 0.1660(11) 0.079(5) Uani 0.170(5) 1 d . U P A 2
H2A H 1.0898 0.8225 0.2011 0.119 Uiso 0.170(5) 1 calc R U P A 2
H2B H 0.8993 0.9049 0.1987 0.119 Uiso 0.170(5) 1 calc R U P A 2
H2C H 1.0735 0.9030 0.1315 0.119 Uiso 0.170(5) 1 calc R U P A 2
loop_
_atom_site_aniso_label
_atom_site_aniso_U_11
_atom_site_aniso_U_22
_atom_site_aniso_U_33
_atom_site_aniso_U_23
_atom_site_aniso_U_13
_atom_site_aniso_U_12
O001 0.0828(16) 0.0616(12) 0.0785(14) 0.0299(10) 0.0281(11) 0.0163(11)
N002 0.0670(16) 0.0622(15) 0.0628(14) 0.0163(11) 0.0132(12) 0.0121(12)
N003 0.105(2) 0.0673(19) 0.0677(17) 0.0167(14) 0.0083(18) 0.0170(18)
O004 0.109(2) 0.0906(18) 0.1069(19) -0.0013(14) 0.0162(17) -0.0172(16)
O005 0.134(2) 0.0923(18) 0.0961(18) -0.0087(14) 0.0133(16) 0.0355(16)
C006 0.0637(18) 0.0547(16) 0.0530(15) 0.0149(12) 0.0097(13) 0.0120(14)
C007 0.0649(19) 0.0522(16) 0.0553(15) 0.0176(12) 0.0078(13) 0.0109(14)
C008 0.0644(19) 0.0532(16) 0.0566(15) 0.0221(13) 0.0058(14) 0.0076(14)
C009 0.069(2) 0.0558(16) 0.0619(17) 0.0168(13) 0.0090(14) 0.0134(15)
C00A 0.0624(19) 0.0600(17) 0.0566(16) 0.0194(14) 0.0095(14) 0.0124(15)
C00B 0.0623(18) 0.0609(18) 0.0617(17) 0.0211(14) 0.0070(15) 0.0087(15)
C00C 0.073(2) 0.0493(15) 0.0589(16) 0.0181(12) 0.0086(14) 0.0129(14)
C00D 0.0675(19) 0.0571(16) 0.0579(16) 0.0174(13) 0.0104(14) 0.0164(14)
C00E 0.0639(18) 0.0534(16) 0.0571(16) 0.0199(13) 0.0055(14) 0.0144(14)
C00F 0.073(2) 0.0573(17) 0.0549(16) 0.0177(13) 0.0056(15) 0.0126(16)
C00G 0.071(2) 0.0644(18) 0.0636(18) 0.0160(14) 0.0080(16) 0.0062(16)
C00H 0.073(2) 0.0530(16) 0.0719(18) 0.0233(14) 0.0114(16) 0.0156(15)
C00I 0.071(2) 0.0580(17) 0.0640(17) 0.0254(13) 0.0145(14) 0.0119(14)
C00J 0.079(2) 0.075(2) 0.0610(18) 0.0203(16) 0.0170(16) 0.0238(18)
C00K 0.064(2) 0.086(2) 0.0710(19) 0.0218(17) 0.0154(16) 0.0117(17)
C00L 0.090(2) 0.0535(18) 0.104(2) 0.0154(17) 0.003(2) 0.0083(17)
C00M 0.093(2) 0.076(2) 0.094(2) 0.0389(17) 0.0026(19) 0.0265(18)
C00N 0.118(3) 0.067(2) 0.108(3) 0.0340(18) 0.043(2) 0.043(2)
C00O 0.133(4) 0.066(3) 0.113(4) 0.047(2) 0.047(3) 0.025(3)
C00P 0.123(4) 0.089(3) 0.065(2) 0.034(2) 0.015(2) 0.005(3)
C00Q 0.075(3) 0.109(4) 0.126(4) 0.058(3) 0.012(3) 0.003(2)
C00R 0.111(13) 0.096(12) 0.102(12) 0.031(9) 0.043(11) 0.023(10)
C1 0.082(9) 0.097(13) 0.085(11) 0.052(10) 0.019(7) 0.004(8)
C2 0.081(11) 0.078(9) 0.078(9) 0.029(7) 0.016(7) 0.001(7)
loop_
_atom_type_symbol
_atom_type_description
_atom_type_scat_dispersion_real
_atom_type_scat_dispersion_imag
_atom_type_scat_source
C C 0.0181 0.0091 'International Tables Vol C Tables 4.2.6.8 and 6.1.1.4'
H H 0.0000 0.0000 'International Tables Vol C Tables 4.2.6.8 and 6.1.1.4'
N N 0.0311 0.0180 'International Tables Vol C Tables 4.2.6.8 and 6.1.1.4'
O O 0.0492 0.0322 'International Tables Vol C Tables 4.2.6.8 and 6.1.1.4'
loop_
_geom_angle_atom_site_label_1
_geom_angle_atom_site_label_2
_geom_angle_atom_site_label_3
_geom_angle
_geom_angle_site_symmetry_1
_geom_angle_site_symmetry_3
_geom_angle_publ_flag
C008 O001 H001 109.5 . . ?
C009 N002 C00A 119.4(2) . . ?
O004 N003 O005 123.7(3) . . ?
O004 N003 C00F 118.5(3) . . ?
O005 N003 C00F 117.8(3) . . ?
C008 C006 C009 121.8(2) . . ?
C00C C006 C008 119.5(2) . . ?
C00C C006 C009 118.7(2) . . ?
C00C C007 C00D 116.2(2) . . ?
C00C C007 C00I 123.5(2) . . ?
C00D C007 C00I 120.3(2) . . ?
O001 C008 C006 119.8(2) . . ?
O001 C008 C00E 119.4(2) . . ?
C00E C008 C006 120.8(2) . . ?
N002 C009 C006 123.4(3) . . ?
N002 C009 H009 118.3 . . ?
C006 C009 H009 118.3 . . ?
C00B C00A N002 121.8(3) . . ?
C00B C00A C00G 119.5(3) . . ?
C00G C00A N002 118.6(3) . . ?
C00A C00B H00B 120.9 . . ?
C00F C00B C00A 118.2(3) . . ?
C00F C00B H00B 120.9 . . ?
C006 C00C H00C 118.9 . . ?
C007 C00C C006 122.2(2) . . ?
C007 C00C H00C 118.9 . . ?
C007 C00D H00D 117.5 . . ?
C00E C00D C007 125.0(2) . . ?
C00E C00D H00D 117.5 . . ?
C008 C00E C00H 121.7(2) . . ?
C00D C00E C008 116.4(2) . . ?
C00D C00E C00H 121.9(2) . . ?
C00B C00F N003 117.7(3) . . ?
C00J C00F N003 119.0(3) . . ?
C00J C00F C00B 123.2(3) . . ?
C00A C00G H00G 119.7 . . ?
C00K C00G C00A 120.7(3) . . ?
C00K C00G H00G 119.7 . . ?
C00L C00H C00E 110.5(2) . . ?
C00L C00H C00M 109.8(2) . . ?
C00M C00H C00E 109.9(2) . . ?
C00N C00H C00E 111.2(2) . . ?
C00N C00H C00L 108.1(3) . . ?
C00N C00H C00M 107.3(2) . . ?
C007 C00I C00P 109.7(2) . . ?
C007 C00I C1 108.4(7) . . ?
C007 C00I C2 108.1(6) . . ?
C00O C00I C007 112.5(2) . . ?
C00O C00I C00P 108.0(3) . . ?
C00O C00I C00Q 108.4(3) . . ?
C00Q C00I C007 109.4(2) . . ?
C00Q C00I C00P 108.9(3) . . ?
C00R C00I C007 114.7(8) . . ?
C00R C00I C1 113.2(13) . . ?
C00R C00I C2 105.6(13) . . ?
C1 C00I C2 106.2(12) . . ?
C00F C00J H00J 121.0 . . ?
C00F C00J C00K 117.9(3) . . ?
C00K C00J H00J 121.0 . . ?
C00G C00K C00J 120.5(3) . . ?
C00G C00K H00K 119.7 . . ?
C00J C00K H00K 119.7 . . ?
C00H C00L H00A 109.5 . . ?
C00H C00L H00E 109.5 . . ?
C00H C00L H00F 109.5 . . ?
H00A C00L H00E 109.5 . . ?
H00A C00L H00F 109.5 . . ?
H00E C00L H00F 109.5 . . ?
C00H C00M H00H 109.5 . . ?
C00H C00M H00I 109.5 . . ?
C00H C00M H00L 109.5 . . ?
H00H C00M H00I 109.5 . . ?
H00H C00M H00L 109.5 . . ?
H00I C00M H00L 109.5 . . ?
C00H C00N H00M 109.5 . . ?
C00H C00N H00N 109.5 . . ?
C00H C00N H00O 109.5 . . ?
H00M C00N H00N 109.5 . . ?
H00M C00N H00O 109.5 . . ?
H00N C00N H00O 109.5 . . ?
C00I C00O H00P 109.5 . . ?
C00I C00O H00Q 109.5 . . ?
C00I C00O H00R 109.5 . . ?
H00P C00O H00Q 109.5 . . ?
H00P C00O H00R 109.5 . . ?
H00Q C00O H00R 109.5 . . ?
C00I C00P H00S 109.5 . . ?
C00I C00P H00T 109.5 . . ?
C00I C00P H00U 109.5 . . ?
H00S C00P H00T 109.5 . . ?
H00S C00P H00U 109.5 . . ?
H00T C00P H00U 109.5 . . ?
C00I C00Q H00V 109.5 . . ?
C00I C00Q H00W 109.5 . . ?
C00I C00Q H00X 109.5 . . ?
H00V C00Q H00W 109.5 . . ?
H00V C00Q H00X 109.5 . . ?
H00W C00Q H00X 109.5 . . ?
C00I C00R H00Y 109.5 . . ?
C00I C00R H 109.5 . . ?
C00I C00R HA 109.5 . . ?
H00Y C00R H 109.5 . . ?
H00Y C00R HA 109.5 . . ?
H C00R HA 109.5 . . ?
C00I C1 H1A 109.5 . . ?
C00I C1 H1B 109.5 . . ?
C00I C1 H1C 109.5 . . ?
H1A C1 H1B 109.5 . . ?
H1A C1 H1C 109.5 . . ?
H1B C1 H1C 109.5 . . ?
C00I C2 H2A 109.5 . . ?
C00I C2 H2B 109.5 . . ?
C00I C2 H2C 109.5 . . ?
H2A C2 H2B 109.5 . . ?
H2A C2 H2C 109.5 . . ?
H2B C2 H2C 109.5 . . ?
loop_
_geom_bond_atom_site_label_1
_geom_bond_atom_site_label_2
_geom_bond_distance
_geom_bond_site_symmetry_2
_geom_bond_publ_flag
O001 H001 0.8200 . ?
O001 C008 1.357(3) . ?
N002 C009 1.282(3) . ?
N002 C00A 1.417(3) . ?
N003 O004 1.217(3) . ?
N003 O005 1.219(3) . ?
N003 C00F 1.474(4) . ?
C006 C008 1.404(3) . ?
C006 C009 1.445(3) . ?
C006 C00C 1.392(3) . ?
C007 C00C 1.371(3) . ?
C007 C00D 1.404(3) . ?
C007 C00I 1.526(3) . ?
C008 C00E 1.399(3) . ?
C009 H009 0.9300 . ?
C00A C00B 1.384(4) . ?
C00A C00G 1.388(4) . ?
C00B H00B 0.9300 . ?
C00B C00F 1.378(4) . ?
C00C H00C 0.9300 . ?
C00D H00D 0.9300 . ?
C00D C00E 1.385(3) . ?
C00E C00H 1.538(3) . ?
C00F C00J 1.369(4) . ?
C00G H00G 0.9300 . ?
C00G C00K 1.374(4) . ?
C00H C00L 1.532(4) . ?
C00H C00M 1.536(4) . ?
C00H C00N 1.529(4) . ?
C00I C00O 1.517(4) . ?
C00I C00P 1.531(5) . ?
C00I C00Q 1.521(5) . ?
C00I C00R 1.52(2) . ?
C00I C1 1.554(19) . ?
C00I C2 1.630(19) . ?
C00J H00J 0.9300 . ?
C00J C00K 1.379(4) . ?
C00K H00K 0.9300 . ?
C00L H00A 0.9600 . ?
C00L H00E 0.9600 . ?
C00L H00F 0.9600 . ?
C00M H00H 0.9600 . ?
C00M H00I 0.9600 . ?
C00M H00L 0.9600 . ?
C00N H00M 0.9600 . ?
C00N H00N 0.9600 . ?
C00N H00O 0.9600 . ?
C00O H00P 0.9600 . ?
C00O H00Q 0.9600 . ?
C00O H00R 0.9600 . ?
C00P H00S 0.9600 . ?
C00P H00T 0.9600 . ?
C00P H00U 0.9600 . ?
C00Q H00V 0.9600 . ?
C00Q H00W 0.9600 . ?
C00Q H00X 0.9600 . ?
C00R H00Y 0.9600 . ?
C00R H 0.9600 . ?
C00R HA 0.9600 . ?
C1 H1A 0.9600 . ?
C1 H1B 0.9600 . ?
C1 H1C 0.9600 . ?
C2 H2A 0.9600 . ?
C2 H2B 0.9600 . ?
C2 H2C 0.9600 . ?
loop_
_geom_torsion_atom_site_label_1
_geom_torsion_atom_site_label_2
_geom_torsion_atom_site_label_3
_geom_torsion_atom_site_label_4
_geom_torsion
_geom_torsion_site_symmetry_1
_geom_torsion_site_symmetry_2
_geom_torsion_site_symmetry_3
_geom_torsion_site_symmetry_4
_geom_torsion_publ_flag
O001 C008 C00E C00D -179.3(2) . . . . ?
O001 C008 C00E C00H 0.8(4) . . . . ?
N002 C00A C00B C00F -178.1(2) . . . . ?
N002 C00A C00G C00K 179.4(2) . . . . ?
N003 C00F C00J C00K -177.9(2) . . . . ?
O004 N003 C00F C00B -6.1(4) . . . . ?
O004 N003 C00F C00J 173.0(3) . . . . ?
O005 N003 C00F C00B 174.7(2) . . . . ?
O005 N003 C00F C00J -6.2(4) . . . . ?
C006 C008 C00E C00D -0.9(4) . . . . ?
C006 C008 C00E C00H 179.2(2) . . . . ?
C007 C00D C00E C008 0.5(4) . . . . ?
C007 C00D C00E C00H -179.6(2) . . . . ?
C008 C006 C009 N002 -1.3(4) . . . . ?
C008 C006 C00C C007 0.8(4) . . . . ?
C008 C00E C00H C00L 59.6(3) . . . . ?
C008 C00E C00H C00M -61.7(4) . . . . ?
C008 C00E C00H C00N 179.6(3) . . . . ?
C009 N002 C00A C00B -47.0(4) . . . . ?
C009 N002 C00A C00G 135.4(3) . . . . ?
C009 C006 C008 O001 -1.4(4) . . . . ?
C009 C006 C008 C00E -179.8(2) . . . . ?
C009 C006 C00C C007 -179.2(2) . . . . ?
C00A N002 C009 C006 176.6(2) . . . . ?
C00A C00B C00F N003 178.2(2) . . . . ?
C00A C00B C00F C00J -1.0(4) . . . . ?
C00A C00G C00K C00J -1.4(4) . . . . ?
C00B C00A C00G C00K 1.7(4) . . . . ?
C00B C00F C00J C00K 1.2(4) . . . . ?
C00C C006 C008 O001 178.6(2) . . . . ?
C00C C006 C008 C00E 0.2(4) . . . . ?
C00C C006 C009 N002 178.7(3) . . . . ?
C00C C007 C00D C00E 0.5(4) . . . . ?
C00C C007 C00I C00O -4.0(4) . . . . ?
C00C C007 C00I C00P -124.2(3) . . . . ?
C00C C007 C00I C00Q 116.5(4) . . . . ?
C00C C007 C00I C00R 174.5(13) . . . . ?
C00C C007 C00I C1 -57.9(11) . . . . ?
C00C C007 C00I C2 56.9(9) . . . . ?
C00D C007 C00C C006 -1.1(4) . . . . ?
C00D C007 C00I C00O 176.4(3) . . . . ?
C00D C007 C00I C00P 56.2(4) . . . . ?
C00D C007 C00I C00Q -63.1(4) . . . . ?
C00D C007 C00I C00R -5.1(13) . . . . ?
C00D C007 C00I C1 122.5(11) . . . . ?
C00D C007 C00I C2 -122.7(9) . . . . ?
C00D C00E C00H C00L -120.3(3) . . . . ?
C00D C00E C00H C00M 118.4(3) . . . . ?
C00D C00E C00H C00N -0.3(4) . . . . ?
C00F C00J C00K C00G 0.0(4) . . . . ?
C00G C00A C00B C00F -0.5(4) . . . . ?
C00I C007 C00C C006 179.3(3) . . . . ?
C00I C007 C00D C00E -179.9(2) . . . . ?
