#------------------------------------------------------------------------------
#$Date: 2024-02-04 13:35:58 +0200 (Sun, 04 Feb 2024) $
#$Revision: 289434 $
#$URL: file:///home/coder/svn-repositories/cod/cif/1/57/05/1570530.cif $
#------------------------------------------------------------------------------
#
# This file is available in the Crystallography Open Database (COD),
# http://www.crystallography.net/
#
# All data on this site have been placed in the public domain by the
# contributors.
#
data_1570530
loop_
_publ_author_name
'Sun, Zhen'
'Xu, Wan'
'Qiu, Shuai'
'Ma, Zhiying'
'Li, Chunli'
'Zhang, Sheng'
'Wang, Hua'
_publ_section_title
;
 Thia[<i>n</i>]helicenes with long persistent phosphorescence.
;
_journal_issue                   3
_journal_name_full               'Chemical science'
_journal_page_first              1077
_journal_page_last               1087
_journal_paper_doi               10.1039/d3sc05480b
_journal_volume                  15
_journal_year                    2024
_chemical_formula_moiety         'C15 H14 S3 Si'
_chemical_formula_sum            'C15 H14 S3 Si'
_chemical_formula_weight         318.53
_space_group_crystal_system      triclinic
_space_group_IT_number           2
_space_group_name_Hall           '-P 1'
_space_group_name_H-M_alt        'P -1'
_atom_sites_solution_hydrogens   geom
_atom_sites_solution_primary     dual
_audit_creation_date             2023-09-04
_audit_creation_method
;
Olex2 1.2
(compiled 2018.05.29 svn.r3508 for OlexSys, GUI svn.r5506)
;
_audit_update_record
;
2023-09-04 deposited with the CCDC.	2023-12-08 downloaded from the CCDC.
;
_cell_angle_alpha                94.58(2)
_cell_angle_beta                 99.657(16)
_cell_angle_gamma                114.95(2)
_cell_formula_units_Z            2
_cell_length_a                   7.373(4)
_cell_length_b                   8.088(5)
_cell_length_c                   14.380(8)
_cell_measurement_reflns_used    8808
_cell_measurement_temperature    150
_cell_measurement_theta_max      28.279
_cell_measurement_theta_min      2.824
_cell_volume                     755.5(8)
_computing_cell_refinement       'SAINT V8.38A (?, 2016)'
_computing_data_reduction        'SAINT V8.38A (?, 2016)'
_computing_molecular_graphics    'Olex2 (Dolomanov et al., 2009)'
_computing_publication_material  'Olex2 (Dolomanov et al., 2009)'
_computing_structure_refinement  'ShelXL (Sheldrick, 2015)'
_computing_structure_solution    'ShelXT (Sheldrick, 2015)'
_diffrn_ambient_temperature      150.0
_diffrn_measured_fraction_theta_full 0.973
_diffrn_measured_fraction_theta_max 0.973
_diffrn_measurement_device_type  'Bruker D8 VENTURE PHOTON II'
_diffrn_measurement_method       'phi and omega scans'
_diffrn_radiation_monochromator  'Helios multilayer optic'
_diffrn_radiation_type           MoK\a
_diffrn_radiation_wavelength     0.71073
_diffrn_reflns_av_R_equivalents  0.0812
_diffrn_reflns_av_unetI/netI     0.0498
_diffrn_reflns_Laue_measured_fraction_full 0.973
_diffrn_reflns_Laue_measured_fraction_max 0.973
_diffrn_reflns_limit_h_max       8
_diffrn_reflns_limit_h_min       -8
_diffrn_reflns_limit_k_max       9
_diffrn_reflns_limit_k_min       -9
_diffrn_reflns_limit_l_max       17
_diffrn_reflns_limit_l_min       -17
_diffrn_reflns_number            17165
_diffrn_reflns_point_group_measured_fraction_full 0.973
_diffrn_reflns_point_group_measured_fraction_max 0.973
_diffrn_reflns_theta_full        25.099
_diffrn_reflns_theta_max         25.099
_diffrn_reflns_theta_min         2.818
_diffrn_source_type              Microfocus
_exptl_absorpt_coefficient_mu    0.553
_exptl_absorpt_correction_T_max  0.2627
_exptl_absorpt_correction_T_min  0.1970
_exptl_absorpt_correction_type   multi-scan
_exptl_absorpt_process_details
'SADABS-2016/2 (Bruker,2016/2) was used for absorption correction. wR2(int) was 0.1495 before and 0.0928 after correction. The Ratio of minimum to maximum transmission is 0.7499. The \l/2 correction factor is Not present.'
_exptl_crystal_colour            yellow
_exptl_crystal_colour_primary    yellow
_exptl_crystal_density_diffrn    1.400
_exptl_crystal_description       block
_exptl_crystal_F_000             332
_exptl_crystal_size_max          0.11
_exptl_crystal_size_mid          0.1
_exptl_crystal_size_min          0.1
_refine_diff_density_max         1.824
_refine_diff_density_min         -0.644
_refine_diff_density_rms         0.245
_refine_ls_extinction_method     none
_refine_ls_goodness_of_fit_ref   1.159
_refine_ls_hydrogen_treatment    constr
_refine_ls_matrix_type           full
_refine_ls_number_parameters     175
_refine_ls_number_reflns         2619
_refine_ls_number_restraints     0
_refine_ls_restrained_S_all      1.159
_refine_ls_R_factor_all          0.1095
_refine_ls_R_factor_gt           0.0999
_refine_ls_shift/su_max          0.000
_refine_ls_shift/su_mean         0.000
_refine_ls_structure_factor_coef Fsqd
_refine_ls_weighting_details
'w=1/[\s^2^(Fo^2^)+(0.2000P)^2^] where P=(Fo^2^+2Fc^2^)/3'
_refine_ls_weighting_scheme      calc
_refine_ls_wR_factor_gt          0.2545
_refine_ls_wR_factor_ref         0.2673
_reflns_Friedel_coverage         0.000
_reflns_number_gt                2226
_reflns_number_total             2619
_reflns_threshold_expression     'I > 2\s(I)'
_cod_data_source_file            d3sc05480b2.cif
_cod_data_source_block           TB[4]H
_cod_depositor_comments
'Adding full bibliography for 1570529--1570532.cif.'
_cod_original_cell_volume        755.4(8)
_cod_database_code               1570530
_shelx_shelxl_version_number     2018/3
_shelx_space_group_comment
;
The symmetry employed for this shelxl refinement is uniquely defined
by the following loop, which should always be used as a source of
symmetry information in preference to the above space-group names.
They are only intended as comments.
;
_shelx_estimated_absorpt_t_max   0.947
_shelx_estimated_absorpt_t_min   0.942
_diffrn_source_source            'Incoatc Ius 3.0 '
_olex2_refinement_description
;
1. Fixed Uiso
 At 1.2 times of:
  All C(H) groups
 At 1.5 times of:
  All C(H,H,H) groups
2.a Aromatic/amide H refined with riding coordinates:
 C5(H5), C4(H4), C3(H3), C2(H2), C11(H11)
2.b Idealised Me refined as rotating group:
 C15(H15A,H15B,H15C), C13(H13A,H13B,H13C), C14(H14A,H14B,H14C)
;
_shelx_res_file
;
TITL TB[4]H.res in P-1
    TB[4]H.res
    created by SHELXL-2018/3 at 11:27:53 on 04-Sep-2023
REM Old TITL Integration of TB[4]H
REM SHELXT solution in P-1
REM R1 0.154, Rweak 0.018, Alpha 0.056, Orientation as input
REM Formula found by SHELXT: C15 S4
CELL 0.71073 7.3726 8.0877 14.3797 94.578 99.657 114.952
ZERR 2 0.004 0.0054 0.0079 0.023 0.016 0.024
LATT 1
SFAC C H S Si
UNIT 30 28 6 2

L.S. 10
PLAN  5
SIZE 0.1 0.11 0.1
TEMP -123.15
BOND $H
LIST 4
CONF
fmap 2
acta
OMIT -3 50.2
OMIT -2 -3 5
OMIT -1 -5 12
OMIT 2 -5 8
OMIT 2 1 10
OMIT 3 2 5
OMIT -2 -4 8
OMIT 2 -7 4
OMIT -3 7 4
OMIT -3 -5 5
OMIT 3 4 1
OMIT 1 0 7
OMIT 2 -8 5
OMIT 2 -7 2
OMIT -1 -6 9
OMIT 2 -3 10
OMIT 3 1 4
OMIT 2 -4 13
OMIT -2 -5 7
OMIT 1 -6 10
OMIT 3 -5 3
OMIT 6 0 0
OMIT -2 -4 4
OMIT -2 5 6
OMIT -1 -2 11
OMIT -3 5 5
OMIT -3 -4 10
OMIT -1 2 6
OMIT 0 -4 1
OMIT 0 -3 3
OMIT 1 0 4
OMIT -1 5 8
REM <olex2.extras>
REM <HklSrc "%.\\TB[4]H.hkl">
REM </olex2.extras>

WGHT    0.200000
FVAR       0.57094
S2    3    0.836606    0.876836    0.665352    11.00000    0.03462    0.01755 =
         0.01842    0.00463    0.00585    0.00999
SI1   4    0.619121    0.257126    0.899780    11.00000    0.03243    0.01881 =
         0.01428    0.00488    0.00668    0.00886
S3    3    0.761987    0.654946    0.839700    11.00000    0.03572    0.01912 =
         0.01591    0.00374    0.00652    0.00984
S1    3    0.823837    0.785382    0.445659    11.00000    0.03705    0.02299 =
         0.01792    0.00795    0.00461    0.01200
C9    1    0.742849    0.523758    0.665542    11.00000    0.02263    0.01774 =
         0.01960    0.00454    0.00405    0.00605
C5    1    0.703163    0.260646    0.460045    11.00000    0.02363    0.01995 =
         0.02015    0.00261    0.00388    0.00571
AFIX  43
H5    2    0.679948    0.184720    0.508095    11.00000   -1.20000
AFIX   0
C4    1    0.699905    0.188992    0.367367    11.00000    0.03092    0.02762 =
         0.02246    0.00353    0.00443    0.01173
AFIX  43
H4    2    0.675784    0.063757    0.352995    11.00000   -1.20000
AFIX   0
C10   1    0.779937    0.685508    0.723302    11.00000    0.02720    0.01621 =
         0.02078    0.00125    0.00392    0.00661
C3    1    0.731571    0.298812    0.295756    11.00000    0.03320    0.02886 =
         0.01768   -0.00002    0.00217    0.01324
AFIX  43
H3    2    0.727506    0.246499    0.233445    11.00000   -1.20000
AFIX   0
C7    1    0.759149    0.555433    0.568937    11.00000    0.02269    0.02605 =
         0.01825    0.00504    0.00310    0.00752
C6    1    0.741359    0.446687    0.480596    11.00000    0.02238    0.02640 =
         0.01504    0.00789    0.00510    0.00942
C8    1    0.804250    0.735831    0.559797    11.00000    0.02935    0.02003 =
         0.02165    0.00180    0.00642    0.00987
C2    1    0.768689    0.482092    0.313893    11.00000    0.03211    0.02788 =
         0.01854    0.00603    0.00098    0.01109
AFIX  43
H2    2    0.790693    0.556298    0.265080    11.00000   -1.20000
AFIX   0
C15   1    0.332476    0.134948    0.870849    11.00000    0.03590    0.02732 =
         0.02531    0.00310    0.00730    0.00574
AFIX 137
H15A  2    0.286543    0.037641    0.909979    11.00000   -1.50000
H15B  2    0.282524    0.079509    0.802939    11.00000   -1.50000
H15C  2    0.278058    0.223630    0.884459    11.00000   -1.50000
AFIX   0
C11   1    0.698118    0.374100    0.718183    11.00000    0.02910    0.01786 =
         0.02071    0.00401    0.00585    0.00733
AFIX  43
H11   2    0.669400    0.252884    0.690041    11.00000   -1.20000
AFIX   0
C13   1    0.712063    0.389374    1.024759    11.00000    0.04158    0.03040 =
         0.01879    0.00382    0.00599    0.01236
AFIX 137
H13A  2    0.680056    0.495368    1.026916    11.00000   -1.50000
H13B  2    0.860818    0.433472    1.044720    11.00000   -1.50000
H13C  2    0.643965    0.308509    1.068063    11.00000   -1.50000
AFIX   0
C14   1    0.729615    0.090190    0.883829    11.00000    0.05795    0.03346 =
         0.02908    0.01150    0.01597    0.02560
AFIX 137
H14A  2    0.687856    0.000923    0.927515    11.00000   -1.50000
H14B  2    0.879675    0.157500    0.897947    11.00000   -1.50000
H14C  2    0.679356    0.024454    0.817645    11.00000   -1.50000
AFIX   0
C1    1    0.772875    0.554695    0.405740    11.00000    0.02535    0.02377 =
         0.01710    0.00462    0.00276    0.00992
C12   1    0.699798    0.418970    0.812915    11.00000    0.02952    0.01769 =
         0.02209    0.00488    0.00526    0.00712
HKLF 4




REM  TB[4]H.res in P-1
REM wR2 = 0.2673, GooF = S = 1.159, Restrained GooF = 1.159 for all data
REM R1 = 0.0999 for 2226 Fo > 4sig(Fo) and 0.1095 for all 2619 data
REM 175 parameters refined using 0 restraints

END

WGHT      0.2000      0.0000

REM Highest difference peak  1.824,  deepest hole -0.644,  1-sigma level  0.245
Q1    1   0.7822  0.2183  0.5534  11.00000  0.05    1.82
Q2    1   0.6643  0.7790  0.4454  11.00000  0.05    1.70
Q3    1   0.6967  0.8727  0.6610  11.00000  0.05    1.67
Q4    1   0.6181  0.3417  1.1591  11.00000  0.05    1.65
Q5    1   0.9124  0.6584  0.8391  11.00000  0.05    1.60
;
_shelx_res_checksum              75340
_shelx_hkl_file
;
  -1   0   0   19.52    1.97
  -1   0   0   20.05    2.06
  -1   0   0   21.15    1.73
  -1   0   0   17.76    1.77
  -1   0   0   22.82    2.15
   1   0   0   17.75    1.95
   1   0   0   20.45    2.08
  -2   0   0 9119.42  742.06
   2   0   0 9999.00  744.21
  -3   0   0    6.75    2.51
  -3   0   0    7.51    1.72
  -3   0   0    4.56    1.77
  -3   0   0    9.19    2.05
   3   0   0    8.38    2.09
   3   0   0    8.26    1.97
  -4   0   0  155.90   15.35
  -4   0   0  191.70   16.02
  -4   0   0  179.74   15.40
  -4   0   0  181.06   14.64
  -4   0   0  189.48   17.35
  -4   0   0  174.10   14.97
   4   0   0  165.44   15.14
   4   0   0  190.37   14.96
  -5   0   0   44.95    6.01
  -5   0   0   50.79    7.63
  -5   0   0   51.22    6.16
  -5   0   0   43.06    5.69
  -5   0   0   49.92    5.13
  -5   0   0   42.37    6.05
   5   0   0   58.97    6.11
   5   0   0   49.47    5.84
  -6   0   0    5.76    3.89
  -6   0   0    7.96    3.14
  -6   0   0    7.33    2.66
  -6   0   0    5.58    2.01
  -6   0   0    6.40    2.84
  -6   0   0    5.48    2.94
  -7   0   0   -1.53    2.45
  -7   0   0    6.98    3.64
  -7   0   0   -2.97    3.44
  -7   0   0    0.86    3.15
  -7   0   0    4.16    3.20
  -7   0   0    3.84    4.15
  -8   0   0   11.84    6.59
  -8   0   0    0.63    3.35
  -8   0   0   -6.18    2.87
  -9   1   0    4.53    3.58
  -9   1   0   -1.59    4.10
  -9   1   0    3.47   11.14
  -8   1   0   72.45    7.80
  -8   1   0   69.32   13.05
  -8   1   0   72.27    9.50
  -8   1   0   67.38    9.32
  -7   1   0   75.04    9.71
  -7   1   0   85.44    8.19
  -7   1   0   83.26   12.06
  -7   1   0   96.60    9.14
  -6   1   0  431.05   34.60
  -6   1   0  404.05   33.41
  -6   1   0  402.68   36.57
  -5   1   0   -1.30    1.10
  -5   1   0   -0.31    1.32
  -5   1   0    0.22    2.13
  -5   1   0    0.05    1.04
  -5   1   0    1.58    2.16
  -5   1   0    3.10    1.82
  -4   1   0 2313.89  179.98
  -4   1   0 2269.48  179.16
  -4   1   0 2411.01  178.88
  -4   1   0 2180.04  179.62
  -4   1   0 2396.65  178.93
   3  -1   0  290.26   21.21
  -3   1   0  257.11   21.71
  -3   1   0  252.26   21.83
  -3   1   0  265.90   21.20
  -2   1   0 3866.34  304.40
   1  -1   0  258.43   21.13
   1  -1   0  266.83   20.83
  -1   1   0  257.87   21.14
  -1   1   0  263.93   21.00
  -1   1   0  275.94   21.08
  -1   1   0  273.85   21.15
   0  -1   0 1375.67  121.63
   0  -1   0 1577.91  121.48
   0  -1   0 1709.55  121.46
   0  -1   0 1636.63  121.95
   0  -1   0 1452.29  121.48
   0  -1   0 1783.84  121.72
   0   1   0 1689.74  121.65
   0   1   0 1405.87  121.70
   0   1   0 1567.04  121.45
   0   1   0 1609.17  121.39
   0   1   0 1582.48  121.88
   0   1   0 1440.69  121.48
  -1  -1   0   42.33    5.13
  -1  -1   0   50.66    4.93
  -1  -1   0   42.11    4.37
  -1  -1   0   44.45    5.01
  -1  -1   0   47.59    4.59
  -1  -1   0   42.76    4.28
   1   1   0   42.97    4.14
   1   1   0   48.54    4.57
   1   1   0   44.83    5.00
   1   1   0   48.18    5.06
   1   1   0   38.63    5.14
   1   1   0   44.18    4.38
  -2  -1   0  257.28   21.76
  -2  -1   0  250.06   20.56
  -2  -1   0  264.38   20.85
  -2  -1   0  265.55   20.66
  -2  -1   0  252.47   20.22
  -2  -1   0  222.65   20.97
   2   1   0  255.34   20.50
   2   1   0  242.20   20.77
   2   1   0  237.24   21.33
   2   1   0  251.39   20.17
  -3  -1   0   20.34    3.60
  -3  -1   0   27.41    4.65
  -3  -1   0   22.45    3.86
  -3  -1   0   20.62    2.87
  -3  -1   0   16.94    4.43
  -3  -1   0   15.74    4.25
   3   1   0   19.77    2.09
   3   1   0   21.24    2.61
   3   1   0   16.66    3.39
   3   1   0   17.47    3.83
   3   1   0   26.52    4.37
  -4  -1   0   23.09    5.06
  -4  -1   0   26.66    4.58
  -4  -1   0   28.05    4.71
  -4  -1   0   34.20    7.20
  -4  -1   0   21.46    4.50
  -4  -1   0   25.75    3.60
   4   1   0   28.14    4.90
   4   1   0   25.11    5.00
  -5  -1   0    5.62    2.49
  -5  -1   0    6.64    2.92
  -5  -1   0    3.46    2.11
  -5  -1   0    8.02    3.50
  -5  -1   0    4.83    3.46
  -5  -1   0    3.26    2.44
   5   1   0    8.97    3.34
  -6  -1   0   32.35    5.53
  -6  -1   0   30.67   12.95
  -6  -1   0   32.23    6.61
  -6  -1   0   38.41    6.20
  -6  -1   0   37.03    6.56
   6   1   0   37.44    6.48
  -7  -1   0   10.98    6.10
  -7  -1   0    7.28    5.05
  -7  -1   0    7.18    3.39
  -7  -1   0    4.74    3.42
   7   1   0   -4.64    5.10
  -8  -1   0    8.57    4.16
  -8  -1   0    3.28    4.09
  -8  -1   0   -1.96    4.84
  -9   2   0   -4.45    3.45
  -9   2   0   -1.85    5.13
  -9   2   0    4.52    2.94
  -8   2   0  113.87   14.46
  -8   2   0   99.23   11.17
  -8   2   0  120.84   12.43
  -7   2   0  136.69   14.00
  -7   2   0  160.85   12.57
  -7   2   0  130.62   12.92
  -7   2   0  142.18   16.08
  -6   2   0  205.40   16.99
  -6   2   0  193.60   18.08
  -6   2   0  206.70   16.80
  -5   2   0  648.59   54.19
  -5   2   0  668.23   53.06
  -5   2   0  710.04   53.09
  -4   2   0  208.89   18.69
  -4   2   0  222.63   17.85
  -4   2   0  232.85   17.85
  -4   2   0  218.43   17.74
   3  -2   0  174.45   14.34
   3  -2   0  159.91   14.63
  -3   2   0  182.38   14.06
  -3   2   0  177.84   14.13
  -3   2   0  165.67   14.33
   2  -2   0   15.57    2.81
   2  -2   0   12.42    1.71
   2  -2   0   14.36    2.08
  -2   2   0   14.61    2.32
  -2   2   0   17.11    2.99
  -2   2   0   15.22    2.43
  -2   2   0   19.33    3.58
   1  -2   0  179.99   15.17
   1  -2   0  182.31   15.32
   1  -2   0  189.53   15.69
   1  -2   0  183.34   15.23
   1  -2   0  176.20   15.37
   1  -2   0  168.53   16.15
  -1   2   0  181.16   15.68
  -1   2   0  194.56   15.41
  -1   2   0  193.22   15.35
  -1   2   0  166.88   15.77
  -1   2   0  186.38   15.21
  -1   2   0  185.86   15.32
   0  -2   0  849.94   75.59
   0  -2   0  906.01   75.32
   0  -2   0 1093.30   75.77
   0  -2   0 1042.58   75.28
   0  -2   0  958.25   75.30
   0  -2   0 1013.80   76.28
   0   2   0 1027.13   75.60
   0   2   0  863.67   75.69
   0   2   0  993.04   75.11
   0   2   0  959.36   76.04
   0   2   0  899.09   75.32
   0   2   0  923.61   75.14
  -1  -2   0   32.68    3.90
  -1  -2   0   24.13    4.12
  -1  -2   0   32.26    4.75
  -1  -2   0   31.81    4.27
  -1  -2   0   33.53    3.87
  -1  -2   0   26.97    4.20
   1   2   0   46.24    8.12
   1   2   0   26.62    3.57
   1   2   0   28.96    3.50
   1   2   0   30.08    4.55
   1   2   0   36.35    4.83
   1   2   0   31.24    4.55
  -2  -2   0    1.91    1.57
  -2  -2   0    2.60    2.08
  -2  -2   0   -0.01    1.30
  -2  -2   0    4.13    2.64
  -2  -2   0    0.63    1.54
  -2  -2   0    2.53    1.64
   2   2   0    0.98    1.28
   2   2   0    3.05    2.36
   2   2   0    2.07    1.89
   2   2   0    1.33    1.49
   2   2   0    3.23    1.78
  -3  -2   0   37.22    5.54
  -3  -2   0   35.63    5.18
  -3  -2   0   30.40    4.62
  -3  -2   0   50.30    6.84
  -3  -2   0   30.90    6.69
  -3  -2   0   32.52    5.00
   3   2   0   49.85    4.99
   3   2   0   43.06    5.30
   3   2   0   47.77    6.82
  -4  -2   0   87.09   10.87
  -4  -2   0   74.11    9.42
  -4  -2   0   89.12    9.18
  -4  -2   0   77.79    8.81
  -4  -2   0   80.50   10.07
   4   2   0   79.08    6.81
   4   2   0   86.51   10.08
   4   2   0   74.75    8.70
  -5  -2   0   30.62    5.74
  -5  -2   0   25.46    5.54
  -5  -2   0   32.10    8.17
  -5  -2   0   36.90    8.07
  -5  -2   0   35.56    6.31
   5   2   0   33.23    7.14
  -6  -2   0    0.17    2.96
  -6  -2   0    1.24    3.34
  -6  -2   0   -5.62    3.69
  -6  -2   0    5.27    4.86
  -6  -2   0   -2.16    2.92
   6   2   0    0.80    5.27
  -7  -2   0   35.13    7.73
  -7  -2   0   38.81    8.29
  -7  -2   0   44.17    7.40
  -7  -2   0   23.53    8.06
  -9   3   0   45.42    8.10
  -9   3   0   56.41   11.23
  -8   3   0    6.04    3.39
  -8   3   0   13.70    3.29
  -8   3   0    9.96    4.68
  -8   3   0    1.46    3.87
  -7   3   0  103.90   11.03
  -7   3   0   89.93   10.54
  -7   3   0  112.00    9.65
  -6   3   0   32.32    3.99
  -6   3   0   26.98    4.16
  -6   3   0   25.60    5.11
  -5   3   0   18.27    3.30
  -5   3   0   20.17    3.25
  -5   3   0   23.93    3.71
   4  -3   0   61.95    6.22
   4  -3   0   51.92    6.55
  -4   3   0   57.12    6.67
  -4   3   0   53.86    6.11
  -4   3   0   60.91    5.89
  -4   3   0   57.01    6.63
   3  -3   0  358.32   27.87
   3  -3   0  339.76   26.72
   3  -3   0  334.44   26.54
   3  -3   0  315.05   28.43
  -3   3   0  322.58   27.49
  -3   3   0  358.90   27.49
  -3   3   0  331.77   27.85
  -3   3   0  323.35   28.77
  -3   3   0  337.18   27.82
   2  -3   0   48.43    6.10
   2  -3   0   52.52    5.96
   2  -3   0   57.22    5.84
   2  -3   0   56.55    5.64
  -2   3   0   55.34    5.92
  -2   3   0   53.46    5.76
  -2   3   0   51.53    6.58
  -2   3   0   57.68    6.42
  -2   3   0   64.14    6.71
  -2   3   0   56.13    5.99
   1  -3   0   10.03    2.52
   1  -3   0    6.26    2.24
   1  -3   0    6.59    2.24
   1  -3   0   10.23    2.74
   1  -3   0    6.53    2.88
  -1   3   0   14.42    3.26
  -1   3   0    3.77    1.72
  -1   3   0   11.90    2.73
  -1   3   0    7.44    2.16
  -1   3   0   12.69    3.88
  -1   3   0    6.56    2.31
   0  -3   0  169.64   16.13
   0  -3   0  180.60   15.69
   0  -3   0  196.18   17.13
   0  -3   0  161.70   15.51
   0  -3   0  199.21   15.62
   0  -3   0  194.62   16.12
   0   3   0  156.27   15.16
   0   3   0  170.39   15.12
   0   3   0  161.63   15.56
   0   3   0  199.61   17.26
   0   3   0  155.40   16.10
  -1  -3   0  108.28   10.21
  -1  -3   0  104.27   10.98
  -1  -3   0  107.93   11.02
  -1  -3   0   90.74   11.23
  -1  -3   0  108.25   10.55
  -1  -3   0  103.03   10.25
   1   3   0  103.34   10.89
   1   3   0  104.07   10.30
   1   3   0   99.02    9.67
   1   3   0   96.62   11.24
   1   3   0  119.50   10.15
   1   3   0  106.61   11.30
  -2  -3   0   93.26   10.93
  -2  -3   0   81.13    9.14
  -2  -3   0   97.00   10.24
  -2  -3   0   87.68    9.56
  -2  -3   0   99.66   10.78
   2   3   0   91.73    8.67
   2   3   0   89.93    9.31
   2   3   0   88.50   10.46
   2   3   0   84.22    9.02
  -3  -3   0    6.46    2.74
  -3  -3   0   -0.49    2.67
  -3  -3   0    3.61    2.75
  -3  -3   0    5.89    3.69
  -3  -3   0   -0.79    2.63
  -3  -3   0    3.19    2.33
   3   3   0    3.98    3.67
   3   3   0    1.20    1.76
   3   3   0   -2.04    3.61
   3   3   0    5.59    2.70
   3   3   0   -1.09    1.81
  -4  -3   0   38.79    7.48
  -4  -3   0   44.48    9.30
  -4  -3   0   33.78    6.55
  -4  -3   0   24.77    7.17
  -4  -3   0   39.52    6.82
  -4  -3   0   25.26    5.78
   4   3   0   35.40    8.49
   4   3   0   31.91    5.08
  -5  -3   0    2.47    3.51
  -5  -3   0   -2.98    3.91
  -5  -3   0    1.19    3.39
  -5  -3   0   -1.69    3.09
  -5  -3   0    1.18    3.03
   5   3   0    0.90    4.94
  -6  -3   0   66.49   10.57
  -6  -3   0   65.79   13.03
  -6  -3   0   84.40   10.29
  -6  -3   0   52.22    9.82
  -6  -3   0   58.46   12.46
  -7  -3   0   -0.35    5.05
  -7  -3   0   -1.97    6.80
  -9   4   0    4.35    3.88
  -9   4   0    0.21    3.45
  -9   4   0    7.70    5.28
  -8   4   0    0.16    3.60
  -8   4   0    1.94    3.13
  -8   4   0    0.01    2.36
  -8   4   0    2.04    4.01
  -7   4   0   47.82    6.12
  -7   4   0   48.03    7.24
  -7   4   0   50.60    6.95
  -7   4   0   65.67    9.28
  -6   4   0   21.57    4.65
  -6   4   0   24.38    4.47
  -6   4   0   31.59    5.16
  -6   4   0   25.51    4.01
  -6   4   0   29.83    6.29
   5  -4   0  169.76   16.56
  -5   4   0  181.44   17.10
  -5   4   0  193.62   15.94
  -5   4   0  171.98   16.02
  -5   4   0  171.13   16.59
  -5   4   0  192.24   16.31
   4  -4   0    2.20    2.27
   4  -4   0    0.52    2.63
  -4   4   0   -0.54    2.08
  -4   4   0    1.41    1.90
  -4   4   0    1.45    1.67
  -4   4   0   -0.02    1.92
  -4   4   0    0.24    2.21
  -4   4   0    0.17    2.24
   3  -4   0    3.52    1.91
   3  -4   0   -1.96    1.73
   3  -4   0    1.24    1.47
   3  -4   0   -0.31    1.72
  -3   4   0   -0.81    1.78
  -3   4   0    5.71    2.24
  -3   4   0    5.11    2.32
  -3   4   0    0.98    1.62
  -3   4   0    1.61    2.11
   1  -4   0   38.45    5.43
   1  -4   0   38.11    5.63
   1  -4   0   43.97    6.40
   1  -4   0   45.99    5.72
   1  -4   0   42.21    5.88
   1  -4   0   26.07    6.02
  -1   4   0   44.50    5.52
  -1   4   0   43.11    6.38
  -1   4   0   44.91    5.87
  -1   4   0   43.85    5.38
  -1   4   0   33.29    6.84
  -1   4   0   41.24    5.66
   0  -4   0    7.17    2.88
   0  -4   0    5.54    2.66
   0  -4   0    1.18    2.89
   0  -4   0    1.82    2.05
   0  -4   0    4.34    3.00
   0   4   0    3.27    2.20
   0   4   0    7.10    2.60
   0   4   0    0.80    1.91
   0   4   0    4.39    3.23
   0   4   0    4.94    3.22
  -1  -4   0   33.01    6.25
  -1  -4   0   27.41    6.45
  -1  -4   0   31.19    6.77
  -1  -4   0   25.40    7.67
  -1  -4   0   24.83    5.38
   1   4   0   27.15    6.69
   1   4   0   36.50    6.72
   1   4   0   37.29    5.85
   1   4   0   42.85    6.08
  -2  -4   0   32.67    6.27
  -2  -4   0   39.88    9.86
  -2  -4   0   38.72    8.35
  -2  -4   0   39.74    7.93
  -2  -4   0   29.62    6.29
  -2  -4   0   31.25    6.69
   2   4   0   49.59    9.57
   2   4   0   51.95    8.29
   2   4   0   37.96    6.44
   2   4   0   54.60    8.06
   2   4   0   46.72    5.85
  -3  -4   0  133.08   15.52
   3   4   0  169.66   17.34
  -4  -4   0   41.67    9.79
  -4  -4   0   32.73    7.77
  -4  -4   0   42.68    8.53
  -4  -4   0   38.82    9.59
  -4  -4   0   32.77    7.67
   4   4   0   37.57    8.70
  -5  -4   0    4.14    4.69
  -5  -4   0   -1.58    4.61
  -5  -4   0   -0.82    5.65
  -5  -4   0    2.74    5.43
  -5  -4   0    4.03    3.28
   5   4   0   -3.93    6.67
  -6  -4   0   -2.69    4.18
  -6  -4   0    3.55    5.28
  -9   5   0   28.01    5.48
  -9   5   0   30.39    8.59
  -9   5   0   12.39    5.57
  -8   5   0   50.91    8.29
  -8   5   0   55.38    7.83
  -7   5   0   71.93   10.76
  -7   5   0   67.58    9.02
  -7   5   0   55.50    7.78
  -7   5   0   66.16    7.08
  -7   5   0   54.26    7.52
   6  -5   0    4.52    4.12
  -6   5   0    1.67    2.65
  -6   5   0    7.23    2.99
  -6   5   0   -1.20    3.48
  -6   5   0   13.13    3.87
  -6   5   0    4.11    3.35
   5  -5   0   13.81    3.96
   5  -5   0    3.07    4.68
  -5   5   0   12.71    3.52
  -5   5   0    5.50    4.22
  -5   5   0   15.57    4.55
  -5   5   0    9.24    3.89
  -5   5   0   14.19    3.96
  -5   5   0    7.71    3.64
   4  -5   0    7.25    3.46
   4  -5   0    9.15    3.05
   4  -5   0   11.19    3.17
  -4   5   0   10.50    3.41
  -4   5   0    8.04    3.11
  -4   5   0   15.23    4.03
  -4   5   0   15.77    5.24
  -4   5   0    8.32    3.82
   3  -5   0    7.98    2.87
   3  -5   0    6.40    2.87
   3  -5   0    4.22    2.85
  -3   5   0    6.94    2.66
  -3   5   0    8.00    2.96
  -3   5   0   11.11    3.47
  -3   5   0    7.77    3.52
   2  -5   0  128.44   14.51
   2  -5   0  136.54   13.51
   2  -5   0  170.75   15.27
   2  -5   0  133.01   13.70
  -2   5   0  137.12   13.95
  -2   5   0  159.58   15.41
  -2   5   0  155.44   15.84
  -2   5   0  147.55   13.79
  -2   5   0  119.51   13.14
   1  -5   0  160.90   18.86
   1  -5   0  204.37   18.86
   1  -5   0  182.26   17.52
   1  -5   0  174.13   17.35
   1  -5   0  169.83   17.50
   1  -5   0  177.47   17.61
  -1   5   0  208.30   17.49
  -1   5   0  188.70   19.32
  -1   5   0  193.38   17.54
  -1   5   0  200.39   18.03
  -1   5   0  198.41   17.65
   0  -5   0   49.01    8.32
   0  -5   0   47.59    7.09
   0  -5   0   45.31    7.79
   0  -5   0   46.04    6.63
   0  -5   0   64.62   12.66
   0  -5   0   60.14   10.40
   0   5   0   43.83    6.45
   0   5   0   38.98    7.55
   0   5   0   48.04    9.42
   0   5   0   49.42    7.27
   0   5   0   49.44    9.96
  -1  -5   0  123.17   13.24
  -1  -5   0  100.54   12.80
  -1  -5   0  145.23   13.18
  -1  -5   0  110.50   13.43
  -1  -5   0  109.43   14.72
  -1  -5   0  124.62   13.90
   1   5   0  146.82   13.51
   1   5   0  112.49   13.29
   1   5   0  103.68   14.80
   1   5   0  113.75   12.15
   1   5   0  107.88   14.18
  -2  -5   0   -0.90    7.37
  -2  -5   0    8.09    4.61
  -2  -5   0    9.09    5.00
   2   5   0   23.15    6.22
  -3  -5   0    6.64    4.15
  -3  -5   0    6.22    3.63
  -3  -5   0    5.79    4.71
  -3  -5   0   11.46    5.26
  -3  -5   0    9.89    5.63
   3   5   0    4.25    4.01
   3   5   0    5.68    5.25
   3   5   0    7.18    3.21
  -4  -5   0    1.09    3.59
  -4  -5   0    1.41    5.35
  -4  -5   0   -2.55    4.14
  -4  -5   0   -0.36    5.91
  -4  -5   0    5.29    4.95
   4   5   0    1.30    6.87
   4   5   0    4.91    4.42
  -5  -5   0    5.36    6.24
  -5  -5   0   13.73    8.42
  -5  -5   0    6.96    5.21
  -5  -5   0    7.14    6.07
   5   5   0   10.82    4.01
  -9   6   0   37.05    7.75
  -9   6   0   38.82    7.33
  -8   6   0    4.00    2.63
  -8   6   0   11.31    8.04
  -8   6   0   -8.56    5.90
  -8   6   0    0.89    3.14
  -8   6   0    3.70    3.52
   7  -6   0   16.67    7.33
  -7   6   0   31.14    9.60
  -7   6   0   47.03    7.39
  -7   6   0   34.90    6.77
  -7   6   0   28.75    7.26
  -7   6   0   31.79    6.76
   6  -6   0    3.06    4.87
  -6   6   0   -0.90    2.54
  -6   6   0    5.44    3.54
  -6   6   0    2.19    2.61
  -6   6   0   -5.83    3.32
   5  -6   0    5.57    2.01
   5  -6   0    3.61    5.12
   5  -6   0    5.07    2.32
  -5   6   0   -2.85    2.64
  -5   6   0    6.60    3.17
  -5   6   0    3.07    3.96
  -5   6   0    3.80    3.13
   4  -6   0   58.35    7.29
   4  -6   0   44.34    6.66
   4  -6   0   50.11    7.54
   4  -6   0   46.00   10.29
  -4   6   0   62.54    9.73
  -4   6   0   60.42   10.67
  -4   6   0   47.25    7.21
  -4   6   0   59.42    7.28
  -4   6   0   49.51    8.23
  -4   6   0   55.58    8.31
   3  -6   0   20.87    5.33
   3  -6   0   15.35    4.57
   3  -6   0   37.24    7.05
   3  -6   0    9.39    5.75
   3  -6   0   17.15    5.40
   3  -6   0   20.66    4.67
  -3   6   0   18.45    5.47
  -3   6   0   21.38    5.14
  -3   6   0   11.46    5.00
  -3   6   0   11.87    3.80
  -3   6   0   22.10    4.93
  -3   6   0   21.43    6.15
   2  -6   0   13.53    4.20
   2  -6   0   11.03    4.04
  -2   6   0    6.21    3.47
  -2   6   0   14.03    4.20
  -2   6   0    5.00    3.21
  -2   6   0    9.92    5.30
  -2   6   0   12.08    4.62
   1  -6   0    4.46    3.50
   1  -6   0    1.95    2.71
   1  -6   0    3.37    3.42
   1  -6   0   -2.44    3.57
   1  -6   0    4.15    3.67
  -1   6   0    4.51    5.51
  -1   6   0    2.60    2.94
  -1   6   0   -0.81    5.09
  -1   6   0    3.93    3.40
  -1   6   0    5.61    4.14
   0  -6   0   47.86    8.60
   0  -6   0   87.87   15.87
   0  -6   0   63.82   12.01
   0  -6   0   61.86    9.17
   0  -6   0   57.32    8.78
   0   6   0   64.58   10.38
   0   6   0   52.61   12.38
   0   6   0   47.65    8.89
   0   6   0   46.58   11.13
  -1  -6   0   25.31    7.20
  -1  -6   0   30.34    9.92
   1   6   0   48.77   10.55
  -2  -6   0    7.63    5.24
  -2  -6   0    2.39    4.45
  -2  -6   0    1.10    3.11
   2   6   0    6.10    4.26
   2   6   0    2.44    5.14
  -3  -6   0    6.18    5.20
  -3  -6   0   21.81    6.38
  -3  -6   0    9.72    6.20
  -3  -6   0   24.30    8.12
  -3  -6   0    9.65    8.06
   3   6   0   23.56    6.40
   3   6   0   20.11    7.87
  -4  -6   0   47.34   11.48
  -4  -6   0   47.92   12.27
  -4  -6   0   36.52   11.07
  -4  -6   0   17.97    6.99
   4   6   0   44.85   12.39
   4   6   0   35.91    8.57
  -9   7   0   -1.00    2.50
  -9   7   0    6.11    4.46
   8  -7   0   28.10   12.66
  -8   7   0    2.46    6.26
  -8   7   0    6.33    4.28
  -8   7   0    0.14    3.29
   7  -7   0   33.90    9.44
  -7   7   0   61.63    9.69
  -7   7   0   43.58    8.52
  -7   7   0   34.56    7.86
  -7   7   0   54.02    9.11
   6  -7   0   28.72    8.41
  -6   7   0   37.58    7.31
  -6   7   0   37.62    7.04
  -6   7   0   40.48   16.36
  -6   7   0   30.25    7.31
   5  -7   0   24.58    5.60
   5  -7   0   23.87    4.66
   5  -7   0    9.42    6.05
  -5   7   0   20.11    7.44
  -5   7   0   22.72    5.98
  -5   7   0   42.99    7.43
  -5   7   0   24.19    5.45
   4  -7   0    5.58    6.57
   4  -7   0    3.93    4.29
   4  -7   0    6.20    4.95
   4  -7   0    2.88    2.92
  -4   7   0    7.26    5.49
  -4   7   0    3.58    3.20
  -4   7   0   -0.76    2.97
  -4   7   0    1.47    2.88
   3  -7   0    1.59    3.64
   3  -7   0   10.71    3.79
   3  -7   0   10.46    3.97
   3  -7   0   -3.85    2.99
   3  -7   0    8.38    5.07
  -3   7   0    2.62    4.88
  -3   7   0    0.60    2.76
  -3   7   0   -1.61    2.87
   2  -7   0   40.64    8.80
   2  -7   0   26.37    6.63
   2  -7   0   46.69    9.05
  -2   7   0   27.81    6.41
  -2   7   0   32.65    9.83
  -2   7   0   32.95    6.91
  -2   7   0   28.96    8.40
   1  -7   0   23.03    8.73
   1  -7   0   13.68    6.12
   1  -7   0   19.66    6.91
   1  -7   0   24.68    6.33
   1  -7   0   16.86    6.34
  -1   7   0   20.90    6.05
  -1   7   0   21.86    6.00
  -1   7   0   21.95    7.11
  -1   7   0   38.92   11.44
   0  -7   0    7.02    4.09
   0  -7   0    7.39    6.52
   0  -7   0    1.91    5.86
   0   7   0    8.56    5.37
   0   7   0    2.13    3.80
  -1  -7   0   37.18    8.61
  -1  -7   0   74.10   14.23
  -1  -7   0   59.09   11.15
  -1  -7   0   61.70   22.24
   1   7   0   43.81   11.18
   1   7   0   78.99   15.33
  -2  -7   0   81.51   13.78
  -2  -7   0  102.69   16.93
  -2  -7   0   75.69   14.15
  -2  -7   0  142.98   16.10
   2   7   0  120.45   14.48
  -3  -7   0   12.99    7.85
  -3  -7   0    6.08    6.24
  -3  -7   0   21.98    8.69
   3   7   0   33.45   12.91
   3   7   0   19.42    8.37
  -9   8   0   46.43    9.11
  -8   8   0   -6.80    5.88
  -8   8   0   14.25    5.22
   7  -8   0    9.28    8.04
  -7   8   0    4.87    6.93
  -7   8   0    8.88    5.34
  -7   8   0    4.08    5.12
  -7   8   0    2.97    5.52
   6  -8   0   15.70    4.06
  -6   8   0   25.02    6.74
  -6   8   0   17.57    6.10
  -6   8   0   11.31    4.92
  -6   8   0   17.23    7.59
   5  -8   0    0.24    3.33
   5  -8   0    9.96    4.74
   5  -8   0    0.44    6.65
  -5   8   0    5.05    6.86
  -5   8   0    3.33    4.55
  -5   8   0    5.38    4.06
  -5   8   0    2.87    4.35
   4  -8   0   43.83    9.20
   4  -8   0   23.42    6.43
   4  -8   0   10.05    7.50
  -4   8   0   22.03   13.04
  -4   8   0   21.11    5.56
  -4   8   0   24.80    8.60
   3  -8   0  137.81   15.33
  -3   8   0  100.70   17.27
   2  -8   0   13.77    9.63
   2  -8   0   18.90    5.75
  -2   8   0    7.93    4.80
  -2   8   0   18.62   10.04
  -2   8   0   14.18    6.42
  -2   8   0    3.37    4.50
   1  -8   0  207.94   19.97
   1  -8   0  151.38   18.28
   1  -8   0  146.18   18.65
  -1   8   0  179.00   19.04
   0  -8   0   66.98   12.99
   0  -8   0   61.68   12.19
   0  -8   0   95.90   13.26
   0   8   0   92.90   17.05
   0   8   0  111.63   14.27
  -1  -8   0   54.15   12.67
  -1  -8   0   55.70   11.36
  -1  -8   0   62.89   12.60
   1   8   0   80.54   15.97
   1   8   0   80.78   13.54
  -2  -8   0   14.65    7.23
   2   8   0    9.04    7.38
   2   8   0    3.37   10.41
  -8   9   0   -2.65    5.24
  -8   9   0   10.33    5.49
   7  -9   0    4.55   14.96
  -7   9   0   -3.26   11.73
  -7   9   0    3.42    5.23
  -7   9   0   -0.79    4.43
   6  -9   0    6.33    5.33
   6  -9   0   14.72    5.47
   6  -9   0    7.81   10.14
  -6   9   0    3.25    5.62
  -6   9   0   10.70    8.78
  -6   9   0    5.65    5.18
  -6   9   0   11.27    6.57
   5  -9   0   66.01   10.57
   5  -9   0   68.52   11.82
   5  -9   0   67.51   15.36
  -5   9   0   77.34   13.02
  -5   9   0   66.72   15.63
  -5   9   0   75.90   12.94
  -5   9   0  100.34   17.72
   4  -9   0    9.72    5.56
   4  -9   0   14.59    9.35
  -4   9   0   18.23    6.05
  -4   9   0   16.51    7.72
  -4   9   0   17.65    6.42
  -4   9   0   17.12   10.26
   3  -9   0  236.06   32.59
   3  -9   0  325.26   28.75
   3  -9   0  312.21   29.09
   3  -9   0  247.19   27.17
  -3   9   0  318.07   35.58
  -3   9   0  273.49   29.83
  -3   9   0  302.62   28.80
   2  -9   0   17.31    8.32
   2  -9   0    3.61    5.54
   2  -9   0    6.57    6.99
   2  -9   0   -2.93    9.22
  -2   9   0   14.63    7.01
  -2   9   0   29.90    9.93
   1  -9   0   59.79   12.35
   1  -9   0   77.81   14.87
   1  -9   0   69.70   14.25
  -1   9   0  100.02   22.29
  -1   9   0   71.54   13.35
   0  -9   0  131.07   17.96
   0  -9   0  139.14   19.33
   0  -9   0  163.88   18.71
   0   9   0  105.38   18.52
   0   9   0  158.80   25.61
  -1  -9   0    2.60    6.92
  -1  -9   0   -1.43    7.55
  -1  -9   0    0.52    7.42
   1   9   0    0.42   10.59
   1   9   0    0.61    7.55
  -7  10   0   37.76    9.69
  -7  10   0   64.83   12.86
   6 -10   0   35.67    9.59
   6 -10   0   10.82   21.57
  -6  10   0   43.55   10.07
   5 -10   0   41.24    9.22
   5 -10   0   28.00    9.78
   5 -10   0   35.85   15.27
  -5  10   0   55.98   13.88
  -5  10   0   54.48   11.79
   4 -10   0   21.68    7.74
   4 -10   0   25.79   12.15
   4 -10   0   57.04   12.98
  -4  10   0   34.79   10.00
  -4  10   0   23.86    9.26
   3 -10   0    9.24   12.40
   3 -10   0   12.77    6.62
   3 -10   0    6.11    7.98
   3 -10   0   15.22    8.88
  -3  10   0   12.52    7.97
  -3  10   0   28.61   11.50
   2 -10   0   11.25    8.95
   2 -10   0   21.48    8.24
  -2  10   0   15.59    9.44
  -2  10   0   21.54   15.51
   1 -10   0   86.58   16.39
   1 -10   0   91.69   21.39
   1 -10   0   88.88   17.42
   1 -10   0  106.63   18.42
  -1  10   0  122.42   17.91
  -1  10   0  139.28   22.34
  -1  10  -1   15.48    9.00
  -1  10  -1    5.93    9.15
   1 -10   1    5.38    6.96
   1 -10   1  -12.46   12.03
   1 -10   1    7.80    8.70
   1 -10   1   18.79    9.18
  -2  10  -1   28.47   10.60
   2 -10   1   27.83   10.76
   2 -10   1   32.43    9.59
  -3  10  -1    5.38    7.10
  -3  10  -1    5.62    7.58
   3 -10   1   -7.28   10.48
   3 -10   1    8.47    8.73
   3 -10   1   14.92    8.75
  -4  10  -1   18.24    7.63
  -4  10  -1   16.26    8.39
   4 -10   1   14.98    6.66
   4 -10   1   13.56    9.28
   4 -10   1    8.34   10.27
  -5  10  -1   14.21    7.26
  -5  10  -1    4.94    6.58
   5 -10   1   12.31    6.19
   5 -10   1    7.09   12.35
   5 -10   1    1.61    7.81
  -6  10  -1    5.04    6.93
   6 -10   1    1.33   15.65
   6 -10   1    3.72    6.54
  -7  10  -1   29.90    9.42
  -7  10  -1   28.70    8.44
   1   9  -1   12.94   11.50
   1   9  -1   26.64    9.97
  -1  -9   1    4.79    7.21
  -1  -9   1   76.43   20.60
  -1  -9   1   23.95    9.76
  -1  -9   1   24.76    7.92
   0   9  -1   12.96    9.61
   0   9  -1    9.92    8.02
   0  -9   1   16.35    7.35
   0  -9   1    9.77    6.91
   0  -9   1   22.23   15.58
   0  -9   1   10.22    6.50
  -1   9  -1    5.42    7.61
  -1   9  -1   -1.00    5.71
   1  -9   1   -0.02    6.22
   1  -9   1   -0.85    9.94
   1  -9   1    7.00    5.76
   1  -9   1   11.96    6.17
  -2   9  -1   10.22    6.30
  -2   9  -1   10.56    7.56
   2  -9   1    7.41    5.25
   2  -9   1   17.92    6.26
   2  -9   1   14.61    6.20
   2  -9   1   37.99    9.49
  -3   9  -1    4.93    5.69
  -3   9  -1    5.50    5.25
  -3   9  -1    4.27   10.16
   3  -9   1    5.79    4.75
   3  -9   1    4.75    5.69
   3  -9   1   -7.25    5.39
   3  -9   1    7.93    9.04
  -4   9  -1   76.18   13.85
  -4   9  -1   79.17   16.24
  -4   9  -1   92.15   14.91
  -4   9  -1  101.42   13.38
   4  -9   1   88.42   12.45
   4  -9   1   82.83   18.33
  -5   9  -1    7.03    5.49
  -5   9  -1    1.18    9.05
  -5   9  -1    8.16    5.77
  -5   9  -1    1.08    4.56
   5  -9   1    4.44    5.17
   5  -9   1    1.46    5.63
   5  -9   1    9.26    8.75
  -6   9  -1   16.68    6.78
  -6   9  -1   18.58   10.46
  -6   9  -1   18.31    7.09
  -6   9  -1   24.40    7.88
   6  -9   1   17.02    6.10
   6  -9   1   26.58   10.99
   6  -9   1   21.54    6.87
  -7   9  -1   19.00    6.51
  -7   9  -1   -0.75    4.90
   7  -9   1    1.57   15.91
  -8   9  -1    2.45    5.06
  -8   9  -1   -0.58    5.15
   2   8  -1    4.33    7.18
   2   8  -1   -6.97    8.53
  -2  -8   1   -3.63    6.61
  -2  -8   1   -7.18    5.09
   1   8  -1   11.45    7.70
   1   8  -1   10.11    6.04
  -1  -8   1    2.49    5.13
  -1  -8   1    6.61    8.38
  -1  -8   1    3.07    5.36
  -1  -8   1   -1.21    4.91
   0   8  -1    5.73    5.34
   0   8  -1    9.23    7.10
   0  -8   1   -1.40    4.18
   0  -8   1    5.25    5.21
   0  -8   1    5.08    4.39
  -1   8  -1  152.72   21.38
   1  -8   1  184.13   20.35
   1  -8   1  238.37   26.97
  -2   8  -1   70.52   14.33
  -2   8  -1   31.32    8.90
  -2   8  -1   44.10    9.55
   2  -8   1   38.40    9.85
   2  -8   1   34.79    8.27
   2  -8   1   30.40   13.51
  -4   8  -1   25.99   10.13
   4  -8   1    7.74    4.49
   4  -8   1   11.18    6.16
   4  -8   1    5.33    7.69
  -5   8  -1    7.12    4.45
  -5   8  -1   -5.77    6.95
  -5   8  -1    2.26    4.94
   5  -8   1   -0.39    6.92
   5  -8   1    1.39    3.74
   5  -8   1   11.39    8.19
   5  -8   1    7.28    5.18
  -6   8  -1   -2.32    3.54
  -6   8  -1   -6.59    6.87
   6  -8   1   -2.79    4.13
   6  -8   1    3.06    3.53
  -7   8  -1    5.11    7.34
  -7   8  -1   14.31    6.14
  -7   8  -1    4.73    4.61
   7  -8   1   11.58    8.73
  -8   8  -1    5.71    4.54
  -8   8  -1    1.05    6.43
  -8   8  -1    7.54    4.89
   3   7  -1   42.39   13.14
   3   7  -1   54.86   11.47
  -3  -7   1   36.66    9.33
  -3  -7   1   45.10   11.69
  -3  -7   1   57.62   11.93
   2   7  -1    1.98    4.87
   2   7  -1    6.06    9.95
  -2  -7   1    7.34    5.96
  -2  -7   1    3.26    5.42
  -2  -7   1    6.94    7.64
  -2  -7   1   -2.05    7.15
   1   7  -1  118.37   18.93
  -1  -7   1  137.54   17.17
  -1  -7   1  110.60   26.40
  -1  -7   1  159.26   17.22
  -1  -7   1  189.03   19.99
   0   7  -1   86.04   14.20
   0   7  -1   75.25   11.51
   0  -7   1   98.70   12.68
  -1   7  -1    8.40    4.45
  -1   7  -1   21.71    6.89
  -1   7  -1    8.41    4.54
  -1   7  -1    7.81    4.87
   1  -7   1   -0.03    3.83
   1  -7   1    4.92    3.92
   1  -7   1    2.54    3.98
   1  -7   1    5.45    5.39
  -2   7  -1   96.26   17.40
  -2   7  -1   72.69   10.62
  -2   7  -1   97.88   16.06
   2  -7   1   74.65   11.19
   2  -7   1   76.00   10.47
   2  -7   1   82.58   19.15
   2  -7   1   79.25   11.34
   2  -7   1   97.47   16.50
  -3   7  -1    5.18    3.56
  -3   7  -1    1.40    5.29
  -3   7  -1    8.07    3.93
  -3   7  -1    2.78    3.48
   3  -7   1    6.29    5.06
   3  -7   1    4.15    4.31
   3  -7   1    5.33    5.26
   3  -7   1    1.10    3.81
   3  -7   1    1.68    3.49
  -4   7  -1   -0.39    5.21
  -4   7  -1   -2.00    2.92
  -4   7  -1   -2.12    3.06
  -4   7  -1    1.92    3.11
   4  -7   1    2.73    6.35
   4  -7   1   -2.08    3.61
   4  -7   1   -4.70    2.34
  -5   7  -1   61.15    9.72
  -5   7  -1   56.24   11.63
  -5   7  -1   67.39   10.60
  -5   7  -1   50.98    8.43
   5  -7   1   56.00    7.33
  -6   7  -1    4.66    3.64
  -6   7  -1   -4.33    4.01
  -6   7  -1   -0.96    8.54
  -6   7  -1   -1.41    3.14
   6  -7   1    8.97    6.36
  -7   7  -1   63.66    9.58
  -7   7  -1   62.42   10.00
  -7   7  -1   63.97   10.96
  -7   7  -1   89.09   12.81
   7  -7   1  121.84   21.55
  -8   7  -1    0.22    4.06
  -8   7  -1    0.28    3.11
  -8   7  -1    2.12    5.20
  -9   7  -1    4.61    2.98
  -9   7  -1   12.72    5.15
  -9   7  -1    2.42    4.32
   4   6  -1   26.94   11.17
   4   6  -1    5.48    5.57
  -4  -6   1   12.58    5.62
  -4  -6   1   15.95    7.57
  -4  -6   1    4.59    6.04
   3   6  -1   16.47    5.40
   3   6  -1   12.37    8.48
  -3  -6   1    3.99    5.27
  -3  -6   1    6.05    5.08
  -3  -6   1    3.48    5.13
  -3  -6   1    5.58    5.17
   2   6  -1   24.44    6.85
   2   6  -1   34.84    9.68
  -2  -6   1   42.54    8.13
  -2  -6   1   57.62   13.14
  -2  -6   1   51.61   10.83
   1   6  -1    2.34    3.58
   1   6  -1    2.46    3.95
  -1  -6   1    0.50    3.73
  -1  -6   1   -1.70    2.85
  -1  -6   1   -5.74    4.77
  -1  -6   1    0.10    3.26
  -1  -6   1   -1.13    3.36
   0   6  -1  110.97   13.27
   0   6  -1   94.33   15.63
   0   6  -1  113.17   12.81
   0  -6   1  101.32   15.10
   0  -6   1  127.12   13.72
   0  -6   1  106.72   12.86
   0  -6   1   92.19   13.63
   0  -6   1  122.57   12.90
  -1   6  -1    2.68    4.10
  -1   6  -1    3.05    3.33
  -1   6  -1   -3.77    2.99
  -1   6  -1    6.67    3.27
  -1   6  -1    8.03    3.96
  -1   6  -1    2.64    2.70
   1  -6   1   -1.06    2.39
   1  -6   1   -3.31    2.21
   1  -6   1    3.68    3.55
   1  -6   1    4.27    3.32
  -2   6  -1   51.51    7.59
  -2   6  -1   46.45    8.53
  -2   6  -1   74.86    8.93
  -2   6  -1   33.79    7.18
  -2   6  -1   69.29    9.88
   2  -6   1   59.76    8.38
   2  -6   1   46.57    9.32
   2  -6   1   47.47    8.61
   2  -6   1   34.12   12.53
  -3   6  -1   81.06    9.98
  -3   6  -1   71.49    8.94
  -3   6  -1   64.33    8.77
  -3   6  -1   62.59    9.35
   3  -6   1   56.28    8.70
   3  -6   1   96.36    9.44
   3  -6   1   82.65   10.95
  -4   6  -1  100.61   13.14
  -4   6  -1   84.18   11.36
  -4   6  -1  106.00   11.76
  -4   6  -1   94.98   10.72
  -4   6  -1   90.47   10.72
  -4   6  -1   89.17   11.29
   4  -6   1   86.79   14.92
   4  -6   1   85.22   12.80
   4  -6   1   98.10    9.92
   4  -6   1   96.73   10.91
  -5   6  -1   27.98    8.14
  -5   6  -1   28.51    6.97
  -5   6  -1   26.37    5.71
  -5   6  -1   30.51    7.12
  -5   6  -1   20.21    5.44
   5  -6   1   21.00    4.21
   5  -6   1   27.43    4.42
   5  -6   1   26.38    7.86
  -6   6  -1    9.40    3.80
  -6   6  -1   14.23    5.82
  -6   6  -1   -2.22    4.04
  -6   6  -1   11.80    4.65
  -6   6  -1    7.10    4.96
   6  -6   1    7.16    5.47
  -7   6  -1   55.41    7.50
  -7   6  -1   52.89    7.47
  -7   6  -1   47.27    9.86
  -7   6  -1   53.76    9.38
  -7   6  -1   40.30    8.85
   7  -6   1   44.81    9.56
  -8   6  -1    4.57    3.67
  -8   6  -1    4.03    2.79
  -8   6  -1    4.91    4.00
  -8   6  -1   10.85    6.59
  -9   6  -1   39.06    7.50
  -9   6  -1   43.90    8.06
   5   5  -1    2.48   11.55
  -5  -5   1   14.00    6.32
  -5  -5   1   12.12    5.60
  -5  -5   1   12.02    7.47
   4   5  -1   25.97    9.29
   4   5  -1   14.76    5.36
  -4  -5   1   22.54    7.29
  -4  -5   1   10.69    8.07
  -4  -5   1   17.13    7.01
  -4  -5   1   12.75    6.71
  -4  -5   1   20.36    6.08
   3   5  -1   17.55    6.46
   3   5  -1   23.32    5.02
  -3  -5   1   10.91    5.00
  -3  -5   1   23.27    5.80
   2   5  -1    7.71    3.79
   2   5  -1    9.93    4.69
   2   5  -1    7.48    3.88
  -2  -5   1    3.74    3.66
  -2  -5   1    4.72    3.95
  -2  -5   1    7.32    4.15
  -2  -5   1   13.81    5.13
  -2  -5   1    9.47    5.48
   1   5  -1   16.73    6.21
   1   5  -1    8.88    3.26
   1   5  -1   25.29    8.36
   1   5  -1   12.94    3.58
   1   5  -1    7.38    3.78
   1   5  -1    6.01    3.66
  -1  -5   1    8.81    3.83
  -1  -5   1    5.17    4.22
  -1  -5   1    5.19    3.13
  -1  -5   1    8.82    4.24
  -1  -5   1   13.21    5.98
  -1  -5   1   13.52    4.91
   0   5  -1  564.77   46.44
   0   5  -1  537.13   47.57
   0   5  -1  498.45   46.92
   0   5  -1  469.77   45.28
   0   5  -1  537.63   45.90
   0  -5   1  529.89   46.59
   0  -5   1  605.02   46.42
   0  -5   1  619.88   49.31
   0  -5   1  651.40   47.29
   0  -5   1  454.90   46.25
   0  -5   1  616.56   46.17
  -1   5  -1   36.10    6.55
  -1   5  -1   32.31    6.23
  -1   5  -1   24.66    5.54
  -1   5  -1   29.08    5.58
   1  -5   1   36.59    6.45
   1  -5   1   32.43    6.37
   1  -5   1   28.64    6.42
   1  -5   1   27.16    5.48
   1  -5   1   28.67    5.68
  -2   5  -1  396.88   34.13
  -2   5  -1  397.90   33.90
  -2   5  -1  393.16   35.32
  -2   5  -1  402.48   34.09
   2  -5   1  413.16   33.83
   2  -5   1  402.45   34.29
   2  -5   1  436.32   34.81
   2  -5   1  371.99   34.59
  -3   5  -1  108.93   11.83
  -3   5  -1   81.77    9.76
  -3   5  -1   94.07    9.95
  -3   5  -1   77.42    9.53
  -3   5  -1   78.02    9.81
  -3   5  -1  117.96   11.43
   3  -5   1   78.87    9.64
   3  -5   1   96.06    9.46
   3  -5   1   90.72   10.80
  -4   5  -1   -3.63    1.92
  -4   5  -1    0.74    2.35
  -4   5  -1   -0.03    2.65
  -4   5  -1    1.90    3.15
   4  -5   1    2.60    2.27
   4  -5   1   -1.81    2.69
  -5   5  -1  227.48   21.12
  -5   5  -1  233.21   20.35
  -5   5  -1  244.87   20.38
  -5   5  -1  209.64   20.42
  -5   5  -1  212.30   20.82
   5  -5   1  218.42   21.39
   5  -5   1  178.20   20.10
  -6   5  -1   64.37    8.83
  -6   5  -1   62.57    9.14
  -6   5  -1   74.10    9.57
  -6   5  -1   59.07    7.88
  -7   5  -1   72.17    8.65
  -7   5  -1   71.56    7.75
  -7   5  -1   58.38    9.32
  -7   5  -1   75.44   10.69
  -7   5  -1   66.33    8.82
  -8   5  -1   10.05    6.02
  -8   5  -1   14.28    4.35
  -8   5  -1   19.42    4.93
  -9   5  -1    7.47    4.18
  -9   5  -1    3.64    4.35
  -6  -4   1    0.85    4.28
  -6  -4   1   -3.20    5.71
  -6  -4   1   -5.84    4.60
   5   4  -1   12.29    7.80
  -5  -4   1    5.22    3.95
  -5  -4   1    6.49    5.13
  -5  -4   1    9.39    5.82
  -5  -4   1    3.26    4.91
   4   4  -1    6.41    3.32
  -4  -4   1    4.57    3.18
  -4  -4   1    8.06    4.42
  -4  -4   1    9.34    6.26
  -4  -4   1    5.03    3.64
  -4  -4   1    4.73    4.04
   3   4  -1  108.95   11.55
   3   4  -1  106.04   10.61
   3   4  -1  112.92   13.70
  -3  -4   1   92.53   11.68
  -3  -4   1  117.34   12.98
  -3  -4   1  122.18   12.91
  -3  -4   1  112.65   11.87
  -3  -4   1  123.25   14.21
  -3  -4   1   87.83   13.44
   2   4  -1  120.06   13.66
   2   4  -1  122.49   12.10
   2   4  -1  122.68   11.71
   2   4  -1  124.42   13.91
   2   4  -1  119.66   14.32
   2   4  -1  122.82   12.36
  -2  -4   1  131.12   12.56
  -2  -4   1  116.18   12.54
  -2  -4   1  120.78   13.69
  -2  -4   1  110.09   12.94
  -2  -4   1  108.32   14.03
  -2  -4   1  131.77   17.33
   1   4  -1  446.17   37.76
   1   4  -1  469.56   38.53
   1   4  -1  477.96   39.41
   1   4  -1  428.93   39.56
   1   4  -1  489.77   37.90
   1   4  -1  474.16   39.84
  -1  -4   1  464.08   39.39
  -1  -4   1  447.41   39.43
  -1  -4   1  486.67   38.86
  -1  -4   1  467.05   38.69
  -1  -4   1  417.48   39.99
  -1  -4   1  454.33   38.19
   0   4  -1    3.38    2.30
   0   4  -1    3.68    2.23
   0   4  -1    8.13    4.25
   0   4  -1    3.14    2.17
   0   4  -1    6.00    2.63
   0   4  -1    1.91    2.58
   0  -4   1    3.08    2.06
   0  -4   1    4.94    2.44
   0  -4   1    5.07    3.37
  -1   4  -1  540.97   44.64
  -1   4  -1  561.82   44.85
  -1   4  -1  556.03   44.90
  -1   4  -1  553.29   44.44
  -1   4  -1  488.58   45.72
  -1   4  -1  534.05   45.59
   1  -4   1  552.15   45.50
   1  -4   1  581.35   44.82
   1  -4   1  554.78   44.88
   1  -4   1  531.58   44.65
   1  -4   1  558.59   45.11
  -2   4  -1  934.08   76.95
  -2   4  -1  947.58   76.19
  -2   4  -1  950.62   76.23
  -2   4  -1 1091.80   76.58
  -2   4  -1  848.48   77.08
   2  -4   1  923.13   76.38
   2  -4   1  908.25   76.70
   2  -4   1  897.69   75.76
   2  -4   1 1124.01   76.68
  -3   4  -1  456.60   37.66
  -3   4  -1  454.60   38.75
  -3   4  -1  423.63   37.70
  -3   4  -1  442.24   37.37
  -3   4  -1  432.57   38.12
   3  -4   1  452.29   39.24
   3  -4   1  480.36   37.82
   3  -4   1  494.56   38.15
   3  -4   1  464.68   37.38
  -4   4  -1  495.05   39.49
  -4   4  -1  471.13   39.92
  -4   4  -1  485.86   40.30
  -4   4  -1  484.71   39.80
   4  -4   1  430.52   40.64
   4  -4   1  472.80   39.84
   4  -4   1  510.20   38.20
   4  -4   1  503.81   38.01
  -5   4  -1   76.58    9.93
  -5   4  -1   77.62    9.93
  -5   4  -1   96.47    9.16
  -5   4  -1   90.43    9.30
  -5   4  -1   80.01    8.65
   5  -4   1   74.03    9.85
   5  -4   1   93.05    9.29
  -6   4  -1   -0.13    2.77
  -6   4  -1    0.02    1.79
  -6   4  -1    7.32    3.36
  -6   4  -1    1.49    1.76
  -6   4  -1   -2.11    3.02
   6  -4   1    2.47    2.78
   6  -4   1   -0.35    2.63
  -7   4  -1    6.63    3.67
  -7   4  -1    2.77    3.11
  -7   4  -1    4.93    2.16
  -7   4  -1    5.16    2.82
  -8   4  -1   28.75    6.03
  -8   4  -1   18.41    5.70
  -9   4  -1   -2.91    4.91
  -9   4  -1    0.58    3.83
  -9   4  -1    1.56    3.41
  -7  -3   1   -2.10    8.04
  -7  -3   1    0.25    4.55
  -7  -3   1    2.69    5.65
  -7  -3   1    0.09    4.84
  -7  -3   1    0.17    8.40
   6   3  -1   17.08    7.65
  -6  -3   1    5.84    4.15
  -6  -3   1    9.76    4.57
  -6  -3   1   13.75    5.30
  -6  -3   1    7.77    5.58
   5   3  -1  308.22   29.02
  -5  -3   1  306.17   30.76
  -5  -3   1  339.28   28.26
  -5  -3   1  304.07   27.58
  -5  -3   1  288.25   29.31
   4   3  -1   18.13    3.10
   4   3  -1   22.07    3.60
   4   3  -1   17.62    5.56
  -4  -3   1   26.70    6.03
  -4  -3   1   14.65    5.34
  -4  -3   1    9.37    5.06
  -4  -3   1   17.83    5.25
  -4  -3   1   15.41    4.48
  -4  -3   1   19.42    4.90
   3   3  -1  835.81   60.99
   3   3  -1  800.19   60.26
   3   3  -1  888.18   64.04
  -3  -3   1  718.06   61.77
  -3  -3   1  701.84   63.51
  -3  -3   1  669.01   61.29
  -3  -3   1  702.62   61.47
  -3  -3   1  786.46   62.38
   2   3  -1  179.55   16.05
   2   3  -1  201.79   18.13
   2   3  -1  188.62   18.01
   2   3  -1  216.35   16.96
   2   3  -1  191.13   16.56
  -2  -3   1  211.41   17.96
  -2  -3   1  170.87   16.55
  -2  -3   1  180.16   18.29
  -2  -3   1  172.09   16.79
  -2  -3   1  175.01   16.98
  -2  -3   1  173.95   18.08
   1   3  -1  265.21   22.19
   1   3  -1  254.58   22.16
   1   3  -1  278.89   22.77
   1   3  -1  286.49   23.66
   1   3  -1  252.47   23.75
   1   3  -1  253.87   23.50
  -1  -3   1  252.02   22.38
  -1  -3   1  275.18   23.68
  -1  -3   1  268.88   23.50
  -1  -3   1  283.02   22.90
  -1  -3   1  224.56   23.62
  -1  -3   1  290.10   23.03
   0   3  -1 1393.03  124.17
   0   3  -1 1693.79  124.97
   0   3  -1 1422.91  124.93
   0   3  -1 1530.01  124.18
   0   3  -1 1578.31  124.00
   0   3  -1 1612.79  125.73
   0  -3   1 1644.68  124.56
   0  -3   1 1689.76  125.93
   0  -3   1 1393.87  124.20
   0  -3   1 1732.20  124.43
   0  -3   1 1795.58  125.21
  -1   3  -1   42.45    5.25
  -1   3  -1   49.48    5.49
  -1   3  -1   48.45    5.34
  -1   3  -1   34.71    5.66
  -1   3  -1   43.07    5.19
  -1   3  -1   37.41    5.57
   1  -3   1   42.26    5.28
   1  -3   1   44.53    5.50
   1  -3   1   39.68    5.29
   1  -3   1   51.34    5.85
  -2   3  -1   81.66    9.25
  -2   3  -1   81.81    8.36
  -2   3  -1   99.64    8.92
  -2   3  -1   73.39    8.01
   2  -3   1   87.77    8.51
   2  -3   1   86.19    8.00
   2  -3   1   81.75    8.65
  -3   3  -1    2.66    1.92
  -3   3  -1    1.19    1.57
  -3   3  -1    4.03    1.76
  -3   3  -1    4.18    2.01
   3  -3   1    3.41    2.03
   3  -3   1    4.60    2.91
   3  -3   1    3.09    1.23
   3  -3   1    3.55    1.66
  -4   3  -1  168.43   16.94
  -4   3  -1  189.60   15.96
  -4   3  -1  182.19   15.79
  -4   3  -1  186.57   15.57
  -4   3  -1  183.33   16.82
   4  -3   1  171.74   16.44
   4  -3   1  180.87   15.89
  -5   3  -1    5.47    1.87
  -5   3  -1    4.48    2.06
  -5   3  -1    7.63    2.69
  -5   3  -1    7.14    3.02
   5  -3   1    3.90    2.33
  -6   3  -1   28.27    4.15
  -6   3  -1   30.97    5.50
  -6   3  -1   28.93    4.95
  -6   3  -1   23.14    4.98
  -6   3  -1   35.65    4.30
  -7   3  -1    0.48    2.69
  -7   3  -1   -0.91    1.98
  -7   3  -1   -6.27    2.75
  -8   3  -1   88.49   10.00
  -8   3  -1   82.52    8.76
  -8   3  -1   71.48   11.49
  -8   3  -1   72.56    9.81
  -9   3  -1   19.51    5.26
  -9   3  -1   15.12    6.70
   7   2  -1   89.04   13.94
  -7  -2   1   91.76   11.00
  -7  -2   1   97.37   14.99
  -7  -2   1   93.47   11.85
   6   2  -1   93.37   12.03
  -6  -2   1   88.78   10.22
  -6  -2   1   79.17   10.41
  -6  -2   1   92.18   13.19
  -6  -2   1   86.13   10.61
  -6  -2   1   96.67   11.69
   5   2  -1   30.94    6.55
  -5  -2   1   24.72    5.29
  -5  -2   1   35.70    8.04
  -5  -2   1   28.52    5.97
  -5  -2   1   37.42    6.09
  -5  -2   1   39.48    7.69
  -5  -2   1   33.32    6.06
   4   2  -1  171.22   15.95
   4   2  -1  153.51   15.60
   4   2  -1  138.18   14.53
  -4  -2   1  159.52   15.07
  -4  -2   1  166.23   15.34
  -4  -2   1  170.78   15.27
  -4  -2   1  151.57   16.17
  -4  -2   1  168.73   17.28
  -4  -2   1  176.36   15.35
   3   2  -1  201.84   16.53
   3   2  -1  194.66   18.08
   3   2  -1  194.43   17.12
   3   2  -1  199.01   18.03
  -3  -2   1  189.03   17.42
  -3  -2   1  212.62   17.96
  -3  -2   1  204.65   17.18
  -3  -2   1  208.72   19.36
  -3  -2   1  172.50   18.29
  -3  -2   1  193.72   17.32
   2   2  -1  270.48   23.53
   2   2  -1  271.09   23.89
   2   2  -1  239.67   23.65
   2   2  -1  287.06   22.56
   2   2  -1  287.73   22.62
   2   2  -1  268.86   22.02
  -2  -2   1  263.00   22.62
  -2  -2   1  292.65   23.13
  -2  -2   1  294.22   23.50
  -2  -2   1  232.77   23.56
  -2  -2   1  262.87   22.60
  -2  -2   1  298.12   24.43
   1   2  -1  223.17   18.50
   1   2  -1  236.08   18.92
   1   2  -1  223.22   19.52
   1   2  -1  230.23   20.32
  -1  -2   1  223.83   18.85
  -1  -2   1  218.20   18.67
  -1  -2   1  220.18   19.64
  -1  -2   1  200.66   19.63
  -1  -2   1  240.83   19.15
  -1  -2   1  232.65   19.49
   0   2  -1   22.33    3.26
   0   2  -1   21.40    3.70
   0   2  -1   23.55    4.43
   0   2  -1   22.84    3.82
   0   2  -1   26.01    4.01
   0   2  -1   26.87    3.27
   0  -2   1   23.63    3.31
   0  -2   1   22.60    3.40
   0  -2   1   23.79    3.40
   0  -2   1   21.77    3.14
   0  -2   1   27.26    4.43
   0  -2   1   20.85    3.91
  -1   2  -1   42.36    5.32
  -1   2  -1   47.99    4.95
  -1   2  -1   49.55    5.24
  -1   2  -1   44.22    5.11
  -1   2  -1   46.51    5.11
   1  -2   1   47.03    4.95
   1  -2   1   48.36    5.30
   1  -2   1   50.14    5.21
   1  -2   1   51.03    5.19
   1  -2   1   43.64    6.15
   1  -2   1   41.60    5.08
  -2   2  -1  110.81    9.64
  -2   2  -1  108.08    9.36
  -2   2  -1  106.08    9.89
   2  -2   1  101.64    9.70
   2  -2   1  106.05    9.07
   2  -2   1  109.90    9.26
  -3   2  -1   16.40    3.02
  -3   2  -1   25.61    4.67
  -3   2  -1   15.78    2.69
  -3   2  -1   17.50    2.77
   3  -2   1   15.50    3.18
   3  -2   1   20.61    3.82
  -4   2  -1  133.78   13.18
  -4   2  -1  141.56   11.79
  -4   2  -1  144.93   12.11
  -4   2  -1  128.95   11.81
   4  -2   1  146.98   12.23
   4  -2   1  126.49   11.99
  -5   2  -1   26.78    5.53
  -5   2  -1   30.18    3.83
  -5   2  -1   34.30    5.49
  -5   2  -1   27.28    3.57
  -5   2  -1   28.28    4.18
   5  -2   1   25.13    3.67
  -6   2  -1  753.94   60.42
  -6   2  -1  737.90   59.56
  -6   2  -1  812.87   59.16
  -6   2  -1  695.62   60.05
  -6   2  -1  740.15   59.13
  -7   2  -1   31.85    6.15
  -7   2  -1   28.50    5.19
  -7   2  -1   32.35    7.97
  -7   2  -1   34.33    4.46
  -8   2  -1  331.23   30.24
  -8   2  -1  375.47   31.33
  -8   2  -1  364.50   34.17
  -9   2  -1   38.43    7.01
  -9   2  -1   13.28    7.37
  -9   2  -1   27.52    5.18
  -8  -1   1   60.59    8.93
  -8  -1   1   43.80   11.58
  -8  -1   1   60.24    8.85
  -7  -1   1    5.49    5.52
  -7  -1   1    6.76    3.52
  -7  -1   1    6.38    4.04
  -7  -1   1    6.54    4.04
  -7  -1   1    3.48    4.73
   6   1  -1   -0.27    3.40
  -6  -1   1    0.07    3.29
  -6  -1   1    0.01    1.99
  -6  -1   1   -3.83    2.12
  -6  -1   1    2.85    3.06
  -6  -1   1   -0.41    3.07
  -6  -1   1    0.94    2.59
   5   1  -1  184.78   16.74
  -5  -1   1  176.24   15.72
  -5  -1   1  183.87   16.33
  -5  -1   1  165.37   16.89
  -5  -1   1  184.07   16.76
  -5  -1   1  183.08   19.08
  -5  -1   1  192.06   16.35
   4   1  -1   10.55    3.15
   4   1  -1   10.32    3.21
   4   1  -1    7.67    2.83
  -4  -1   1   14.95    4.54
  -4  -1   1    8.30    2.57
  -4  -1   1    7.60    2.49
  -4  -1   1   10.39    2.36
  -4  -1   1   10.31    3.62
  -4  -1   1   12.05    2.84
   3   1  -1   40.58    4.59
  -3  -1   1   36.30    4.43
  -3  -1   1   37.52    4.54
  -3  -1   1   37.19    5.65
  -3  -1   1   36.38    3.99
   2   1  -1   -0.23    0.68
   2   1  -1   -0.50    0.51
   2   1  -1    0.17    1.40
   2   1  -1    0.05    1.01
   2   1  -1   -1.21    1.16
  -2  -1   1   -0.21    0.92
  -2  -1   1   -1.16    1.36
  -2  -1   1   -0.96    0.88
  -2  -1   1   -0.50    1.19
  -2  -1   1   -0.24    0.88
  -2  -1   1   -0.19    0.74
   1   1  -1  321.70   25.07
   1   1  -1  332.18   25.15
   1   1  -1  310.75   24.90
   1   1  -1  288.71   25.63
   1   1  -1  332.98   25.96
  -1  -1   1  342.88   25.30
  -1  -1   1  308.53   25.53
  -1  -1   1  281.75   25.65
  -1  -1   1  311.36   25.10
  -1  -1   1  320.13   25.95
  -1  -1   1  318.41   25.10
   0   1  -1 1019.77   76.30
   0   1  -1 1122.92   76.76
   0   1  -1  974.52   76.38
   0   1  -1  857.34   76.68
   0   1  -1  851.01   76.27
   0  -1   1 1113.97   77.21
   0  -1   1  987.67   76.42
   0  -1   1  876.99   76.30
   0  -1   1  836.98   76.48
   0  -1   1 1030.66   76.32
   0  -1   1 1143.38   76.81
  -1   1  -1    7.71    1.64
  -1   1  -1    5.40    1.52
  -1   1  -1    8.74    2.28
  -1   1  -1    8.58    1.81
  -1   1  -1    8.98    1.54
   1  -1   1    5.15    1.27
   1  -1   1    7.11    1.71
   1  -1   1    5.40    1.41
   1  -1   1    5.27    1.53
  -2   1  -1 2543.42  199.33
  -2   1  -1 2613.94  199.27
  -2   1  -1 2681.62  199.26
   2  -1   1 2532.16  199.80
   2  -1   1 2521.98  199.47
  -3   1  -1  489.01   38.07
  -3   1  -1  459.92   38.63
  -3   1  -1  480.67   38.19
  -3   1  -1  490.38   38.03
  -3   1  -1  444.89   38.87
   3  -1   1  474.51   38.31
   3  -1   1  541.12   38.57
  -4   1  -1 1882.90  146.59
  -4   1  -1 1737.33  147.42
  -4   1  -1 1968.49  146.48
   4  -1   1 1837.15  146.67
   4  -1   1 2015.02  146.77
  -5   1  -1  227.75   19.00
  -5   1  -1  220.57   20.06
  -5   1  -1  194.43   20.05
  -5   1  -1  239.64   20.36
  -5   1  -1  214.77   19.48
   5  -1   1  252.74   20.49
   5  -1   1  268.60   19.73
  -6   1  -1  290.53   24.67
  -6   1  -1  282.21   23.94
  -6   1  -1  291.78   26.96
  -6   1  -1  268.21   24.53
  -6   1  -1  282.69   23.77
  -7   1  -1   28.20    7.35
  -7   1  -1   42.21    6.59
  -7   1  -1   36.34    5.91
  -7   1  -1   28.14    6.21
  -8   1  -1    4.23    3.68
  -8   1  -1    3.85    5.17
  -8   1  -1    6.01    4.84
  -8   1  -1    2.32    2.64
  -8   0   1   34.96    9.86
  -8   0   1   39.66    7.38
  -8   0   1   26.70    5.44
  -7   0   1   32.43    5.99
  -7   0   1   42.20    7.79
  -7   0   1   37.49    9.06
  -6   0   1    6.73    2.98
  -6   0   1   15.07    5.01
  -6   0   1    8.06    3.16
  -6   0   1   11.13    3.07
  -6   0   1    9.45    2.61
  -5   0   1   17.11    3.76
  -5   0   1    7.53    3.77
  -5   0   1   14.00    2.91
  -5   0   1   13.08    2.67
  -5   0   1    9.23    3.16
  -5   0   1   17.46    2.62
   4   0  -1  155.82   12.74
   4   0  -1  142.91   12.93
  -4   0   1  158.79   12.55
  -4   0   1  149.75   12.87
  -4   0   1  145.00   15.88
  -4   0   1  149.48   13.54
  -4   0   1  165.79   13.19
   3   0  -1  333.24   25.78
   3   0  -1  319.66   25.98
   3   0  -1  334.42   26.50
  -3   0   1  330.29   25.69
  -3   0   1  290.19   26.17
  -3   0   1  345.51   26.03
  -3   0   1  318.33   26.37
  -3   0   1  337.41   27.76
   2   0  -1  544.14   42.65
   2   0  -1  567.18   43.01
   2   0  -1  536.00   42.72
  -2   0   1  574.96   42.76
  -2   0   1  550.24   43.85
  -2   0   1  493.97   42.82
  -2   0   1  566.68   42.99
   1   0  -1   34.96    2.93
   1   0  -1   33.09    3.35
   1   0  -1   31.41    2.95
  -1   0   1   34.35    3.41
  -1   0   1   32.18    3.17
  -1   0   1   34.11    2.93
  -1   0  -1 2246.54  172.28
  -1   0  -1 2264.40  172.24
  -1   0  -1 2251.20  172.11
   1   0   1 2253.05  172.09
   1   0   1 2210.75  172.28
   1   0   1 2224.96  172.24
   1   0   1 2152.02  172.13
  -2   0  -1  268.79   22.94
  -2   0  -1  274.01   22.54
  -2   0  -1  293.63   23.25
  -2   0  -1  276.19   22.74
  -2   0  -1  288.14   23.03
   2   0   1  289.29   22.37
   2   0   1  284.05   23.05
   2   0   1  283.60   22.84
   2   0   1  276.95   22.38
   2   0   1  307.75   23.10
  -3   0  -1  667.61   51.78
  -3   0  -1  623.96   51.61
  -3   0  -1  650.11   51.33
  -3   0  -1  658.28   51.85
   3   0   1  639.06   51.73
   3   0   1  667.98   51.65
   3   0   1  647.90   51.30
  -4   0  -1    1.34    1.13
  -4   0  -1   -0.69    1.50
  -4   0  -1    2.88    1.64
  -4   0  -1   -0.31    1.19
   4   0   1    0.69    1.77
   4   0   1   -2.90    1.63
  -5   0  -1   13.43    3.11
  -5   0  -1    5.58    2.99
  -5   0  -1    4.70    3.32
  -5   0  -1   12.36    3.49
  -5   0  -1    9.58    3.28
  -5   0  -1    8.41    2.42
   5   0   1   16.44    3.55
   5   0   1   10.44    3.08
  -6   0  -1   63.30    7.83
  -6   0  -1   70.50    8.56
  -6   0  -1   76.05   10.33
  -6   0  -1   73.38    8.37
  -6   0  -1   61.64    8.16
   6   0   1   51.59    8.17
  -7   0  -1   -1.06    4.71
  -7   0  -1   -0.87    2.35
  -7   0  -1    2.73    3.49
  -7   0  -1    4.60    3.10
  -7   0  -1    1.11    3.89
  -7   0  -1    2.79    3.42
  -8   0  -1   15.26    4.98
  -8   0  -1   14.44    4.18
  -8   0  -1   10.22    6.28
  -8   0  -1    9.45    5.04
  -9   1   1    1.85    3.28
  -9   1   1    1.94    5.73
  -9   1   1    3.35    4.29
  -8   1   1    6.26    3.68
  -8   1   1   -1.51    2.38
  -8   1   1    1.43    3.49
  -8   1   1    3.37    5.05
  -7   1   1   17.17    3.44
  -7   1   1   11.09    3.76
  -7   1   1   15.49    5.73
  -7   1   1   13.07    2.73
  -6   1   1   88.05   10.93
  -6   1   1   89.35    9.18
  -6   1   1   82.98    7.95
  -5   1   1   14.24    4.21
  -5   1   1   16.06    2.18
  -5   1   1   13.64    2.04
  -5   1   1   14.10    3.10
  -4   1   1   26.78    3.67
  -4   1   1   30.36    5.54
  -3   1   1  242.02   19.78
   1  -1  -1 1567.94  122.70
   1  -1  -1 1672.65  122.96
  -1   1   1 1607.39  122.77
  -1   1   1 1487.58  122.97
  -1   1   1 1621.18  122.97
  -1   1   1 1574.07  122.78
   0  -1  -1   87.49    8.77
   0  -1  -1  104.65    8.74
   0  -1  -1  117.52    8.79
   0  -1  -1  110.10    8.55
   0  -1  -1  108.06    9.12
   0  -1  -1  104.44    8.59
   0   1   1   98.30    8.53
   0   1   1   92.17    8.85
   0   1   1   96.80    8.71
   0   1   1  105.58    8.49
   0   1   1  103.22    9.04
  -1  -1  -1   67.72    7.29
  -1  -1  -1   72.69    7.38
  -1  -1  -1   74.02    7.12
  -1  -1  -1   69.62    6.72
  -1  -1  -1   73.48    6.89
  -1  -1  -1   79.42    6.70
   1   1   1   73.85    6.85
   1   1   1   80.57    7.60
   1   1   1   68.60    7.20
   1   1   1   69.25    6.60
   1   1   1   88.45    6.60
  -2  -1  -1   47.93    5.90
  -2  -1  -1   54.61    5.53
  -2  -1  -1   50.95    5.13
  -2  -1  -1   55.94    6.42
  -2  -1  -1   53.41    5.54
  -2  -1  -1   59.25    5.88
   2   1   1   54.93    6.01
   2   1   1   51.47    4.91
   2   1   1   49.65    5.34
   2   1   1   46.71    5.21
  -3  -1  -1  222.53   18.64
  -3  -1  -1  241.93   19.59
  -3  -1  -1  211.46   20.59
  -3  -1  -1  225.13   19.14
   3   1   1  215.53   18.06
   3   1   1  229.09   19.19
  -4  -1  -1  104.27   10.33
  -4  -1  -1  101.08   10.07
  -4  -1  -1  109.11    9.45
  -4  -1  -1   88.41   10.44
  -4  -1  -1  102.42    9.93
  -4  -1  -1   94.62   11.32
   4   1   1   86.08   10.08
   4   1   1   96.73   10.33
   4   1   1   98.79   10.61
  -5  -1  -1   43.10    6.44
  -5  -1  -1   41.63    6.25
  -5  -1  -1   41.90    7.05
  -5  -1  -1   43.30    8.76
  -5  -1  -1   42.70    7.93
  -5  -1  -1   41.67    7.10
   5   1   1   36.46    6.53
  -6  -1  -1    8.47    4.34
  -6  -1  -1   22.70    5.52
  -6  -1  -1   18.27    5.60
  -6  -1  -1   14.72    3.74
  -6  -1  -1   18.41    6.34
   6   1   1    9.91    5.34
  -7  -1  -1    1.29    3.97
  -7  -1  -1    8.05    3.15
  -7  -1  -1    3.69    5.27
  -7  -1  -1   -1.77    4.45
  -7  -1  -1    2.19    3.63
  -8  -1  -1    7.36    6.24
  -8  -1  -1   13.20    7.04
  -9   2   1    2.05    3.90
  -9   2   1    5.88    5.98
  -9   2   1    1.84    2.65
  -8   2   1    4.80    3.07
  -8   2   1    3.04    4.18
  -8   2   1   10.37    4.24
  -8   2   1    6.68    2.49
  -7   2   1    7.39    3.08
  -7   2   1    6.70    1.91
  -7   2   1    1.72    3.79
  -7   2   1    4.53    2.24
  -6   2   1   93.38    7.72
  -6   2   1   87.29    9.19
  -6   2   1   86.31    7.67
  -6   2   1   87.59   10.71
  -5   2   1   -0.42    1.58
   3  -2  -1   70.68    7.25
  -3   2   1   80.96    6.67
  -3   2   1   76.61    6.93
  -3   2   1   79.15    6.60
   2  -2  -1  946.58   72.71
   2  -2  -1  830.84   73.50
   2  -2  -1  992.70   73.40
  -2   2   1  955.36   73.04
  -2   2   1 1012.11   73.20
  -2   2   1  964.37   73.05
  -2   2   1  876.67   73.53
  -2   2   1  918.58   73.43
   1  -2  -1    0.49    1.32
   1  -2  -1    0.77    1.45
   1  -2  -1    0.93    1.00
   1  -2  -1    1.49    1.37
   1  -2  -1    1.96    1.40
   1  -2  -1    1.77    1.17
  -1   2   1    1.00    1.27
  -1   2   1   -0.24    0.83
  -1   2   1    1.61    1.31
  -1   2   1    2.31    1.40
  -1   2   1    3.32    1.84
  -1   2   1    1.82    1.36
   0  -2  -1  140.02   11.67
   0  -2  -1  138.88   12.74
   0  -2  -1  131.76   11.76
   0  -2  -1  157.65   12.15
   0  -2  -1  130.68   11.88
   0  -2  -1  122.56   12.10
   0   2   1  142.25   12.05
   0   2   1  124.95   11.55
   0   2   1  141.54   12.58
   0   2   1  144.64   11.99
   0   2   1  115.46   12.14
   0   2   1  139.19   11.56
  -1  -2  -1  150.11   13.69
  -1  -2  -1  148.30   12.89
  -1  -2  -1  135.31   13.81
  -1  -2  -1  168.50   13.72
  -1  -2  -1  156.72   13.63
  -1  -2  -1  152.80   12.87
   1   2   1  138.82   13.01
   1   2   1  141.19   13.82
   1   2   1  151.18   12.81
   1   2   1  143.02   12.69
   1   2   1  140.33   13.62
  -2  -2  -1   -0.25    1.24
  -2  -2  -1    1.04    1.69
  -2  -2  -1   -0.08    1.14
  -2  -2  -1    1.94    1.82
  -2  -2  -1    0.62    1.59
  -2  -2  -1    2.00    1.66
   2   2   1    1.16    2.41
   2   2   1    0.17    1.34
   2   2   1    0.70    1.55
   2   2   1    0.72    2.07
  -3  -2  -1   23.72    4.12
  -3  -2  -1   22.96    4.65
  -3  -2  -1   25.54    4.97
  -3  -2  -1   15.27    4.95
  -3  -2  -1   23.70    4.80
  -3  -2  -1   18.76    5.06
   3   2   1   31.56    6.84
   3   2   1   15.68    3.54
  -4  -2  -1    5.04    2.79
  -4  -2  -1    7.22    3.92
  -4  -2  -1    7.91    3.40
  -4  -2  -1    2.51    2.97
  -4  -2  -1    7.49    2.69
  -4  -2  -1    1.22    2.41
   4   2   1    7.83    1.83
   4   2   1    9.00    2.16
   4   2   1   12.12    4.37
  -5  -2  -1    6.07    2.77
  -5  -2  -1    4.77    4.65
  -5  -2  -1   -3.16    3.26
  -5  -2  -1    0.28    3.42
  -5  -2  -1    5.52    2.99
  -5  -2  -1    0.23    1.96
   5   2   1   -3.42    3.97
  -6  -2  -1   43.24    7.56
  -6  -2  -1   41.91    7.80
  -6  -2  -1   42.88    9.79
  -6  -2  -1   40.00    9.91
  -6  -2  -1   65.90    9.85
   6   2   1   65.15   13.01
  -7  -2  -1   11.27    6.25
  -7  -2  -1    7.18    4.41
  -7  -2  -1   12.41    7.54
  -7  -2  -1    9.92    6.18
  -9   3   1    7.78    5.25
  -9   3   1    3.74    3.44
  -8   3   1   68.02   10.01
  -8   3   1   47.59    7.73
  -8   3   1   56.70    6.16
  -7   3   1    3.32    2.94
  -7   3   1    5.51    1.79
  -7   3   1    0.93    2.39
  -6   3   1  138.72   12.53
  -6   3   1  134.98   11.18
  -6   3   1  119.93   11.30
  -5   3   1   30.24    3.49
  -5   3   1   24.34    3.73
  -5   3   1   33.02    3.51
   4  -3  -1   32.56    4.15
   4  -3  -1   36.03    5.55
  -4   3   1   35.86    4.70
  -4   3   1   33.88    4.44
  -4   3   1   35.29    4.66
  -4   3   1   31.91    4.06
  -4   3   1   34.99    3.89
   3  -3  -1    6.31    2.09
   3  -3  -1    3.52    1.04
   3  -3  -1    2.75    1.15
   3  -3  -1    3.70    2.64
  -3   3   1    4.36    2.07
  -3   3   1    5.65    1.96
  -3   3   1    3.03    1.40
  -3   3   1    3.07    1.59
   2  -3  -1  877.54   65.36
   2  -3  -1  840.42   65.39
   2  -3  -1  758.82   66.45
   2  -3  -1  835.76   65.62
   2  -3  -1  859.28   66.16
  -2   3   1  867.00   65.80
  -2   3   1  838.83   65.75
  -2   3   1  784.31   66.33
  -2   3   1  800.41   66.18
  -2   3   1  846.71   65.24
   1  -3  -1  202.92   20.02
   1  -3  -1  236.16   19.02
   1  -3  -1  218.30   19.13
   1  -3  -1  239.40   19.53
   1  -3  -1  237.91   20.51
   1  -3  -1  222.66   19.23
  -1   3   1  230.35   19.26
  -1   3   1  225.81   18.88
  -1   3   1  211.96   19.93
  -1   3   1  225.46   19.35
  -1   3   1  223.41   19.87
  -1   3   1  230.72   19.17
   0  -3  -1  663.96   58.11
   0  -3  -1  772.10   59.20
   0  -3  -1  782.33   57.58
   0  -3  -1  835.89   58.28
   0  -3  -1  678.77   57.62
   0  -3  -1  762.99   57.79
   0   3   1  730.37   57.21
   0   3   1  635.06   58.18
   0   3   1  668.08   57.20
   0   3   1  697.11   57.74
  -1  -3  -1  140.14   12.24
  -1  -3  -1  127.30   12.88
  -1  -3  -1  143.11   12.57
  -1  -3  -1  110.75   13.25
  -1  -3  -1  129.74   12.84
  -1  -3  -1  124.17   11.92
   1   3   1  125.00   11.67
   1   3   1  137.29   12.43
   1   3   1  117.90   12.87
   1   3   1  121.40   13.03
   1   3   1  128.22   11.64
  -2  -3  -1  108.65   10.59
  -2  -3  -1   81.71   11.56
  -2  -3  -1  119.24   11.46
  -2  -3  -1  104.28   10.79
  -2  -3  -1   93.34   10.22
  -2  -3  -1  108.26   11.74
   2   3   1  100.65   10.43
   2   3   1  100.95   10.04
   2   3   1  107.34   11.92
   2   3   1  108.92   11.63
   2   3   1  103.25    9.75
  -3  -3  -1    2.18    2.79
  -3  -3  -1    1.96    2.24
  -3  -3  -1    7.73    3.65
  -3  -3  -1    1.58    2.68
  -3  -3  -1    0.60    2.44
   3   3   1    0.15    4.45
   3   3   1    4.76    3.58
   3   3   1    3.50    2.27
   3   3   1    2.32    2.53
   3   3   1    3.86    2.73
  -4  -3  -1  194.01   21.09
  -4  -3  -1  222.25   20.25
  -4  -3  -1  189.38   19.06
  -4  -3  -1  217.66   20.22
  -4  -3  -1  206.39   21.66
  -4  -3  -1  214.95   19.73
   4   3   1  197.52   18.04
   4   3   1  216.70   17.61
  -5  -3  -1    7.52    5.68
  -5  -3  -1    6.85    4.71
  -5  -3  -1    6.21    5.50
  -5  -3  -1    6.10    3.95
  -5  -3  -1    9.88    4.78
   5   3   1    7.58    5.86
  -6  -3  -1  100.14   14.61
  -6  -3  -1  108.88   14.68
  -6  -3  -1   79.76   14.17
  -6  -3  -1   90.30   13.88
  -6  -3  -1   86.96   11.95
   6   3   1  101.74   16.63
  -7  -3  -1    4.81    7.55
  -7  -3  -1   -1.60    4.86
  -9   4   1    6.84    4.99
  -9   4   1   12.04    4.15
  -9   4   1    7.62    3.39
  -8   4   1    2.09    3.44
  -8   4   1    4.02    2.46
  -8   4   1    5.06    3.69
  -7   4   1    0.20    2.01
  -7   4   1    2.49    2.44
  -7   4   1    2.87    3.17
  -6   4   1   68.99    7.07
  -6   4   1   70.08    7.28
  -6   4   1   64.53    6.83
  -6   4   1   75.44    8.82
   5  -4  -1    1.92    2.28
   5  -4  -1    1.53    2.76
  -5   4   1   -2.67    2.08
  -5   4   1    8.77    2.94
  -5   4   1    2.54    2.19
  -5   4   1    0.36    1.51
  -5   4   1    4.58    2.14
   4  -4  -1  416.36   33.23
   4  -4  -1  363.31   34.05
  -4   4   1  385.33   33.62
  -4   4   1  374.85   33.32
  -4   4   1  414.75   33.11
  -4   4   1  395.52   33.72
  -4   4   1  443.97   33.09
  -4   4   1  416.57   33.19
   3  -4  -1  229.81   18.97
   3  -4  -1  227.80   20.08
   3  -4  -1  234.09   19.11
   3  -4  -1  211.61   19.26
  -3   4   1  235.60   19.71
  -3   4   1  226.46   20.59
  -3   4   1  222.55   19.60
  -3   4   1  227.46   19.13
  -3   4   1  218.37   19.85
   2  -4  -1  465.85   35.69
   2  -4  -1  433.02   34.54
   2  -4  -1  398.47   34.67
   2  -4  -1  414.02   34.88
   2  -4  -1  422.70   34.42
   2  -4  -1  368.36   35.75
  -2   4   1  438.21   34.28
  -2   4   1  442.97   34.87
  -2   4   1  456.41   35.12
  -2   4   1  402.36   34.56
  -2   4   1  406.48   35.54
  -2   4   1  403.79   35.80
   1  -4  -1  140.97   16.09
   1  -4  -1  159.00   14.93
   1  -4  -1  156.79   14.85
   1  -4  -1  167.96   15.15
   1  -4  -1  179.25   15.96
   1  -4  -1  153.63   14.70
  -1   4   1  159.70   14.59
  -1   4   1  152.10   15.97
  -1   4   1  176.49   16.13
  -1   4   1  179.50   15.46
  -1   4   1  158.50   14.77
   0  -4  -1  664.23   61.10
   0  -4  -1  880.92   61.57
   0  -4  -1  808.73   62.78
   0  -4  -1  824.82   60.70
   0  -4  -1  660.55   60.42
   0  -4  -1  801.00   61.01
   0   4   1  809.26   61.08
   0   4   1  751.37   60.03
   0   4   1  689.01   60.00
   0   4   1  692.01   61.56
   0   4   1  724.08   60.85
   0   4   1  730.45   61.84
  -1  -4  -1    1.05    2.94
  -1  -4  -1    0.88    2.32
  -1  -4  -1   -1.10    2.04
  -1  -4  -1    4.58    2.41
  -1  -4  -1    1.91    2.38
   1   4   1   -0.19    2.11
   1   4   1    1.35    2.29
   1   4   1    1.77    2.59
   1   4   1    4.97    3.51
   1   4   1    0.09    2.62
  -2  -4  -1  421.48   40.26
  -2  -4  -1  483.79   40.84
  -2  -4  -1  490.84   41.48
  -2  -4  -1  423.53   40.06
  -2  -4  -1  456.73   41.95
   2   4   1  534.94   40.76
   2   4   1  505.41   40.76
   2   4   1  488.85   39.45
   2   4   1  547.57   42.59
   3   4   1   84.12   12.32
  -4  -4  -1  121.60   13.21
  -4  -4  -1   85.49   14.34
  -4  -4  -1  116.77   13.05
  -4  -4  -1  125.26   14.19
  -4  -4  -1  116.08   14.68
   4   4   1  116.83   11.22
   4   4   1  106.47   12.55
  -5  -4  -1    1.36    3.68
  -5  -4  -1    2.52    4.55
  -5  -4  -1    4.01    5.67
  -5  -4  -1   -5.27    5.21
  -5  -4  -1    1.91    3.82
   5   4   1   -4.75    2.54
   5   4   1   -7.39    6.18
   5   4   1    1.76    2.99
  -6  -4  -1    2.46    7.46
  -6  -4  -1   -5.91    5.83
  -6  -4  -1    2.74    5.40
  -9   5   1   11.19    4.77
  -9   5   1   10.02    4.46
  -9   5   1    9.87    5.34
  -8   5   1    4.74    7.08
  -8   5   1   15.98    4.23
  -8   5   1   33.97    5.65
  -8   5   1   14.77    5.16
  -7   5   1    5.63    2.43
  -7   5   1    2.76    3.80
  -7   5   1    2.87    2.61
  -7   5   1    8.43    3.95
   6  -5  -1  181.35   18.72
  -6   5   1  216.47   20.42
  -6   5   1  206.76   18.13
  -6   5   1  196.24   19.04
  -6   5   1  209.05   18.64
  -6   5   1  198.83   18.27
  -6   5   1  217.33   18.61
   5  -5  -1   43.48    8.20
   5  -5  -1   46.51    7.39
  -5   5   1   44.65    6.17
  -5   5   1   44.12    6.65
  -5   5   1   47.32    6.25
  -5   5   1   48.17    6.53
  -5   5   1   49.76    7.55
   4  -5  -1  244.09   21.08
   4  -5  -1  253.94   20.57
   4  -5  -1  259.14   22.37
  -4   5   1  236.01   22.16
  -4   5   1  243.75   21.80
  -4   5   1  244.58   22.88
  -4   5   1  233.83   22.26
  -4   5   1  255.42   21.31
  -4   5   1  240.87   22.22
   3  -5  -1    3.35    2.85
  -3   5   1    2.86    2.53
  -3   5   1    3.84    2.37
   2  -5  -1  127.89   12.60
   2  -5  -1  124.06   13.95
   2  -5  -1  122.27   12.96
   2  -5  -1  103.85   11.50
   2  -5  -1  110.03   11.53
  -2   5   1  112.86   13.37
  -2   5   1  106.68   12.71
  -2   5   1  119.01   12.24
  -2   5   1  113.80   11.31
  -2   5   1  136.13   11.97
  -2   5   1  114.85   11.95
   1  -5  -1  312.01   27.21
   1  -5  -1  267.43   27.65
   1  -5  -1  300.48   26.07
   1  -5  -1  288.66   25.92
   1  -5  -1  311.05   26.34
   1  -5  -1  297.22   26.03
  -1   5   1  296.37   25.82
  -1   5   1  307.19   26.53
  -1   5   1  308.72   25.60
  -1   5   1  273.09   27.25
  -1   5   1  296.54   26.02
  -1   5   1  294.19   27.36
   0  -5  -1  187.31   16.55
   0  -5  -1  183.88   19.18
   0  -5  -1  192.78   16.83
   0  -5  -1  135.91   16.26
   0  -5  -1  140.81   15.69
   0  -5  -1  186.15   16.18
   0   5   1  173.35   16.26
   0   5   1  157.05   17.81
   0   5   1  151.71   15.28
   0   5   1  148.65   17.06
   0   5   1  140.67   15.79
   0   5   1  159.80   15.21
  -1  -5  -1  302.63   25.80
  -1  -5  -1  262.51   25.15
  -1  -5  -1  225.06   26.04
  -1  -5  -1  249.70   24.26
  -1  -5  -1  265.35   23.96
   1   5   1  270.64   24.41
   1   5   1  277.27   26.04
   1   5   1  271.10   23.48
   1   5   1  256.95   26.39
  -2  -5  -1    0.46    3.06
  -2  -5  -1    0.00    2.51
  -2  -5  -1    0.33    3.22
  -2  -5  -1    4.05    3.20
  -2  -5  -1    6.92    4.55
   2   5   1    3.45    4.20
   2   5   1    5.34    3.25
   2   5   1    8.23    3.48
  -3  -5  -1   32.58    9.79
  -3  -5  -1   16.44    4.68
  -3  -5  -1   34.21    8.55
  -3  -5  -1   23.31    7.19
  -3  -5  -1   12.07    5.96
   3   5   1   21.67    6.09
   3   5   1   23.93    5.91
   3   5   1   22.63    7.61
  -4  -5  -1   57.76   13.11
  -4  -5  -1   42.02   10.90
  -4  -5  -1   64.41   11.81
  -4  -5  -1   68.49   11.70
  -4  -5  -1   40.67    8.73
   4   5   1   69.16   13.60
   4   5   1   72.43   11.21
   4   5   1   51.58    9.18
  -5  -5  -1   -3.54    4.85
  -5  -5  -1   -1.01    3.98
  -5  -5  -1   -6.28    5.24
   5   5   1    0.84    4.99
  -9   6   1    0.95    4.15
  -9   6   1    0.48    4.01
  -9   6   1    3.54    4.63
  -8   6   1   64.65   11.36
  -8   6   1   72.04    7.73
  -8   6   1   76.83    9.15
   7  -6  -1    6.38    5.46
  -7   6   1    4.71    4.04
  -7   6   1    9.73    4.73
  -7   6   1    1.88    3.65
  -7   6   1    2.92    2.83
   6  -6  -1   57.85   10.30
  -6   6   1   63.39    8.12
  -6   6   1   51.30    8.09
  -6   6   1   74.23    8.16
  -6   6   1   62.88   11.35
  -6   6   1   53.86    9.19
   5  -6  -1  121.81    9.88
   5  -6  -1   95.06   14.09
   5  -6  -1  107.28   10.01
  -5   6   1  105.38   12.40
  -5   6   1  109.81   11.77
  -5   6   1  110.11   13.24
  -5   6   1  102.67   10.97
  -5   6   1  105.73   13.00
   4  -6  -1    0.40    2.26
   4  -6  -1   -0.46    2.31
   4  -6  -1    5.68    3.54
   4  -6  -1   -3.59    4.09
  -4   6   1    4.53    2.48
  -4   6   1   -4.96    3.68
  -4   6   1    9.37    4.21
  -4   6   1    4.52    3.03
  -4   6   1    0.76    2.85
  -4   6   1    6.91    4.78
   3  -6  -1  542.33   43.19
   3  -6  -1  500.60   43.24
  -3   6   1  511.92   43.92
  -3   6   1  545.47   45.17
  -3   6   1  512.87   43.49
  -3   6   1  510.40   42.71
   2  -6  -1   39.64    7.17
   2  -6  -1   31.17    6.25
   2  -6  -1   48.40    9.75
   2  -6  -1   57.04    7.94
   2  -6  -1   34.40    9.17
  -2   6   1   37.24    7.08
  -2   6   1   38.80    6.56
  -2   6   1   32.17    8.38
  -2   6   1   27.88    6.07
  -2   6   1   26.80    6.65
  -2   6   1   41.75    9.37
   1  -6  -1  126.36   14.67
   1  -6  -1  138.63   16.16
   1  -6  -1  130.70   14.63
   1  -6  -1  139.91   15.26
   1  -6  -1   87.68   22.43
  -1   6   1  183.23   16.12
  -1   6   1  131.90   17.28
  -1   6   1  148.38   14.79
  -1   6   1  187.02   17.83
   0  -6  -1  173.94   15.90
   0  -6  -1  157.99   16.05
   0  -6  -1  114.88   16.02
   0  -6  -1  163.30   16.11
   0  -6  -1  159.75   18.21
   0   6   1  118.79   16.53
   0   6   1  151.63   18.51
   0   6   1  139.00   15.28
   0   6   1  117.73   14.87
  -1  -6  -1   49.19   10.02
  -1  -6  -1   74.98   11.60
  -1  -6  -1   49.24    9.94
  -1  -6  -1   49.06   12.65
   1   6   1   43.65   10.22
  -2  -6  -1  124.26   17.05
  -2  -6  -1  202.88   20.02
  -2  -6  -1  161.08   20.65
   2   6   1  165.46   20.14
   2   6   1  190.53   18.32
  -3  -6  -1   27.36    9.50
  -3  -6  -1   14.37    6.12
  -3  -6  -1   28.94    8.15
  -3  -6  -1   18.73    7.13
  -3  -6  -1   26.20    9.49
   3   6   1   25.56    7.48
   3   6   1   28.83    9.43
  -4  -6  -1   23.02    8.71
  -4  -6  -1   31.14    8.26
  -4  -6  -1   44.15    9.88
  -4  -6  -1   24.48   11.78
   4   6   1   26.30    7.85
   4   6   1   26.41   13.09
  -9   7   1   33.68    7.20
   8  -7  -1    5.96    9.68
  -8   7   1    3.89    3.65
  -8   7   1   10.08    4.50
  -8   7   1   -2.27    5.17
  -8   7   1    4.28    5.10
   7  -7  -1   43.12   10.18
  -7   7   1   44.24    8.20
  -7   7   1   56.45    8.36
  -7   7   1   45.94    8.42
  -7   7   1   59.50   10.05
   6  -7  -1  236.50   26.28
  -6   7   1  248.50   25.50
  -6   7   1  260.72   24.86
  -6   7   1  299.67   24.68
  -6   7   1  263.76   23.36
   5  -7  -1   79.97    9.72
   5  -7  -1   79.00   14.80
   5  -7  -1   69.59    8.72
  -5   7   1  101.89   10.90
  -5   7   1   71.06   10.89
  -5   7   1   93.56    9.48
  -5   7   1   70.32   12.34
   4  -7  -1  410.55   34.21
   4  -7  -1  324.34   36.86
   4  -7  -1  418.93   33.65
   4  -7  -1  379.15   33.96
  -4   7   1  396.18   36.17
  -4   7   1  384.13   32.94
  -4   7   1  390.82   35.53
  -4   7   1  406.88   34.84
   2  -7  -1  102.98   12.88
   2  -7  -1  124.05   13.87
   2  -7  -1  110.21   14.02
  -2   7   1  111.91   16.72
  -2   7   1  117.57   12.76
  -2   7   1  117.38   15.38
  -2   7   1  133.14   14.23
   1  -7  -1  141.81   15.36
   1  -7  -1   93.03   16.39
   1  -7  -1  146.71   17.21
   1  -7  -1  113.33   14.26
   1  -7  -1  103.08   13.76
  -1   7   1  133.63   14.48
  -1   7   1  125.63   14.73
  -1   7   1  153.61   17.46
  -1   7   1  178.58   20.52
   0  -7  -1  128.94   13.70
   0  -7  -1   99.17   12.83
   0  -7  -1   94.56   13.86
   0  -7  -1  101.43   16.02
   0  -7  -1   65.02   13.07
   0   7   1  107.51   15.27
  -1  -7  -1    2.67    5.00
  -1  -7  -1    8.24    4.65
  -1  -7  -1   -7.39    5.84
   1   7   1   -1.53    4.53
   1   7   1    9.20    6.23
  -2  -7  -1   18.65    8.20
  -2  -7  -1    6.94    6.77
  -2  -7  -1   21.42    7.21
  -2  -7  -1   25.70    8.07
  -2  -7  -1   15.20    9.54
   2   7   1   16.72    7.13
   2   7   1   17.18    8.90
  -3  -7  -1   44.39   14.02
  -3  -7  -1   48.29   12.57
  -3  -7  -1   73.82   13.99
   3   7   1   52.00   11.18
   3   7   1   76.29   15.60
  -9   8   1   -1.46    4.54
  -8   8   1  198.38   20.75
  -8   8   1  188.83   19.52
  -8   8   1  200.06   24.11
   7  -8  -1    4.64    7.78
  -7   8   1   -0.06    4.30
  -7   8   1    1.52    4.26
  -7   8   1   -0.97    6.42
  -7   8   1    2.70    4.25
   6  -8  -1   86.30    9.36
   6  -8  -1   52.27   13.57
  -6   8   1  103.37   11.89
  -6   8   1   96.32   14.22
  -6   8   1   81.08   12.22
  -6   8   1  100.44   10.39
   5  -8  -1   31.95    9.88
   5  -8  -1   47.92    9.12
  -5   8   1   37.07    6.36
  -5   8   1   36.83    9.96
  -5   8   1   28.97    8.34
  -5   8   1   32.28    8.36
   4  -8  -1    5.82    5.19
   4  -8  -1   -3.59    6.69
  -4   8   1    4.76    4.49
  -4   8   1    3.19    6.64
  -4   8   1    3.54    3.30
   3  -8  -1   69.31    9.67
   3  -8  -1   74.43   10.78
  -3   8   1  108.14   18.00
  -3   8   1   56.77   10.87
  -3   8   1   75.17   14.58
  -3   8   1   52.21    9.38
   2  -8  -1    3.17    4.84
   2  -8  -1    3.15    4.66
   2  -8  -1   -2.13    3.50
  -2   8   1    2.27    3.94
  -2   8   1    0.26    4.68
  -2   8   1    0.63    3.45
  -2   8   1   -0.18    7.15
   1  -8  -1   16.04    8.00
   1  -8  -1    2.88    4.73
   1  -8  -1    1.31    4.31
   1  -8  -1   10.57    5.26
  -1   8   1    0.46    3.92
  -1   8   1   12.10    6.03
   0  -8  -1  131.65   16.89
   0  -8  -1  130.23   15.47
   0  -8  -1  139.26   16.48
   0   8   1  113.29   18.86
   0   8   1  100.26   15.54
  -1  -8  -1   65.79   13.41
  -1  -8  -1   86.89   15.38
  -1  -8  -1   85.49   18.87
  -1  -8  -1   70.96   12.71
   1   8   1  101.86   15.37
   1   8   1  109.43   19.64
  -2  -8  -1   61.88   16.14
  -2  -8  -1   38.71   10.76
  -2  -8  -1   49.31   11.79
  -2  -8  -1   80.41   18.51
   2   8   1   76.67   18.21
   2   8   1   49.08   11.50
  -8   9   1   -0.29    4.67
  -8   9   1    7.22    5.32
   7  -9  -1    2.67   14.57
  -7   9   1    7.37    5.55
  -7   9   1    0.98    5.22
   6  -9  -1   26.40    6.89
   6  -9  -1   30.06    6.80
   6  -9  -1   16.07   14.02
  -6   9   1   50.30   12.20
  -6   9   1   42.59    9.52
  -6   9   1   32.82    9.72
  -6   9   1   32.62    6.11
   5  -9  -1   -1.64    5.53
   5  -9  -1   -0.99    3.71
   5  -9  -1   -3.86    8.56
  -5   9   1   -3.66    4.03
  -5   9   1    4.08    9.55
  -5   9   1   -7.85    3.65
  -5   9   1    2.42    4.88
   4  -9  -1   -2.55    4.05
   4  -9  -1   -5.67    8.04
  -4   9   1    1.41    4.22
  -4   9   1    0.58    8.77
  -4   9   1    5.89    5.59
   3  -9  -1    1.72    5.86
   3  -9  -1   -1.37    4.15
   3  -9  -1   -2.88    6.90
   3  -9  -1    9.97    6.57
  -3   9   1   -3.80    5.33
  -3   9   1    1.95    4.78
  -3   9   1    3.97   10.86
  -3   9   1    2.34    5.12
   2  -9  -1  181.48   19.00
   2  -9  -1  123.76   17.45
  -2   9   1  127.43   18.84
  -2   9   1  106.82   15.80
   1  -9  -1   -7.83    5.85
   1  -9  -1    7.07    5.16
   1  -9  -1    9.68    6.82
  -1   9   1   -3.46    5.47
   0  -9  -1  126.56   16.61
   0  -9  -1   59.04   18.84
   0   9   1   95.87   16.64
   0   9   1  164.93   25.79
  -1  -9  -1   54.33   13.61
  -7  10   1    2.69    6.39
  -7  10   1   -2.07    5.60
   6 -10  -1    5.80   16.06
   6 -10  -1    3.83    7.35
  -6  10   1    7.82    6.61
  -6  10   1   14.92   11.46
   5 -10  -1    4.58    7.92
   5 -10  -1   12.33    6.12
   5 -10  -1    5.59   11.16
  -5  10   1    7.26    7.01
  -5  10   1   11.60    6.97
   4 -10  -1   50.28   18.10
   4 -10  -1   97.26   13.02
   4 -10  -1  106.96   17.57
  -4  10   1   71.37   14.13
  -4  10   1   95.56   18.28
   3 -10  -1   24.98    8.56
   3 -10  -1   40.77   15.27
   3 -10  -1   39.55   10.57
   3 -10  -1   34.25   10.80
  -3  10   1   39.04   13.42
   2 -10  -1    8.05    6.95
   2 -10  -1   10.08   14.18
   2 -10  -1    5.50    8.10
  -2  10   1    1.11    7.90
  -2  10   1    2.66    7.97
  -1  10   1   57.17   16.52
  -1  10  -2    3.34    8.93
  -1  10  -2    9.85    8.70
   1 -10   2   -2.09    6.56
   1 -10   2   -3.58    9.91
   1 -10   2  -13.36    7.65
   1 -10   2   11.91    8.06
  -2  10  -2   15.73    8.44
   2 -10   2   20.02    9.92
   2 -10   2    6.86    7.37
  -3  10  -2    2.61    6.20
  -3  10  -2   -1.00    6.80
   3 -10   2   20.32    9.10
   3 -10   2   -1.27    8.43
   3 -10   2   -5.71    5.36
   3 -10   2   -4.51    8.13
  -4  10  -2    8.54    7.93
  -4  10  -2   10.70    7.43
   4 -10   2  -10.87   10.54
   4 -10   2   10.63    8.14
   4 -10   2   -3.98    5.47
  -5  10  -2   20.77    7.15
  -5  10  -2    6.35    8.39
   5 -10   2    5.16    6.03
   5 -10   2   11.12    7.86
   5 -10   2    6.45   12.64
  -6  10  -2   -7.48    5.93
   6 -10   2    7.27   17.98
   6 -10   2   -7.10    5.89
  -7  10  -2   26.70    9.40
   1   9  -2   28.64    9.79
   1   9  -2   31.89   13.11
  -1  -9   2   24.40   18.52
  -1  -9   2   45.79   11.91
  -1  -9   2   17.84    7.37
  -1  -9   2   19.06    8.88
   0   9  -2   18.68    9.39
   0   9  -2   28.89    9.55
   0  -9   2   21.49    8.57
   0  -9   2   25.13   14.99
   0  -9   2   38.23   10.32
   0  -9   2    9.52    7.95
  -1   9  -2   36.12    8.96
  -1   9  -2   21.86    9.29
   1  -9   2   28.62   10.08
   1  -9   2   17.41    7.13
   1  -9   2   16.32    7.23
   1  -9   2   19.93   14.07
  -2   9  -2   15.84    8.09
  -2   9  -2   21.51    7.40
   2  -9   2   28.42    8.87
   2  -9   2   -1.30    5.30
   2  -9   2   16.15    9.62
   2  -9   2   15.03    7.22
  -3   9  -2   55.74   14.15
  -3   9  -2   70.35   14.85
  -3   9  -2   52.47   11.00
   3  -9   2   51.26   11.52
   3  -9   2   34.14    8.91
   3  -9   2   36.06   11.54
   3  -9   2   64.86   13.16
  -4   9  -2  132.54   15.34
  -4   9  -2  110.06   19.14
  -4   9  -2  107.24   15.91
   4  -9   2   83.06   13.94
   4  -9   2  114.02   19.38
   4  -9   2  145.60   28.60
  -5   9  -2   96.51   14.86
  -5   9  -2   68.32   16.91
  -5   9  -2   44.48   11.37
   5  -9   2   75.73   16.47
   5  -9   2   60.07   10.94
   5  -9   2   59.00   10.88
  -6   9  -2   22.36   11.79
  -6   9  -2   26.54    7.76
  -6   9  -2   14.42    6.63
   6  -9   2    3.08    5.14
   6  -9   2   17.22    9.96
  -7   9  -2    3.04    4.93
  -7   9  -2   -4.37    4.68
  -8   9  -2   -4.72    5.28
  -8   9  -2   -2.76    4.98
   2   8  -2   -9.63    8.61
   2   8  -2   -6.65    6.42
  -2  -8   2    0.04    6.65
  -2  -8   2    0.05    5.62
  -2  -8   2    3.00   13.14
  -2  -8   2    6.99    6.68
   1   8  -2   41.41    9.66
   1   8  -2   32.29   10.60
  -1  -8   2   25.58    7.60
  -1  -8   2   16.58    8.13
  -1  -8   2   48.80   11.39
  -1  -8   2   32.47   12.38
  -1  -8   2   20.39    9.49
   0   8  -2  152.49   21.37
   0   8  -2  166.68   19.19
   0  -8   2  223.36   29.09
   0  -8   2  171.58   19.80
   0  -8   2  165.44   19.57
   0  -8   2  162.07   18.95
  -1   8  -2    6.87    5.05
  -1   8  -2    9.32    5.20
   1  -8   2    5.63    4.75
   1  -8   2   10.31    5.52
   1  -8   2   11.35    4.97
  -2   8  -2  194.09   20.34
  -2   8  -2  187.77   22.09
  -2   8  -2  185.38   24.81
   2  -8   2  170.83   24.58
   2  -8   2  195.77   27.30
   2  -8   2  209.70   20.60
  -3   8  -2    6.33    4.24
  -3   8  -2    8.34    8.05
  -3   8  -2    5.27    4.55
   3  -8   2   -5.78    3.44
   3  -8   2    3.43    7.93
   3  -8   2   13.45    5.71
   3  -8   2   -3.11    5.29
  -4   8  -2    5.23    7.81
  -4   8  -2   -5.80    4.20
   4  -8   2   -4.34    5.52
   4  -8   2    2.57    5.55
   4  -8   2    7.45    4.16
  -5   8  -2   13.20    5.44
  -5   8  -2    4.65    5.14
  -5   8  -2   19.84    9.33
   5  -8   2   14.63    5.47
   5  -8   2    8.80    8.07
   5  -8   2    6.60    4.64
   5  -8   2   18.35    4.86
  -6   8  -2   48.28   10.37
  -6   8  -2   72.63   12.95
  -6   8  -2   72.20   14.88
   6  -8   2   57.38    8.22
   6  -8   2   72.83    8.63
  -7   8  -2   21.73    9.10
  -7   8  -2   17.70    5.85
  -7   8  -2   21.04    6.70
   7  -8   2   11.89    9.21
  -8   8  -2   -0.58    3.96
  -8   8  -2   19.00    8.34
  -8   8  -2   -2.54    4.38
  -4  -7   2   22.37   13.46
   3   7  -2    8.34    8.61
  -3  -7   2   15.65    7.76
  -3  -7   2   26.52    9.46
  -3  -7   2   16.95   12.46
  -3  -7   2   13.05    6.42
   2   7  -2   73.18   14.36
  -2  -7   2   43.38    9.82
  -2  -7   2   74.18   13.75
  -2  -7   2   53.72   11.00
  -2  -7   2   53.47   12.15
   1   7  -2  131.91   19.26
   1   7  -2  138.70   18.93
  -1  -7   2  147.90   18.79
  -1  -7   2  149.13   16.96
  -1  -7   2  130.83   18.15
  -1  -7   2  151.37   17.35
   0   7  -2  137.45   15.88
   0   7  -2  123.20   17.67
   0  -7   2  135.42   21.65
   0  -7   2  173.71   17.52
   0  -7   2  100.70   25.39
  -1   7  -2   50.41   11.76
  -1   7  -2   46.69    9.14
  -1   7  -2   63.60   14.30
   1  -7   2   53.96   10.04
   1  -7   2   59.85   10.77
   1  -7   2   40.73    8.86
   1  -7   2   62.92   16.30
   1  -7   2   69.94   12.46
  -2   7  -2   86.58   14.08
  -2   7  -2  130.30   18.29
   2  -7   2  119.63   13.69
  -3   7  -2    1.02    3.59
  -3   7  -2    0.18    3.38
  -3   7  -2    2.91    3.49
  -3   7  -2    3.11    5.57
   3  -7   2    6.11    4.76
   3  -7   2   -3.43    3.96
   3  -7   2    1.36    3.52
   3  -7   2    8.38    4.14
  -4   7  -2   68.59   13.32
  -4   7  -2   73.21   13.37
  -4   7  -2   73.08    9.94
  -4   7  -2   60.63    9.17
   4  -7   2   45.45   12.20
   4  -7   2   70.76   10.11
   4  -7   2   72.87    9.76
  -5   7  -2    4.13    3.81
  -5   7  -2    0.52    3.67
  -5   7  -2   -0.50    6.19
  -5   7  -2    0.58    4.32
   5  -7   2   -5.59    2.73
   5  -7   2    4.30    6.78
  -6   7  -2   19.28    6.33
  -6   7  -2   19.41    5.85
  -6   7  -2   22.21    6.68
  -6   7  -2   40.01    9.98
   6  -7   2   16.82    7.94
  -7   7  -2    6.60    4.05
  -7   7  -2   -2.24    3.28
  -7   7  -2   -6.28    6.01
   7  -7   2    9.69    9.37
  -8   7  -2   79.58   12.71
  -8   7  -2   68.77    9.73
  -8   7  -2   71.35   10.18
   8  -7   2   80.09   14.26
  -9   7  -2    3.52    3.13
  -9   7  -2    4.08    5.59
  -9   7  -2    2.83    5.64
  -5  -6   2   59.01   12.20
   4   6  -2   -3.38    6.63
   4   6  -2    7.99    5.31
   4   6  -2   -4.42    8.96
  -4  -6   2    4.45   11.42
  -4  -6   2    6.85    4.96
  -4  -6   2    2.84    6.16
  -4  -6   2   -8.16    5.28
   3   6  -2  149.85   22.01
   3   6  -2  208.21   19.15
  -3  -6   2  188.56   19.55
  -3  -6   2  185.79   21.39
   2   6  -2   13.49    5.62
   2   6  -2    5.39    4.12
  -2  -6   2   -0.78    5.04
  -2  -6   2   -0.49    4.32
  -2  -6   2    5.18    4.99
   1   6  -2   12.75    5.23
   1   6  -2   20.79    7.72
  -1  -6   2   11.77    4.85
  -1  -6   2   15.51    5.91
  -1  -6   2   18.61    6.90
  -1  -6   2   16.35    5.26
   0   6  -2  117.70   14.02
   0   6  -2  117.38   17.06
   0   6  -2  121.46   17.42
   0   6  -2  129.32   13.99
   0  -6   2   92.80   14.49
   0  -6   2  147.45   14.09
   0  -6   2  144.40   15.22
   0  -6   2  128.31   14.40
  -1   6  -2  148.56   15.17
  -1   6  -2  155.88   16.74
  -1   6  -2  119.70   20.57
  -1   6  -2  109.31   15.01
  -1   6  -2  129.20   15.99
  -1   6  -2  169.32   18.73
   1  -6   2  153.75   16.38
   1  -6   2  142.96   15.18
   1  -6   2  124.28   15.00
   1  -6   2   98.73   27.50
   1  -6   2  129.31   14.73
   1  -6   2  172.79   15.87
  -2   6  -2   96.40   12.86
  -2   6  -2  133.34   15.81
  -2   6  -2  126.69   14.54
  -3   6  -2    6.65    3.75
  -3   6  -2    1.77    4.04
  -3   6  -2   13.27    4.28
  -3   6  -2    2.81    4.10
   3  -6   2    7.69    3.34
   3  -6   2    6.40    4.02
   3  -6   2    5.52    4.00
  -4   6  -2   64.64    9.02
  -4   6  -2   69.88    8.83
  -4   6  -2   69.28    9.00
  -4   6  -2   65.69   11.02
  -4   6  -2   62.17    9.88
   4  -6   2   61.56    7.83
   4  -6   2   75.56   13.86
   4  -6   2   67.80    9.14
  -5   6  -2  151.32   14.25
  -5   6  -2  133.49   14.76
  -5   6  -2  114.71   15.29
  -5   6  -2  144.55   14.72
  -5   6  -2  121.68   14.24
   5  -6   2  126.42   12.40
  -6   6  -2   53.40    9.00
  -6   6  -2   54.73   10.44
  -6   6  -2   65.83   10.26
  -6   6  -2   70.13   10.51
  -6   6  -2   73.75    8.79
   6  -6   2   59.34   11.15
  -7   6  -2   61.84   11.24
  -7   6  -2   88.50   10.35
  -7   6  -2   71.45   11.91
  -7   6  -2   76.57    9.89
   7  -6   2  116.65   13.71
  -8   6  -2   19.62    8.29
  -8   6  -2   25.77    5.19
  -8   6  -2   25.91    6.51
  -9   6  -2   36.18    7.22
  -9   6  -2   31.29    6.93
   5   5  -2   -3.73    9.05
  -5  -5   2   -6.17    9.86
  -5  -5   2    5.77    4.67
  -5  -5   2    3.89    6.95
  -5  -5   2   11.16    7.01
  -5  -5   2    7.45    5.73
   4   5  -2    1.99    3.63
   4   5  -2    1.29    3.72
   4   5  -2   -5.25    7.31
  -4  -5   2    0.05    3.76
  -4  -5   2    3.81    4.58
  -4  -5   2    5.70    4.57
  -4  -5   2    3.49    5.35
   3   5  -2   94.21   10.93
   3   5  -2   84.10   14.26
  -3  -5   2   82.01   10.81
  -3  -5   2   85.17   11.90
  -3  -5   2   90.72   12.42
   2   5  -2    8.20    3.50
   2   5  -2   16.60    5.26
  -2  -5   2    2.80    3.51
  -2  -5   2   13.23    4.62
  -2  -5   2   14.26    5.16
  -2  -5   2    9.02    3.61
   1   5  -2  100.93   12.49
   1   5  -2  110.93   14.63
   1   5  -2  117.43   13.94
   1   5  -2  103.18   11.96
   1   5  -2  124.47   11.89
   1   5  -2  111.67   11.98
  -1  -5   2  101.34   12.60
  -1  -5   2  103.05   11.91
  -1  -5   2  103.61   12.31
  -1  -5   2   99.37   12.13
  -1  -5   2  111.47   13.33
   0   5  -2   -0.44    2.68
   0   5  -2    0.01    4.39
   0   5  -2    2.20    2.50
   0   5  -2    1.73    2.34
   0   5  -2   -0.60    2.32
   0  -5   2   -4.65    2.12
   0  -5   2   -3.99    2.15
   0  -5   2    0.98    2.22
   0  -5   2    2.93    2.93
   0  -5   2    3.35    2.90
  -1   5  -2  180.58   17.92
  -1   5  -2  174.20   16.62
  -1   5  -2  168.36   16.71
  -1   5  -2  181.77   16.72
  -1   5  -2  163.30   16.12
  -1   5  -2  161.81   18.23
   1  -5   2  166.83   19.44
   1  -5   2  154.77   16.26
   1  -5   2  184.09   16.68
   1  -5   2  157.01   16.60
   1  -5   2  194.41   17.96
  -2   5  -2   -0.59    2.41
  -2   5  -2    2.99    2.77
  -2   5  -2   -1.10    2.36
  -2   5  -2   -0.42    1.87
  -2   5  -2   -1.56    1.87
  -2   5  -2   -3.41    2.72
   2  -5   2    1.15    2.20
   2  -5   2    2.61    2.34
   2  -5   2   -3.99    2.60
   2  -5   2    6.09    4.36
   2  -5   2    2.42    2.81
   2  -5   2   -0.50    1.80
  -3   5  -2  585.03   49.99
  -3   5  -2  589.04   50.44
  -3   5  -2  590.96   49.75
  -3   5  -2  584.31   49.99
  -3   5  -2  577.77   51.14
  -3   5  -2  619.57   49.76
   3  -5   2  612.42   49.66
   3  -5   2  639.11   49.17
   3  -5   2  604.44   52.04
   3  -5   2  607.85   50.48
   3  -5   2  624.64   50.23
  -4   5  -2   57.44    7.56
  -4   5  -2   51.17    8.89
  -4   5  -2   62.74    8.21
  -4   5  -2   60.02    8.25
  -4   5  -2   62.97    9.94
  -4   5  -2   74.83   10.47
   4  -5   2   58.19   11.93
   4  -5   2   56.79    8.68
   4  -5   2   64.01    6.78
   4  -5   2   53.20    7.13
  -5   5  -2  117.82   12.81
  -5   5  -2  131.97   13.30
  -5   5  -2  115.57   14.77
  -5   5  -2  130.33   12.56
  -5   5  -2  117.59   13.50
   5  -5   2  114.35   13.95
  -6   5  -2  259.77   25.85
  -6   5  -2  288.08   24.33
  -6   5  -2  257.05   25.51
  -6   5  -2  275.76   24.95
  -6   5  -2  294.83   24.46
   6  -5   2  270.37   25.47
  -7   5  -2    2.57    3.54
  -7   5  -2   -0.64    5.25
  -7   5  -2    0.96    3.09
  -7   5  -2    7.91    4.74
   7  -5   2   10.65    4.86
  -8   5  -2  113.21   13.53
  -8   5  -2   99.41   15.05
  -8   5  -2  142.45   14.10
  -8   5  -2  126.21   12.93
  -8   5  -2  134.97   11.97
  -9   5  -2    2.99    3.64
  -9   5  -2    0.52    4.01
  -6  -4   2   14.57    6.53
  -6  -4   2   13.74    5.16
  -6  -4   2   16.92   11.35
  -6  -4   2   14.82    6.99
  -6  -4   2   19.12    6.84
   5   4  -2  110.73   15.63
  -5  -4   2   99.06   12.09
  -5  -4   2  100.22   12.49
  -5  -4   2   98.79   14.24
  -5  -4   2   87.20   15.69
   4   4  -2   26.94    4.98
  -4  -4   2   27.27    8.69
  -4  -4   2   41.70    8.13
  -4  -4   2   21.73    5.44
  -4  -4   2   19.99    6.70
   3   4  -2   41.54    8.45
   3   4  -2   36.72    5.71
  -3  -4   2   32.01    6.36
  -3  -4   2   31.59    7.46
  -3  -4   2   24.52    6.25
  -3  -4   2   37.94    8.70
  -3  -4   2   30.28    6.90
   2   4  -2   74.16    9.91
   2   4  -2   72.62    7.83
   2   4  -2   69.72    8.09
   2   4  -2   65.22    9.31
   2   4  -2   85.06   10.87
   2   4  -2   69.53    8.37
  -2  -4   2   69.22    9.09
  -2  -4   2   67.08   12.30
  -2  -4   2   59.91    7.75
  -2  -4   2   65.14    8.67
  -2  -4   2   53.63    9.06
   1   4  -2  277.13   24.30
   1   4  -2  273.71   25.63
   1   4  -2  275.92   25.68
   1   4  -2  298.48   24.41
   1   4  -2  305.59   26.47
   1   4  -2  263.74   26.25
  -1  -4   2  302.46   25.36
  -1  -4   2  284.98   25.15
  -1  -4   2  289.70   26.21
  -1  -4   2  271.41   24.59
  -1  -4   2  292.11   25.96
   0   4  -2  630.46   54.22
   0   4  -2  702.03   54.04
   0   4  -2  666.25   54.89
   0   4  -2  662.14   53.84
   0   4  -2  645.61   52.98
   0   4  -2  659.23   52.72
   0  -4   2  616.08   53.18
  -1   4  -2  391.27   33.52
  -1   4  -2  388.68   34.08
  -1   4  -2  418.15   33.38
  -1   4  -2  450.55   33.58
  -1   4  -2  373.84   34.51
  -1   4  -2  396.23   32.98
   1  -4   2  399.54   33.72
   1  -4   2  370.43   35.16
   1  -4   2  374.28   33.04
   1  -4   2  392.92   33.37
   1  -4   2  402.98   34.02
   1  -4   2  391.94   33.14
  -2   4  -2  251.56   22.68
  -2   4  -2  225.68   22.89
  -2   4  -2  257.75   22.33
  -2   4  -2  257.58   22.11
  -2   4  -2  266.13   22.04
  -2   4  -2  235.79   21.91
   2  -4   2  269.44   22.60
   2  -4   2  240.79   23.85
   2  -4   2  247.09   22.54
   2  -4   2  256.75   21.63
   2  -4   2  247.62   22.02
  -3   4  -2   55.24    7.75
  -3   4  -2   68.76    7.35
  -3   4  -2   65.27    8.81
  -3   4  -2   72.21    7.90
  -3   4  -2   61.65    7.46
   3  -4   2   66.66    7.74
   3  -4   2   64.19    7.20
   3  -4   2   58.81    7.82
   3  -4   2   49.07    6.77
  -4   4  -2  200.23   18.15
  -4   4  -2  200.43   18.77
  -4   4  -2  198.01   18.23
  -4   4  -2  197.28   17.75
   4  -4   2  204.42   16.79
   4  -4   2  202.80   16.51
   4  -4   2  213.95   18.59
   4  -4   2  171.34   18.99
  -5   4  -2  246.38   24.26
  -5   4  -2  265.38   22.83
  -5   4  -2  250.26   23.78
  -5   4  -2  260.94   22.44
  -5   4  -2  261.01   22.30
   5  -4   2  252.91   23.42
   5  -4   2  262.48   22.83
  -6   4  -2   31.14    5.58
  -6   4  -2   28.33    5.03
  -6   4  -2   46.02    6.41
  -6   4  -2   30.66    6.81
   6  -4   2   39.94    6.73
  -7   4  -2   30.98    6.49
  -7   4  -2   27.78    6.25
  -7   4  -2   40.63    5.23
  -8   4  -2   -8.74    9.34
  -8   4  -2   14.37    3.95
  -8   4  -2   13.05    4.77
  -9   4  -2    3.56    4.28
  -9   4  -2    4.38    3.65
  -9   4  -2    2.19    5.39
  -7  -3   2   10.73    4.45
  -7  -3   2    9.24    7.70
  -7  -3   2    4.46    4.91
  -7  -3   2   15.68   11.02
   6   3  -2   12.34    6.47
  -6  -3   2    5.00    3.81
  -6  -3   2    2.15    4.43
  -6  -3   2    8.80    4.12
  -6  -3   2  -13.33    6.16
  -6  -3   2    2.32    3.83
   5   3  -2   -2.76    4.83
  -5  -3   2    2.23    3.77
  -5  -3   2   -1.18    3.08
  -5  -3   2    1.55    2.99
  -5  -3   2    0.11    3.12
   4   3  -2  179.46   15.16
   4   3  -2  175.52   18.70
  -4  -3   2  185.79   17.72
  -4  -3   2  192.17   17.45
  -4  -3   2  176.92   17.25
  -4  -3   2  188.39   19.73
   3   3  -2   14.95    4.71
   3   3  -2   19.73    6.06
   3   3  -2   24.24    3.90
   3   3  -2   26.04    4.38
  -3  -3   2   21.72    4.92
  -3  -3   2   21.74    5.06
  -3  -3   2   26.41    6.80
  -3  -3   2   18.50    4.55
  -3  -3   2   15.60    3.89
  -3  -3   2   16.02    5.70
   2   3  -2  574.39   46.86
   2   3  -2  526.31   46.35
   2   3  -2  584.77   48.70
   2   3  -2  633.24   48.65
  -2  -3   2  538.92   48.73
  -2  -3   2  581.87   47.52
  -2  -3   2  584.89   49.02
  -2  -3   2  628.32   47.79
  -2  -3   2  656.03   48.60
  -2  -3   2  524.47   47.52
   1   3  -2   34.32    6.65
   1   3  -2   37.67    4.77
   1   3  -2   38.20    5.19
   1   3  -2   38.08    5.73
   1   3  -2   44.08    7.48
   1   3  -2   37.55    5.04
  -1  -3   2   45.81    7.09
  -1  -3   2   38.59    5.77
  -1  -3   2   38.80    5.43
  -1  -3   2   35.97    5.67
   0   3  -2  413.21   37.87
   0   3  -2  421.53   37.18
   0   3  -2  494.95   38.06
   0   3  -2  481.95   37.06
   0   3  -2  434.75   37.15
   0  -3   2  520.57   37.46
   0  -3   2  397.57   37.70
   0  -3   2  553.09   39.98
   0  -3   2  405.88   37.16
   0  -3   2  468.35   37.49
  -1   3  -2  891.26   70.40
  -1   3  -2  807.66   71.38
  -1   3  -2  914.02   71.00
  -1   3  -2  874.33   70.52
  -1   3  -2  914.79   71.23
  -1   3  -2  968.23   70.68
   1  -3   2  801.25   71.83
   1  -3   2  885.55   71.08
   1  -3   2  911.06   70.99
   1  -3   2  859.65   70.58
   1  -3   2  983.46   70.70
   1  -3   2  850.85   70.36
  -2   3  -2   13.29    3.05
  -2   3  -2   14.04    3.80
  -2   3  -2    5.17    3.17
  -2   3  -2    8.78    3.11
  -2   3  -2   13.25    3.30
  -2   3  -2   12.19    3.33
   2  -3   2    9.45    2.56
   2  -3   2   11.37    4.17
   2  -3   2   11.70    3.20
   2  -3   2    7.17    2.61
   2  -3   2    9.59    3.08
  -3   3  -2  394.78   35.17
  -3   3  -2  403.23   34.42
  -3   3  -2  393.53   33.89
  -3   3  -2  438.68   36.72
  -3   3  -2  419.85   33.56
   3  -3   2  409.53   33.11
   3  -3   2  402.62   34.04
   3  -3   2  432.64   32.95
  -4   3  -2    2.28    2.90
  -4   3  -2    1.76    2.27
  -4   3  -2    7.46    2.49
  -4   3  -2    8.53    2.41
  -4   3  -2    6.08    2.58
   4  -3   2    6.52    2.90
   4  -3   2    6.57    3.16
  -5   3  -2    1.79    1.73
  -5   3  -2    4.41    2.40
  -5   3  -2    1.70    3.18
  -5   3  -2    4.16    3.05
  -5   3  -2    3.43    1.86
   5  -3   2    3.78    2.58
   5  -3   2    2.65    2.67
  -6   3  -2   25.13    5.00
  -6   3  -2   26.19    4.40
  -6   3  -2   23.74    6.16
  -6   3  -2   21.63    4.65
  -6   3  -2   32.30    4.34
   6  -3   2   30.39    4.88
  -7   3  -2    6.11    2.59
  -7   3  -2    6.40    3.62
  -7   3  -2    5.13    2.81
  -8   3  -2   -4.93    4.70
  -8   3  -2   -3.14    2.42
  -8   3  -2    4.16    3.37
  -9   3  -2   12.30    6.79
  -9   3  -2    7.33    4.64
   7   2  -2   13.37    6.58
  -7  -2   2    3.95    4.47
  -7  -2   2   14.04    4.93
  -7  -2   2   11.96    7.03
  -7  -2   2   17.09    7.35
  -7  -2   2   13.46    4.75
   6   2  -2  114.83   13.01
  -6  -2   2  110.95   11.71
  -6  -2   2   99.04   12.20
  -6  -2   2  110.97   14.86
  -6  -2   2  116.15   12.01
   5   2  -2   23.27    5.71
  -5  -2   2   18.81    6.41
  -5  -2   2   12.62    4.64
  -5  -2   2   20.26    4.71
  -5  -2   2   19.34    4.38
  -5  -2   2   22.31    5.17
   4   2  -2   44.41    7.61
   4   2  -2   49.45    7.45
  -4  -2   2   58.34    9.41
  -4  -2   2   51.57    6.28
  -4  -2   2   56.56    6.73
  -4  -2   2   56.72    8.57
  -4  -2   2   50.48    6.72
  -4  -2   2   49.81    6.40
   3   2  -2   47.89    5.69
   3   2  -2   53.57    5.13
   3   2  -2   49.81    4.70
   3   2  -2   54.94    6.98
   3   2  -2   45.25    7.14
   3   2  -2   56.64    7.08
  -3  -2   2   49.76    5.84
  -3  -2   2   52.21    6.41
  -3  -2   2   42.66    7.08
  -3  -2   2   51.72    7.32
  -3  -2   2   46.72    6.27
   2   2  -2  411.95   31.38
   2   2  -2  378.60   30.85
   2   2  -2  364.62   32.37
   2   2  -2  414.05   33.06
  -2  -2   2  391.68   31.58
  -2  -2   2  417.16   31.91
  -2  -2   2  386.83   33.07
  -2  -2   2  355.24   31.35
  -2  -2   2  403.93   32.35
  -2  -2   2  347.12   32.53
   1   2  -2  352.64   29.77
   1   2  -2  341.28   28.60
   1   2  -2  357.39   28.92
   1   2  -2  355.95   28.73
   1   2  -2  353.58   29.62
   1   2  -2  332.85   30.40
  -1  -2   2  369.95   29.67
  -1  -2   2  348.23   28.77
  -1  -2   2  364.27   29.97
  -1  -2   2  371.42   29.15
  -1  -2   2  362.79   29.10
   0   2  -2 3439.73  243.46
   0   2  -2 2700.71  242.57
   0   2  -2 2980.37  242.72
   0   2  -2 3222.85  242.59
   0   2  -2 2690.17  243.03
   0  -2   2 3330.41  242.72
   0  -2   2 3556.79  243.62
   0  -2   2 2721.94  242.61
   0  -2   2 3463.65  244.41
   0  -2   2 3251.57  243.00
  -1   2  -2  187.39   16.10
  -1   2  -2  173.31   16.79
  -1   2  -2  188.06   15.83
  -1   2  -2  178.11   15.94
  -1   2  -2  198.83   15.70
  -1   2  -2  184.47   15.67
   1  -2   2  162.05   16.57
   1  -2   2  178.20   15.72
   1  -2   2  197.65   16.18
   1  -2   2  182.67   15.98
   1  -2   2  185.06   15.56
  -2   2  -2  142.89   13.84
  -2   2  -2  145.57   13.29
  -2   2  -2  144.72   12.78
  -2   2  -2  145.68   12.89
  -2   2  -2  152.10   12.63
   2  -2   2  144.82   12.53
   2  -2   2  141.87   12.30
  -3   2  -2   30.77    3.99
  -3   2  -2   31.28    4.14
  -3   2  -2   38.10    5.10
  -3   2  -2   33.89    4.28
   3  -2   2   30.52    4.89
   3  -2   2   31.37    4.70
   3  -2   2   35.28    3.26
  -4   2  -2    2.03    2.60
  -4   2  -2    2.20    1.52
  -4   2  -2    4.15    1.64
  -4   2  -2    1.34    1.91
   4  -2   2    4.50    2.39
   4  -2   2    1.78    2.18
  -5   2  -2    8.84    3.89
  -5   2  -2    8.09    2.40
  -5   2  -2    7.07    2.81
  -5   2  -2    6.52    2.50
  -5   2  -2    8.39    2.74
   5  -2   2    9.01    2.76
   5  -2   2   10.44    4.46
  -6   2  -2    3.87    2.58
  -6   2  -2    5.12    3.71
  -6   2  -2    3.91    2.90
  -6   2  -2    6.24    2.43
  -6   2  -2    5.12    2.85
   6  -2   2    5.78    2.81
  -7   2  -2   30.81    6.10
  -7   2  -2   22.14    9.20
  -7   2  -2   49.82    6.85
  -7   2  -2   36.97    5.92
  -8   2  -2   23.56    4.58
  -8   2  -2   20.68    5.69
  -8   2  -2   30.44    8.88
  -9   2  -2    4.82    3.83
  -9   2  -2    9.27    6.39
  -8  -1   2    0.33    5.85
  -8  -1   2    1.56    3.77
  -8  -1   2    0.51    3.61
  -7  -1   2   47.94    7.12
  -7  -1   2   55.30    9.50
  -7  -1   2   45.65    7.09
  -7  -1   2   60.71    7.91
  -7  -1   2   68.39   12.68
   6   1  -2   23.07    4.80
  -6  -1   2   31.46    5.84
  -6  -1   2   27.10    7.79
  -6  -1   2   30.17    4.81
  -6  -1   2   31.43    5.68
   5   1  -2   24.62    4.96
   5   1  -2   29.10    4.65
   5   1  -2   16.31    4.44
  -5  -1   2   15.04    5.19
  -5  -1   2   19.78    4.42
  -5  -1   2   26.88    3.89
  -5  -1   2   23.14    4.25
  -5  -1   2   26.59    4.41
   4   1  -2  358.83   30.80
   4   1  -2  375.67   30.78
   4   1  -2  365.21   30.57
  -4  -1   2  369.29   32.94
  -4  -1   2  388.84   30.74
  -4  -1   2  391.42   31.03
  -4  -1   2  372.55   30.25
   3   1  -2   34.13    4.58
   3   1  -2   31.94    4.05
   3   1  -2   31.79    4.67
  -3  -1   2   35.50    4.49
  -3  -1   2   30.57    4.13
  -3  -1   2   39.99    4.18
  -3  -1   2   38.67    5.50
  -3  -1   2   33.40    3.83
   2   1  -2  125.28   12.41
   2   1  -2  121.59   12.01
   2   1  -2  137.79   11.95
   2   1  -2  128.24   11.31
   2   1  -2  135.13   10.76
   2   1  -2  151.32   10.98
  -2  -1   2  129.92   11.41
  -2  -1   2  141.52   11.51
  -2  -1   2  129.75   11.33
  -2  -1   2  134.29   12.29
  -2  -1   2  133.92   12.70
   1   1  -2    0.10    1.13
   1   1  -2   -0.48    0.89
   1   1  -2    1.75    1.08
   1   1  -2    1.46    0.91
  -1  -1   2    2.99    2.12
  -1  -1   2    0.77    0.96
  -1  -1   2    0.24    1.13
  -1  -1   2    2.28    1.20
  -1  -1   2    0.15    1.26
  -1  -1   2    1.88    1.25
   0   1  -2 1090.02  101.67
   0   1  -2 1306.56  101.65
   0   1  -2 1347.70  101.99
   0   1  -2 1454.81  102.42
   0   1  -2 1102.56  101.91
   0   1  -2 1435.09  102.87
   0  -1   2 1484.55  102.42
   0  -1   2 1345.90  102.02
   0  -1   2 1434.51  102.87
   0  -1   2 1324.99  101.67
   0  -1   2 1108.14  101.71
  -1   1  -2  315.14   28.84
  -1   1  -2  348.35   28.62
  -1   1  -2  345.96   28.24
  -1   1  -2  360.66   28.28
  -1   1  -2  371.57   28.14
   1  -1   2  356.87   28.61
   1  -1   2  339.64   28.29
   1  -1   2  350.35   29.00
   1  -1   2  352.59   28.20
   1  -1   2  378.10   28.15
  -2   1  -2  233.28   18.36
  -2   1  -2  206.98   19.23
  -2   1  -2  227.59   18.44
  -2   1  -2  214.76   18.46
   2  -1   2  227.35   18.15
   2  -1   2  234.35   18.76
   2  -1   2  225.79   18.11
  -3   1  -2  143.89   12.41
  -3   1  -2  152.26   12.28
  -3   1  -2  146.14   12.73
  -3   1  -2  138.35   12.41
  -3   1  -2  127.11   13.24
   3  -1   2  157.38   13.02
   3  -1   2  138.78   12.63
  -4   1  -2   15.91    3.03
  -4   1  -2   13.95    3.17
  -4   1  -2    9.99    3.66
  -4   1  -2   18.04    3.48
  -4   1  -2   12.09    3.07
   4  -1   2   17.63    3.34
   4  -1   2   20.55    3.67
  -5   1  -2   11.48    2.65
  -5   1  -2    7.71    3.77
  -5   1  -2    7.00    2.75
  -5   1  -2    8.98    2.85
  -5   1  -2    7.31    3.20
   5  -1   2    8.51    2.92
   5  -1   2    9.00    3.47
  -6   1  -2    7.04    2.90
  -6   1  -2    1.07    2.81
  -6   1  -2   -0.40    3.30
  -6   1  -2    1.81    2.27
   6  -1   2    6.05    2.90
  -7   1  -2    8.11    3.53
  -7   1  -2    4.15    3.38
  -7   1  -2    4.48    4.03
  -7   1  -2   -4.83    3.86
  -7   1  -2    5.54    2.43
  -8   1  -2    2.31    2.92
  -8   1  -2    4.05    4.43
  -8   1  -2    5.29    4.26
  -8   1  -2    0.89    5.49
  -8   0   2    3.61    3.00
  -8   0   2    7.63    3.91
  -8   0   2    7.52    5.65
  -7   0   2   57.78   11.26
  -7   0   2   54.80    7.49
  -7   0   2   52.56    6.19
  -7   0   2   51.00    7.39
  -6   0   2   65.99    6.23
  -6   0   2   62.79    7.51
  -6   0   2   54.03    9.09
  -6   0   2   58.11    6.64
  -5   0   2   98.70   11.52
  -5   0   2   98.97    8.48
  -5   0   2   95.81    8.86
  -5   0   2   98.75    9.66
  -5   0   2   95.89    8.78
  -4   0   2   16.64    2.10
  -4   0   2   17.51    2.50
  -4   0   2   21.24    4.89
  -4   0   2   15.48    2.33
  -4   0   2   21.78    3.60
   3   0  -2  104.73    9.25
  -3   0   2   93.21    8.88
  -3   0   2   91.29   10.04
  -3   0   2  114.59    8.73
  -3   0   2   98.44    8.17
   2   0  -2  112.81    8.94
   2   0  -2  104.54    8.81
   2   0  -2  107.95    9.72
   2   0  -2   93.85    8.87
  -2   0   2  102.86    9.80
  -2   0   2  111.73    8.97
  -2   0   2  112.97    8.92
   1   0  -2  569.27   43.22
   1   0  -2  517.25   43.98
   1   0  -2  517.65   43.57
   1   0  -2  564.04   43.95
   1   0  -2  553.25   43.37
  -1   0   2  582.12   43.38
  -1   0   2  575.68   44.01
  -1   0   2  559.75   43.65
  -1   0   2  542.25   43.63
  -1   0   2  551.43   44.05
  -1   0   2  611.33   43.30
   0   0  -2    8.71    1.59
   0   0  -2    9.17    1.50
   0   0  -2   11.80    2.00
   0   0  -2    8.56    2.06
   0   0  -2   10.37    1.88
   0   0   2   10.25    1.55
   0   0   2    9.44    2.26
   0   0   2    8.13    1.24
   0   0   2   10.87    1.98
   0   0   2    8.71    1.59
  -1   0  -2  598.18   47.27
  -1   0  -2  598.81   47.94
  -1   0  -2  569.20   47.40
  -1   0  -2  578.59   47.42
  -1   0  -2  613.55   47.24
   1   0   2  599.06   47.41
   1   0   2  614.87   47.25
   1   0   2  583.13   47.35
   1   0   2  674.44   48.06
   1   0   2  605.02   47.28
  -2   0  -2  239.04   20.76
  -2   0  -2  243.54   21.33
  -2   0  -2  253.56   20.88
  -2   0  -2  244.62   20.95
  -2   0  -2  259.81   20.58
   2   0   2  261.73   20.49
   2   0   2  269.37   21.33
   2   0   2  276.44   21.09
   2   0   2  242.17   20.51
  -3   0  -2   35.74    4.64
  -3   0  -2   37.52    5.87
  -3   0  -2   39.54    4.51
  -3   0  -2   37.08    5.11
   3   0   2   43.34    3.98
   3   0   2   41.50    4.94
   3   0   2   35.03    3.78
   3   0   2   38.07    4.98
  -4   0  -2   31.44    5.24
  -4   0  -2   42.16    5.87
  -4   0  -2   37.06    4.81
  -4   0  -2   37.34    4.36
  -4   0  -2   34.00    4.96
   4   0   2   36.60    5.24
   4   0   2   38.37    5.43
  -5   0  -2   11.53    3.37
  -5   0  -2    9.36    3.39
  -5   0  -2   11.38    2.88
  -5   0  -2   11.63    3.61
  -5   0  -2    8.30    3.15
   5   0   2   10.64    3.87
  -6   0  -2   10.11    3.84
  -6   0  -2    4.65    3.75
  -6   0  -2    6.94    3.32
  -6   0  -2    8.63    4.28
  -6   0  -2    8.71    2.74
  -6   0  -2    0.04    3.42
   6   0   2    5.37    4.04
  -7   0  -2   42.07   10.12
  -7   0  -2   32.66    7.07
  -7   0  -2   46.84    5.91
  -7   0  -2   37.47    7.86
  -7   0  -2   28.75    7.22
  -7   0  -2   28.67    6.74
   7   0   2   32.07    9.20
  -8   0  -2   -0.11    6.27
  -8   0  -2   -1.62    4.76
  -8   0  -2    2.34    4.13
  -8   0  -2   -3.23    3.54
  -8   0  -2    6.97    5.28
  -9   1   2   23.41    5.06
  -9   1   2   34.03    9.77
  -9   1   2   23.19    5.79
  -8   1   2   -1.45    2.77
  -8   1   2    1.38    2.95
  -8   1   2    2.04    2.29
  -8   1   2    2.58    5.14
  -7   1   2   24.92    3.23
  -7   1   2   22.50    6.88
  -7   1   2   21.85    4.51
  -7   1   2   27.63    5.40
  -6   1   2   -0.20    2.70
  -6   1   2    1.49    2.00
  -6   1   2    0.59    1.40
  -5   1   2    4.45    2.39
  -5   1   2    6.26    2.33
  -4   1   2   20.62    2.97
  -4   1   2   23.32    4.49
  -3   1   2  261.37   21.61
  -3   1   2  253.19   20.74
   2  -1  -2   65.76    5.40
   2  -1  -2   58.57    5.27
  -2   1   2   59.89    5.60
  -2   1   2   59.44    5.22
  -2   1   2   62.12    5.18
   1  -1  -2  681.69   51.78
   1  -1  -2  646.25   51.48
   1  -1  -2  688.40   52.21
   1  -1  -2  637.31   51.79
  -1   1   2  653.89   52.06
  -1   1   2  629.35   51.64
  -1   1   2  682.31   52.04
  -1   1   2  711.14   52.21
  -1   1   2  662.00   51.82
   0  -1  -2 1177.61   94.16
   0  -1  -2 1284.57   94.26
   0  -1  -2 1246.39   93.54
   0  -1  -2 1233.48   93.95
   0  -1  -2 1161.82   93.66
   0   1   2 1225.64   93.50
   0   1   2 1231.86   93.97
   0   1   2 1110.41   94.07
   0   1   2 1137.82   93.58
   0   1   2 1251.70   94.11
  -2  -1  -2   33.36    4.00
  -2  -1  -2   34.57    4.25
  -2  -1  -2   35.04    5.15
  -2  -1  -2   35.30    4.73
   2   1   2   39.78    4.29
   2   1   2   32.84    3.92
   2   1   2   38.11    4.31
   2   1   2   35.66    4.85
   2   1   2   35.19    4.93
  -3  -1  -2   79.33    7.76
  -3  -1  -2   88.94    8.46
  -3  -1  -2   81.39    8.33
   3   1   2   75.66    7.35
   3   1   2   79.59    8.13
  -4  -1  -2   63.40    7.89
  -4  -1  -2   80.76    9.86
  -4  -1  -2   73.06    7.95
  -4  -1  -2   65.70    8.58
  -4  -1  -2   78.86    7.48
   4   1   2   70.89    8.68
   4   1   2   70.59    6.25
   4   1   2   67.80    7.78
   4   1   2   65.51    6.12
   4   1   2   64.68    8.45
  -5  -1  -2    0.95    2.63
  -5  -1  -2    1.10    2.90
  -5  -1  -2   -0.27    1.97
  -5  -1  -2   -0.51    2.67
  -5  -1  -2    3.54    2.65
  -5  -1  -2   -2.94    2.61
   5   1   2    1.37    3.40
  -6  -1  -2   16.73    4.27
  -6  -1  -2   18.22    4.63
  -6  -1  -2   13.65    5.21
  -6  -1  -2   22.56    6.05
  -6  -1  -2   17.79    6.22
  -6  -1  -2   15.47    5.57
   6   1   2   20.56    6.28
  -7  -1  -2    6.53    5.50
  -7  -1  -2   -1.61    4.76
  -7  -1  -2    5.79    3.83
  -7  -1  -2   -1.09    3.12
  -7  -1  -2    3.12    5.40
   7   1   2   10.63    6.98
  -9   2   2    7.08    2.75
  -9   2   2   10.98    4.52
  -9   2   2    5.98    5.82
  -8   2   2    9.46    2.62
  -8   2   2    5.01    1.79
  -8   2   2    1.05    4.64
  -7   2   2   -2.50    2.84
  -7   2   2    0.91    1.35
  -7   2   2    1.48    2.16
  -6   2   2   26.72    5.95
  -6   2   2   26.07    4.67
  -5   2   2   12.27    2.78
  -5   2   2   17.87    4.07
  -4   2   2   82.89    8.36
   3  -2  -2   30.42    3.21
  -3   2   2   32.00    2.92
  -3   2   2   26.95    3.01
   2  -2  -2   77.23    7.82
   2  -2  -2   78.04    7.00
   2  -2  -2   87.22    7.56
  -2   2   2   79.58    7.65
  -2   2   2   82.55    7.26
  -2   2   2   82.71    7.61
  -2   2   2   79.07    7.21
  -2   2   2   77.92    6.59
  -2   2   2   90.46    7.53
   1  -2  -2  140.46   12.51
   1  -2  -2  141.28   13.27
   1  -2  -2  156.74   12.74
   1  -2  -2  151.92   12.15
   1  -2  -2  162.14   13.15
   1  -2  -2  140.13   12.59
  -1   2   2  140.80   13.10
  -1   2   2  146.43   12.39
  -1   2   2  146.30   12.56
  -1   2   2  156.19   13.19
  -1   2   2  149.29   12.78
   0  -2  -2  513.74   40.85
   0  -2  -2  497.15   39.87
   0  -2  -2  543.31   40.20
   0  -2  -2  500.52   40.12
   0  -2  -2  520.40   39.75
   0  -2  -2  451.25   40.29
   0   2   2  500.89   40.57
   0   2   2  514.87   39.87
   0   2   2  451.80   40.37
   0   2   2  494.93   40.12
   0   2   2  507.64   39.61
  -1  -2  -2  167.26   14.14
  -1  -2  -2  162.85   14.51
  -1  -2  -2  161.50   14.90
  -1  -2  -2  168.02   14.17
  -1  -2  -2  137.59   14.91
  -1  -2  -2  161.80   14.83
   1   2   2  194.15   14.11
   1   2   2  152.56   14.35
   1   2   2  155.72   14.87
   1   2   2  160.77   15.00
   1   2   2  161.91   13.97
  -2  -2  -2  262.14   23.77
  -2  -2  -2  289.42   24.33
  -2  -2  -2  277.04   23.39
  -2  -2  -2  291.09   26.18
   2   2   2  273.09   24.38
   2   2   2  279.24   22.91
   2   2   2  291.18   23.66
   2   2   2  272.46   23.31
  -3  -2  -2   35.21    5.93
  -3  -2  -2   32.35    5.41
  -3  -2  -2   36.62    6.29
  -3  -2  -2   25.65    6.78
  -3  -2  -2   24.75    5.97
  -3  -2  -2   29.37    6.30
   3   2   2   27.96    5.99
   3   2   2   30.56    4.01
   3   2   2   29.75    6.08
   3   2   2   26.17    5.05
   3   2   2   30.87    4.59
  -4  -2  -2   60.78    7.73
  -4  -2  -2   52.57   10.05
  -4  -2  -2   49.45    8.51
  -4  -2  -2   49.22    7.64
  -4  -2  -2   62.33   14.46
  -4  -2  -2   60.93    7.06
   4   2   2   54.25    6.35
   4   2   2   62.43    6.63
   4   2   2   74.40    9.37
  -5  -2  -2   75.98   15.14
  -5  -2  -2   55.82   13.79
  -5  -2  -2   57.43   12.58
  -5  -2  -2   71.57    8.14
  -5  -2  -2   60.62    9.52
   5   2   2   68.10   10.41
  -6  -2  -2   14.91    6.84
  -6  -2  -2    9.27    5.32
  -6  -2  -2   10.93    4.27
  -6  -2  -2    6.39    5.87
  -6  -2  -2   10.56    4.18
   6   2   2   19.01    8.47
  -7  -2  -2    5.60    3.90
  -7  -2  -2    4.65    5.90
  -7  -2  -2    5.25    4.35
  -7  -2  -2    3.67    6.68
  -9   3   2    2.57    4.80
  -9   3   2    3.65    3.67
  -8   3   2   60.56    5.88
  -8   3   2   47.55    5.22
  -8   3   2   49.00    6.92
  -8   3   2   32.08    8.35
  -7   3   2    0.17    1.67
  -7   3   2   -0.51    1.97
  -7   3   2   -1.35    2.39
  -6   3   2  103.03   10.24
  -6   3   2   96.21    8.90
  -6   3   2  109.97    8.75
  -5   3   2    0.94    0.99
  -5   3   2   -3.27    1.26
   4  -3  -2   21.48    3.97
   4  -3  -2   20.05    2.91
  -4   3   2   20.54    3.34
  -4   3   2   19.77    3.17
  -4   3   2   19.90    3.41
  -4   3   2   21.52    3.68
  -4   3   2   17.55    2.59
   3  -3  -2   75.91    8.57
   3  -3  -2   87.57    8.24
   3  -3  -2   89.41    7.41
   3  -3  -2   80.76    7.16
  -3   3   2   79.83    7.94
  -3   3   2   88.90    7.57
  -3   3   2   87.88    7.92
  -3   3   2   83.51    8.37
   2  -3  -2  106.70   13.04
   2  -3  -2  126.14   11.63
   2  -3  -2  125.92   10.96
   2  -3  -2  132.58   11.55
   2  -3  -2  143.68   12.31
  -2   3   2  136.42   11.78
  -2   3   2  125.81   12.41
  -2   3   2  143.43   11.94
  -2   3   2  141.75   10.90
  -2   3   2  120.95   12.15
   1  -3  -2  131.59   12.34
   1  -3  -2  119.66   11.02
   1  -3  -2  121.11   11.07
   1  -3  -2  116.37   12.03
   1  -3  -2  112.07   10.82
   1  -3  -2  117.70   10.62
  -1   3   2  119.72   10.83
  -1   3   2  121.00   10.91
  -1   3   2  129.03   10.64
  -1   3   2  119.25   11.72
  -1   3   2  120.28   11.22
  -1   3   2   99.77   11.51
   0  -3  -2   76.50    9.02
   0  -3  -2   93.05   10.20
   0  -3  -2   91.83    8.96
   0  -3  -2   98.96    8.68
   0  -3  -2   88.44    8.90
   0  -3  -2   85.98    8.64
   0   3   2   85.25    8.41
   0   3   2   72.90    8.08
   0   3   2   90.70   10.50
   0   3   2   89.46    8.95
   0   3   2   84.19    9.55
  -1  -3  -2   33.23    5.36
  -1  -3  -2   34.32    5.26
  -1  -3  -2   46.14    8.60
  -1  -3  -2   29.45    5.25
  -1  -3  -2   45.11    7.05
   1   3   2   38.59    5.26
   1   3   2   41.72    6.18
   1   3   2   33.03    4.59
   1   3   2   34.53    4.62
  -2  -3  -2  129.19   14.89
  -2  -3  -2  145.46   13.61
  -2  -3  -2  132.74   13.36
  -2  -3  -2  142.87   13.94
  -2  -3  -2  136.58   14.70
  -2  -3  -2  166.83   14.80
   2   3   2  141.77   15.89
   2   3   2  142.86   14.74
   2   3   2  140.11   12.77
  -3  -3  -2   38.88    6.83
  -3  -3  -2   38.33    5.81
  -3  -3  -2   41.07    6.83
  -3  -3  -2   33.35    7.81
  -3  -3  -2   48.40    7.94
  -3  -3  -2   39.78    8.39
   3   3   2   38.26    7.60
  -4  -3  -2   42.94    9.25
  -4  -3  -2   49.15    8.53
  -4  -3  -2   49.05    7.36
  -4  -3  -2   64.86   11.95
  -4  -3  -2   58.58    7.59
   4   3   2   52.56    6.32
   4   3   2   47.52    6.96
   4   3   2   57.68   10.56
  -5  -3  -2   41.87    8.14
  -5  -3  -2   48.55   10.69
  -5  -3  -2   48.24    9.01
  -5  -3  -2   36.18    9.26
  -5  -3  -2   42.82    8.04
   5   3   2   52.43   10.84
  -6  -3  -2   12.45    5.68
  -6  -3  -2   24.05    7.01
  -6  -3  -2   19.91    7.45
  -6  -3  -2   13.32    7.93
  -6  -3  -2   23.93    8.08
   6   3   2   28.28   10.44
  -9   4   2   21.59    6.99
  -9   4   2   23.86    4.11
  -9   4   2   28.52    5.90
  -8   4   2    4.10    2.85
  -8   4   2    8.28    2.51
  -8   4   2    6.31    3.85
  -7   4   2   12.07    3.80
  -7   4   2   16.75    4.18
  -7   4   2   17.81    3.33
  -7   4   2   15.67    4.58
  -6   4   2   88.10    9.55
  -6   4   2   79.81    8.53
  -6   4   2   77.64    7.78
  -6   4   2   86.07    8.02
   5  -4  -2   29.42    5.72
   5  -4  -2   34.05    5.17
  -5   4   2   31.81    4.82
  -5   4   2   25.77    5.48
  -5   4   2   27.44    4.50
  -5   4   2   31.72    4.48
  -5   4   2   29.04    4.06
   4  -4  -2   70.70    9.19
   4  -4  -2   81.21    7.94
  -4   4   2   74.38    7.66
  -4   4   2   71.97    7.36
  -4   4   2   72.15    8.24
  -4   4   2   62.33    7.73
  -4   4   2   64.79    7.00
  -4   4   2   75.37    8.26
   3  -4  -2   20.28    4.48
   3  -4  -2   15.00    3.84
   3  -4  -2   13.97    2.41
   3  -4  -2   19.14    3.39
  -3   4   2   21.68    4.69
  -3   4   2   22.11    4.26
  -3   4   2   17.57    2.87
  -3   4   2   19.23    4.06
  -3   4   2   24.73    4.28
  -3   4   2   19.09    4.48
   2  -4  -2  175.60   15.28
   2  -4  -2  155.44   14.40
   2  -4  -2  161.08   13.79
   2  -4  -2  135.64   15.30
   2  -4  -2  147.47   14.50
   2  -4  -2  157.37   14.17
  -2   4   2  156.67   15.51
  -2   4   2  151.51   14.09
  -2   4   2  155.75   14.55
  -2   4   2  145.82   15.02
  -2   4   2  168.80   13.59
  -2   4   2  157.66   14.30
   1  -4  -2   32.97    5.40
   1  -4  -2   27.90    4.35
   1  -4  -2   38.14    5.46
   1  -4  -2   29.87    5.39
   1  -4  -2   32.22    5.59
   1  -4  -2   41.90    8.53
  -1   4   2   37.54    5.10
  -1   4   2   31.10    6.29
  -1   4   2   40.27    5.92
  -1   4   2   33.88    5.01
  -1   4   2   34.49    5.38
   0  -4  -2  441.00   33.42
   0  -4  -2  476.89   34.28
   0  -4  -2  405.65   33.54
   0  -4  -2  374.57   33.40
   0  -4  -2  344.77   33.81
   0  -4  -2  427.62   35.56
   0   4   2  396.27   34.59
   0   4   2  393.13   32.73
   0   4   2  356.66   32.68
   0   4   2  395.81   33.64
   0   4   2  372.00   34.35
  -1  -4  -2    5.02    2.29
  -1  -4  -2   16.26    5.16
  -1  -4  -2    5.91    3.28
  -1  -4  -2    5.44    3.29
   1   4   2    7.04    4.56
   1   4   2    3.53    2.57
   1   4   2    4.75    2.84
   1   4   2    6.74    3.89
   1   4   2    6.24    3.44
  -2  -4  -2    2.41    2.91
  -2  -4  -2   10.45    5.58
  -2  -4  -2    4.47    2.71
  -2  -4  -2    1.30    2.81
  -2  -4  -2   -3.33    2.81
  -2  -4  -2    2.35    3.13
   2   4   2   -3.20    4.63
   2   4   2    3.49    3.14
   2   4   2    8.05    3.43
   2   4   2    3.23    2.32
  -3  -4  -2  262.08   27.06
  -3  -4  -2  294.51   26.07
  -3  -4  -2  275.28   26.92
  -3  -4  -2  256.25   24.89
  -3  -4  -2  256.82   24.63
   3   4   2  281.28   26.83
   3   4   2  284.82   24.56
  -4  -4  -2   43.52    8.27
  -4  -4  -2   67.27   10.73
  -4  -4  -2   70.54   13.94
  -4  -4  -2   46.25   10.21
  -4  -4  -2   51.22    9.56
   4   4   2   60.83   12.05
   4   4   2   54.90    7.62
   4   4   2   55.12    8.46
  -5  -4  -2  149.81   17.69
  -5  -4  -2  146.67   16.11
  -5  -4  -2  132.37   18.31
  -5  -4  -2  154.49   16.17
  -5  -4  -2  122.94   18.47
   5   4   2  138.86   13.23
  -6  -4  -2   32.80   11.02
  -6  -4  -2   48.09   13.05
  -6  -4  -2   36.73    8.61
  -6  -4  -2   32.89    7.82
  -9   5   2    3.10    4.19
  -9   5   2   10.96    4.33
  -9   5   2    7.12    3.80
  -8   5   2   63.80    8.73
  -8   5   2   60.45    7.79
  -8   5   2   83.10   11.21
  -8   5   2   69.51    9.12
  -8   5   2   67.27    8.41
  -7   5   2   33.74    5.99
  -7   5   2   40.89    7.05
  -7   5   2   39.70    5.17
  -7   5   2   37.19    5.44
   6  -5  -2   45.72    7.91
  -6   5   2   70.74    9.83
  -6   5   2   53.27    6.90
  -6   5   2   54.31    6.60
  -6   5   2   54.39    7.05
  -6   5   2   57.45    7.00
  -6   5   2   43.89    6.98
   5  -5  -2   -2.23    3.61
   5  -5  -2   -3.01    2.90
  -5   5   2    1.91    2.69
  -5   5   2   -2.69    2.38
  -5   5   2   -0.65    1.92
  -5   5   2   -2.10    1.79
  -5   5   2    1.94    2.38
   4  -5  -2   31.98    5.96
   4  -5  -2   32.79    5.30
   4  -5  -2   26.80    4.00
  -4   5   2   26.29    3.76
  -4   5   2   33.52    5.70
  -4   5   2   26.17    5.79
  -4   5   2   37.64    6.55
  -4   5   2   26.90    5.64
   3  -5  -2   46.59    9.53
   3  -5  -2   55.26    6.20
   3  -5  -2   48.17    5.60
   3  -5  -2   49.34    7.40
   3  -5  -2   41.90    7.58
  -3   5   2   37.43    6.08
  -3   5   2   62.55    8.39
  -3   5   2   36.35    4.98
  -3   5   2   55.94    6.96
  -3   5   2   52.87    7.48
  -3   5   2   41.08    6.29
   2  -5  -2    2.84    1.87
   2  -5  -2    9.02    3.08
   2  -5  -2    1.62    2.47
   2  -5  -2    3.33    2.86
  -2   5   2    1.76    2.48
  -2   5   2    2.69    1.99
  -2   5   2    0.62    3.06
   1  -5  -2  141.44   14.69
   1  -5  -2  130.76   13.37
   1  -5  -2  140.68   13.97
   1  -5  -2  138.00   14.26
   1  -5  -2  125.14   15.31
   1  -5  -2  136.09   13.58
  -1   5   2  126.20   12.79
  -1   5   2  133.47   13.89
  -1   5   2  140.41   13.30
  -1   5   2  146.19   15.65
   0  -5  -2  693.41   61.80
   0  -5  -2  852.65   62.01
   0  -5  -2  820.04   62.32
   0  -5  -2  844.69   64.86
   0  -5  -2  880.37   62.93
   0  -5  -2  664.02   62.46
   0   5   2  693.69   61.01
   0   5   2  791.71   63.57
   0   5   2  745.04   60.99
   0   5   2  632.55   62.68
   0   5   2  741.04   62.15
  -1  -5  -2  214.15   19.40
  -1  -5  -2  189.58   20.10
  -1  -5  -2  199.31   19.57
  -1  -5  -2  200.77   20.36
  -1  -5  -2  173.69   21.25
   1   5   2  206.69   18.73
   1   5   2  202.64   21.10
   1   5   2  226.21   21.97
  -2  -5  -2  569.97   46.40
  -2  -5  -2  546.35   45.27
  -2  -5  -2  490.02   44.36
  -2  -5  -2  479.72   47.04
  -2  -5  -2  495.52   46.14
   2   5   2  541.81   46.71
   2   5   2  559.01   44.89
  -3  -5  -2   17.35    7.72
  -3  -5  -2    6.85    5.78
  -3  -5  -2   13.28    6.01
  -3  -5  -2    8.90    3.98
  -3  -5  -2    6.71    5.44
   3   5   2    6.53    4.55
   3   5   2    3.98    5.60
  -4  -5  -2  153.88   17.54
  -4  -5  -2  141.00   16.43
  -4  -5  -2  149.34   18.75
  -4  -5  -2  125.15   19.29
  -4  -5  -2  139.70   18.69
   4   5   2  149.81   15.73
   4   5   2  144.88   20.70
   4   5   2  159.31   15.86
  -5  -5  -2   50.25   10.94
  -5  -5  -2   48.29   13.92
  -5  -5  -2   48.63   13.23
  -9   6   2    8.65    4.22
  -9   6   2   11.50    4.58
  -9   6   2   11.53    4.69
  -8   6   2   -3.68    5.41
  -8   6   2    6.05    3.48
  -8   6   2   -5.57    4.88
  -8   6   2   -0.98    3.20
   7  -6  -2   50.51    8.33
  -7   6   2   41.57    7.64
  -7   6   2   44.97    7.05
  -7   6   2   33.78    6.66
  -7   6   2   51.47    6.60
  -7   6   2   37.82    7.45
   6  -6  -2   -7.82    4.28
  -6   6   2    0.65    2.80
  -6   6   2    7.08    3.72
  -6   6   2   -0.52    3.39
  -6   6   2    0.76    2.44
   5  -6  -2   90.79   14.00
   5  -6  -2  119.87   10.40
   5  -6  -2  114.93   10.51
  -5   6   2  103.13   12.62
  -5   6   2  131.78   14.34
  -5   6   2  114.19   13.28
  -5   6   2  121.17   11.01
  -5   6   2  127.22   12.55
   4  -6  -2  122.31   11.88
   4  -6  -2  132.33   13.36
   4  -6  -2  124.43   12.34
  -4   6   2  124.19   14.71
  -4   6   2  140.90   13.72
  -4   6   2  132.32   13.51
  -4   6   2  134.74   14.06
  -4   6   2  134.29   11.87
  -4   6   2  117.03   14.01
   3  -6  -2   10.71    5.15
   3  -6  -2   16.60    4.59
   3  -6  -2   23.13    6.40
   3  -6  -2   15.11    5.48
   3  -6  -2   13.17    3.58
   3  -6  -2   13.91    4.48
  -3   6   2   12.53    4.59
  -3   6   2    9.25    4.01
  -3   6   2   13.75    5.99
  -3   6   2   11.38    4.08
  -3   6   2   15.99    4.31
  -3   6   2   13.48    4.52
   2  -6  -2 1083.68   88.05
   2  -6  -2 1131.80   90.93
   2  -6  -2 1161.49   89.72
   2  -6  -2 1023.30   87.65
  -2   6   2 1104.83   88.75
  -2   6   2 1107.35   87.42
  -2   6   2 1043.66   89.62
  -2   6   2 1150.20   87.73
  -2   6   2 1093.92   89.96
  -2   6   2 1072.19   88.67
   1  -6  -2   12.05    4.42
   1  -6  -2   10.12    6.19
   1  -6  -2    1.93    4.08
   1  -6  -2    4.07    3.14
  -1   6   2   17.51    5.12
  -1   6   2    9.02    3.72
   0  -6  -2 1521.23  122.41
   0  -6  -2 1599.68  119.33
   0  -6  -2 1534.14  119.75
   0  -6  -2 1652.12  120.36
   0   6   2 1426.32  119.41
   0   6   2 1440.28  120.95
   0   6   2 1276.26  120.33
  -1  -6  -2   66.61   10.54
  -1  -6  -2   56.34    9.26
  -1  -6  -2   59.68   10.30
  -1  -6  -2   59.59   10.58
  -1  -6  -2   40.10   11.06
   1   6   2   81.62   10.09
  -2  -6  -2   30.28    7.42
  -2  -6  -2   26.54   10.51
  -2  -6  -2   23.07    7.66
  -2  -6  -2   40.75    9.79
  -2  -6  -2   37.56    8.01
   2   6   2   35.35    8.03
   2   6   2   27.83    9.09
  -3  -6  -2   89.52   13.21
  -3  -6  -2   76.25   12.10
  -3  -6  -2  108.66   15.80
  -3  -6  -2   95.39   14.33
   3   6   2  118.71   18.17
   3   6   2  103.77   13.91
  -4  -6  -2    2.98    5.56
  -4  -6  -2   -4.40    5.18
   4   6   2   -0.40    9.62
   4   6   2    4.07    6.41
  -9   7   2   24.89    6.01
  -9   7   2   25.32    6.25
  -8   7   2   26.59    5.83
  -8   7   2   22.17    5.75
  -8   7   2   26.87    4.94
  -8   7   2   13.80    5.04
   7  -7  -2    0.28    6.98
  -7   7   2   12.71    4.09
  -7   7   2    0.34    3.46
  -7   7   2    8.81    4.81
  -7   7   2    9.90    4.09
   6  -7  -2  126.45   17.41
  -6   7   2  139.36   16.02
  -6   7   2  159.25   15.08
  -6   7   2  167.45   15.94
  -6   7   2  150.21   16.94
   5  -7  -2  106.92   11.40
   5  -7  -2  100.11   11.91
  -5   7   2  106.53   14.63
  -5   7   2  128.20   13.33
  -5   7   2  118.49   11.14
  -5   7   2  121.72   13.86
   4  -7  -2  387.87   29.52
   4  -7  -2  331.59   30.30
   4  -7  -2  278.48   30.76
  -4   7   2  349.22   31.00
  -4   7   2  353.43   32.51
  -4   7   2  328.24   31.60
  -4   7   2  350.06   28.80
   3  -7  -2  275.08   25.25
   3  -7  -2  272.81   24.17
   3  -7  -2  270.79   25.36
   3  -7  -2  215.89   26.71
   3  -7  -2  288.42   25.60
  -3   7   2  233.86   25.87
  -3   7   2  279.04   25.49
  -3   7   2  290.22   27.38
  -3   7   2  271.70   23.55
   2  -7  -2   31.09    8.15
   2  -7  -2   45.49    8.28
   2  -7  -2   63.25   10.85
  -2   7   2   51.56    7.38
  -2   7   2   42.18    8.56
  -2   7   2   50.16   10.26
  -2   7   2   47.77    9.73
   1  -7  -2   96.47   12.91
   1  -7  -2  101.46   13.54
   1  -7  -2   86.38   15.67
   1  -7  -2  121.14   17.05
   1  -7  -2  108.40   12.79
  -1   7   2  119.41   13.89
  -1   7   2  125.61   15.96
  -1   7   2  118.91   17.67
   0  -7  -2  196.31   20.19
   0  -7  -2  177.78   22.66
   0  -7  -2  150.01   19.55
   0  -7  -2  202.37   19.97
   0  -7  -2  204.61   19.73
   0   7   2  183.83   19.47
   0   7   2  168.61   21.65
  -1  -7  -2   33.04    9.10
  -1  -7  -2   19.25    6.22
  -1  -7  -2   29.41   11.43
  -1  -7  -2   38.95    8.63
  -1  -7  -2   19.46    6.49
   1   7   2   44.18   11.47
  -2  -7  -2   43.33    9.82
  -2  -7  -2   71.33   12.80
  -2  -7  -2   46.77   13.32
   2   7   2   58.90   11.21
   2   7   2   65.50   13.96
  -3  -7  -2    4.89    7.30
  -3  -7  -2   10.91    6.30
  -3  -7  -2    4.94    6.52
  -3  -7  -2   -8.98    8.04
   3   7   2  -13.05    5.96
  -9   8   2    5.04    4.54
  -8   8   2   29.94    7.11
  -8   8   2   10.16    5.71
  -8   8   2   22.87    8.54
   7  -8  -2  144.36   21.96
  -7   8   2  209.84   19.92
  -7   8   2  249.40   24.83
  -7   8   2  188.39   21.27
   6  -8  -2    7.25    3.72
   6  -8  -2    9.63    7.92
  -6   8   2    8.73    5.20
  -6   8   2   12.62    5.56
  -6   8   2   16.24    7.09
   5  -8  -2  123.77   19.13
   5  -8  -2  127.82   14.25
  -5   8   2  118.75   18.18
  -5   8   2  133.03   12.35
  -5   8   2  117.51   15.32
   4  -8  -2   14.03    6.01
   4  -8  -2    7.07    7.19
   4  -8  -2   16.25    4.64
  -4   8   2   28.30    9.39
  -4   8   2   14.08    4.21
  -4   8   2   13.87    6.87
  -4   8   2   13.45    5.56
   3  -8  -2   42.66   14.00
   3  -8  -2    8.33    4.51
   3  -8  -2   10.95    5.44
  -3   8   2   12.80    7.52
  -3   8   2    8.96    4.41
  -3   8   2   16.82    7.08
  -3   8   2    7.18    4.85
   2  -8  -2  195.95   22.92
   2  -8  -2  154.41   17.82
  -2   8   2  171.46   23.70
  -2   8   2  173.02   20.76
  -2   8   2  176.29   19.17
   1  -8  -2   55.75   11.53
   1  -8  -2   44.33    9.40
   1  -8  -2   44.45   10.24
   1  -8  -2   25.92   11.01
  -1   8   2   49.69   10.33
  -1   8   2   63.21   13.86
   0  -8  -2   80.93   19.58
   0  -8  -2   73.19   11.24
   0  -8  -2   85.84   12.25
   0  -8  -2   70.39   12.94
   0   8   2   59.84   13.29
   0   8   2   55.57   12.05
  -1  -8  -2    3.61    8.07
  -1  -8  -2   13.43    8.22
  -1  -8  -2   -1.61    5.43
  -1  -8  -2    8.59    6.73
   1   8   2    1.60    7.97
   1   8   2   15.55    6.89
  -2  -8  -2   21.44    9.58
  -2  -8  -2   13.46    7.37
  -2  -8  -2    0.75    5.89
  -2  -8  -2    6.92   11.69
   2   8   2   25.77   12.37
   2   8   2   16.05    8.18
  -8   9   2   28.82    7.83
  -7   9   2    4.59    5.00
  -7   9   2   -1.89    4.78
   6  -9  -2   37.77    7.78
   6  -9  -2   42.03    8.26
  -6   9   2   56.54   10.65
  -6   9   2   38.04   10.43
  -6   9   2   41.59   10.77
   5  -9  -2  139.62   13.36
   5  -9  -2  116.66   15.45
  -5   9   2  153.37   21.14
  -5   9   2  136.30   13.05
  -5   9   2   96.72   16.15
  -5   9   2  120.77   15.80
   4  -9  -2   49.94   14.05
   4  -9  -2   59.09    8.96
   4  -9  -2   64.96   13.68
  -4   9   2   58.19   13.25
  -4   9   2   46.76    8.14
  -4   9   2   39.84   10.40
  -4   9   2   51.33   11.08
   3  -9  -2   46.32   11.81
   3  -9  -2   45.93    9.75
   3  -9  -2   50.42   10.99
  -3   9   2   77.51   17.87
  -3   9   2   78.36   15.66
  -3   9   2   63.15   12.65
   2  -9  -2    0.02    4.98
   2  -9  -2   11.51    7.17
   2  -9  -2   -2.40    6.25
  -2   9   2    3.23    5.41
  -2   9   2   -1.71    6.59
   1  -9  -2   11.96    9.64
   1  -9  -2    4.95    5.55
   1  -9  -2   13.22    6.68
   1  -9  -2    5.04    6.34
  -1   9   2   -6.60    5.03
  -1   9   2    4.87    8.51
   0  -9  -2   22.93    8.43
   0  -9  -2   27.07   13.20
   0   9   2   34.60   10.88
  -7  10   2   47.91   12.34
  -7  10   2   45.51   10.00
   6 -10  -2   -4.81    6.81
  -6  10   2    6.59    5.53
  -6  10   2   -6.44    5.58
   5 -10  -2    7.55    6.90
   5 -10  -2   14.37    8.93
   5 -10  -2   13.94   12.80
  -5  10   2   10.19    7.18
  -5  10   2   11.11    7.18
   4 -10  -2   -8.27   10.94
   4 -10  -2   -7.34    7.77
   4 -10  -2    2.48    5.40
   4 -10  -2   11.86    9.10
  -4  10   2    7.22    7.59
  -4  10   2    0.72    6.18
   3 -10  -2    6.13    5.92
   3 -10  -2    8.66    8.40
   3 -10  -2   13.15    8.55
  -3  10   2   13.24    8.97
   2 -10  -2    1.18    6.17
   2 -10  -2   16.29    9.86
  -2  10   2   13.07    8.51
  -2  10   2   18.47    9.53
  -1  10  -3   11.47    8.58
  -1  10  -3   10.99    8.78
   1 -10   3    0.84   11.53
   1 -10   3   22.57    9.42
   1 -10   3   -3.60    6.64
   1 -10   3   22.77   10.01
  -2  10  -3   -0.69    8.22
   2 -10   3   -8.08    5.25
   2 -10   3   -7.92    8.35
   2 -10   3    5.80   12.44
  -3  10  -3   41.60   10.52
  -3  10  -3   36.52   12.55
   3 -10   3    0.60   11.86
   3 -10   3   31.98    9.87
   3 -10   3   53.25   13.14
  -4  10  -3    9.40    7.90
  -4  10  -3    0.77    6.46
   4 -10   3   11.67    8.24
   4 -10   3   -7.31    5.36
   4 -10   3   -0.34   13.62
  -5  10  -3   37.01   11.85
  -5  10  -3   30.97    8.97
   5 -10   3   31.62   14.44
   5 -10   3   28.26    9.53
   5 -10   3   29.84   10.71
  -6  10  -3   34.32    9.68
  -6  10  -3   56.54   15.21
   6 -10   3   35.70    8.41
   1   9  -3    5.88    8.07
   1   9  -3    4.44   10.71
  -1  -9   3  -15.13    9.88
  -1  -9   3   -2.00    7.17
  -1  -9   3    7.00    7.30
  -1  -9   3   -4.73    6.81
   0   9  -3   18.55    7.86
   0   9  -3   24.08    9.56
   0  -9   3   26.74    8.94
   0  -9   3   18.12   11.81
   0  -9   3    7.11    8.19
   0  -9   3   12.62    7.86
  -1   9  -3   99.27   15.73
  -1   9  -3   86.01   18.55
   1  -9   3   43.47   28.96
   1  -9   3   71.21   13.57
   1  -9   3   62.68   13.21
   1  -9   3   76.48   15.03
  -2   9  -3   57.41   11.15
  -2   9  -3   46.58   15.51
   2  -9   3   41.53   10.02
   2  -9   3   41.21    9.91
   2  -9   3   60.78   12.31
   2  -9   3   58.12   16.72
  -3   9  -3   13.31   11.71
  -3   9  -3   10.65    7.47
  -3   9  -3    6.24    5.11
   3  -9   3   10.77    8.15
   3  -9   3    9.66    6.50
   3  -9   3    1.22    5.51
  -4   9  -3   79.26   19.80
  -4   9  -3  112.71   14.15
  -4   9  -3  108.48   15.57
   4  -9   3  100.35   14.17
   4  -9   3   83.04   15.89
   4  -9   3   68.66   25.84
  -5   9  -3   55.46   15.36
  -5   9  -3   45.53   10.84
  -5   9  -3   59.48   11.98
   5  -9   3   67.19   11.88
   5  -9   3   42.88   13.63
   5  -9   3   50.59   10.03
  -6   9  -3   62.82   16.41
  -6   9  -3   71.30   13.17
  -6   9  -3   69.92   12.37
   6  -9   3   65.65   12.67
   6  -9   3   62.88   10.20
   6  -9   3   59.54   15.46
  -7   9  -3   40.28    9.17
  -7   9  -3   32.85   15.67
  -8   9  -3    5.44    5.72
   2   8  -3   54.48   14.89
   2   8  -3   43.89   10.73
  -2  -8   3   51.23   11.65
  -2  -8   3   30.22   10.05
  -2  -8   3   40.30    9.65
  -2  -8   3   30.72   13.97
   1   8  -3   18.71    7.48
   1   8  -3   24.43    9.24
  -1  -8   3    5.45   11.41
  -1  -8   3    9.62    7.15
  -1  -8   3   13.43    6.33
  -1  -8   3    6.52    9.30
  -1  -8   3    9.30    7.34
   0   8  -3  108.08   15.62
   0   8  -3  125.24   18.49
   0  -8   3  122.59   16.57
   0  -8   3  177.69   32.26
   0  -8   3  135.53   16.81
   0  -8   3  130.05   16.96
  -1   8  -3   75.61   14.39
  -1   8  -3   84.81   13.67
   1  -8   3   54.40   11.07
   1  -8   3   90.19   14.54
   1  -8   3   54.34   13.94
   1  -8   3   50.60   10.14
  -2   8  -3   25.51    8.29
  -2   8  -3   26.82    6.96
  -2   8  -3   12.12   10.21
   2  -8   3   13.52    5.78
   2  -8   3   32.62    8.90
   2  -8   3   14.87    7.70
   2  -8   3   15.27    7.37
  -3   8  -3  272.05   28.72
  -3   8  -3  269.86   31.51
  -3   8  -3  291.25   27.80
   3  -8   3  282.78   27.79
   3  -8   3  291.29   27.67
  -4   8  -3    8.44    6.16
  -4   8  -3   14.72    8.37
  -4   8  -3   -0.42    4.47
   4  -8   3    3.73    4.78
   4  -8   3   -8.41    4.58
   4  -8   3  -12.26    6.90
  -5   8  -3   12.25   10.42
  -5   8  -3   33.18    8.70
  -5   8  -3   30.15    8.38
   5  -8   3   24.86    6.46
   5  -8   3   30.62   10.90
   5  -8   3   39.00    8.63
   5  -8   3   26.47    6.72
  -6   8  -3   17.09    6.33
  -6   8  -3   12.97    5.87
  -6   8  -3   26.30   10.60
   6  -8   3   18.11    4.86
   6  -8   3    0.19    9.37
  -7   8  -3   41.99    9.58
  -7   8  -3   45.47    9.16
  -7   8  -3   38.58   21.90
   7  -8   3   18.65   10.69
  -8   8  -3   29.33    7.24
  -8   8  -3   25.76   10.34
  -8   8  -3    3.52   11.55
   4   7  -3   54.15   10.43
  -4  -7   3   36.04   16.42
  -4  -7   3   44.66   11.68
  -4  -7   3   47.42   10.99
   3   7  -3    4.40   10.11
   3   7  -3   14.60   10.36
  -3  -7   3   24.10   13.87
  -3  -7   3   11.03    6.48
  -3  -7   3    4.50    6.88
  -3  -7   3   15.95    7.42
   2   7  -3    0.06    6.57
  -2  -7   3   13.18    5.49
  -2  -7   3   10.72    6.22
  -2  -7   3   14.23    7.52
  -2  -7   3    6.03    5.38
  -2  -7   3   19.27   10.64
   1   7  -3  114.09   14.52
   1   7  -3  124.53   20.08
  -1  -7   3   93.75   21.20
  -1  -7   3  114.53   17.46
  -1  -7   3  101.21   13.67
  -1  -7   3  100.12   16.40
  -1  -7   3  114.31   15.11
   0   7  -3  113.51   14.78
   0   7  -3  104.87   16.99
   0  -7   3  144.15   21.28
   0  -7   3  153.38   16.79
   0  -7   3  139.63   22.26
   0  -7   3  140.04   19.31
   0  -7   3  150.84   30.51
  -1   7  -3  108.00   15.04
  -1   7  -3   91.86   12.94
   1  -7   3   95.40   13.38
   1  -7   3  141.87   14.12
  -2   7  -3   49.83   12.30
  -2   7  -3   40.53    9.66
  -2   7  -3   60.12    9.36
  -2   7  -3   60.53   10.52
   2  -7   3   49.86    9.78
   2  -7   3   70.88   12.46
   2  -7   3   37.57   11.39
   2  -7   3   56.64   10.20
   2  -7   3   59.14    9.09
  -3   7  -3   71.66   10.12
  -3   7  -3   93.14   11.99
  -3   7  -3   45.58    9.92
   3  -7   3   64.00   11.39
  -4   7  -3   20.13    7.04
  -4   7  -3   11.48    4.82
  -4   7  -3    8.83    6.55
  -4   7  -3   11.90    5.32
   4  -7   3   16.11    5.67
   4  -7   3    4.07    4.25
   4  -7   3   19.07    5.32
   4  -7   3   11.59    7.51
  -5   7  -3  237.45   23.35
  -5   7  -3  199.58   38.21
  -5   7  -3  240.97   25.70
  -5   7  -3  274.46   23.60
   5  -7   3  195.37   25.40
   5  -7   3  243.80   21.17
   5  -7   3  235.32   21.73
  -6   7  -3    7.49    4.08
  -6   7  -3    0.81    3.58
  -6   7  -3    2.51    6.48
  -6   7  -3    1.34    6.12
   6  -7   3    5.18    2.72
   6  -7   3    6.54    2.85
   6  -7   3    5.23    6.71
  -7   7  -3   22.05    5.79
  -7   7  -3   18.54    5.92
  -7   7  -3   10.96    7.25
   7  -7   3   11.88    8.48
  -8   7  -3    7.86    4.63
  -8   7  -3   -2.48    6.63
  -8   7  -3    5.54    3.86
  -9   7  -3   12.99    5.53
  -9   7  -3   11.55    5.21
  -5  -6   3   11.68    7.22
  -5  -6   3    6.80    7.90
  -5  -6   3   14.48    8.48
  -5  -6   3   17.85   15.06
   4   6  -3   17.27    5.64
   4   6  -3   17.03   10.04
   4   6  -3    6.19    8.03
  -4  -6   3   11.89    8.83
  -4  -6   3    4.70   11.27
  -4  -6   3   15.97    7.49
  -4  -6   3   11.12    6.72
  -4  -6   3   10.01    5.89
   3   6  -3   -0.86    6.78
   3   6  -3    5.22    4.72
  -3  -6   3    2.00    4.39
  -3  -6   3   -6.04    8.39
  -3  -6   3   10.30    5.61
  -3  -6   3    2.01    4.57
   2   6  -3  146.59   17.31
  -2  -6   3  122.77   20.14
  -2  -6   3   85.42   22.22
  -2  -6   3   90.70   14.67
  -2  -6   3  141.82   22.12
   1   6  -3   32.13    6.87
   1   6  -3   21.33    6.91
  -1  -6   3   25.91    9.88
  -1  -6   3   17.79    5.86
  -1  -6   3   16.82    7.26
  -1  -6   3   18.52    5.76
  -1  -6   3   22.16    6.90
   0   6  -3   17.32    8.68
   0   6  -3   21.69    8.29
   0   6  -3   18.01    5.63
   0   6  -3   20.25    6.23
   0  -6   3   30.88    7.28
   0  -6   3   21.97    6.18
   0  -6   3   35.79    7.82
   0  -6   3   26.87    7.66
   0  -6   3   23.88    8.90
  -1   6  -3  334.10   30.78
  -1   6  -3  371.29   30.74
  -1   6  -3  324.86   31.61
  -1   6  -3  347.69   33.08
   1  -6   3  310.53   30.72
   1  -6   3  369.15   31.95
   1  -6   3  307.33   29.88
   1  -6   3  320.49   30.47
   1  -6   3  363.58   35.63
   1  -6   3  352.13   31.27
  -2   6  -3  180.39   19.27
  -2   6  -3  222.96   19.92
  -2   6  -3  196.47   20.63
  -2   6  -3  182.03   19.52
  -2   6  -3  205.69   21.78
  -2   6  -3  214.78   19.99
   2  -6   3  195.36   19.92
   2  -6   3  191.21   19.41
   2  -6   3  215.76   20.11
   2  -6   3  191.64   22.40
   2  -6   3  205.69   19.41
  -3   6  -3  469.96   42.30
  -3   6  -3  473.44   41.97
  -3   6  -3  522.12   43.43
  -3   6  -3  485.38   42.11
  -3   6  -3  479.11   44.10
   3  -6   3  506.94   43.26
   3  -6   3  493.31   41.48
   3  -6   3  545.79   45.77
   3  -6   3  476.32   42.56
  -4   6  -3   18.05    5.30
  -4   6  -3   30.49    6.98
  -4   6  -3   26.57    6.85
  -4   6  -3   29.13    6.17
  -4   6  -3   22.57    7.17
   4  -6   3   23.90    5.87
   4  -6   3   12.47    6.71
   4  -6   3   20.20    4.94
   4  -6   3   24.13    6.37
  -5   6  -3   21.14    5.80
  -5   6  -3   23.46    6.87
  -5   6  -3   27.01    8.47
  -5   6  -3   24.88    6.89
   5  -6   3   25.89    4.72
   5  -6   3   16.80    4.23
  -6   6  -3   10.87    5.90
  -6   6  -3   16.99    6.72
  -6   6  -3   14.64    4.86
  -6   6  -3    3.88    5.48
   6  -6   3   25.70    7.94
  -7   6  -3   33.00    7.90
  -7   6  -3   15.39    5.11
  -7   6  -3   23.54    5.50
   7  -6   3   24.02    7.87
  -8   6  -3   18.02    4.55
  -8   6  -3   20.34    8.46
  -8   6  -3   14.92    5.04
  -9   6  -3    1.91    4.46
  -9   6  -3   -7.00    8.05
  -9   6  -3    3.55    3.11
  -9   6  -3   -8.07    5.47
   5   5  -3  127.33   18.31
  -5  -5   3  115.71   16.23
  -5  -5   3   96.98   15.25
  -5  -5   3  105.52   14.48
  -5  -5   3   95.00   13.64
  -5  -5   3   69.10   18.35
   4   5  -3   -1.87    3.69
   4   5  -3    9.20    3.79
  -4  -5   3   -6.50    7.02
  -4  -5   3    1.86    3.43
  -4  -5   3    2.70    4.41
  -4  -5   3    3.97    4.75
   3   5  -3  222.00   20.91
   3   5  -3  236.27   24.15
   3   5  -3  252.01   23.43
  -3  -5   3  225.66   22.87
  -3  -5   3  202.76   21.29
  -3  -5   3  218.70   31.92
  -3  -5   3  226.95   22.40
   2   5  -3  136.51   13.80
   2   5  -3  147.02   16.29
   2   5  -3  128.71   13.71
  -2  -5   3  112.51   15.09
  -2  -5   3  137.56   15.26
  -2  -5   3  128.72   18.57
  -2  -5   3  113.57   13.45
  -2  -5   3  141.04   14.67
   1   5  -3  385.34   32.06
   1   5  -3  354.10   32.90
   1   5  -3  346.85   31.86
   1   5  -3  339.35   34.20
   1   5  -3  390.87   33.96
   1   5  -3  346.36   31.21
  -1  -5   3  385.24   32.67
  -1  -5   3  392.85   32.25
  -1  -5   3  357.57   33.24
  -1  -5   3  357.84   32.40
  -1  -5   3  354.21   33.44
  -1  -5   3  418.53   36.65
   0   5  -3  488.24   40.61
   0   5  -3  447.92   39.47
   0   5  -3  491.18   42.04
   0   5  -3  383.88   39.06
   0   5  -3  462.32   41.02
   0  -5   3  390.30   40.06
   0  -5   3  510.61   40.34
   0  -5   3  528.74   39.91
   0  -5   3  587.73   44.63
   0  -5   3  436.04   39.70
  -1   5  -3  320.86   29.38
  -1   5  -3  355.22   29.19
  -1   5  -3  344.74   28.77
  -1   5  -3  343.48   30.26
  -1   5  -3  305.21   30.43
  -1   5  -3  326.21   28.97
   1  -5   3  328.98   28.81
   1  -5   3  306.20   31.60
   1  -5   3  326.98   28.84
   1  -5   3  312.82   29.44
   1  -5   3  341.35   30.06
   1  -5   3  348.78   29.46
   2  -5   3   80.95    8.48
   2  -5   3   49.12    8.51
  -3   5  -3   72.52   11.34
   3  -5   3   82.16   10.78
   3  -5   3  112.28   13.44
  -4   5  -3  195.52   18.87
  -4   5  -3  190.40   19.04
  -4   5  -3  210.67   18.42
  -4   5  -3  197.81   18.97
  -4   5  -3  183.95   18.71
   4  -5   3  190.37   19.17
   4  -5   3  195.89   17.19
   4  -5   3  168.75   24.96
   4  -5   3  202.45   17.80
  -5   5  -3    1.27    2.71
  -5   5  -3   12.06    4.50
  -5   5  -3    6.66    4.12
  -5   5  -3    5.96    3.60
   5  -5   3   12.71    5.21
   5  -5   3    8.40    2.46
   5  -5   3    5.99    2.00
  -6   5  -3   45.27    7.30
  -6   5  -3   29.62    5.97
  -6   5  -3   28.53    7.49
   6  -5   3   34.98    8.03
  -7   5  -3   16.08    6.67
  -7   5  -3   27.18    5.02
  -7   5  -3   23.69    5.48
   7  -5   3   23.27    6.61
  -8   5  -3    1.52    5.28
  -8   5  -3   -4.29    3.36
  -8   5  -3    2.32    2.76
  -9   5  -3   28.53    6.08
  -9   5  -3   22.47    6.90
  -6  -4   3    6.94    5.62
  -6  -4   3    7.13    4.41
  -6  -4   3    6.73    8.77
  -6  -4   3   -1.82    4.93
  -6  -4   3    8.29    7.19
   5   4  -3   11.96    7.16
  -5  -4   3   21.20    6.51
  -5  -4   3   17.51    5.43
  -5  -4   3   13.08    8.47
  -5  -4   3   25.82    7.84
   4   4  -3   85.60    9.01
   4   4  -3  104.78    9.12
  -4  -4   3   76.45   11.11
  -4  -4   3   91.01   11.84
  -4  -4   3   80.69   10.46
   3   4  -3    7.78    2.70
   3   4  -3    4.48    4.02
  -3  -4   3    0.50    3.62
  -3  -4   3    2.18    3.51
  -3  -4   3    4.24    3.56
  -3  -4   3   -2.35    2.99
  -3  -4   3    6.25    3.01
   2   4  -3  138.87   15.46
   2   4  -3  161.79   14.63
   2   4  -3  146.22   15.66
   2   4  -3  119.23   13.89
   2   4  -3  142.29   16.15
   2   4  -3  151.27   13.35
  -2  -4   3  132.57   14.19
  -2  -4   3  149.95   15.18
  -2  -4   3  158.48   17.77
  -2  -4   3  135.47   15.55
  -2  -4   3  122.74   13.46
   1   4  -3   72.76   10.39
   1   4  -3   62.74    7.64
   1   4  -3   79.39    9.91
   1   4  -3   67.61    7.90
   1   4  -3   66.71    8.42
   1   4  -3   57.02    8.64
  -1  -4   3   74.49    9.10
  -1  -4   3   53.68    8.25
  -1  -4   3   71.17    9.14
  -1  -4   3   64.12   10.92
  -1  -4   3   70.80    8.45
   0   4  -3   94.33   12.18
   0   4  -3  111.47   12.95
   0   4  -3  112.82   11.99
   0   4  -3  101.44   10.95
   0   4  -3  112.57   11.44
   0  -4   3  104.48   11.46
   0  -4   3  138.35   12.91
   0  -4   3  126.80   12.68
   0  -4   3  128.01   14.56
  -1   4  -3   69.25    8.21
  -1   4  -3   75.38    9.28
  -1   4  -3   71.48    8.25
  -1   4  -3   76.33    8.82
  -1   4  -3   72.11    8.02
   1  -4   3   55.83   10.02
   1  -4   3   74.62    9.07
   1  -4   3   72.68    8.81
   1  -4   3   79.56    9.13
   1  -4   3   78.54    8.57
   1  -4   3   65.46    8.23
  -2   4  -3  203.59   19.08
  -2   4  -3  209.07   19.32
  -2   4  -3  198.38   18.73
  -2   4  -3  236.59   19.07
  -2   4  -3  197.41   19.46
   2  -4   3  195.07   20.87
   2  -4   3  210.85   19.54
   2  -4   3  227.46   19.63
   2  -4   3  201.56   18.52
   2  -4   3  202.82   18.91
  -3   4  -3    2.58    3.16
  -3   4  -3    3.46    4.02
  -3   4  -3    4.66    3.34
  -3   4  -3    4.92    2.33
  -3   4  -3    7.14    2.71
   3  -4   3    3.76    2.16
   3  -4   3    3.73    2.45
   3  -4   3    4.98    2.93
   3  -4   3    9.93    4.08
   3  -4   3    5.67    2.66
  -4   4  -3   17.95    4.70
  -4   4  -3    8.28    3.12
  -4   4  -3    6.93    3.69
  -4   4  -3   13.01    3.99
  -4   4  -3    8.98    4.74
   4  -4   3   14.36    3.29
   4  -4   3   13.95    2.82
  -5   4  -3   16.39    4.43
  -5   4  -3    9.29    4.08
  -5   4  -3   24.94    6.89
  -5   4  -3   19.64    5.83
  -5   4  -3   19.70    4.50
   5  -4   3   26.04    5.55
   5  -4   3    9.48    5.14
  -6   4  -3   80.51   11.82
  -6   4  -3   98.14    9.72
  -6   4  -3   92.60   10.20
  -6   4  -3   94.69   10.84
  -6   4  -3   88.02   12.39
   6  -4   3   95.19   13.01
  -7   4  -3    4.88    4.75
  -7   4  -3   16.43    4.04
  -7   4  -3    8.06    3.14
  -7   4  -3   10.01    3.75
  -7   4  -3    6.27    4.66
   7  -4   3   13.88    4.45
  -8   4  -3   -4.77    6.17
  -8   4  -3   11.14    3.67
  -8   4  -3   -3.32    3.57
  -8   4  -3   16.22    4.04
  -9   4  -3   -2.10    7.41
  -9   4  -3    5.94    4.00
  -7  -3   3   11.22    9.66
  -7  -3   3    2.80    5.96
  -7  -3   3   -0.12    4.16
   6   3  -3   21.74    6.95
  -6  -3   3   18.36    8.92
  -6  -3   3   19.51    5.67
  -6  -3   3   24.16    6.11
  -6  -3   3   23.34    6.11
  -6  -3   3   18.68    6.89
   5   3  -3    9.13    4.91
  -5  -3   3    4.49    5.90
  -5  -3   3    4.65    4.47
  -5  -3   3   -0.60    2.76
  -5  -3   3    8.19    3.87
   4   3  -3   27.89    5.49
   4   3  -3   40.17    7.68
   4   3  -3   27.19    3.37
  -4  -3   3   17.52    6.92
  -4  -3   3   26.42    5.44
  -4  -3   3   35.81    7.52
  -4  -3   3   36.77    8.18
  -4  -3   3   36.48    6.72
   3   3  -3   94.56   11.56
   3   3  -3   92.68    9.60
   3   3  -3  110.30    9.38
  -3  -3   3  118.23   11.23
  -3  -3   3   70.23   10.88
  -3  -3   3   84.39   10.08
  -3  -3   3   86.00    9.59
  -3  -3   3   79.94    9.91
   2   3  -3    8.02    3.67
   2   3  -3   22.34    6.23
   2   3  -3   24.27    4.46
   2   3  -3   12.55    3.18
   2   3  -3   23.82    5.48
   2   3  -3   13.69    3.50
  -2  -3   3   14.99    5.13
  -2  -3   3   22.05    5.26
  -2  -3   3   16.59    4.14
  -2  -3   3   15.13    4.56
  -2  -3   3   18.62    4.38
   1   3  -3  116.06   12.57
   1   3  -3  125.06   11.32
   1   3  -3  123.32   12.66
   1   3  -3  128.16   11.78
   1   3  -3  121.09   11.42
   1   3  -3  121.18   12.97
  -1  -3   3  122.76   12.69
  -1  -3   3  114.06   11.36
  -1  -3   3  126.46   11.89
  -1  -3   3  121.55   11.99
  -1  -3   3  125.33   12.58
  -1  -3   3  113.53   13.77
   0   3  -3   18.72    3.57
   0   3  -3   15.72    4.29
   0   3  -3   14.04    3.85
   0   3  -3   15.88    5.37
   0   3  -3   11.44    3.20
   0   3  -3   15.19    3.71
   0  -3   3   14.32    3.91
   0  -3   3   21.32    4.61
   0  -3   3   29.48    7.54
   0  -3   3   14.34    3.95
   0  -3   3    9.92    2.95
   0  -3   3   20.87    4.20
  -1   3  -3   18.72    4.49
  -1   3  -3    9.18    3.42
  -1   3  -3   11.20    2.99
  -1   3  -3   10.53    2.90
  -1   3  -3   17.72    5.23
  -1   3  -3   21.29    4.85
   1  -3   3    8.16    2.86
   1  -3   3   20.52    4.43
   1  -3   3   13.31    3.34
   1  -3   3   13.68    3.77
   1  -3   3   15.55    5.41
  -2   3  -3  393.58   31.50
  -2   3  -3  374.50   30.81
  -2   3  -3  349.61   30.96
  -2   3  -3  344.38   31.37
  -2   3  -3  390.85   32.91
   2  -3   3  410.89   31.12
   2  -3   3  365.22   31.37
   2  -3   3  350.54   31.41
  -3   3  -3   15.24    3.97
  -3   3  -3   15.97    4.28
  -3   3  -3    8.98    4.09
  -3   3  -3   13.61    3.29
  -3   3  -3   20.76    4.31
   3  -3   3   10.77    3.67
   3  -3   3   16.27    3.10
   3  -3   3   15.84    3.35
  -4   3  -3  281.84   22.79
  -4   3  -3  266.60   23.09
  -4   3  -3  256.27   24.12
  -4   3  -3  264.31   22.77
   4  -3   3  263.92   21.32
   4  -3   3  283.42   21.40
   4  -3   3  246.34   23.17
   4  -3   3  260.95   23.90
  -5   3  -3    1.42    2.06
  -5   3  -3    6.33    2.82
  -5   3  -3    3.33    2.16
  -5   3  -3   -6.79    3.42
   5  -3   3   -0.95    2.87
   5  -3   3    2.37    2.72
  -6   3  -3    5.22    3.27
  -6   3  -3    5.12    2.50
  -6   3  -3   -0.21    2.14
  -6   3  -3    2.65    2.45
  -6   3  -3   -0.59    3.76
   6  -3   3    3.80    3.42
  -7   3  -3   14.83    3.67
  -7   3  -3   11.06    3.97
  -7   3  -3   10.00    4.37
  -7   3  -3    6.63    4.80
  -7   3  -3    1.41    4.18
   7  -3   3   15.74    4.05
  -8   3  -3    4.65    3.07
  -8   3  -3    3.11    3.77
  -8   3  -3  -10.42    5.36
  -8   3  -3    1.88    4.48
  -9   3  -3    4.34    5.90
  -7  -2   3    5.18    5.18
  -7  -2   3    2.70    3.54
  -7  -2   3    3.09    3.80
  -7  -2   3   -1.46    5.77
  -7  -2   3    9.35    4.40
   6   2  -3   25.80    5.89
  -6  -2   3   26.48    6.20
  -6  -2   3   24.73    5.59
  -6  -2   3   31.91    6.31
  -6  -2   3   29.02    8.27
  -6  -2   3   28.24    8.61
  -6  -2   3   43.32    6.41
   5   2  -3   50.52    8.57
  -5  -2   3   49.95    7.67
  -5  -2   3   42.85    6.45
  -5  -2   3   38.68    8.79
  -5  -2   3   44.25    9.87
  -5  -2   3   51.55    6.64
  -5  -2   3   50.40    6.63
   4   2  -3   14.56    3.59
   4   2  -3   15.60    4.22
   4   2  -3   23.60    5.39
  -4  -2   3   11.23    5.32
  -4  -2   3   13.12    3.62
  -4  -2   3   17.78    5.72
  -4  -2   3   13.56    3.44
  -4  -2   3   15.90    3.97
  -4  -2   3   13.52    3.59
   3   2  -3   52.19    7.48
   3   2  -3   59.19    5.50
  -3  -2   3   59.44    6.65
  -3  -2   3   58.25    6.37
  -3  -2   3   52.80    6.46
  -3  -2   3   60.42    8.06
   1   2  -3   93.91    9.66
   1   2  -3   98.33    8.66
   1   2  -3   90.66    8.79
   1   2  -3  106.37    9.04
   1   2  -3   84.94    9.91
   1   2  -3   96.26    9.72
  -1  -2   3   88.39    9.08
  -1  -2   3  107.89    9.62
  -1  -2   3   91.19   10.55
  -1  -2   3   88.08    9.64
  -1  -2   3   91.75    8.73
  -1  -2   3   95.31    9.56
   0   2  -3    3.22    1.74
   0   2  -3    3.25    2.86
   0   2  -3    1.37    1.61
   0   2  -3   -0.99    1.32
   0   2  -3    0.30    1.72
   0   2  -3    0.77    1.36
   0  -2   3    2.16    2.52
   0  -2   3    0.69    1.12
   0  -2   3    2.85    1.64
   0  -2   3    2.68    1.84
   0  -2   3    0.54    1.59
   0  -2   3    0.90    1.29
  -1   2  -3  286.49   21.95
  -1   2  -3  241.75   23.03
  -1   2  -3  263.03   22.40
  -1   2  -3  272.82   22.14
  -1   2  -3  259.68   22.17
   1  -2   3  265.64   22.05
   1  -2   3  272.59   21.79
   1  -2   3  232.25   22.95
   1  -2   3  242.24   22.13
   1  -2   3  275.16   22.50
  -3   2  -3   50.79    6.53
  -3   2  -3   44.45    5.54
  -3   2  -3   46.96    5.34
  -3   2  -3   40.74    7.09
   3  -2   3   44.88    6.65
   3  -2   3   57.04    5.11
   3  -2   3   46.03    6.15
   3  -2   3   48.67    4.97
  -4   2  -3   44.19    5.74
  -4   2  -3   48.73    5.64
  -4   2  -3   49.55    5.42
  -4   2  -3   42.30    7.36
   4  -2   3   50.10    6.59
   4  -2   3   38.24    6.24
  -5   2  -3  104.30   10.57
  -5   2  -3  109.23   10.95
  -5   2  -3   99.85   12.27
  -5   2  -3  104.35   10.83
  -5   2  -3  116.11   10.32
   5  -2   3  121.90   11.06
   5  -2   3   95.86   11.21
  -6   2  -3   13.52    3.75
  -6   2  -3   14.50    3.84
  -6   2  -3    7.06    4.64
  -6   2  -3    9.29    3.19
  -6   2  -3    4.34    2.73
   6  -2   3   20.76    4.11
  -7   2  -3  120.92   13.03
  -7   2  -3  136.18   12.08
  -7   2  -3  128.64   14.92
  -7   2  -3  106.78   13.91
  -7   2  -3  126.18   12.64
   7  -2   3  122.25   12.52
  -8   2  -3    5.13    4.81
  -8   2  -3   10.73    3.95
  -8   2  -3    9.75    4.17
  -8   2  -3   10.06    6.10
  -8   2  -3   15.44    3.94
  -8  -1   3   19.47    7.86
  -8  -1   3   14.46    5.02
  -8  -1   3   14.61    4.95
  -7  -1   3   14.38    4.44
  -7  -1   3   10.67    4.75
  -7  -1   3   10.92    5.61
  -7  -1   3   11.45    3.39
  -7  -1   3    9.69    3.74
  -6  -1   3   -1.32    2.68
  -6  -1   3   -2.65    3.54
  -6  -1   3   -0.18    1.90
  -6  -1   3   -4.61    2.29
  -6  -1   3   -0.59    2.08
  -6  -1   3    1.08    3.60
   5   1  -3    1.11    2.29
   5   1  -3   -3.33    2.19
  -5  -1   3    1.40    1.83
  -5  -1   3   -1.43    1.56
  -5  -1   3   -3.29    1.81
  -5  -1   3    2.20    3.25
  -5  -1   3    0.93    2.68
  -5  -1   3   -0.07    1.82
   4   1  -3  100.66    9.02
   4   1  -3   84.65    9.11
   4   1  -3   80.37    9.20
  -4  -1   3   96.65   11.04
  -4  -1   3   95.28    9.04
  -4  -1   3  106.52    9.55
  -4  -1   3   94.64    9.29
  -4  -1   3   78.27   10.14
  -4  -1   3   91.19    8.61
   3   1  -3  243.65   22.35
   3   1  -3  269.94   20.86
  -3  -1   3  252.30   20.83
  -3  -1   3  257.46   22.81
  -3  -1   3  248.10   20.73
  -3  -1   3  242.61   20.86
   2   1  -3    7.09    1.31
   2   1  -3    5.26    1.48
   2   1  -3    3.44    1.81
   2   1  -3    5.76    2.09
   2   1  -3    7.76    2.22
   2   1  -3    5.70    1.19
  -2  -1   3    6.18    2.30
  -2  -1   3    4.76    1.86
  -2  -1   3    7.16    1.73
  -2  -1   3    5.79    1.80
  -2  -1   3    7.28    1.59
  -2  -1   3    5.42    2.42
   1   1  -3  546.08   38.68
   1   1  -3  498.84   39.28
   1   1  -3  466.52   39.79
   1   1  -3  473.12   38.64
   1   1  -3  487.36   38.34
   1   1  -3  489.52   39.50
  -1  -1   3  472.45   38.42
  -1  -1   3  518.49   38.82
  -1  -1   3  463.74   39.10
  -1  -1   3  479.19   38.91
  -1  -1   3  497.28   39.63
  -1  -1   3  464.28   39.84
   0   1  -3  558.75   41.63
   0   1  -3  449.29   40.75
   0   1  -3  503.40   40.65
   0   1  -3  442.50   41.02
   0   1  -3  546.69   42.26
   0   1  -3  553.39   41.29
   0  -1   3  541.64   41.34
   0  -1   3  569.11   42.36
   0  -1   3  425.25   40.75
   0  -1   3  601.56   41.83
  -1   1  -3   96.30    7.87
  -1   1  -3   81.08    8.85
  -1   1  -3   82.62    8.29
  -1   1  -3   84.03    7.95
  -1   1  -3   80.59    8.00
   1  -1   3   78.40    8.67
   1  -1   3   86.48    8.12
   1  -1   3   88.40    7.80
   1  -1   3   84.95    8.30
   1  -1   3   76.18    7.89
  -2   1  -3   21.10    2.85
  -2   1  -3   18.98    3.61
  -2   1  -3   16.60    3.90
  -2   1  -3   23.55    3.89
   2  -1   3   22.19    3.56
   2  -1   3   17.97    2.72
   2  -1   3   20.40    4.68
  -3   1  -3  110.87   12.23
  -3   1  -3  137.82   11.10
  -3   1  -3  116.48   11.21
  -3   1  -3  127.31   11.32
   3  -1   3  115.33   11.46
   3  -1   3  137.02   12.09
   3  -1   3  119.21   10.51
   3  -1   3  125.10   10.62
  -4   1  -3    8.61    2.74
  -4   1  -3    4.83    2.24
  -4   1  -3    5.73    3.20
  -4   1  -3    4.85    2.09
  -4   1  -3    3.39    1.97
   4  -1   3    8.92    3.23
   4  -1   3    7.77    2.77
  -5   1  -3  211.03   20.72
  -5   1  -3  211.70   19.55
  -5   1  -3  222.21   18.78
  -5   1  -3  203.03   19.34
  -5   1  -3  210.98   19.58
   5  -1   3  258.28   19.87
  -6   1  -3    0.62    3.41
  -6   1  -3   -3.32    3.59
  -6   1  -3    0.73    2.50
  -6   1  -3   -3.12    2.02
   6  -1   3   -1.38    3.31
  -7   1  -3   18.01    6.41
  -7   1  -3   27.29    5.69
  -7   1  -3   21.02    5.91
  -7   1  -3   35.23    8.17
  -7   1  -3   31.42    6.36
  -7   1  -3   29.17    4.88
   7  -1   3   14.91    5.51
  -8   1  -3   -0.16    2.97
  -8   1  -3    4.10    5.16
  -8   1  -3   -0.31    3.70
  -8   1  -3   -6.74    3.91
  -8   1  -3    0.44    4.63
  -8   0   3   13.37    5.39
  -8   0   3    8.39    3.83
  -8   0   3   -0.88    4.58
  -8   0   3    3.60    3.36
  -7   0   3   15.96    4.31
  -7   0   3   18.77    4.02
  -7   0   3   12.94    3.18
  -6   0   3  131.93   14.22
  -6   0   3  101.70   10.01
  -6   0   3  121.78   11.49
  -5   0   3    2.42    1.14
  -5   0   3    0.70    1.28
  -5   0   3    0.12    1.38
  -5   0   3   -0.33    2.12
  -4   0   3   44.85    4.87
  -4   0   3   40.16    6.11
  -4   0   3   45.63    5.68
  -4   0   3   46.49    4.47
  -4   0   3   44.06    4.23
  -4   0   3   40.28    4.00
   3   0  -3    5.90    1.63
   3   0  -3    9.14    1.73
   3   0  -3    6.70    2.36
   3   0  -3    8.16    1.84
  -3   0   3    8.62    1.24
  -3   0   3    5.63    1.21
  -3   0   3    5.22    2.32
  -3   0   3    8.96    1.85
  -3   0   3    6.21    1.77
  -3   0   3   11.11    2.62
   2   0  -3   11.21    2.63
   2   0  -3    8.72    2.19
   2   0  -3    8.29    1.26
   2   0  -3    6.79    1.54
  -2   0   3    9.32    1.24
  -2   0   3    8.26    1.23
  -2   0   3    8.03    2.20
  -2   0   3   11.81    1.78
   1   0  -3   16.06    2.65
   1   0  -3   18.76    2.76
   1   0  -3   16.65    3.42
   1   0  -3   18.58    1.58
  -1   0   3   18.10    2.66
  -1   0   3   13.22    2.39
  -1   0   3   15.33    3.25
  -1   0   3   17.45    2.09
  -1   0   3   16.24    2.67
   0   0  -3   81.59    7.68
   0   0  -3   72.42    7.24
   0   0  -3   83.08    7.01
   0   0  -3   93.96    7.95
   0   0  -3   79.84    8.26
   0   0  -3   94.80    7.93
   0   0   3   81.04    7.67
   0   0   3   94.26    7.87
   0   0   3   75.44    7.29
   0   0   3   84.26    8.33
   0   0   3   92.45    7.92
  -1   0  -3  266.50   23.96
  -1   0  -3  297.21   23.11
  -1   0  -3  273.98   23.42
  -1   0  -3  290.34   23.04
  -1   0  -3  284.82   23.39
   1   0   3  287.39   23.35
   1   0   3  279.96   23.34
   1   0   3  290.55   23.12
   1   0   3  302.20   24.06
  -2   0  -3  150.58   12.36
  -2   0  -3  136.32   12.74
  -2   0  -3  134.22   12.39
  -2   0  -3  149.70   12.73
  -2   0  -3  133.03   13.34
   2   0   3  147.93   12.29
   2   0   3  144.46   12.41
   2   0   3  152.74   13.25
   2   0   3  140.98   12.69
  -3   0  -3  162.70   16.84
  -3   0  -3  203.33   16.88
  -3   0  -3  170.93   15.55
   3   0   3  166.95   14.79
   3   0   3  185.91   15.74
  -4   0  -3   12.33    3.85
  -4   0  -3    4.44    2.71
  -4   0  -3   10.48    3.17
  -4   0  -3   12.96    3.03
   4   0   3    8.86    3.49
   4   0   3   13.34    1.99
   4   0   3   16.45    3.84
  -5   0  -3   21.52    4.71
  -5   0  -3   17.39    4.54
  -5   0  -3   22.33    4.25
  -5   0  -3   17.44    4.43
  -5   0  -3   23.15    5.31
   5   0   3   22.30    4.95
  -6   0  -3    1.33    3.35
  -6   0  -3   -1.99    2.11
  -6   0  -3   -4.91    3.72
  -6   0  -3   -2.67    3.44
  -6   0  -3    3.36    3.47
  -6   0  -3    1.95    2.67
   6   0   3    4.77    6.12
  -7   0  -3   90.20   14.33
  -7   0  -3  130.77   12.06
  -7   0  -3  124.68   13.89
  -7   0  -3  123.92   13.09
  -7   0  -3  104.41   15.27
   7   0   3  115.07   14.40
  -8   0  -3    2.15    6.01
  -8   0  -3    1.51    6.28
  -9   1   3   21.33    5.52
  -9   1   3   27.08    8.88
  -8   1   3   42.26    9.19
  -8   1   3   40.50    5.56
  -8   1   3   36.62    4.96
  -7   1   3   -0.97    3.24
  -7   1   3   -0.82    1.39
  -7   1   3    2.12    1.89
  -7   1   3    1.94    2.37
  -6   1   3    0.02    2.74
  -6   1   3   -2.52    1.50
  -5   1   3   59.96    6.15
  -5   1   3   53.26    8.22
  -4   1   3   92.25    8.25
  -4   1   3   89.90    9.46
  -3   1   3   12.57    1.93
  -3   1   3    8.03    2.23
   2  -1  -3   10.20    2.19
   2  -1  -3   12.86    2.14
   2  -1  -3    9.02    1.79
  -2   1   3   10.03    1.93
  -2   1   3   11.70    1.90
  -2   1   3   11.17    1.98
  -2   1   3   15.47    2.45
  -2   1   3    9.52    1.35
   1  -1  -3   24.11    2.82
   1  -1  -3   23.95    2.76
   1  -1  -3   25.29    2.55
  -1   1   3   25.32    2.81
  -1   1   3   24.96    2.40
  -1   1   3   34.74    3.71
   0  -1  -3  711.65   53.25
   0  -1  -3  638.14   52.57
   0  -1  -3  720.77   53.11
   0  -1  -3  625.54   53.27
   0  -1  -3  689.68   52.39
   0   1   3  685.16   52.34
   0   1   3  663.27   53.31
   0   1   3  639.12   52.51
   0   1   3  655.36   52.97
   0   1   3  673.10   53.00
  -1  -1  -3  134.53   11.17
  -1  -1  -3  119.91   11.04
  -1  -1  -3  121.70   11.84
   1   1   3  116.56   11.30
   1   1   3  154.97   12.60
   1   1   3  123.60   11.82
  -2  -1  -3    5.55    2.48
  -2  -1  -3    6.11    1.87
  -2  -1  -3    2.44    1.64
  -2  -1  -3    5.64    2.16
  -2  -1  -3    1.84    2.10
   2   1   3    4.29    2.32
   2   1   3    2.98    1.86
   2   1   3    1.56    1.59
   2   1   3   -0.34    2.04
  -3  -1  -3  301.00   25.75
  -3  -1  -3  314.49   26.03
  -3  -1  -3  296.63   25.27
  -3  -1  -3  302.58   26.54
  -3  -1  -3  296.73   26.45
   3   1   3  319.89   25.34
   3   1   3  314.75   26.01
   3   1   3  291.88   25.63
  -4  -1  -3   95.78   10.06
  -4  -1  -3   95.07    9.19
  -4  -1  -3   85.75   10.33
  -4  -1  -3   81.35   10.37
  -4  -1  -3   89.20    9.64
   4   1   3   88.99    8.22
   4   1   3  101.43   10.61
   4   1   3   90.62    8.45
   4   1   3   83.06    9.62
  -5  -1  -3  170.81   18.74
  -5  -1  -3  209.76   18.54
  -5  -1  -3  186.54   20.25
  -5  -1  -3  208.99   17.58
  -5  -1  -3  185.06   19.11
  -5  -1  -3  183.55   18.22
   5   1   3  207.71   19.02
  -6  -1  -3   19.64    5.62
  -6  -1  -3   25.86    8.19
  -6  -1  -3   17.11    4.46
  -6  -1  -3   25.20    6.62
  -6  -1  -3   18.89    6.55
   6   1   3   19.00    7.20
  -7  -1  -3   -0.09    5.31
  -7  -1  -3    6.25    3.49
  -7  -1  -3    4.33    4.92
  -7  -1  -3    2.69    3.58
  -7  -1  -3    3.06    5.57
   7   1   3   22.15   13.39
  -9   2   3   -9.31    4.39
  -9   2   3   -4.86    2.26
  -9   2   3    1.19    3.42
  -8   2   3   -0.38    3.98
  -8   2   3    7.03    3.01
  -7   2   3   21.93    6.01
  -7   2   3   17.93    4.09
  -6   2   3    8.08    3.44
  -6   2   3    7.08    2.33
  -5   2   3   49.63    6.27
  -5   2   3   42.94    5.08
  -4   2   3   94.95    9.17
   3  -2  -3  502.43   40.67
  -3   2   3  488.14   40.31
  -3   2   3  479.84   40.48
  -3   2   3  501.37   40.43
  -3   2   3  503.18   40.53
  -3   2   3  612.71   40.88
   2  -2  -3   45.54    4.78
   2  -2  -3   58.89    5.73
   2  -2  -3   48.42    4.75
  -2   2   3   50.04    4.74
  -2   2   3   45.03    5.29
  -2   2   3   46.82    4.71
  -2   2   3   46.83    4.89
  -2   2   3   47.82    5.17
   1  -2  -3  436.55   37.75
   1  -2  -3  450.52   37.06
   1  -2  -3  515.64   37.90
   1  -2  -3  477.54   36.65
   1  -2  -3  469.77   37.32
   1  -2  -3  441.99   36.83
  -1   2   3  460.80   37.61
  -1   2   3  479.72   37.45
  -1   2   3  475.60   37.73
  -1   2   3  447.10   36.67
  -1   2   3  463.12   37.03
   0  -2  -3 1473.92  112.58
   0  -2  -3 1507.48  111.35
   0  -2  -3 1423.11  111.53
   0  -2  -3 1449.58  111.94
   0  -2  -3 1309.67  112.12
   0   2   3 1487.31  112.24
   0   2   3 1383.71  111.34
   0   2   3 1395.37  111.86
   0   2   3 1346.90  112.21
   0   2   3 1509.33  111.46
  -1  -2  -3  188.96   18.84
  -1  -2  -3  216.32   17.88
  -1  -2  -3  217.33   17.97
  -1  -2  -3  225.04   18.51
   1   2   3  212.78   18.27
   1   2   3  195.99   17.52
  -2  -2  -3  915.87   75.07
  -2  -2  -3  900.82   75.95
  -2  -2  -3  928.55   74.66
  -2  -2  -3  977.06   74.72
  -2  -2  -3  940.58   76.15
  -2  -2  -3  949.06   75.63
   2   2   3 1005.30   75.40
   2   2   3  916.45   74.78
   2   2   3  949.50   74.47
   2   2   3  924.22   75.64
  -3  -2  -3   65.13    8.02
  -3  -2  -3   63.37    8.29
  -3  -2  -3   65.13    9.00
  -3  -2  -3   59.66    7.31
  -3  -2  -3   60.94    7.49
  -3  -2  -3   52.77    9.79
   3   2   3   68.48    6.89
   3   2   3   68.50    7.69
   3   2   3   72.74    8.82
   3   2   3   67.80    7.87
   3   2   3   71.84    9.04
  -4  -2  -3   66.39    8.80
  -4  -2  -3   54.62    8.14
  -4  -2  -3   56.39    9.11
  -4  -2  -3   64.25    8.07
  -4  -2  -3   66.26    7.56
  -4  -2  -3   53.74    9.87
   4   2   3   56.49    6.47
   4   2   3   58.91    6.94
  -5  -2  -3    3.82    3.16
  -5  -2  -3   -0.63    3.69
  -5  -2  -3    4.12    2.79
  -5  -2  -3    1.79    3.74
  -5  -2  -3   -1.85    2.66
   5   2   3    7.69    4.66
  -6  -2  -3   14.81    5.14
  -6  -2  -3   17.22    7.87
  -6  -2  -3    9.83    6.39
  -6  -2  -3   12.35    4.85
  -6  -2  -3   18.71    7.53
   6   2   3   23.31    8.13
  -7  -2  -3   12.82    7.91
  -7  -2  -3   12.81    7.55
  -7  -2  -3    7.93    4.79
  -9   3   3    6.71    3.76
  -9   3   3    4.78    5.34
  -8   3   3    4.45    2.55
  -8   3   3    3.91    3.95
  -7   3   3   72.92    7.96
  -7   3   3   70.08    9.29
  -6   3   3    3.74    1.95
  -6   3   3    2.64    2.32
  -5   3   3  343.18   26.63
  -5   3   3  343.96   28.00
  -5   3   3  318.60   26.74
   4  -3  -3   89.21    8.37
  -4   3   3   92.77    8.27
  -4   3   3   84.09    8.13
  -4   3   3  101.68    8.78
  -4   3   3   86.31    8.28
   3  -3  -3   21.74    3.39
   3  -3  -3   16.87    2.55
   3  -3  -3   18.74    2.79
  -3   3   3   14.90    3.08
  -3   3   3   23.42    3.13
   2  -3  -3  846.62   67.92
   2  -3  -3  869.25   67.93
   2  -3  -3  914.36   68.66
   2  -3  -3  860.42   68.02
  -2   3   3  868.27   68.67
  -2   3   3  853.09   68.17
  -2   3   3  879.26   67.97
  -2   3   3  818.54   67.64
  -2   3   3  838.98   68.61
   1  -3  -3  244.75   19.75
   1  -3  -3  211.93   18.56
   1  -3  -3  233.63   20.18
   1  -3  -3  214.29   18.34
   1  -3  -3  221.48   18.89
   1  -3  -3  208.31   18.84
  -1   3   3  236.35   19.27
  -1   3   3  218.34   19.68
  -1   3   3  210.05   19.49
  -1   3   3  199.90   18.20
  -1   3   3  220.15   18.61
   0  -3  -3 1348.46  102.40
   0  -3  -3 1445.77  101.36
   0  -3  -3 1383.85  100.66
   0  -3  -3 1254.20  100.75
   0  -3  -3 1268.03  101.09
   0   3   3 1182.73  100.96
   0   3   3 1198.55  100.35
   0   3   3 1261.63  100.23
   0   3   3 1183.11  101.58
   0   3   3 1283.82  101.67
  -1  -3  -3  126.82   14.56
  -1  -3  -3  139.03   14.06
  -1  -3  -3  142.82   13.31
  -1  -3  -3  130.82   13.39
  -1  -3  -3  158.13   14.38
   1   3   3  127.40   12.64
   1   3   3  145.66   14.43
   1   3   3  148.02   12.81
  -2  -3  -3   -0.10    1.82
  -2  -3  -3   -1.70    1.66
  -2  -3  -3   -1.19    2.20
  -2  -3  -3   -0.18    2.39
  -2  -3  -3   -1.03    1.54
  -2  -3  -3   -1.03    2.27
   2   3   3    1.15    2.46
   2   3   3   -2.54    1.94
   2   3   3   -0.65    1.80
   2   3   3    0.81    1.87
   2   3   3   -0.50    8.43
  -3  -3  -3   49.69    8.90
  -3  -3  -3   41.32    7.44
  -3  -3  -3   46.97    9.18
  -3  -3  -3   42.52    6.66
  -3  -3  -3   60.52    8.24
  -3  -3  -3   70.20    9.72
   3   3   3   50.86    8.45
  -4  -3  -3   51.35    7.38
  -4  -3  -3   61.29   12.29
  -4  -3  -3   50.21    9.16
   4   3   3   46.99    6.80
   4   3   3   25.63   11.24
  -5  -3  -3    6.48    4.13
  -5  -3  -3    7.94    5.29
  -5  -3  -3    6.84    6.05
  -5  -3  -3    4.08    4.16
  -5  -3  -3    4.18    4.10
   5   3   3    5.29    6.75
   5   3   3   -3.03    2.80
  -6  -3  -3   11.70    7.75
  -6  -3  -3   13.89    7.43
  -6  -3  -3   -1.58    4.05
  -6  -3  -3    8.05    5.05
  -6  -3  -3    1.16    5.91
  -9   4   3   12.54    5.60
  -9   4   3   14.17    4.43
  -8   4   3   99.05    9.89
  -8   4   3   80.48   10.77
  -8   4   3   84.08    8.16
  -8   4   3   85.00    8.69
  -7   4   3    6.62    3.19
  -7   4   3    9.58    3.14
  -7   4   3    7.66    2.63
  -7   4   3    7.68    2.27
  -6   4   3  176.29   15.69
  -6   4   3  183.84   15.19
  -6   4   3  159.22   14.62
  -6   4   3  169.82   15.90
   5  -4  -3  269.98   25.66
  -5   4   3  327.54   24.68
  -5   4   3  287.98   24.75
  -5   4   3  337.29   25.64
  -5   4   3  312.85   24.79
  -5   4   3  285.21   25.82
  -5   4   3  282.26   25.02
  -5   4   3  290.18   24.90
   4  -4  -3  378.72   29.15
   4  -4  -3  310.93   29.48
  -4   4   3  346.49   29.32
  -4   4   3  368.54   27.66
  -4   4   3  357.51   28.81
  -4   4   3  329.61   29.22
  -4   4   3  331.66   29.16
  -4   4   3  352.15   28.80
   3  -4  -3  892.50   67.26
   3  -4  -3  844.08   66.38
   3  -4  -3  783.36   66.70
   3  -4  -3  812.07   68.38
  -3   4   3  920.17   66.79
  -3   4   3  872.99   67.56
  -3   4   3  783.08   66.44
  -3   4   3  799.74   67.26
  -3   4   3  823.68   66.72
   2  -4  -3  201.34   19.03
   2  -4  -3  190.57   20.35
   2  -4  -3  220.90   18.40
   2  -4  -3  230.28   19.41
   2  -4  -3  234.48   20.09
  -2   4   3  226.62   19.60
  -2   4   3  227.55   19.17
  -2   4   3  236.48   20.39
  -2   4   3  210.32   20.22
   1  -4  -3   49.49    6.62
   1  -4  -3   55.53    6.95
   1  -4  -3   59.83    7.48
   1  -4  -3   57.34    6.47
   1  -4  -3   49.69    7.94
  -1   4   3   63.18    6.75
  -1   4   3   54.96    7.02
  -1   4   3   70.08    8.22
  -1   4   3   53.08    6.09
   0  -4  -3   41.53    9.23
   0  -4  -3   33.01    5.78
   0  -4  -3   39.66    6.21
   0  -4  -3   33.78    6.51
   0  -4  -3   31.57    5.20
   0   4   3   44.14    7.18
   0   4   3   34.06    5.50
   0   4   3   26.84    6.10
   0   4   3   29.80    5.72
   0   4   3   53.07    9.57
  -1  -4  -3   45.66    7.37
  -1  -4  -3   52.16    8.32
  -1  -4  -3   60.69   11.82
  -1  -4  -3   59.60    7.42
  -1  -4  -3   60.01    9.75
  -1  -4  -3   66.86    7.99
   1   4   3   50.34    7.20
   1   4   3   59.15    8.70
   1   4   3   85.59   10.64
   1   4   3   57.09    7.74
   1   4   3   57.17    7.13
  -2  -4  -3   24.73    5.59
  -2  -4  -3   28.31    6.18
  -2  -4  -3   18.11    5.46
   2   4   3   22.31    6.54
   2   4   3   29.61    6.02
   2   4   3   23.70    4.88
  -3  -4  -3    7.14    4.36
  -3  -4  -3    3.11    3.80
  -3  -4  -3   12.58    5.26
  -3  -4  -3   10.92    4.45
  -3  -4  -3    4.93    3.64
   3   4   3    5.09    3.54
   3   4   3   10.43    4.84
  -4  -4  -3   80.45   12.62
  -4  -4  -3   70.71   12.25
  -4  -4  -3   67.79   10.35
  -4  -4  -3   75.63   14.21
   4   4   3   89.53   14.29
   4   4   3   82.78   10.07
  -5  -4  -3   11.61    6.63
  -5  -4  -3    1.80    3.99
  -5  -4  -3    4.15    5.92
  -5  -4  -3    5.13    5.78
  -5  -4  -3    0.29    4.69
   5   4   3   -4.03    6.07
  -9   5   3    9.10    5.19
  -9   5   3   12.98    3.66
  -9   5   3   13.95    4.31
  -8   5   3   11.54    3.20
  -8   5   3   20.38    4.91
  -8   5   3   15.02    4.12
  -8   5   3    7.12    5.37
  -8   5   3   10.83    4.20
  -7   5   3  166.99   16.47
  -7   5   3  175.62   15.86
  -7   5   3  172.71   15.85
  -7   5   3  166.96   15.34
  -7   5   3  172.74   20.39
   6  -5  -3    3.36    4.75
  -6   5   3   21.00    4.10
  -6   5   3   14.72    3.74
  -6   5   3   15.96    3.74
  -6   5   3   17.56    3.43
  -6   5   3   21.20    4.38
  -6   5   3   15.96    3.91
   5  -5  -3  146.05   15.30
   5  -5  -3  131.73   16.00
  -5   5   3  161.82   13.41
  -5   5   3  151.13   15.07
  -5   5   3  160.09   15.32
  -5   5   3  173.65   14.89
  -5   5   3  171.07   14.95
  -5   5   3  159.09   15.69
   4  -5  -3   33.34    5.19
   4  -5  -3   37.61    5.58
   4  -5  -3   42.45    6.61
  -4   5   3   55.70   10.60
  -4   5   3   51.76    6.42
  -4   5   3   44.30    7.59
  -4   5   3   35.06    6.59
  -4   5   3   42.52    3.99
  -4   5   3   46.37    6.61
   3  -5  -3   55.17    8.61
   3  -5  -3   72.61    7.47
   3  -5  -3   71.60    9.26
   3  -5  -3   53.80    6.48
   3  -5  -3   47.57    5.46
  -3   5   3   53.41    8.16
  -3   5   3   57.39    7.58
  -3   5   3   48.66    5.13
  -3   5   3   44.24    6.74
  -3   5   3   43.48    6.48
  -3   5   3   43.33    6.56
   2  -5  -3   60.92    8.25
   2  -5  -3   46.40    7.11
   2  -5  -3   42.91    6.32
   2  -5  -3   84.68   10.33
  -2   5   3   72.75    9.43
  -2   5   3   70.06    8.35
  -2   5   3   53.92    7.56
  -2   5   3   64.40    8.60
   1  -5  -3  124.01   13.09
   1  -5  -3  114.68   14.46
   1  -5  -3  117.94   12.11
   1  -5  -3  127.31   13.39
   1  -5  -3  119.08   12.57
   1  -5  -3  110.86   12.14
  -1   5   3  128.41   12.37
  -1   5   3  115.16   14.26
  -1   5   3  125.01   13.81
  -1   5   3  108.52   11.98
  -1   5   3  125.31   12.84
   0  -5  -3    2.99    2.66
   0  -5  -3    8.39    3.33
   0  -5  -3    5.67    3.07
   0  -5  -3    5.04    4.12
   0  -5  -3    3.16    3.32
   0  -5  -3    5.46    3.58
   0   5   3    4.93    2.50
   0   5   3    2.72    2.75
   0   5   3    2.88    4.84
   0   5   3   -0.34    2.51
   0   5   3    2.91    2.62
  -1  -5  -3   36.94    8.32
  -1  -5  -3   32.72    8.92
  -1  -5  -3   51.95   10.34
  -1  -5  -3   51.34    8.17
  -1  -5  -3   35.04    7.63
   1   5   3   31.12    7.06
   1   5   3   50.91   10.34
   1   5   3   39.20    9.13
  -2  -5  -3  133.41   18.25
  -2  -5  -3  160.72   17.21
  -2  -5  -3  161.05   17.37
  -2  -5  -3  147.74   15.97
  -2  -5  -3  135.04   15.51
   2   5   3  151.64   16.02
   2   5   3  154.54   17.91
  -3  -5  -3  178.67   19.40
  -3  -5  -3  113.83   16.44
  -3  -5  -3  113.81   14.60
  -3  -5  -3  149.99   17.83
  -3  -5  -3  144.18   15.97
   3   5   3  165.61   15.98
   3   5   3  137.26   17.93
  -4  -5  -3   49.80   10.22
  -4  -5  -3   76.09   12.74
  -4  -5  -3   73.71   14.53
  -4  -5  -3   83.45   13.46
  -4  -5  -3   64.21   15.23
   4   5   3  113.89   18.37
   4   5   3   75.53   11.34
  -5  -5  -3   36.29    8.77
  -5  -5  -3   35.05   11.72
  -5  -5  -3   19.39    8.99
  -5  -5  -3   40.78    9.08
   5   5   3   40.51    8.76
  -9   6   3   39.10    7.41
  -9   6   3   30.76    6.50
  -9   6   3   37.69    6.65
  -8   6   3   70.76   10.79
  -8   6   3   82.94   11.01
  -8   6   3   99.53    9.93
  -8   6   3   87.06    9.95
   7  -6  -3   20.96    6.38
  -7   6   3   17.90    4.83
  -7   6   3    7.41    3.45
  -7   6   3   12.84    5.18
  -7   6   3   17.17    4.17
  -7   6   3   13.98    3.26
   6  -6  -3    0.33    4.35
  -6   6   3    9.16    4.73
  -6   6   3    3.80    3.29
  -6   6   3    5.39    3.15
  -6   6   3    1.16    2.66
  -6   6   3    5.72    2.05
   5  -6  -3   39.47    5.28
   5  -6  -3   43.39    5.55
  -5   6   3   61.78    8.89
  -5   6   3   47.38    4.64
  -5   6   3   48.27    8.31
  -5   6   3   52.78    7.23
  -5   6   3   66.20   10.53
  -5   6   3   45.45    8.38
   4  -6  -3   23.69    5.51
   4  -6  -3   21.09    7.14
   4  -6  -3   27.06    4.80
  -4   6   3   21.30    5.91
  -4   6   3   19.22    5.48
  -4   6   3   14.82    4.90
  -4   6   3   15.76    5.02
  -4   6   3   17.71    2.87
  -4   6   3   20.63    5.38
   3  -6  -3   18.24    6.27
   3  -6  -3   11.62    4.46
   3  -6  -3   10.92    3.37
   3  -6  -3   17.24    5.27
   3  -6  -3   27.73    7.04
   3  -6  -3   14.92    4.92
  -3   6   3    8.04    4.01
  -3   6   3   10.30    4.38
  -3   6   3   18.21    3.44
  -3   6   3   25.83    6.68
  -3   6   3   16.28    4.96
  -3   6   3   12.33    4.47
   2  -6  -3    9.98    4.18
   2  -6  -3    3.62    3.80
   2  -6  -3    5.82    2.85
   2  -6  -3    4.26    3.57
   2  -6  -3    5.84    4.11
   2  -6  -3   11.04    5.74
  -2   6   3    4.38    3.28
  -2   6   3    2.07    3.44
  -2   6   3   10.75    5.41
  -2   6   3    1.21    2.83
   1  -6  -3  230.24   21.80
   1  -6  -3  226.72   21.55
   1  -6  -3  221.05   24.55
   1  -6  -3  219.77   23.83
  -1   6   3  258.92   24.15
  -1   6   3  225.80   22.15
   0  -6  -3   12.86    5.84
   0  -6  -3   21.15    8.01
   0  -6  -3   18.15    5.53
   0  -6  -3   20.40    5.63
   0  -6  -3   16.68    5.64
   0   6   3   14.79    5.76
   0   6   3   13.15    6.42
   0   6   3    8.91    6.62
  -1  -6  -3  205.27   26.47
  -1  -6  -3  247.00   25.24
  -1  -6  -3  331.07   33.20
  -1  -6  -3  267.33   26.02
   1   6   3  252.86   26.49
   1   6   3  275.66   25.06
  -2  -6  -3    0.66    4.96
  -2  -6  -3   -0.26    3.82
  -2  -6  -3   -0.93    3.48
  -2  -6  -3    1.46    3.69
  -2  -6  -3   -2.28    5.56
   2   6   3   -2.31    4.22
   2   6   3   -6.77    5.23
  -3  -6  -3   13.01    8.75
  -3  -6  -3   26.38    9.78
  -3  -6  -3    5.19    5.71
  -3  -6  -3    9.27    7.46
  -3  -6  -3   10.70    4.79
   3   6   3   11.79    9.05
  -4  -6  -3   23.55   11.02
  -4  -6  -3   13.65    6.46
  -4  -6  -3   15.83   15.09
  -4  -6  -3   41.34   11.12
   4   6   3   30.19    9.74
  -9   7   3    2.47    4.51
  -9   7   3    1.99    4.51
  -8   7   3   14.23    5.09
  -8   7   3    8.83    2.92
  -8   7   3    6.05    3.69
  -8   7   3    6.64    4.00
   7  -7  -3    2.02    7.04
  -7   7   3    8.56    2.18
  -7   7   3    6.30    2.41
  -7   7   3    0.65    3.69
  -7   7   3   15.39    4.70
  -7   7   3    2.63    4.24
   6  -7  -3    5.44    6.38
  -6   7   3   18.42    5.63
  -6   7   3    9.04    5.13
  -6   7   3   13.03    4.84
   5  -7  -3    0.78    3.40
   5  -7  -3    2.51    3.76
  -5   7   3    3.74    3.68
  -5   7   3    6.65    1.89
  -5   7   3    2.24    4.64
   4  -7  -3   32.58    8.17
   4  -7  -3   30.50    4.65
   4  -7  -3   19.43    7.73
   4  -7  -3   24.24    6.41
  -4   7   3   26.00    4.32
  -4   7   3   25.92    7.41
  -4   7   3   24.46    6.48
  -4   7   3   34.05    7.89
   3  -7  -3  150.48   15.75
   3  -7  -3  146.71   14.32
   3  -7  -3  143.31   16.20
   3  -7  -3  113.32   17.24
  -3   7   3  149.11   15.73
  -3   7   3  121.28   17.48
  -3   7   3  159.26   17.31
   2  -7  -3   68.35   16.05
  -2   7   3  102.44   13.80
   1  -7  -3   33.73   11.90
   1  -7  -3   39.88   11.29
   1  -7  -3   32.51    7.75
  -1   7   3   45.76   10.62
   0  -7  -3   42.68    9.04
   0  -7  -3   29.30    7.05
   0  -7  -3   29.66    8.99
   0  -7  -3   35.89    9.27
   0  -7  -3   26.24    9.33
   0   7   3   33.69    8.43
   0   7   3   50.60   12.36
  -1  -7  -3   62.14   13.27
  -1  -7  -3  107.03   15.09
  -1  -7  -3   85.60   12.65
  -1  -7  -3   72.31   12.97
  -1  -7  -3   89.34   19.13
   1   7   3  105.61   13.12
   1   7   3   83.69   16.48
  -2  -7  -3   23.38    8.10
  -2  -7  -3   17.18   10.09
  -2  -7  -3   13.78    6.25
  -2  -7  -3   29.39    8.17
  -2  -7  -3   17.40    7.51
   2   7   3   29.34   11.40
   2   7   3   30.08    8.45
  -3  -7  -3   22.19   18.52
  -3  -7  -3   72.75   14.72
  -3  -7  -3   72.02   19.75
  -3  -7  -3   52.83   10.96
   3   7   3   51.81   12.29
   3   7   3   48.71   14.75
  -9   8   3   -4.39    3.64
  -8   8   3    0.15    3.98
  -8   8   3   -6.35    5.41
  -8   8   3   -5.61    4.47
   7  -8  -3   -1.07    9.52
  -7   8   3   -2.20    4.04
  -7   8   3    2.11    3.83
  -7   8   3    5.20    5.19
   6  -8  -3   56.70   12.90
   6  -8  -3   55.95    8.77
   6  -8  -3   71.26    8.06
  -6   8   3   79.11   11.04
  -6   8   3   85.72   13.41
   5  -8  -3    2.66    5.05
  -5   8   3    0.61    3.89
  -5   8   3    0.43    5.89
   4  -8  -3   72.11   14.10
   4  -8  -3   81.67   13.11
   4  -8  -3   97.68   10.44
  -4   8   3   82.46   13.18
  -4   8   3  112.58   16.03
  -4   8   3   97.70   12.66
   3  -8  -3    2.85    3.76
   3  -8  -3   26.42   11.25
   3  -8  -3    7.10    5.26
   3  -8  -3   -2.56    7.46
  -3   8   3    4.22    4.60
  -3   8   3    4.88    7.14
   2  -8  -3   13.27    7.27
   2  -8  -3    7.16    5.24
   2  -8  -3    0.45    3.75
   2  -8  -3   17.39    6.13
  -2   8   3    6.29    4.93
  -2   8   3    1.23    4.66
  -2   8   3    2.27    7.30
   1  -8  -3   84.02   14.33
   1  -8  -3   79.29   17.29
   1  -8  -3   69.87   11.06
   1  -8  -3   77.96   13.28
  -1   8   3  107.17   18.69
  -1   8   3   83.42   12.55
   0  -8  -3   -2.25    4.87
   0  -8  -3    7.24    6.11
   0  -8  -3    2.72    4.78
   0  -8  -3   -2.24    7.94
   0   8   3    2.27    5.23
   0   8   3   12.94    7.40
  -1  -8  -3   10.17    7.24
  -1  -8  -3   19.37    8.74
  -1  -8  -3   36.63   12.16
  -1  -8  -3   24.69    9.33
   1   8   3   27.61    8.64
   1   8   3   19.87   10.53
  -2  -8  -3    7.38    7.15
  -2  -8  -3   11.25    8.61
   2   8   3   15.42   11.62
  -8   9   3   23.97    6.70
  -8   9   3   19.64    6.95
  -7   9   3   -2.03    4.50
  -7   9   3    1.14    4.74
   6  -9  -3   -4.33    6.05
   6  -9  -3    3.48    5.51
  -6   9   3    1.44    4.98
  -6   9   3    5.24    4.98
  -6   9   3    8.86    7.56
   5  -9  -3   -0.83    9.98
   5  -9  -3   -2.62    6.33
  -5   9   3   -5.53    7.57
  -5   9   3    7.82    5.42
  -5   9   3   -6.20    4.56
   4  -9  -3   61.42   13.82
   4  -9  -3   90.86   13.47
  -4   9   3   80.04   13.96
  -4   9   3   90.25   17.85
  -4   9   3   87.51   14.78
   3  -9  -3   28.25    8.98
   3  -9  -3   34.66    8.83
   3  -9  -3   20.58   10.22
   3  -9  -3   15.54    6.04
  -3   9   3    6.73    6.91
  -3   9   3   22.84   11.12
  -3   9   3   16.26    8.66
   2  -9  -3   59.49   12.77
   2  -9  -3   59.30   14.94
   2  -9  -3   47.01   10.10
   2  -9  -3   95.76   14.82
  -2   9   3   49.30   12.77
  -2   9   3   80.30   13.34
   1  -9  -3   32.12    9.81
   1  -9  -3   17.68    6.99
   1  -9  -3    4.02    6.95
   1  -9  -3   11.88   10.92
  -1   9   3   15.91    7.80
  -1   9   3   13.44    7.58
   0  -9  -3   49.45   15.68
   0  -9  -3   30.31    9.30
   0  -9  -3   32.77   12.01
   0  -9  -3   48.97   10.61
   0   9   3   20.02   11.59
   6 -10  -3   26.02    8.81
  -6  10   3   48.07   10.41
  -6  10   3   27.49    9.30
   5 -10  -3    7.73    8.35
   5 -10  -3   -0.13   11.05
  -5  10   3    3.12    6.22
  -5  10   3   -2.61    6.02
   4 -10  -3   48.16    8.93
   4 -10  -3   22.20    9.43
   4 -10  -3   50.09   11.88
  -4  10   3   40.92   12.74
   3 -10  -3   19.91    9.67
   3 -10  -3   24.83    9.44
  -3  10   3   14.41    8.60
  -3  10   3    6.36    6.68
   2 -10  -3   14.90   14.76
   2 -10  -3   11.34    7.58
   2 -10  -3   38.15   12.39
  -2  10   3   27.73   10.02
  -2  10   3   21.11   12.04
  -1  10  -4   19.21   11.47
  -1  10  -4   24.11    9.92
   1 -10   4   12.97    8.11
   1 -10   4   25.50    9.98
   1 -10   4   12.70    8.88
   1 -10   4   10.27   12.34
  -2  10  -4   98.66   20.22
   2 -10   4  131.55   24.97
   2 -10   4  112.40   26.48
   2 -10   4   96.92   15.27
   2 -10   4   84.15   17.12
  -3  10  -4   15.49   10.93
  -3  10  -4   11.15   12.74
   3 -10   4   -0.16   12.75
   3 -10   4   19.67    9.71
   3 -10   4    8.46    7.14
  -4  10  -4    3.00    7.01
  -4  10  -4   12.87    8.62
   4 -10   4    1.82    5.79
   4 -10   4    1.96    7.86
   4 -10   4    0.38   13.86
  -5  10  -4   70.39   14.70
  -5  10  -4   36.12   11.38
   5 -10   4   62.82   12.34
   5 -10   4   46.64   10.55
  -6  10  -4    2.99    6.96
   6 -10   4    2.87    6.72
   1   9  -4   54.53   15.83
   1   9  -4   74.36   14.31
  -1  -9   4   52.87   13.35
  -1  -9   4   68.24   14.12
  -1  -9   4   51.60   20.16
  -1  -9   4   70.29   16.09
   0   9  -4  111.64   19.01
   0   9  -4  148.82   24.61
   0  -9   4  162.80   20.05
   0  -9   4  176.22   28.29
   0  -9   4  139.58   19.55
   0  -9   4  152.85   20.06
  -1   9  -4   68.54   12.86
  -1   9  -4   55.50   13.32
   1  -9   4   57.03   12.16
   1  -9   4   83.70   14.97
   1  -9   4   81.42   30.99
   1  -9   4   60.08   12.85
  -2   9  -4   16.62    6.88
  -2   9  -4   11.78    7.69
   2  -9   4    5.55    7.41
   2  -9   4    5.37    7.23
   2  -9   4    9.41    8.65
   2  -9   4   -2.39    5.00
  -3   9  -4   26.23   12.95
  -3   9  -4   33.66   11.63
  -3   9  -4   40.64    9.86
   3  -9   4   21.26   11.97
   3  -9   4   15.31    8.10
  -4   9  -4    6.14    6.09
  -4   9  -4    6.45    5.73
  -4   9  -4    4.44   13.45
   4  -9   4   -0.30    6.17
   4  -9   4    9.96   11.90
   4  -9   4    3.71    5.07
  -5   9  -4   12.85    6.82
  -5   9  -4    4.63    6.05
  -5   9  -4   11.18   11.24
   5  -9   4   18.27    6.92
   5  -9   4  -15.78    8.74
   5  -9   4   14.06    6.28
  -6   9  -4    4.94    5.48
  -6   9  -4   15.91    6.93
   6  -9   4   12.55   11.11
   6  -9   4   12.89    6.04
   6  -9   4    8.69    7.28
  -7   9  -4   52.32   10.39
   2   8  -4  -12.27    8.70
   2   8  -4   -2.83    6.44
  -2  -8   4   -4.53    5.57
  -2  -8   4   -4.30    6.03
  -2  -8   4   -0.46    5.59
  -2  -8   4   -9.71   14.73
   1   8  -4   -6.61    4.95
   1   8  -4    5.19    6.74
  -1  -8   4    3.06    4.69
  -1  -8   4   -8.25    8.69
  -1  -8   4   21.88   12.29
  -1  -8   4   -1.08    4.96
  -1  -8   4   -9.79    5.70
   0   8  -4  103.70   17.27
   0   8  -4   93.54   15.62
   0  -8   4  134.75   16.07
   0  -8   4  116.50   15.92
   0  -8   4  138.18   16.87
   0  -8   4  131.91   37.70
  -1   8  -4   25.46    7.24
  -1   8  -4   26.35    8.39
   1  -8   4   31.16    8.40
   1  -8   4   18.00    7.07
   1  -8   4   17.13    7.94
   1  -8   4   25.48    7.24
  -2   8  -4    2.12    3.92
  -2   8  -4   13.27   10.47
  -2   8  -4    4.34    5.79
   2  -8   4    1.40    4.55
   2  -8   4    8.54    6.09
   2  -8   4    5.98    5.57
   2  -8   4   -6.19    5.01
  -3   8  -4   17.02    8.92
  -3   8  -4   17.88   10.04
  -3   8  -4   22.16    7.26
   3  -8   4    9.94    5.52
   3  -8   4   15.75   11.16
   3  -8   4   23.80    7.63
  -4   8  -4   61.22   12.26
  -4   8  -4   60.63   13.33
  -4   8  -4   69.04   11.47
   4  -8   4   58.26   11.30
   4  -8   4   33.64   12.39
   4  -8   4   54.49   10.50
  -5   8  -4   17.73    7.05
  -5   8  -4   10.77    9.10
  -5   8  -4    9.09    5.37
   5  -8   4   12.61    8.27
   5  -8   4    6.11    4.88
   5  -8   4   10.45    5.91
   5  -8   4   14.45    5.76
  -6   8  -4    0.66    4.14
  -6   8  -4   -0.28    7.98
  -6   8  -4   -1.89    4.03
   6  -8   4    4.79    4.43
   6  -8   4   -2.29    8.19
  -7   8  -4    5.40    4.64
  -7   8  -4    6.61    8.57
  -7   8  -4    4.92    5.15
   7  -8   4    7.52    9.49
  -8   8  -4   30.12    7.95
  -8   8  -4   34.57    8.20
   4   7  -4   11.55    7.19
  -4  -7   4   19.05   20.64
  -4  -7   4   -2.73    8.66
  -4  -7   4   10.48    8.03
   3   7  -4   13.87   10.46
   3   7  -4   16.18    7.84
  -3  -7   4   16.98    7.72
  -3  -7   4    4.59   12.99
  -3  -7   4   21.31    8.32
  -3  -7   4   14.47    6.48
   2   7  -4   59.44   15.12
   2   7  -4   39.64   11.13
  -2  -7   4   43.35   13.15
  -2  -7   4   33.22    8.32
  -2  -7   4   32.63    9.35
  -2  -7   4   37.37   10.06
  -2  -7   4   43.10   11.61
   1   7  -4    5.60    5.27
   1   7  -4    8.92    7.17
  -1  -7   4    4.45    4.93
  -1  -7   4   10.29    4.69
  -1  -7   4   14.12    8.97
  -1  -7   4    7.24    5.68
  -1  -7   4    4.32    6.49
   0   7  -4   -3.86    3.60
   0   7  -4   -0.29    4.14
   0  -7   4   -2.01    3.74
   0  -7   4   -0.07    7.51
   0  -7   4    5.53    8.69
   0  -7   4    2.04    7.51
  -1   7  -4   34.69   10.40
  -1   7  -4   21.47    7.16
  -1   7  -4   32.60    7.87
   1  -7   4   20.24    8.27
   1  -7   4   25.68    7.73
   1  -7   4   39.09    8.43
   1  -7   4   36.32    8.83
   1  -7   4   32.36    8.24
  -2   7  -4  175.13   19.20
  -2   7  -4  136.06   20.25
  -3   7  -4   43.89    8.90
  -3   7  -4   51.32    9.84
  -3   7  -4   27.61    7.55
  -3   7  -4   42.85   10.25
   3  -7   4   38.29    8.38
  -4   7  -4   63.61    9.41
  -4   7  -4   52.65   10.55
  -4   7  -4   79.11   18.59
  -4   7  -4   70.97   13.20
   4  -7   4   74.56   10.70
   4  -7   4   56.90   13.74
   4  -7   4   70.72   10.24
   4  -7   4   61.16    9.91
  -5   7  -4   54.17    9.79
  -5   7  -4   54.23   11.82
  -5   7  -4   55.98   10.84
   5  -7   4   52.07   11.18
   5  -7   4   52.92    8.13
   5  -7   4   47.13    8.46
  -6   7  -4  217.49   22.47
  -6   7  -4  218.72   25.20
  -6   7  -4  235.59   22.23
   6  -7   4  180.47   30.23
   6  -7   4  232.99   19.49
  -7   7  -4   63.84   10.79
  -7   7  -4  100.50   16.15
  -7   7  -4   75.06   10.87
   7  -7   4  107.05   16.77
  -8   7  -4   26.75    9.59
  -8   7  -4   36.13    8.51
  -8   7  -4   34.60    7.21
  -5  -6   4    8.42   13.57
  -5  -6   4   -0.40    8.40
  -5  -6   4   19.83    8.66
   4   6  -4   24.89    6.13
   4   6  -4    7.78    9.14
  -4  -6   4    8.29    5.93
  -4  -6   4    4.06    6.56
  -4  -6   4   18.24   11.26
  -4  -6   4    7.55    6.48
  -4  -6   4   10.31    6.56
   3   6  -4    9.80    4.66
   3   6  -4   10.10    7.25
  -3  -6   4   -1.77    4.57
  -3  -6   4    8.68    8.00
  -3  -6   4   13.70    6.15
   2   6  -4   10.09    7.09
   2   6  -4   17.44    5.99
  -2  -6   4   13.88    8.10
  -2  -6   4   15.27    6.58
  -2  -6   4   36.50   13.93
  -2  -6   4   13.28    5.41
  -2  -6   4   19.57    6.19
   1   6  -4  160.72   19.60
   1   6  -4  193.54   18.36
  -1  -6   4  144.60   18.56
  -1  -6   4  221.17   18.77
  -1  -6   4  161.67   19.02
  -1  -6   4  162.72   18.26
  -1  -6   4  185.81   22.95
   0   6  -4   15.26    5.63
   0   6  -4    9.03    6.88
   0   6  -4    6.26    5.95
   0  -6   4   19.16    6.08
   0  -6   4    8.79    5.66
   0  -6   4   36.43   13.06
   0  -6   4   14.35    5.52
   0  -6   4    5.40    4.32
  -1   6  -4   71.06   10.74
  -1   6  -4   68.59    9.22
  -1   6  -4   76.94   13.97
  -1   6  -4   44.16    9.29
   1  -6   4   74.69   11.33
   1  -6   4   71.37   10.69
   1  -6   4   55.24    9.02
   1  -6   4   55.82   10.28
   1  -6   4   55.86   12.97
  -2   6  -4  130.70   15.74
  -2   6  -4  117.24   12.85
  -2   6  -4   88.70   13.16
   2  -6   4  138.34   13.37
   2  -6   4   86.40   12.52
   2  -6   4  114.50   16.88
  -4   6  -4  172.61   19.75
  -4   6  -4  208.00   18.69
  -4   6  -4  184.94   19.31
  -4   6  -4  168.11   18.83
  -4   6  -4  174.39   20.57
   4  -6   4  186.34   17.42
   4  -6   4  198.30   19.35
   4  -6   4  180.88   21.41
   4  -6   4  181.51   18.00
  -5   6  -4   33.61    9.29
  -5   6  -4   16.66    6.38
  -5   6  -4   21.79    6.48
  -5   6  -4   21.71    5.99
   5  -6   4   22.04    4.92
   5  -6   4   19.78    7.88
   5  -6   4   20.56    4.54
  -6   6  -4   26.49    6.36
  -6   6  -4   28.08    6.33
   6  -6   4   25.95    8.36
  -7   6  -4   15.52    7.72
  -7   6  -4   22.27    5.64
  -7   6  -4    9.14    4.37
  -8   6  -4    0.44    4.06
  -8   6  -4    1.96    2.87
  -8   6  -4   -3.15    6.67
   8  -6   4    4.08    8.20
  -9   6  -4   18.45    8.93
  -9   6  -4   20.95    7.41
   5   5  -4   20.82    9.47
  -5  -5   4    6.49    6.61
  -5  -5   4    5.12    4.66
  -5  -5   4    4.09   10.38
  -5  -5   4    7.36    6.66
  -5  -5   4   15.19    7.50
   4   5  -4   16.95   12.39
   4   5  -4    7.60    7.28
   4   5  -4   11.65    3.90
  -4  -5   4   18.31    6.12
  -4  -5   4    5.64    4.32
  -4  -5   4   12.24    6.08
  -4  -5   4    3.04    7.88
   3   5  -4   52.46    9.27
   3   5  -4   50.08   10.20
   3   5  -4   55.71    8.21
  -3  -5   4   30.68    8.72
  -3  -5   4   31.42    7.06
  -3  -5   4   43.22    8.82
   2   5  -4    7.11    3.18
   2   5  -4   10.99    4.62
   2   5  -4    8.03    3.41
  -2  -5   4   10.08    5.28
  -2  -5   4    2.28    3.24
  -2  -5   4    5.25    3.37
  -2  -5   4    0.44    3.05
  -2  -5   4   -2.03    3.16
   1   5  -4   25.62    6.76
   1   5  -4   28.10    5.85
   1   5  -4   27.19    7.84
   1   5  -4   27.12    6.30
   1   5  -4   18.84    7.52
   1   5  -4   24.51    5.90
  -1  -5   4   21.67    6.23
  -1  -5   4   23.71    6.34
  -1  -5   4   20.47    5.90
  -1  -5   4   22.31    6.79
   0   5  -4   84.53   11.86
   0   5  -4   87.17   12.62
   0   5  -4   86.67   10.55
   0  -5   4  102.70   11.63
   0  -5   4   68.16   11.00
   0  -5   4  100.41   10.97
   0  -5   4   85.97   11.07
   0  -5   4  103.18   14.53
   0  -5   4  121.51   12.58
  -1   5  -4  104.01   11.56
  -1   5  -4  110.34   11.87
  -1   5  -4  106.82   12.10
  -1   5  -4  104.39   12.64
  -1   5  -4  122.15   13.91
   1  -5   4   97.83   11.93
   1  -5   4   95.46   11.89
   1  -5   4  102.52   12.35
   1  -5   4   91.64   11.21
   1  -5   4  126.79   13.34
   1  -5   4   87.14   13.76
  -2   5  -4  237.05   22.65
  -2   5  -4  222.60   24.58
  -2   5  -4  239.23   21.46
  -2   5  -4  237.50   22.48
  -2   5  -4  231.61   22.17
   2  -5   4  201.51   23.89
   2  -5   4  247.51   22.54
   2  -5   4  237.11   21.79
   2  -5   4  250.91   21.54
   2  -5   4  219.68   22.32
  -3   5  -4    2.73    4.02
  -3   5  -4   10.41    3.69
  -3   5  -4    6.51    3.88
  -3   5  -4   10.78    4.26
  -3   5  -4    6.54    3.88
   3  -5   4   12.01    3.63
   3  -5   4   14.14    5.99
   3  -5   4    9.23    4.21
   3  -5   4    6.72    3.91
  -4   5  -4   68.91    9.30
  -4   5  -4   63.90    9.30
  -4   5  -4   85.02    9.06
  -4   5  -4   61.88   11.68
  -4   5  -4   58.49    9.14
   4  -5   4   77.34   11.58
   4  -5   4   62.61   10.37
   4  -5   4   59.30    7.64
   4  -5   4   75.87    8.50
  -5   5  -4   52.61    7.15
  -5   5  -4   37.89    8.87
  -5   5  -4   30.22    7.44
  -5   5  -4   28.92    7.86
  -5   5  -4   43.53    8.40
   5  -5   4   42.65    9.44
   5  -5   4   43.64    5.78
   5  -5   4   42.17    5.48
  -6   5  -4   -2.80    4.73
  -6   5  -4    4.98    2.84
  -6   5  -4   -3.14    4.58
  -6   5  -4   -1.93    2.75
   6  -5   4   -5.86    4.76
  -7   5  -4    4.16    2.94
  -7   5  -4    0.61    3.21
   7  -5   4   -1.28    5.16
  -8   5  -4    1.94    3.54
  -8   5  -4    2.19    3.35
  -8   5  -4    5.64    4.47
   8  -5   4   14.51   10.05
  -9   5  -4    6.29    4.91
  -9   5  -4    8.17    5.59
  -9   5  -4    3.67    6.45
  -9   5  -4    2.88    3.66
  -6  -4   4   10.12    5.54
  -6  -4   4    3.04    8.73
  -6  -4   4    2.76    4.58
  -6  -4   4    8.14    6.60
  -6  -4   4  -11.52    4.76
   5   4  -4  -10.35    5.33
  -5  -4   4   -2.61    3.18
  -5  -4   4    2.47    4.49
  -5  -4   4   -1.08    4.34
  -5  -4   4    1.02    4.59
  -5  -4   4   -7.93    6.75
   4   4  -4   26.31    4.38
  -4  -4   4   19.06    6.09
  -4  -4   4   20.17   11.48
  -4  -4   4   18.04    4.98
  -4  -4   4   21.00   10.95
  -4  -4   4   25.34    6.68
   3   4  -4   21.08    4.47
   3   4  -4   29.35    7.60
   3   4  -4   17.38    4.57
   3   4  -4   22.67    6.76
  -3  -4   4   25.88    6.41
  -3  -4   4    9.64    4.99
  -3  -4   4   20.11    7.70
  -3  -4   4   14.70    4.37
  -3  -4   4   20.64    6.02
  -3  -4   4   15.65    5.82
   2   4  -4  131.70   16.07
   2   4  -4  183.87   18.30
   1   4  -4   73.47    7.54
   1   4  -4   53.80    7.29
   1   4  -4   59.87    8.48
   1   4  -4   55.42    7.64
   1   4  -4   71.60   12.01
   1   4  -4   59.72    9.13
  -1  -4   4   74.45   11.29
  -1  -4   4   52.75    8.46
  -1  -4   4   54.55    8.05
  -1  -4   4   60.70    8.52
  -1  -4   4   59.33    7.27
  -1  -4   4   54.56    8.08
   0   4  -4  162.65   17.58
   0   4  -4  170.25   16.71
   0   4  -4  158.90   16.54
   0   4  -4  191.00   17.90
   0   4  -4  184.71   18.70
   0   4  -4  180.14   16.37
   0  -4   4  224.50   18.58
   0  -4   4  143.24   16.45
   0  -4   4  208.33   20.19
   0  -4   4  215.70   17.83
   0  -4   4  167.25   18.54
  -1   4  -4    7.29    5.27
  -1   4  -4    6.83    3.07
  -1   4  -4    4.74    2.51
  -1   4  -4    6.44    3.27
  -1   4  -4   12.04    4.57
   1  -4   4    3.47    3.97
   1  -4   4   13.86    4.19
   1  -4   4    6.27    3.57
   1  -4   4    1.27    2.78
   1  -4   4    6.39    3.56
  -2   4  -4   75.83   10.40
  -2   4  -4   85.60   10.20
   2  -4   4  124.80   10.64
   2  -4   4  117.19   11.68
   2  -4   4   83.44   10.61
  -3   4  -4    9.66    3.69
  -3   4  -4   13.50    4.05
  -3   4  -4    4.11    4.53
  -3   4  -4   14.45    4.53
   3  -4   4   18.56    5.72
   3  -4   4   13.78    4.53
   3  -4   4   10.75    3.48
   3  -4   4   13.95    3.51
  -4   4  -4   -1.82    2.76
  -4   4  -4    3.05    3.07
  -4   4  -4    4.66    4.24
  -4   4  -4    4.17    2.57
  -4   4  -4    2.67    2.19
   4  -4   4    1.43    2.10
   4  -4   4   -1.29    2.18
   4  -4   4    1.22    3.18
  -5   4  -4   37.76    6.80
  -5   4  -4   45.07    7.59
  -5   4  -4   48.37    9.46
  -5   4  -4   40.64    6.56
   5  -4   4   51.14    9.27
   5  -4   4   45.02    4.24
  -6   4  -4    2.13    2.21
  -6   4  -4   -3.74    4.76
  -6   4  -4   -1.00    2.43
   6  -4   4   -0.66    3.79
  -7   4  -4   22.31    4.84
  -7   4  -4   12.07    4.61
  -7   4  -4   20.68    4.72
  -7   4  -4   11.26    6.44
  -7   4  -4   14.35    6.13
   7  -4   4   27.93    6.18
  -8   4  -4  -10.21    5.32
  -8   4  -4   -5.21    3.30
  -8   4  -4    1.35    3.15
  -8   4  -4   -2.49    3.28
  -9   4  -4    2.73    4.14
  -9   4  -4    3.90    4.67
  -7  -3   4   -4.07    5.67
  -7  -3   4    0.50    4.44
  -7  -3   4    8.73    8.68
  -7  -3   4    5.26    4.38
   6   3  -4   41.02    8.36
  -6  -3   4   49.43    8.27
  -6  -3   4   36.73   10.19
  -6  -3   4   44.50   10.65
  -6  -3   4   57.42    9.16
  -6  -3   4   42.98    7.58
   5   3  -4   24.69    6.26
  -5  -3   4   13.25    5.47
  -5  -3   4   21.65    7.07
  -5  -3   4   22.84    5.86
  -5  -3   4   20.50    5.32
  -5  -3   4   22.01    8.60
  -5  -3   4   29.27    5.63
   4   3  -4    3.96    4.31
   4   3  -4    8.19    3.23
   4   3  -4    9.80    1.72
  -4  -3   4    8.25    3.22
  -4  -3   4    8.04    3.95
  -4  -3   4    5.99    4.38
  -4  -3   4    5.91    5.48
   3   3  -4  140.12   12.62
   3   3  -4  123.91   14.22
   3   3  -4  135.13   12.04
   3   3  -4  115.83   14.55
   3   3  -4  128.68   12.40
  -3  -3   4  151.45   14.16
  -3  -3   4  131.37   12.84
  -3  -3   4  125.60   15.75
  -3  -3   4  136.81   15.22
  -3  -3   4  133.52   13.36
  -3  -3   4  130.89   13.39
   2   3  -4  264.78   21.54
   2   3  -4  273.83   21.75
   2   3  -4  239.07   23.38
   2   3  -4  253.75   21.34
   2   3  -4  241.07   23.28
   2   3  -4  261.05   23.16
  -2  -3   4  245.68   23.55
  -2  -3   4  251.61   24.53
  -2  -3   4  251.76   22.21
  -2  -3   4  238.23   22.19
  -2  -3   4  257.92   23.02
  -2  -3   4  242.68   21.95
   1   3  -4   26.42    4.61
   1   3  -4   27.16    5.91
   1   3  -4   31.32    5.28
   1   3  -4   26.90    5.86
   1   3  -4   29.70    5.24
   1   3  -4   25.36    6.69
  -1  -3   4   22.37    7.09
  -1  -3   4   25.00    4.64
  -1  -3   4   24.33    4.87
  -1  -3   4   29.41    5.47
  -1  -3   4   20.32    4.96
  -1  -3   4   24.40    5.32
   0   3  -4  706.53   56.08
   0   3  -4  626.35   56.97
   0   3  -4  720.13   57.42
   0   3  -4  622.62   56.21
   0   3  -4  695.72   56.50
   0  -3   4  785.79   59.18
   0  -3   4  832.30   58.08
   0  -3   4  751.86   57.03
   0  -3   4  734.15   56.31
   0  -3   4  576.53   56.11
  -1   3  -4   44.47    7.77
  -1   3  -4   25.10    4.67
  -1   3  -4   34.12    5.47
  -1   3  -4   30.67    7.89
  -1   3  -4   19.83    4.92
  -1   3  -4   26.41    5.26
   1  -3   4   33.95    5.52
   1  -3   4   33.08    7.93
   1  -3   4   31.87    6.19
   1  -3   4   29.85    5.74
   1  -3   4   25.09    5.30
  -2   3  -4   82.63    7.88
  -2   3  -4   67.42    7.99
  -2   3  -4   62.94    8.13
   2  -3   4   66.97    8.19
   2  -3   4   55.17    8.94
  -3   3  -4    2.21    1.86
  -3   3  -4    1.06    1.71
  -3   3  -4    1.37    2.95
  -3   3  -4   -1.97    1.88
  -3   3  -4   -2.48    1.46
   3  -3   4   -2.07    1.52
   3  -3   4   -0.41    1.53
   3  -3   4    2.63    3.04
  -4   3  -4  125.38   13.82
  -4   3  -4  115.85   12.90
  -4   3  -4  130.75   12.47
  -4   3  -4  122.68   15.09
  -4   3  -4  145.98   12.94
   4  -3   4  143.06   14.37
   4  -3   4  123.78   11.53
   4  -3   4  126.42   20.09
   4  -3   4  142.87   11.73
  -5   3  -4    1.89    2.23
  -5   3  -4   -3.95    3.25
  -5   3  -4   -2.24    3.92
  -5   3  -4   -0.83    2.65
   5  -3   4    4.85    6.16
   5  -3   4   -1.79    3.11
  -6   3  -4    6.41    3.96
  -6   3  -4    6.23    3.37
  -6   3  -4    3.99    4.96
  -6   3  -4    7.67    3.56
  -6   3  -4    6.63    2.78
   6  -3   4    5.28    4.04
  -7   3  -4   24.49    5.72
  -7   3  -4   18.60    6.65
  -7   3  -4   38.59    6.31
  -7   3  -4   36.04    6.26
  -7   3  -4   16.20    7.01
   7  -3   4   45.98    6.94
  -8   3  -4    1.52    3.65
  -8   3  -4    1.38    3.65
  -8   3  -4    5.40    3.28
  -7  -2   4    2.39    3.37
  -7  -2   4    0.26    4.95
  -7  -2   4   -4.57    2.98
  -7  -2   4   -0.93    5.34
  -7  -2   4    4.32    4.11
   6   2  -4    0.86    3.66
  -6  -2   4    2.38    3.66
  -6  -2   4    3.38    2.80
  -6  -2   4    3.83    2.84
  -6  -2   4   -0.42    5.05
  -6  -2   4    5.72    4.34
  -6  -2   4   -3.17    3.24
   5   2  -4   24.39    5.09
  -5  -2   4   30.89    5.17
  -5  -2   4   28.34    5.56
  -5  -2   4   20.65    7.17
  -5  -2   4   23.32    6.25
  -5  -2   4   21.29    4.87
  -5  -2   4   26.50    5.41
   4   2  -4   70.06   11.07
   4   2  -4   62.25    8.65
   4   2  -4   57.42    7.02
   4   2  -4   68.83    8.87
  -4  -2   4   66.68    7.81
  -4  -2   4   63.86    9.49
  -4  -2   4   69.01    7.52
  -4  -2   4   62.55    7.58
  -4  -2   4   78.97   12.70
  -4  -2   4   57.43    7.49
   1   2  -4  507.13   39.58
   1   2  -4  499.94   41.07
   1   2  -4  493.41   40.72
   1   2  -4  468.36   41.71
   1   2  -4  448.46   40.18
   1   2  -4  550.20   40.03
  -1  -2   4  511.89   40.44
  -1  -2   4  505.64   41.26
  -1  -2   4  515.49   40.22
  -1  -2   4  498.71   39.74
  -1  -2   4  478.85   41.79
  -1  -2   4  467.60   40.61
   0   2  -4  973.32   86.91
   0   2  -4 1161.40   88.54
   0   2  -4 1116.17   86.32
   0   2  -4 1248.89   87.91
   0   2  -4  937.51   86.32
   0  -2   4 1000.19   86.97
   0  -2   4 1196.24   88.69
   0  -2   4 1158.31   87.11
   0  -2   4 1138.76   86.39
  -1   2  -4  577.18   47.29
  -1   2  -4  657.10   47.09
  -1   2  -4  572.06   47.69
  -1   2  -4  528.77   48.41
  -1   2  -4  575.16   47.24
   1  -2   4  618.54   47.34
   1  -2   4  618.41   47.90
   1  -2   4  558.16   48.40
   1  -2   4  553.80   47.32
  -2   2  -4  131.11   13.50
  -2   2  -4  151.74   13.31
  -2   2  -4  177.91   13.92
  -2   2  -4  134.49   13.95
  -2   2  -4  159.43   15.37
   2  -2   4  137.15   14.05
   2  -2   4  135.27   13.33
   2  -2   4  169.01   14.24
   2  -2   4  133.81   14.54
  -3   2  -4  222.86   17.02
  -3   2  -4  195.70   17.24
  -3   2  -4  169.25   18.48
  -3   2  -4  174.12   17.87
   3  -2   4  191.71   17.51
   3  -2   4  189.42   16.40
   3  -2   4  196.26   16.50
  -4   2  -4   31.26    4.73
  -4   2  -4   41.37    8.08
  -4   2  -4   42.56    5.36
  -4   2  -4   35.02    6.08
   4  -2   4   50.66    7.96
   4  -2   4   39.21    6.47
   4  -2   4   40.91    4.19
   4  -2   4   33.31    4.10
  -5   2  -4   74.57   11.40
  -5   2  -4   99.80   10.13
  -5   2  -4   70.28   10.05
  -5   2  -4   98.69   10.17
  -5   2  -4  104.21   10.18
   5  -2   4  118.73   11.02
  -6   2  -4   19.82    4.95
  -6   2  -4    8.55    5.21
  -6   2  -4    6.72    3.19
  -6   2  -4    6.41    3.77
  -6   2  -4   10.22    3.23
  -7   2  -4    0.02    3.60
  -7   2  -4   -2.39    2.72
  -7   2  -4    2.06    3.20
  -7   2  -4    6.28    5.38
  -7   2  -4    2.52    4.53
   7  -2   4   11.41    5.09
  -8   2  -4   13.81    4.75
  -8   2  -4   15.07    4.73
  -8   2  -4   11.24    3.95
  -8   2  -4   19.58    6.89
  -8  -1   4    0.62    3.74
  -8  -1   4    2.47    4.43
  -8  -1   4   -2.52    5.75
  -7  -1   4   12.44    4.63
  -7  -1   4   11.73    6.24
  -7  -1   4   13.28    4.36
  -7  -1   4   10.27    3.92
  -6  -1   4    2.85    2.35
  -6  -1   4    5.35    2.89
  -6  -1   4    1.01    2.33
  -6  -1   4   -3.46    3.63
  -6  -1   4   -4.95    3.09
  -6  -1   4    2.31    1.88
   5   1  -4   47.87    6.62
   5   1  -4   64.77    7.06
   5   1  -4   55.98    6.74
  -5  -1   4   68.06    7.15
  -5  -1   4   62.80    8.94
  -5  -1   4   61.56    8.48
  -5  -1   4   55.61    6.76
  -5  -1   4   64.80    6.61
  -5  -1   4   56.65    6.64
   4   1  -4   20.88    3.75
   4   1  -4   21.24    4.18
   4   1  -4   18.06    4.00
   4   1  -4   21.50    5.29
  -4  -1   4   20.56    3.74
  -4  -1   4   25.23    6.05
  -4  -1   4   20.28    4.03
  -4  -1   4   23.48    5.63
  -4  -1   4   25.98    4.09
   3   1  -4 1114.92   86.43
   3   1  -4  966.39   86.85
   3   1  -4 1103.79   88.09
   3   1  -4 1112.78   86.80
  -3  -1   4 1140.47   88.56
  -3  -1   4 1067.25   86.27
  -3  -1   4 1104.46   87.00
  -3  -1   4 1091.08   86.47
  -3  -1   4 1171.25   86.53
  -3  -1   4 1167.54   88.79
   2   1  -4  289.67   23.59
   2   1  -4  284.06   23.55
   2   1  -4  321.64   23.55
   2   1  -4  323.95   24.81
   2   1  -4  272.96   25.05
  -2  -1   4  303.12   24.11
  -2  -1   4  293.57   24.64
  -2  -1   4  296.13   25.43
  -2  -1   4  294.04   24.30
  -2  -1   4  268.70   23.67
   1   1  -4 1648.73  126.25
   1   1  -4 1525.74  126.73
   1   1  -4 1582.74  125.43
   1   1  -4 1745.70  125.22
   1   1  -4 1620.71  124.82
  -1  -1   4 1696.19  126.47
  -1  -1   4 1578.24  124.90
  -1  -1   4 1515.75  125.73
  -1  -1   4 1601.58  125.71
  -1  -1   4 1694.91  125.41
  -1  -1   4 1502.47  126.64
   0   1  -4  244.05   18.79
   0   1  -4  201.65   18.04
   0   1  -4  184.96   17.58
   0   1  -4  236.21   18.37
   0   1  -4  236.84   19.56
   0  -1   4  245.93   18.86
   0  -1   4  193.47   17.70
   0  -1   4  212.35   19.22
   0  -1   4  179.60   17.97
   0  -1   4  218.29   18.31
  -1   1  -4  172.75   14.07
  -1   1  -4  166.65   14.28
  -1   1  -4  141.68   15.13
  -1   1  -4  155.56   14.86
  -1   1  -4  159.55   14.46
   1  -1   4  171.55   14.56
   1  -1   4  152.77   15.17
   1  -1   4  164.89   14.40
   1  -1   4  168.71   14.06
   1  -1   4  164.84   14.77
  -2   1  -4  101.35   10.48
  -2   1  -4  105.83    9.52
  -2   1  -4  102.88   10.08
  -2   1  -4   94.09   10.82
   2  -1   4  112.52    9.73
   2  -1   4   99.19    9.44
   2  -1   4   98.55   10.62
  -3   1  -4    1.54    1.72
  -3   1  -4    5.58    2.92
  -3   1  -4    3.64    1.65
  -3   1  -4    3.98    2.58
   3  -1   4   -0.63    1.79
   3  -1   4    0.89    1.56
   3  -1   4    1.11    1.53
  -4   1  -4    3.29    2.30
  -4   1  -4    5.08    2.06
  -4   1  -4    3.63    2.53
  -4   1  -4    5.23    3.24
  -4   1  -4    0.69    2.34
   4  -1   4    4.64    3.02
   4  -1   4    3.52    1.55
   4  -1   4    0.27    2.17
   4  -1   4    5.06    1.78
  -5   1  -4    7.67    3.51
  -5   1  -4    4.35    3.48
  -5   1  -4    4.41    2.74
  -5   1  -4    3.96    2.38
  -5   1  -4   10.00    4.35
   5  -1   4   10.06    3.70
  -6   1  -4   70.60    9.95
  -6   1  -4   65.14   10.66
   6  -1   4   69.13   10.48
  -7   1  -4    3.80    2.91
  -7   1  -4    9.26    3.83
  -7   1  -4    4.13    5.10
  -7   1  -4    3.09    3.73
   7  -1   4   -3.41    7.23
  -8   1  -4    7.67    6.31
  -8   1  -4   11.52    4.01
  -8   1  -4    3.22    4.37
  -8   1  -4    5.79    6.43
  -8   1  -4   10.00    5.03
  -8   0   4    7.18    5.80
  -8   0   4    8.93    4.74
  -8   0   4    5.13    3.65
  -8   0   4   13.14    4.07
  -7   0   4   80.35    9.05
  -7   0   4   88.43    8.69
  -7   0   4   89.46   12.38
  -7   0   4   84.33    9.54
  -6   0   4   10.20    2.99
  -6   0   4    4.47    2.02
  -6   0   4    4.01    2.36
  -6   0   4   10.63    4.28
  -5   0   4  473.73   38.04
  -5   0   4  474.23   41.33
  -5   0   4  491.01   38.18
  -4   0   4   21.19    3.02
  -4   0   4   17.54    2.69
  -4   0   4   19.97    2.56
  -4   0   4   22.01    5.08
  -4   0   4   20.94    2.99
   3   0  -4  107.71    9.29
   3   0  -4  105.69   10.55
   3   0  -4  111.32    9.20
  -3   0   4  101.85    9.16
  -3   0   4  115.20    9.22
  -3   0   4  102.46    9.59
  -3   0   4  118.16   10.93
  -3   0   4   96.80   10.12
  -3   0   4  108.76    9.01
   2   0  -4  228.92   20.25
   2   0  -4  228.02   18.15
   2   0  -4  224.68   19.43
   2   0  -4  237.18   18.83
   2   0  -4  235.06   18.09
  -2   0   4  214.54   19.60
  -2   0   4  228.24   18.14
  -2   0   4  229.82   18.89
  -2   0   4  234.29   18.50
  -2   0   4  234.92   19.68
   1   0  -4  198.98   18.60
   1   0  -4  208.76   16.86
   1   0  -4  236.32   18.00
   1   0  -4  214.17   17.95
   1   0  -4  209.67   18.12
  -1   0   4  201.38   17.77
  -1   0   4  230.25   18.25
  -1   0   4  215.60   17.50
  -1   0   4  219.62   18.76
  -1   0   4  215.84   18.04
   0   0  -4 1024.27   81.76
   0   0  -4 1164.61   82.91
   0   0  -4  995.57   82.44
   0   0  -4 1186.71   83.07
   0   0  -4 1022.20   83.50
   0   0  -4  945.34   82.10
   0   0   4  961.32   82.17
   0   0   4 1159.70   82.98
   0   0   4 1141.24   82.93
   0   0   4 1007.65   83.38
   0   0   4  996.00   82.46
  -1   0  -4   52.00    6.20
  -2   0  -4    4.11    2.07
  -2   0  -4    2.74    1.71
  -2   0  -4    3.65    2.38
  -2   0  -4    5.09    1.99
  -2   0  -4    2.34    1.31
   2   0   4    3.54    2.22
   2   0   4    1.87    1.50
   2   0   4    4.11    2.19
  -3   0  -4  110.19   12.87
  -3   0  -4  124.90   12.15
  -3   0  -4  129.84   12.47
  -3   0  -4  124.65   11.84
   3   0   4  131.46   13.61
   3   0   4  134.13   12.38
   3   0   4  136.42   11.67
  -4   0  -4  135.41   13.31
  -4   0  -4  130.04   14.50
  -4   0  -4  138.19   13.62
  -4   0  -4  149.82   14.25
   4   0   4  149.08   13.85
   4   0   4  151.85   14.17
   4   0   4  136.77   12.26
   4   0   4  135.42   12.15
  -5   0  -4   71.82    8.21
  -5   0  -4   55.68    8.76
  -5   0  -4   76.99    7.70
  -5   0  -4   88.54   14.78
  -5   0  -4   56.57    9.26
   5   0   4   69.53    9.24
  -6   0  -4    0.13    6.92
  -6   0  -4   -1.10    3.37
  -6   0  -4    2.40    4.47
  -6   0  -4   -1.64    2.71
  -6   0  -4    3.02    2.39
   6   0   4    1.51    4.47
  -7   0  -4    8.54    3.65
  -7   0  -4   17.31    7.26
  -7   0  -4    2.28    3.80
  -7   0  -4    9.48    4.80
  -7   0  -4    6.68    6.40
   7   0   4   10.83    7.32
  -8   0  -4   41.59    7.77
  -8   0  -4   36.12   10.05
  -8   0  -4   31.46   10.44
  -8   0  -4   44.01    8.39
  -8   0  -4   56.87   10.34
  -9   1   4   24.89    5.62
  -9   1   4   15.03    7.65
  -8   1   4   86.68    9.46
  -8   1   4   74.21    7.76
  -8   1   4   75.81   11.87
  -7   1   4   84.13    7.18
  -7   1   4   78.56   11.22
  -7   1   4   77.91    7.42
  -7   1   4   72.79    8.55
  -6   1   4   73.55    9.47
  -6   1   4   64.85    7.30
  -5   1   4    5.09    1.76
  -5   1   4   10.39    3.67
  -4   1   4   10.25    3.01
  -4   1   4   11.89    2.21
   3  -1  -4  249.17   20.82
   3  -1  -4  273.31   21.68
   3  -1  -4  238.87   21.35
  -3   1   4  279.81   21.25
  -3   1   4  265.85   21.88
  -3   1   4  277.15   20.68
  -3   1   4  256.58   20.87
  -3   1   4  241.80   20.89
  -3   1   4  263.75   20.54
   2  -1  -4  207.83   17.37
   2  -1  -4  208.67   17.12
   2  -1  -4  213.33   16.93
   2  -1  -4  204.69   17.50
  -2   1   4  211.40   17.51
  -2   1   4  211.70   17.11
  -2   1   4  216.67   17.55
  -2   1   4  235.39   18.07
  -2   1   4  202.63   16.63
  -2   1   4  219.62   17.68
   0  -1  -4  664.83   52.44
   0  -1  -4  680.84   51.47
   0  -1  -4  653.36   52.70
   0  -1  -4  634.19   52.77
   0  -1  -4  624.67   51.72
   0   1   4  627.50   51.81
   0   1   4  670.32   51.39
   0   1   4  687.44   52.25
   0   1   4  628.52   52.63
   0   1   4  687.48   52.35
  -1  -1  -4  389.98   31.72
  -1  -1  -4  379.53   32.20
  -1  -1  -4  386.41   32.47
  -1  -1  -4  363.34   32.68
  -1  -1  -4  372.13   31.53
   1   1   4  392.95   31.53
   1   1   4  427.85   32.49
   1   1   4  383.95   31.57
   1   1   4  395.98   32.14
   1   1   4  428.85   32.95
  -2  -1  -4   35.58    4.85
  -2  -1  -4   34.21    5.51
  -2  -1  -4   37.78    5.18
  -2  -1  -4   36.14    4.52
   2   1   4   29.36    4.69
   2   1   4   35.55    4.38
   2   1   4   36.21    5.59
   2   1   4   33.08    4.37
   2   1   4   48.46    5.97
  -3  -1  -4  117.70   12.51
  -4  -1  -4  103.81   12.25
  -4  -1  -4  112.87   10.88
  -4  -1  -4  119.52   11.60
  -4  -1  -4  120.18   13.69
  -4  -1  -4  117.81   12.81
   4   1   4   83.61   12.18
   4   1   4  102.54   10.32
  -5  -1  -4   38.84    8.38
  -5  -1  -4   49.71   10.73
  -5  -1  -4   50.86    7.53
  -5  -1  -4   56.59    6.80
  -5  -1  -4   57.61    9.08
  -5  -1  -4   48.50    9.83
   5   1   4   52.99    9.14
  -6  -1  -4  174.78   18.61
  -6  -1  -4  174.92   20.27
  -6  -1  -4  150.28   18.83
  -6  -1  -4  177.42   16.78
  -6  -1  -4  206.69   18.25
   6   1   4  169.16   18.97
  -7  -1  -4   23.24    5.68
  -7  -1  -4   38.56    9.98
  -7  -1  -4   21.33    5.78
  -7  -1  -4   31.67    9.38
  -7  -1  -4   33.02    8.93
  -9   2   4    3.56    5.34
  -9   2   4    7.26    3.91
  -8   2   4   -0.59    3.92
  -8   2   4    4.76    2.94
  -7   2   4  108.55   10.53
  -7   2   4  103.06   12.43
  -6   2   4  149.57   13.38
  -6   2   4  140.68   14.69
  -5   2   4  252.57   20.57
  -5   2   4  243.85   21.83
  -4   2   4   21.40    2.83
  -4   2   4   27.42    2.96
  -4   2   4   23.54    2.64
  -4   2   4   26.04    3.74
   2  -2  -4  130.41   12.07
   2  -2  -4  138.75   11.91
   2  -2  -4  144.23   12.75
  -2   2   4  148.41   12.63
  -2   2   4  139.30   12.40
  -2   2   4  144.54   12.39
  -2   2   4  140.39   11.93
  -2   2   4  134.37   11.52
   1  -2  -4  138.96   12.27
   1  -2  -4  167.40   12.86
  -1   2   4  140.86   13.32
  -1   2   4  145.53   13.08
  -1   2   4  142.29   12.56
  -1   2   4  142.44   12.12
   0  -2  -4  356.46   29.21
   0  -2  -4  332.06   29.99
   0  -2  -4  379.84   30.42
   0  -2  -4  397.02   29.01
   0  -2  -4  372.22   29.75
   0   2   4  354.27   29.65
   0   2   4  364.71   29.89
   0   2   4  340.58   30.03
   0   2   4  348.35   28.98
   0   2   4  328.84   28.94
  -1  -2  -4  181.01   16.47
  -1  -2  -4  166.04   15.16
  -1  -2  -4  183.85   15.52
  -1  -2  -4  173.29   15.88
  -1  -2  -4  170.01   16.56
   1   2   4  183.55   16.51
   1   2   4  164.10   16.00
   1   2   4  180.00   15.85
   1   2   4  166.69   14.99
   1   2   4  171.91   15.02
  -2  -2  -4  184.81   16.28
  -2  -2  -4  178.80   16.16
  -2  -2  -4  177.42   17.29
  -2  -2  -4  191.98   16.92
  -2  -2  -4  171.50   17.35
   2   2   4  186.41   15.79
   2   2   4  163.06   16.78
   2   2   4  193.88   16.77
   2   2   4  160.20   15.74
   2   2   4  193.60   17.58
  -3  -2  -4  715.23   59.70
  -3  -2  -4  893.14   62.29
  -3  -2  -4  677.41   61.57
  -3  -2  -4  701.50   59.93
   3   2   4  682.17   59.62
   3   2   4  750.21   59.07
   3   2   4  778.48   61.27
  -4  -2  -4   89.70   11.70
  -4  -2  -4   98.61   10.28
  -4  -2  -4  101.69   10.64
  -4  -2  -4   82.96   11.39
  -4  -2  -4   80.11   11.55
   4   2   4   89.57    9.59
   4   2   4   74.88    9.03
   4   2   4  105.88   12.62
  -5  -2  -4  185.75   20.94
  -5  -2  -4  211.28   19.98
  -5  -2  -4  213.41   22.57
  -5  -2  -4  191.23   21.11
  -5  -2  -4  220.15   19.57
   5   2   4  205.38   17.89
   5   2   4  213.21   17.51
   5   2   4  206.41   21.44
  -6  -2  -4   -0.74    6.01
  -6  -2  -4    3.63    5.25
  -6  -2  -4   -1.27    3.34
  -6  -2  -4   -1.11    3.30
  -6  -2  -4    1.41    4.86
   6   2   4    2.23    7.40
  -7  -2  -4   -1.56    4.71
  -7  -2  -4    6.47    7.94
  -7  -2  -4   14.35    5.47
  -7  -2  -4   14.04    7.22
  -9   3   4    8.20    3.95
  -8   3   4   49.67    6.80
  -8   3   4   64.64    9.02
  -7   3   4    8.48    2.81
  -7   3   4    9.54    3.80
  -6   3   4   11.20    3.51
  -6   3   4   14.90    2.05
  -5   3   4    1.90    1.55
  -5   3   4   -0.76    1.21
  -5   3   4   -0.38    1.13
   4  -3  -4  301.25   28.39
   4  -3  -4  370.10   28.49
  -4   3   4  346.47   28.01
  -4   3   4  359.88   28.22
  -4   3   4  333.72   28.36
  -4   3   4  351.62   27.57
  -4   3   4  360.58   28.15
   3  -3  -4   23.05    3.54
   3  -3  -4   22.82    4.38
   3  -3  -4   24.51    3.67
   3  -3  -4   34.19    4.91
  -3   3   4   23.04    3.96
  -3   3   4   26.17    3.93
  -3   3   4   17.14    3.86
  -3   3   4   34.83    4.82
  -3   3   4   19.20    3.58
   2  -3  -4  141.65   12.60
   2  -3  -4  140.56   12.21
   2  -3  -4  117.79   12.67
   2  -3  -4  129.02   11.69
   2  -3  -4  124.86   11.69
  -2   3   4  128.14   12.51
  -2   3   4  131.54   11.59
  -2   3   4  124.11   12.30
  -2   3   4  130.93   12.02
  -2   3   4  121.72   11.17
   1  -3  -4  870.89   69.24
   1  -3  -4  852.50   67.88
   1  -3  -4  824.58   68.47
   1  -3  -4  774.32   68.15
   1  -3  -4  816.04   67.92
   1  -3  -4  954.31   69.99
  -1   3   4  841.31   68.11
  -1   3   4  830.30   67.65
  -1   3   4  862.78   69.27
  -1   3   4  929.19   69.32
  -1   3   4  926.62   68.93
   0  -3  -4    4.69    3.47
   0  -3  -4    3.75    2.04
   0  -3  -4    4.08    2.06
   0  -3  -4    0.70    2.05
   0  -3  -4    1.69    1.95
   0   3   4    4.21    2.91
   0   3   4    6.51    2.99
   0   3   4    3.84    1.88
   0   3   4    0.96    1.59
  -1  -3  -4  950.69   77.52
  -1  -3  -4  942.97   78.04
  -1  -3  -4  968.76   77.29
  -1  -3  -4 1053.78   81.89
  -1  -3  -4  936.79   82.87
   1   3   4  928.32   76.87
   1   3   4 1014.27   79.01
   1   3   4  992.94   78.42
   1   3   4 1004.11   78.07
   1   3   4  946.46   76.93
  -2  -3  -4    0.62    3.00
  -2  -3  -4    9.87    4.82
  -2  -3  -4    8.94    2.91
  -2  -3  -4    7.73    3.92
  -2  -3  -4    2.76    2.60
  -2  -3  -4    7.40    3.91
   2   3   4   10.17    5.12
   2   3   4    9.95    3.10
   2   3   4   17.94    3.99
   2   3   4   10.56    3.57
   2   3   4   10.87    4.12
  -3  -3  -4   41.62    9.02
  -3  -3  -4   48.83    6.88
  -3  -3  -4   53.21    7.38
  -3  -3  -4   59.51    9.89
  -3  -3  -4   52.19    9.83
   3   3   4   55.03    9.81
   3   3   4   46.08    6.38
   3   3   4   47.36    8.08
  -4  -3  -4   20.09    5.39
  -4  -3  -4   33.33    7.36
  -4  -3  -4   28.56    6.90
  -4  -3  -4   21.61    7.11
  -4  -3  -4   32.24    6.85
   4   3   4   27.47    5.51
   4   3   4   22.65    5.64
   4   3   4   19.23    7.17
  -5  -3  -4   22.12    6.55
  -5  -3  -4   24.92    6.56
  -5  -3  -4   12.58    6.73
  -5  -3  -4   22.68    7.84
  -5  -3  -4   12.38    6.10
   5   3   4   23.74    4.99
   5   3   4   22.07    4.77
  -6  -3  -4   13.11    5.51
  -6  -3  -4   12.17   17.23
  -9   4   4    1.55    4.81
  -8   4   4   31.60    5.91
  -8   4   4   52.15    5.40
  -8   4   4   38.33    7.26
  -7   4   4   41.73    6.11
  -7   4   4   40.28    5.09
  -7   4   4   32.81    5.82
  -7   4   4   41.86    4.59
  -6   4   4   95.23    9.80
  -6   4   4  114.28    9.89
  -6   4   4   91.26   11.82
  -6   4   4  115.58   10.50
  -6   4   4  122.38   11.71
   5  -4  -4   97.67    8.78
  -5   4   4   80.96    8.04
  -5   4   4   72.40    7.19
  -5   4   4   78.10    7.82
  -5   4   4   79.59    7.16
  -5   4   4   76.45    8.14
  -5   4   4   71.61    8.10
  -5   4   4   78.49    8.96
   4  -4  -4   74.09    8.23
   4  -4  -4   65.89    8.59
  -4   4   4   87.73    7.94
  -4   4   4   69.03    7.97
  -4   4   4   73.02    8.37
  -4   4   4   63.30    7.87
  -4   4   4   74.82    7.67
   3  -4  -4  306.76   26.22
   3  -4  -4  285.07   25.43
   3  -4  -4  317.73   27.34
   3  -4  -4  345.90   25.65
   3  -4  -4  262.09   25.46
  -3   4   4  289.80   25.75
  -3   4   4  318.26   26.55
  -3   4   4  332.54   26.65
  -3   4   4  322.32   25.62
  -3   4   4  267.98   25.16
   2  -4  -4  654.23   55.53
   2  -4  -4  678.65   56.63
   2  -4  -4  733.55   57.67
   2  -4  -4  610.23   57.82
  -2   4   4  690.52   56.49
  -2   4   4  746.96   58.75
  -2   4   4  771.43   57.94
  -2   4   4  762.04   56.23
   1  -4  -4  279.33   24.92
   1  -4  -4  270.34   23.98
   1  -4  -4  252.25   23.01
   1  -4  -4  252.04   22.44
   1  -4  -4  262.51   23.16
   1  -4  -4  269.41   23.13
  -1   4   4  258.40   22.17
  -1   4   4  304.58   24.98
  -1   4   4  255.81   23.25
  -1   4   4  262.56   24.06
  -1   4   4  238.43   22.45
   0  -4  -4  453.19   34.09
   0  -4  -4  399.78   33.53
   0  -4  -4  362.25   34.14
   0  -4  -4  389.99   35.35
   0  -4  -4  441.57   33.35
   0   4   4  371.16   33.67
   0   4   4  359.79   34.42
   0   4   4  388.83   32.60
   0   4   4  369.63   33.19
   0   4   4  415.77   34.79
  -1  -4  -4    5.61    3.40
  -1  -4  -4    8.22    3.33
  -1  -4  -4    8.00    3.75
  -1  -4  -4   10.28    4.22
  -1  -4  -4    2.75    2.33
  -1  -4  -4    6.08    5.10
   1   4   4    4.49    2.72
   1   4   4   10.42    3.62
   1   4   4    4.33    2.61
   1   4   4   36.53   11.57
   1   4   4    2.69    3.21
  -2  -4  -4   13.06    4.79
  -2  -4  -4    5.08    3.50
  -2  -4  -4   20.25    7.17
  -2  -4  -4   12.41    4.39
  -2  -4  -4   13.11    5.44
   2   4   4   10.20    3.72
   2   4   4   11.53    4.26
   2   4   4    9.28    4.81
  -3  -4  -4   81.99   12.43
  -3  -4  -4   62.99   10.59
  -3  -4  -4   36.61    9.19
  -3  -4  -4   54.46    9.49
   3   4   4   76.40    9.40
   3   4   4   57.81    8.18
   3   4   4   45.92   10.72
  -4  -4  -4   -5.03    5.28
  -4  -4  -4    6.07    5.18
  -4  -4  -4    2.24    3.36
  -4  -4  -4    1.30    4.58
  -4  -4  -4   -4.70    3.38
   4   4   4    2.39    4.19
   4   4   4   -5.55    4.60
   4   4   4   -1.34    6.27
  -5  -4  -4   -2.54    5.15
  -5  -4  -4    7.42    4.66
  -5  -4  -4    2.29    6.73
  -5  -4  -4    4.20    4.65
   5   4   4    0.54    8.88
  -9   5   4   38.34    7.66
  -9   5   4   40.21    5.73
  -8   5   4   -3.99    3.15
  -8   5   4    0.32    2.64
  -8   5   4   -0.08    2.56
  -8   5   4    4.19    4.61
  -7   5   4   16.49    3.68
  -7   5   4   11.77    3.80
  -7   5   4   10.34    5.27
  -7   5   4   17.02    3.71
   6  -5  -4  154.76   17.81
  -6   5   4  194.87   17.21
  -6   5   4  190.47   18.50
  -6   5   4  172.56   17.28
  -6   5   4  200.36   16.02
  -6   5   4  218.11   17.54
  -6   5   4  203.90   17.29
  -6   5   4  199.60   16.22
  -5   5   4   -1.69    2.75
  -5   5   4   -0.73    2.78
  -5   5   4   -0.43    2.57
  -5   5   4    2.58    2.63
   4  -5  -4  369.96   29.22
   4  -5  -4  325.88   27.74
  -4   5   4  339.10   28.59
  -4   5   4  320.52   28.20
  -4   5   4  333.72   29.17
  -4   5   4  315.53   29.03
  -4   5   4  326.34   28.25
   3  -5  -4    0.64    2.16
   3  -5  -4    1.87    1.30
   3  -5  -4    0.32    2.68
   3  -5  -4    3.10    2.64
  -3   5   4    0.03    2.02
  -3   5   4    1.57    2.86
  -3   5   4    2.46    2.36
  -3   5   4    0.50    1.77
  -3   5   4    3.35    2.59
   2  -5  -4   -4.32    2.23
   2  -5  -4    2.36    2.89
   2  -5  -4    0.86    2.45
   2  -5  -4    0.16    1.47
   2  -5  -4   -2.02    2.16
   2  -5  -4    1.79    3.32
  -2   5   4    0.06    2.14
  -2   5   4    3.08    2.45
  -2   5   4   -2.33    2.28
  -2   5   4   -2.60    2.02
  -2   5   4    2.70    4.98
   1  -5  -4   54.81    8.62
   1  -5  -4   59.24    7.74
   1  -5  -4   57.23   11.03
   1  -5  -4   47.94    6.87
   1  -5  -4   74.76    8.25
   1  -5  -4   46.99    8.12
  -1   5   4   47.07    7.24
  -1   5   4   60.40    8.85
  -1   5   4   60.68    9.69
   0  -5  -4  110.66   12.43
   0  -5  -4  137.08   12.87
   0  -5  -4  115.19   14.43
   0  -5  -4  102.09   12.80
   0  -5  -4  122.10   12.08
   0   5   4   84.06   13.23
   0   5   4  108.66   11.34
   0   5   4   94.03   12.15
   0   5   4  101.73   14.38
  -1  -5  -4   82.41   10.80
  -1  -5  -4   75.82    9.40
  -1  -5  -4   73.05   11.83
  -1  -5  -4   86.73   10.24
  -1  -5  -4   58.38    9.56
   1   5   4   87.57   10.50
   1   5   4   64.92   10.77
  -2  -5  -4    4.73    4.24
  -2  -5  -4    7.35    3.90
  -2  -5  -4    7.24    4.81
   2   5   4    6.79    4.12
   2   5   4    1.88    3.94
  -3  -5  -4    6.29    4.96
  -3  -5  -4    0.90    5.86
  -3  -5  -4    1.55    3.45
  -3  -5  -4    5.33    5.72
  -3  -5  -4    4.23    4.44
   3   5   4    2.84    6.01
   3   5   4    3.97    4.68
  -4  -5  -4   -5.01    4.84
  -4  -5  -4    5.82    6.37
  -4  -5  -4   -0.51    4.07
  -4  -5  -4    9.34    7.87
   4   5   4    7.36    8.55
   4   5   4   -1.91    5.17
  -9   6   4    4.18    4.05
  -9   6   4    9.74    4.40
  -8   6   4   41.46    7.08
  -8   6   4   49.95    8.11
  -8   6   4   44.11    6.17
   7  -6  -4   40.46    8.08
  -7   6   4   49.92    6.78
  -7   6   4   52.64    7.31
  -7   6   4   42.12    6.57
   6  -6  -4   51.55    9.96
  -6   6   4   39.97    7.13
  -6   6   4   59.65    8.89
  -6   6   4   57.64    8.00
  -6   6   4   47.61    7.00
   5  -6  -4    6.98    2.40
   5  -6  -4    4.43    2.56
  -5   6   4    4.28    3.04
  -5   6   4    3.26    3.69
  -5   6   4    2.13    3.18
  -5   6   4    5.36    3.59
   4  -6  -4   10.11    3.60
   4  -6  -4   17.58    5.93
  -4   6   4    7.72    4.78
  -4   6   4   11.42    4.66
  -4   6   4   16.88    5.37
  -4   6   4   15.55    4.85
   3  -6  -4   -1.62    1.84
   3  -6  -4    3.19    3.90
  -3   6   4   -3.24    2.93
  -3   6   4    1.73    2.53
  -3   6   4    3.88    3.14
  -3   6   4    4.04    4.40
   2  -6  -4   64.63   10.54
   2  -6  -4   64.87    9.44
   2  -6  -4   87.44    9.82
   2  -6  -4   69.10   13.35
   2  -6  -4   70.58   10.17
   2  -6  -4   56.27    7.71
  -2   6   4   65.93    8.26
  -2   6   4   81.98   12.01
  -2   6   4   61.56    9.89
  -2   6   4   58.64    8.78
   1  -6  -4   14.59    4.64
   1  -6  -4   13.53    4.52
   1  -6  -4   26.98    8.56
   1  -6  -4   19.71    5.38
   1  -6  -4   14.45    5.20
  -1   6   4   22.74    6.97
  -1   6   4   26.23    6.77
   0  -6  -4   12.60    6.05
   0  -6  -4    6.89    4.48
   0  -6  -4   -0.97    2.60
   0  -6  -4   14.72    7.43
   0  -6  -4    9.11    4.60
   0   6   4    8.19    3.91
   0   6   4    7.40    7.48
   0   6   4    9.13    4.11
  -1  -6  -4   -1.57    4.89
  -1  -6  -4   -0.36    4.29
  -1  -6  -4   -5.32    3.08
  -1  -6  -4   -0.54    3.21
  -1  -6  -4    2.36    3.41
   1   6   4    1.63    3.95
   1   6   4    4.09    5.75
  -2  -6  -4    1.13    4.17
  -2  -6  -4   10.90    7.20
  -2  -6  -4    5.67    4.80
  -2  -6  -4    5.59    5.57
  -2  -6  -4    9.05    5.75
   2   6   4   21.02    5.71
   2   6   4    7.33    6.10
  -3  -6  -4    7.14    4.97
  -3  -6  -4    3.56    7.50
  -3  -6  -4    0.49    5.44
  -3  -6  -4   -9.32    4.76
   3   6   4   -5.49    6.85
   3   6   4   -0.01    5.86
  -4  -6  -4    3.91    5.14
  -4  -6  -4   16.47    7.93
  -4  -6  -4   10.45    9.68
  -4  -6  -4    8.82    8.14
   4   6   4    2.73    7.36
  -9   7   4    2.74    4.17
  -8   7   4   -4.12    2.94
  -8   7   4    4.15    3.83
  -8   7   4   -2.38    3.42
   7  -7  -4   15.97    8.05
  -7   7   4   19.46    5.64
  -7   7   4   26.39    6.20
  -7   7   4   22.98    5.42
  -6   7   4   57.07    9.19
  -6   7   4   41.75    8.07
  -6   7   4   47.87    8.74
   5  -7  -4   12.31    4.24
   5  -7  -4   18.05    5.51
  -5   7   4   13.35    5.04
  -5   7   4   17.97    8.17
  -5   7   4   13.86    5.62
   4  -7  -4   89.65   13.35
   4  -7  -4   72.98   10.85
   4  -7  -4   84.40    8.13
   4  -7  -4   77.96   13.10
   4  -7  -4   84.04   10.63
  -4   7   4  102.57   13.57
  -4   7   4   87.35   11.85
  -4   7   4   72.75   10.56
   3  -7  -4  178.90   21.30
  -3   7   4  189.45   21.29
   1  -7  -4   25.88    8.45
   1  -7  -4    3.86    3.88
   1  -7  -4   16.28    7.20
   1  -7  -4    2.49    7.87
  -1   7   4   16.48    5.17
  -1   7   4    1.99    4.45
   0  -7  -4    5.60    4.09
   0  -7  -4    4.70    4.38
   0  -7  -4    6.50    4.62
   0  -7  -4    9.25    6.64
   0   7   4    9.38    5.00
   0   7   4   -6.15    4.19
  -1  -7  -4    9.61    5.88
  -1  -7  -4    8.26    5.52
  -1  -7  -4    5.66    7.27
  -1  -7  -4    6.40    5.74
   1   7   4   15.31    6.46
   1   7   4    6.10    6.89
  -2  -7  -4   22.48    8.44
  -2  -7  -4   24.10    7.23
  -2  -7  -4   27.28    8.41
   2   7   4   24.41    9.89
  -3  -7  -4    1.57    7.02
   3   7   4    2.80   13.39
  -8   8   4    7.44    4.88
  -8   8   4    4.13    5.15
   7  -8  -4   -9.03   10.44
  -7   8   4   -7.87    4.78
  -7   8   4    3.89    4.26
   6  -8  -4   22.47    6.55
   6  -8  -4   17.63    9.04
   6  -8  -4   28.62    4.86
  -6   8   4   34.14    7.80
  -6   8   4   28.82    8.60
   5  -8  -4    8.86    6.09
  -5   8   4    3.04    6.49
  -5   8   4    9.23    4.89
  -5   8   4   17.11    5.46
   4  -8  -4    3.62    3.00
   4  -8  -4    3.50    5.19
   4  -8  -4   -0.84    5.32
   4  -8  -4    1.69    6.56
  -4   8   4   -1.85    4.19
  -4   8   4    1.19    6.34
  -4   8   4   -0.99    3.94
   3  -8  -4   -3.08    4.93
   3  -8  -4   12.66    7.31
   3  -8  -4    6.27    5.92
  -3   8   4    1.27    4.37
  -3   8   4    2.73    5.33
  -3   8   4   -4.12    6.93
   2  -8  -4   -1.04    4.78
   2  -8  -4   -0.82    5.44
   2  -8  -4    8.12    7.36
   2  -8  -4   -3.19    3.39
  -2   8   4   -9.20    4.58
  -2   8   4   -0.99    3.75
  -2   8   4   10.05    8.47
   1  -8  -4   83.97   12.54
   1  -8  -4   66.58   11.12
   1  -8  -4  119.50   14.30
   1  -8  -4   55.84   13.87
  -1   8   4  102.05   13.98
  -1   8   4  101.09   19.36
   0  -8  -4   17.33    7.78
   0  -8  -4   16.65    9.43
   0  -8  -4   22.45    6.71
   0  -8  -4    2.83    6.93
   0   8   4   24.90    7.70
   0   8   4    8.08    7.41
  -1  -8  -4   11.09    9.71
  -1  -8  -4    8.59    6.30
   1   8   4   25.50   11.93
   1   8   4   20.17    8.44
  -8   9   4    8.43    5.39
  -8   9   4   -4.46    4.96
  -7   9   4    1.92    6.02
  -7   9   4    5.23    5.57
   6  -9  -4    3.97    6.91
   6  -9  -4    2.45    6.68
  -6   9   4   -0.16    4.40
  -6   9   4    4.02    7.96
  -6   9   4    9.03    5.09
   5  -9  -4   26.82    8.44
  -5   9   4   49.25   12.23
  -5   9   4   32.01    8.45
  -5   9   4   42.59    9.56
   4  -9  -4   50.77    8.31
   4  -9  -4   56.70   12.55
   4  -9  -4   51.57   12.12
  -4   9   4   51.02   12.95
  -4   9   4   54.80   10.98
  -4   9   4   65.54   15.22
   3  -9  -4   93.89   14.16
   3  -9  -4  134.18   21.88
   3  -9  -4  179.87   19.09
   3  -9  -4  171.03   17.87
  -3   9   4  129.11   19.33
  -3   9   4  137.64   21.98
  -3   9   4  122.09   17.26
   2  -9  -4    4.51    5.46
   2  -9  -4   25.52   10.02
   2  -9  -4    7.02    7.11
   2  -9  -4   18.33    7.56
  -2   9   4   13.34    7.12
  -2   9   4   11.58    7.58
   1  -9  -4    4.24    8.16
   1  -9  -4   24.70    7.50
   1  -9  -4   17.73   12.63
   1  -9  -4   33.24    9.66
  -1   9   4   22.50    9.64
  -1   9   4    1.66    7.21
   0  -9  -4   19.94    8.97
   0  -9  -4    0.73    7.38
   0  -9  -4   15.92   11.84
   0  -9  -4   13.22    6.94
   0   9   4    0.18    7.41
   0   9   4   17.81    9.47
   6 -10  -4   37.60   10.00
  -6  10   4   40.64   11.15
  -6  10   4   48.01   13.07
   5 -10  -4  -14.53   11.63
   5 -10  -4   15.41    9.02
   4 -10  -4    3.42    9.00
   4 -10  -4   -1.92    5.54
   4 -10  -4    1.02    7.91
  -4  10   4    2.33    6.42
  -4  10   4    4.08    6.78
   3 -10  -4  -11.32    7.76
   3 -10  -4   27.16   17.42
   3 -10  -4    1.63    6.08
  -3  10   4    1.59    6.59
  -3  10   4    1.95    7.88
  -1  10  -5  113.80   22.07
  -1  10  -5   89.70   17.41
   1 -10   5  130.01   22.04
   1 -10   5  113.62   27.73
   1 -10   5   78.46   16.21
   1 -10   5   76.77   16.60
  -2  10  -5   61.18   15.80
  -2  10  -5   73.03   13.91
   2 -10   5   86.21   24.02
   2 -10   5   26.90   13.44
  -3  10  -5  164.53   24.57
   3 -10   5  131.79   20.65
   3 -10   5  191.96   31.54
   3 -10   5  210.23   23.21
  -4  10  -5   22.54   11.92
   4 -10   5   29.45   14.87
   4 -10   5   25.73   10.32
  -5  10  -5   45.20   14.00
   5 -10   5   61.26   20.38
   5 -10   5   33.14    8.90
   5 -10   5   26.70    8.87
  -6  10  -5    1.70    6.92
   1   9  -5   99.64   19.09
   1   9  -5  112.96   17.50
  -1  -9   5   89.33   16.93
  -1  -9   5  143.86   30.93
  -1  -9   5  135.03   22.25
   0   9  -5    1.56    6.45
   0   9  -5    1.11    6.87
   0  -9   5   -2.62    6.48
   0  -9   5   -3.11    6.49
   0  -9   5    0.83    6.17
   0  -9   5   13.02    9.00
  -1   9  -5   79.84   13.59
  -1   9  -5   76.09   16.52
   1  -9   5   43.33   11.82
   1  -9   5  104.38   17.40
   1  -9   5  103.08   26.07
   1  -9   5   74.71   13.89
  -2   9  -5   16.22    6.93
  -2   9  -5   40.18   13.82
   2  -9   5   25.15   11.38
   2  -9   5   11.38    7.65
   2  -9   5   25.09    7.69
   2  -9   5    5.16    7.27
  -3   9  -5   27.20   15.85
  -3   9  -5   -1.73    5.24
  -3   9  -5    2.56    6.99
   3  -9   5   14.15    7.53
   3  -9   5   -1.62    5.04
   3  -9   5   -2.67   11.29
  -4   9  -5   72.41   13.09
  -4   9  -5   77.86   14.66
  -4   9  -5   96.44   20.62
   4  -9   5   83.43   14.77
   4  -9   5   59.02   16.73
   4  -9   5   78.05   12.22
  -5   9  -5   13.47   12.53
  -5   9  -5    4.80    5.83
  -5   9  -5   15.48    6.30
   5  -9   5    4.00    6.20
   5  -9   5    0.29    5.60
   5  -9   5   -0.82    9.33
  -6   9  -5   38.46    9.45
  -6   9  -5   34.32    9.17
   6  -9   5   31.20    7.83
   6  -9   5   33.60   12.45
  -7   9  -5   -4.74    5.84
  -7   9  -5    5.03    5.63
   2   8  -5   48.10   13.43
   2   8  -5   63.79   11.04
  -2  -8   5   36.16    9.75
  -2  -8   5   70.13   16.62
  -2  -8   5   41.17   12.02
   1   8  -5   19.77    7.76
   1   8  -5    5.45    8.50
  -1  -8   5    4.31    8.23
  -1  -8   5   17.24    7.34
  -1  -8   5   -0.60    6.80
  -1  -8   5   28.02    8.62
  -1  -8   5   26.45   11.37
   0   8  -5   23.33    7.67
   0   8  -5   22.66    8.63
   0  -8   5   27.49    8.95
   0  -8   5   22.78   23.37
   0  -8   5   36.95   10.47
   0  -8   5   31.56    8.45
  -1   8  -5   29.49    9.88
  -1   8  -5   32.15    7.75
   1  -8   5   38.83    9.59
   1  -8   5   36.51    8.91
   1  -8   5   58.44   13.50
   1  -8   5   16.04    6.53
  -2   8  -5  162.53   24.64
  -2   8  -5  164.51   22.06
   2  -8   5  187.87   20.17
  -3   8  -5    0.42    9.12
  -3   8  -5    7.63    5.29
  -3   8  -5   10.73    7.00
   3  -8   5    4.67    8.78
   3  -8   5    4.37    4.94
   3  -8   5   22.44    9.08
  -4   8  -5   38.19   12.10
  -4   8  -5   36.51   10.33
  -4   8  -5   36.67    8.71
   4  -8   5   36.80   11.45
   4  -8   5   37.69    9.21
   4  -8   5   38.84    9.78
  -5   8  -5    5.54    4.71
  -5   8  -5   10.78    6.61
  -5   8  -5   11.93   18.37
   5  -8   5    9.46    5.76
   5  -8   5    2.27    7.36
   5  -8   5    7.80    5.27
  -6   8  -5   -8.51    8.82
  -6   8  -5    4.78    4.45
  -6   8  -5    2.06    4.57
   6  -8   5    5.56    4.89
   6  -8   5  -12.27    8.19
   6  -8   5    3.27    5.05
  -7   8  -5   -9.78   10.89
  -7   8  -5    0.42    4.77
  -7   8  -5    7.52    5.10
   7  -8   5    5.12   11.40
  -8   8  -5   -1.60    5.18
  -8   8  -5    0.82    5.51
   4   7  -5    8.80    7.83
  -4  -7   5   -0.82   13.26
  -4  -7   5   12.30    8.01
   3   7  -5    2.31    8.65
   3   7  -5   -7.84    5.99
  -3  -7   5   12.34    6.50
  -3  -7   5    7.41    7.09
  -3  -7   5   -1.89   11.81
  -3  -7   5    1.97    6.82
   2   7  -5   -0.20    9.76
   2   7  -5   -2.90    7.19
  -2  -7   5   -5.96    3.84
  -2  -7   5    4.50    5.61
  -2  -7   5   -2.09    4.46
  -2  -7   5   12.74    8.54
  -2  -7   5   -5.78    5.85
   1   7  -5   59.08   12.93
  -1  -7   5   69.92   13.82
  -1  -7   5   64.03   12.26
  -1  -7   5   85.30   13.44
  -1  -7   5   49.84   11.15
  -1  -7   5   77.19   30.13
   0   7  -5   72.83   12.00
   0   7  -5   50.21   12.01
   0  -7   5   51.38   10.45
   0  -7   5   45.69   17.18
   0  -7   5  103.03   18.25
   0  -7   5   51.60   12.66
  -1   7  -5   28.67    9.54
  -1   7  -5   16.90    6.65
  -1   7  -5   24.92    8.61
   1  -7   5   34.20    8.20
   1  -7   5   16.34    5.67
   1  -7   5   16.28    6.58
   1  -7   5   21.70    6.94
   1  -7   5   27.95   11.93
  -2   7  -5  364.66   40.79
  -2   7  -5  509.15   41.55
  -4   7  -5   -0.48    3.38
  -4   7  -5    6.92    7.24
  -4   7  -5    3.85    4.64
   4  -7   5   -0.56    5.87
   4  -7   5    0.67    4.32
   4  -7   5    1.82    4.61
   4  -7   5    1.17    3.68
  -5   7  -5   12.26    7.67
  -5   7  -5   -0.38    3.79
  -5   7  -5    0.41    3.69
   5  -7   5   -7.89    6.13
   5  -7   5   -0.73    3.78
  -6   7  -5   30.95    7.59
  -6   7  -5   21.42    6.78
  -6   7  -5   38.17   11.54
   6  -7   5   28.73    5.51
   6  -7   5   20.92    4.81
  -7   7  -5   10.05    4.94
  -7   7  -5    7.25    5.14
  -7   7  -5    9.61    8.85
   7  -7   5    2.58    9.07
  -8   7  -5   -6.34    9.18
  -8   7  -5    3.17    4.82
  -8   7  -5    6.10    4.80
  -5  -6   5   -6.20    5.63
  -5  -6   5  -18.66   11.80
  -5  -6   5   -1.51    6.53
  -5  -6   5   -0.93    6.17
   4   6  -5   16.31    8.62
   4   6  -5   15.51    5.44
  -4  -6   5   14.15    6.36
  -4  -6   5   11.90    6.60
  -4  -6   5    8.59    6.00
  -4  -6   5   14.81   10.52
  -4  -6   5    9.91    7.47
   3   6  -5   12.76    7.82
   3   6  -5    0.71    4.50
  -3  -6   5   -2.45    7.59
  -3  -6   5   15.44    6.40
  -3  -6   5    6.96    4.91
  -3  -6   5    6.47    4.97
   2   6  -5   -5.42    5.09
   2   6  -5    3.21    4.45
  -2  -6   5    2.53    4.59
  -2  -6   5    5.42    4.25
  -2  -6   5    5.49    5.28
   1   6  -5    8.84    5.91
   1   6  -5   11.09    4.87
  -1  -6   5   14.07    5.72
  -1  -6   5    9.05    4.69
  -1  -6   5   13.28    9.77
  -1  -6   5    4.56    4.95
  -1  -6   5   19.74    5.01
   0   6  -5   29.44    9.41
   0   6  -5   18.48    5.85
   0  -6   5   37.47    8.22
   0  -6   5   40.12    8.97
   0  -6   5   24.76    7.59
   0  -6   5   58.47   14.71
   0  -6   5   27.73    7.87
  -1   6  -5   20.32    7.34
  -1   6  -5   20.10    6.58
  -1   6  -5   14.69    5.71
  -1   6  -5   24.45    6.19
   1  -6   5   12.63    5.47
   1  -6   5   23.40    7.95
   1  -6   5    8.42    4.68
   1  -6   5   21.80    6.42
  -2   6  -5  267.20   27.87
  -2   6  -5  323.11   31.36
  -2   6  -5  361.14   30.72
   2  -6   5  244.50   28.61
   2  -6   5  354.93   28.96
   2  -6   5  350.64   30.67
  -4   6  -5  265.41   23.03
  -4   6  -5  226.07   23.30
  -4   6  -5  226.02   23.44
   4  -6   5  256.07   24.00
   4  -6   5  243.32   21.79
   4  -6   5  210.80   25.18
   4  -6   5  232.11   22.28
  -5   6  -5   -1.68    2.92
  -5   6  -5    2.66    3.29
   5  -6   5    7.04    6.62
   5  -6   5    5.30    3.15
  -6   6  -5    4.90    4.24
  -6   6  -5    7.13    4.39
   6  -6   5    5.96    6.62
   6  -6   5    5.54    2.39
   6  -6   5    7.40    2.48
  -7   6  -5    7.83    4.21
  -7   6  -5    4.67    3.88
   7  -6   5    2.86    7.26
  -8   6  -5   11.78    3.98
   5   5  -5    5.47    8.14
  -5  -5   5   19.16    7.44
  -5  -5   5   20.11   10.83
  -5  -5   5   12.83    5.48
  -5  -5   5    7.12    5.96
  -5  -5   5    3.30    6.70
   4   5  -5  102.05   17.09
   4   5  -5  110.86   11.29
  -4  -5   5  136.14   19.17
  -4  -5   5  117.90   14.99
  -4  -5   5  107.85   15.36
  -4  -5   5   96.55   13.16
   3   5  -5  126.37   16.66
  -3  -5   5  108.93   14.70
   2   5  -5  194.24   20.62
   2   5  -5  191.56   18.42
   2   5  -5  203.16   18.27
  -2  -5   5  169.03   22.14
  -2  -5   5  203.80   19.71
  -2  -5   5  178.15   20.48
  -2  -5   5  184.46   18.66
  -2  -5   5  200.60   20.42
   1   5  -5   60.21    8.93
   1   5  -5   61.15    8.59
   1   5  -5   63.30   10.56
   1   5  -5   77.71   13.40
   1   5  -5   58.47    8.79
  -1  -5   5   56.65    9.77
  -1  -5   5   68.35   11.06
  -1  -5   5   61.61    9.86
  -1  -5   5   87.39    9.48
  -1  -5   5  113.65   20.13
  -1  -5   5   57.69   10.28
   0   5  -5 1232.43  103.59
   0   5  -5 1291.29  103.58
   0   5  -5 1269.91  102.37
   0   5  -5 1187.02  102.01
   0   5  -5 1211.04  101.42
   0   5  -5 1304.14  104.80
   0  -5   5 1514.68  107.07
   0  -5   5 1389.13  102.38
   0  -5   5 1078.47  101.92
   0  -5   5 1351.37  103.19
  -1   5  -5  172.25   17.94
  -1   5  -5  156.70   14.95
  -1   5  -5  143.66   14.42
  -1   5  -5  147.47   16.52
  -1   5  -5  129.50   14.83
   1  -5   5  129.84   14.66
   1  -5   5  124.19   17.79
   1  -5   5  123.44   14.21
   1  -5   5  178.09   16.64
   1  -5   5  111.78   14.70
   1  -5   5  118.73   14.72
  -2   5  -5  515.95   44.00
  -2   5  -5  518.61   43.45
  -2   5  -5  422.77   43.69
   2  -5   5  437.90   43.86
   2  -5   5  621.40   43.99
   2  -5   5  586.40   45.15
  -3   5  -5   -0.18    2.47
  -3   5  -5    1.90    2.38
  -3   5  -5    1.67    2.92
  -3   5  -5    6.83    5.75
  -3   5  -5    4.94    3.61
  -3   5  -5   -4.89    3.27
   3  -5   5    0.01    2.95
   3  -5   5    3.30    3.28
   3  -5   5    5.15    4.13
   3  -5   5   -5.65    3.64
   3  -5   5   -0.73    2.19
  -4   5  -5   -1.90    3.07
  -4   5  -5   -1.48    2.48
  -4   5  -5    1.48    2.83
  -4   5  -5    5.41    5.25
  -4   5  -5   -0.78    3.83
   4  -5   5   -0.40    2.59
   4  -5   5   -2.56    3.99
  -5   5  -5   17.11    5.34
  -5   5  -5   25.03    6.43
  -5   5  -5   19.39    7.09
  -5   5  -5   12.82    7.68
  -5   5  -5   14.87    4.83
   5  -5   5   22.86    4.32
   5  -5   5   10.72    3.47
  -6   5  -5   51.77    8.87
  -6   5  -5   37.90   11.05
  -6   5  -5   34.62    7.03
   6  -5   5   41.17    9.39
  -7   5  -5    2.25    3.00
  -7   5  -5    1.79    3.34
  -7   5  -5    7.06    6.61
   7  -5   5    7.84    6.55
  -8   5  -5    2.90    7.36
  -8   5  -5    0.97    4.06
  -8   5  -5    2.02    3.47
  -8   5  -5   -1.80    3.58
   8  -5   5   15.38   10.42
  -6  -4   5  116.91   17.15
  -6  -4   5  158.91   17.75
  -6  -4   5  157.66   17.08
  -6  -4   5  180.15   23.58
  -6  -4   5  170.71   21.30
   5   4  -5    1.52    5.92
  -5  -4   5    1.73    4.50
  -5  -4   5    2.33    4.48
  -5  -4   5   -2.07    6.47
  -5  -4   5   -0.25    3.81
  -5  -4   5   -3.59    4.22
   4   4  -5  125.22   18.09
   4   4  -5  136.64   11.72
  -4  -4   5  113.80   18.20
  -4  -4   5  127.05   14.78
  -4  -4   5  134.15   17.89
  -4  -4   5  136.74   14.08
  -4  -4   5  122.95   14.73
   3   4  -5  181.48   19.79
   3   4  -5  179.92   16.11
   3   4  -5  181.54   17.33
  -3  -4   5  199.14   17.74
  -3  -4   5  190.52   18.80
  -3  -4   5  211.11   21.83
  -3  -4   5  155.51   17.65
  -3  -4   5  161.74   17.74
  -3  -4   5  162.86   19.16
   2   4  -5  162.03   17.03
   2   4  -5  103.44   14.28
   2   4  -5  126.85   15.65
   2   4  -5  176.04   16.15
   2   4  -5  157.28   13.32
  -2  -4   5  137.33   14.14
  -2  -4   5  106.79   14.42
  -2  -4   5  108.93   13.09
  -2  -4   5  122.97   13.87
  -2  -4   5  144.39   14.89
   1   4  -5  150.84   15.46
   1   4  -5  167.64   15.27
   1   4  -5  145.55   17.37
   1   4  -5  175.71   15.80
   1   4  -5  172.02   17.44
  -1  -4   5  165.10   15.56
  -1  -4   5  156.30   16.99
  -1  -4   5  175.25   16.23
  -1  -4   5  153.18   18.57
  -1  -4   5  161.84   16.48
  -1  -4   5  167.72   17.08
   0   4  -5   11.05    3.70
   0   4  -5   11.56    3.78
   0   4  -5    4.12    3.02
   0   4  -5   11.86    3.43
   0   4  -5   11.68    4.87
   0  -4   5   18.58    5.00
   0  -4   5   14.46    4.89
   0  -4   5    9.81    5.80
   0  -4   5   11.45    3.96
   0  -4   5   20.12    5.19
   0  -4   5   11.94    4.25
  -1   4  -5   45.75    7.95
  -1   4  -5   69.11   10.73
  -1   4  -5   50.61    6.65
  -1   4  -5   34.00    7.08
  -1   4  -5   44.60    6.72
  -1   4  -5   69.56   10.81
   1  -4   5   55.55    8.33
   1  -4   5   41.46    6.83
   1  -4   5   44.39    8.51
   1  -4   5   41.30    9.89
   1  -4   5   48.56    7.37
   2  -4   5  249.57   24.96
  -3   4  -5   98.11    9.54
  -3   4  -5   61.37    9.77
  -3   4  -5   78.39   12.11
  -3   4  -5   80.14   10.12
   3  -4   5   85.85    9.59
   3  -4   5   91.76    9.32
   3  -4   5   89.76   10.19
   3  -4   5   87.91   11.06
   3  -4   5   57.74   10.50
  -4   4  -5   65.39    8.37
  -4   4  -5   74.63   15.23
  -4   4  -5   69.29    9.43
  -4   4  -5   75.03   12.92
  -4   4  -5   76.27    8.06
   4  -4   5   59.29    9.96
   4  -4   5   55.10    7.55
   4  -4   5   47.64    7.09
   4  -4   5   74.97   15.95
  -5   4  -5    7.35    4.78
  -5   4  -5    8.24    3.47
  -5   4  -5    7.94    3.94
  -5   4  -5    7.14    5.39
   5  -4   5   11.90    5.89
   5  -4   5    9.98    2.41
   5  -4   5    9.28    2.44
  -6   4  -5   46.71    7.89
  -6   4  -5   50.44    7.09
  -6   4  -5   36.85    9.73
  -6   4  -5   61.77    8.82
   6  -4   5   49.61    9.69
  -7   4  -5   49.17    7.86
  -7   4  -5   52.32    8.81
  -7   4  -5   33.06    9.33
  -7   4  -5   44.19    7.51
   7  -4   5   46.55    9.04
  -8   4  -5   29.15    6.90
  -8   4  -5   39.00    7.06
  -8   4  -5   43.36    7.27
  -7  -3   5   26.72    6.31
  -7  -3   5   20.20    8.56
  -7  -3   5   24.68    6.01
  -7  -3   5   20.09    9.85
   6   3  -5    8.37    5.46
  -6  -3   5    3.05    6.32
  -6  -3   5    2.57    4.75
  -6  -3   5    0.08    3.86
  -6  -3   5    3.34    5.37
  -6  -3   5    0.83    3.63
   5   3  -5  158.44   17.55
  -5  -3   5  183.49   17.01
  -5  -3   5  162.01   19.42
  -5  -3   5  173.13   17.71
  -5  -3   5  180.63   17.50
  -5  -3   5  182.46   20.18
  -5  -3   5  167.18   17.34
   4   3  -5   41.28    7.95
   4   3  -5   41.67    5.97
  -4  -3   5   53.32   11.16
  -4  -3   5   44.88    9.31
  -4  -3   5   29.68    5.96
  -4  -3   5   47.75    8.09
   3   3  -5  126.48   14.96
   3   3  -5  163.95   12.72
  -3  -3   5  139.04   13.48
  -3  -3   5  150.42   14.28
  -3  -3   5  133.57   13.74
  -3  -3   5  115.38   15.19
   2   3  -5  145.32   15.02
  -2  -3   5  123.34   13.87
   1   3  -5   57.22    6.52
   1   3  -5   66.83    7.02
   1   3  -5   49.40    7.96
   1   3  -5   42.18    6.73
   1   3  -5   57.09    7.87
  -1  -3   5   59.50    6.69
  -1  -3   5   53.46    7.75
  -1  -3   5   59.17    9.92
  -1  -3   5   67.87    7.79
  -1  -3   5   54.65    6.87
  -1  -3   5   55.83    8.68
   0   3  -5    0.06    3.02
   0   3  -5    3.46    2.90
   0   3  -5   -0.72    1.66
   0   3  -5    2.70    2.46
   0   3  -5    3.19    1.79
   0   3  -5    1.28    2.09
   0  -3   5    0.61    2.04
   0  -3   5    0.53    2.06
   0  -3   5    9.46    4.78
   0  -3   5    1.84    2.03
   0  -3   5    3.86    2.46
   0  -3   5    4.80    2.90
  -1   3  -5   36.33    5.46
  -1   3  -5   39.10    6.14
  -1   3  -5   48.89    5.91
  -1   3  -5   36.35    6.74
  -1   3  -5   31.69    6.46
  -1   3  -5   43.24    8.99
   1  -3   5   38.75    5.46
   1  -3   5   39.93    6.22
   1  -3   5   35.18    6.04
   1  -3   5   34.68    7.72
   1  -3   5   49.67    7.84
  -2   3  -5  133.70   12.39
   2  -3   5  100.30   12.29
  -3   3  -5  271.06   24.11
  -3   3  -5  252.41   26.12
  -3   3  -5  284.08   23.94
  -3   3  -5  233.81   24.40
  -3   3  -5  288.27   23.67
   3  -3   5  269.35   24.56
   3  -3   5  278.31   23.23
   3  -3   5  279.99   23.54
   3  -3   5  280.95   25.67
  -4   3  -5   97.03   10.95
  -4   3  -5   84.98   12.70
  -4   3  -5  105.37   10.50
  -4   3  -5  104.52   10.39
   4  -3   5   86.94   11.68
   4  -3   5   96.79    9.42
   4  -3   5   88.80   11.40
  -5   3  -5  303.17   28.47
  -5   3  -5  319.93   27.87
  -5   3  -5  334.38   27.93
   5  -3   5  342.96   25.90
   5  -3   5  309.84   25.83
   5  -3   5  345.68   29.52
  -6   3  -5    4.36    4.91
  -6   3  -5   -1.43    4.14
  -6   3  -5   -0.27    2.56
  -6   3  -5    4.69    3.13
  -6   3  -5    1.33    5.46
   6  -3   5    7.37    4.33
  -7   3  -5   59.90    7.36
  -7   3  -5   43.22    7.78
  -7   3  -5   48.71    7.50
  -7   3  -5   50.75   11.02
   7  -3   5   62.81    9.26
  -8   3  -5   37.65    7.94
  -8   3  -5   22.59    9.10
  -8   3  -5   31.19    6.85
  -8   3  -5   49.36    7.41
  -7  -2   5   17.05    4.54
  -7  -2   5    6.90    4.22
  -7  -2   5   15.79    5.55
  -7  -2   5   20.26    6.73
  -7  -2   5   11.15    6.85
   6   2  -5   34.15    6.09
  -6  -2   5   40.24    9.36
  -6  -2   5   35.84    8.71
  -6  -2   5   37.54    7.40
  -6  -2   5   29.17    5.80
  -6  -2   5   36.48    5.86
  -6  -2   5   35.80    6.82
   5   2  -5   -2.28    2.32
  -5  -2   5    2.81    2.94
  -5  -2   5    1.41    2.14
  -5  -2   5    0.84    2.88
  -5  -2   5    6.69    5.12
  -5  -2   5    3.86    2.48
  -5  -2   5    2.39    3.77
   4   2  -5   37.28    6.81
   4   2  -5   39.28    5.21
   4   2  -5   36.44    7.46
   4   2  -5   50.48    8.08
  -4  -2   5   40.12    6.01
  -4  -2   5   38.56    7.93
  -4  -2   5   41.07    6.81
  -4  -2   5   39.00    5.83
  -4  -2   5   43.24    9.32
  -4  -2   5   40.36    5.59
   3   2  -5  132.15   14.51
   3   2  -5  142.06   11.89
   3   2  -5  151.53   14.23
   3   2  -5  139.98   14.58
   3   2  -5  148.83   12.66
   3   2  -5  147.02   11.94
  -3  -2   5  139.61   13.52
  -3  -2   5  145.41   15.23
  -3  -2   5  133.45   13.14
  -3  -2   5  130.39   13.83
  -3  -2   5  142.36   12.93
  -3  -2   5  148.73   15.58
   2   2  -5   90.22    8.25
   2   2  -5   80.96    9.82
   2   2  -5   83.30    8.59
  -2  -2   5   88.44   10.27
  -2  -2   5   82.35    8.82
  -2  -2   5   89.43    9.25
  -2  -2   5   87.46    8.48
  -2  -2   5   98.47   10.03
   1   2  -5    2.01    2.08
   1   2  -5    2.44    2.03
   1   2  -5    0.45    1.75
   1   2  -5    0.65    1.40
   1   2  -5    0.66    1.45
   1   2  -5   -0.97    2.74
  -1  -2   5   -1.80    1.46
  -1  -2   5    0.32    1.62
  -1  -2   5    0.47    1.76
  -1  -2   5   -1.05    1.19
  -1  -2   5   -0.06    2.46
  -1  -2   5    4.62    2.14
   0   2  -5    0.22    1.21
   0   2  -5    2.69    1.65
   0   2  -5   -0.04    1.66
   0   2  -5    1.95    2.16
   0   2  -5    1.99    1.79
   0  -2   5    2.78    2.13
   0  -2   5    2.32    2.45
   0  -2   5    0.12    1.53
   0  -2   5    0.44    1.42
   0  -2   5   -0.92    2.14
  -1   2  -5  978.07   79.12
  -1   2  -5 1082.12   78.18
  -1   2  -5  959.70   78.55
  -1   2  -5  931.72   80.08
  -1   2  -5  956.94   78.36
   1  -2   5 1009.83   78.51
   1  -2   5 1013.14   78.18
   1  -2   5  946.16   79.92
   1  -2   5  988.83   79.08
  -2   2  -5   19.16    5.64
  -2   2  -5   18.29    4.80
  -2   2  -5   26.12    5.19
  -2   2  -5   20.03    4.80
  -2   2  -5   28.19    4.03
   2  -2   5   23.34    4.39
   2  -2   5   22.81    4.73
   2  -2   5   36.00    5.52
   2  -2   5   19.02    5.39
  -3   2  -5  465.15   36.28
  -3   2  -5  411.04   37.57
  -3   2  -5  434.76   36.77
  -3   2  -5  452.53   36.38
  -3   2  -5  402.18   38.25
   3  -2   5  475.00   36.17
   3  -2   5  431.72   37.08
   3  -2   5  441.29   35.93
  -4   2  -5   68.07    7.97
  -4   2  -5   79.11    9.59
  -4   2  -5   76.43   12.40
  -4   2  -5   71.64    8.55
  -4   2  -5   75.35    7.84
   4  -2   5   69.86    7.05
   4  -2   5   56.09    6.97
   4  -2   5   67.54    9.46
  -5   2  -5    8.91    3.28
  -5   2  -5    8.30    5.73
  -5   2  -5   12.09    3.50
  -5   2  -5   18.77    4.66
  -5   2  -5    1.20    3.95
   5  -2   5   15.57    4.74
  -6   2  -5  120.75   11.92
  -6   2  -5  122.76   16.00
  -6   2  -5  104.27   12.82
  -6   2  -5   98.27   14.56
   6  -2   5  145.84   13.57
  -7   2  -5   32.43   10.16
  -7   2  -5   55.58    8.96
  -7   2  -5   51.50    8.79
   7  -2   5   64.96    9.66
  -8   2  -5   18.76    5.44
  -8   2  -5   16.88    4.59
  -8   2  -5   10.64    8.11
  -8   2  -5   16.81    5.93
  -8  -1   5   -2.04    4.59
  -8  -1   5   -0.85    3.76
  -8  -1   5    7.82    6.33
  -7  -1   5    0.09    4.01
  -7  -1   5   -0.61    2.77
  -7  -1   5    6.57    5.16
  -7  -1   5   -5.85    3.30
  -6  -1   5  120.46   12.00
  -6  -1   5  124.37   11.28
  -6  -1   5  119.88   11.83
  -6  -1   5  129.91   12.10
  -6  -1   5  123.07   15.14
  -6  -1   5  100.76   12.75
   5   1  -5    3.44    2.36
   5   1  -5   -0.06    2.43
   5   1  -5   -0.36    1.95
  -5  -1   5    3.41    2.22
  -5  -1   5    1.98    2.95
  -5  -1   5    1.13    1.78
  -5  -1   5    1.28    3.29
  -5  -1   5    2.76    2.47
  -5  -1   5    1.83    1.75
   4   1  -5   97.82   11.39
   4   1  -5  103.66    9.96
   4   1  -5  100.99   11.02
   4   1  -5  101.02    9.32
  -4  -1   5  100.73    9.68
  -4  -1   5   97.02    9.48
  -4  -1   5   93.62    9.72
  -4  -1   5  106.83   11.82
  -4  -1   5  103.04   10.11
  -4  -1   5  103.86   11.62
   3   1  -5   78.84    7.16
   3   1  -5   65.21    8.49
   3   1  -5   87.26    8.43
   3   1  -5   80.27    9.02
  -3  -1   5   76.96    7.42
  -3  -1   5   86.81    8.61
  -3  -1   5   87.52    9.52
  -3  -1   5   71.69    7.96
  -3  -1   5   70.61    9.36
   2   1  -5  102.18   11.25
   2   1  -5  108.38   10.17
   2   1  -5  116.52    9.78
   2   1  -5  128.68    9.97
   2   1  -5   89.16   11.70
  -2  -1   5  136.91   11.59
  -2  -1   5  105.69    9.94
  -2  -1   5  117.96   10.96
  -2  -1   5  109.64   10.48
  -2  -1   5  117.19   11.79
  -2  -1   5  147.83   12.79
   1   1  -5  356.07   31.42
   1   1  -5  391.31   30.11
   1   1  -5  382.50   29.36
   1   1  -5  361.11   28.88
   1   1  -5  354.03   29.76
  -1  -1   5  371.23   30.59
  -1  -1   5  369.75   30.15
  -1  -1   5  349.28   31.20
  -1  -1   5  345.45   30.00
  -1  -1   5  343.91   30.33
   0   1  -5  954.39   83.20
   0   1  -5  995.15   83.62
   0   1  -5 1115.91   85.43
   0  -1   5  987.88   83.78
   0  -1   5 1096.92   85.28
   0  -1   5 1224.63   84.72
   0  -1   5 1143.92   84.15
   0  -1   5  997.85   83.75
  -1   1  -5    3.01    2.05
  -1   1  -5    4.80    2.65
  -1   1  -5    3.46    1.83
  -1   1  -5    4.41    2.09
  -1   1  -5    4.20    2.10
   1  -1   5    4.81    1.82
   1  -1   5    6.04    2.83
   1  -1   5    3.47    2.07
   1  -1   5    4.49    2.31
  -2   1  -5  122.41   13.97
  -2   1  -5  133.67   13.45
  -2   1  -5  136.23   13.00
  -2   1  -5  137.67   12.36
  -2   1  -5  135.23   12.69
   2  -1   5  139.07   14.06
   2  -1   5  141.87   12.66
   2  -1   5  144.85   12.48
   2  -1   5  129.54   13.01
  -3   1  -5  438.23   35.79
  -3   1  -5  473.70   35.86
  -3   1  -5  454.08   36.18
  -3   1  -5  398.37   36.19
  -3   1  -5  381.66   37.46
   3  -1   5  423.21   35.48
   3  -1   5  431.72   36.36
   3  -1   5  484.56   35.81
  -4   1  -5   29.29    6.21
  -4   1  -5   24.26    7.36
  -4   1  -5   32.50    5.55
  -4   1  -5   34.94    5.62
  -4   1  -5   34.35    6.09
   4  -1   5   27.94    5.08
   4  -1   5   28.66    4.46
   4  -1   5   35.16    6.79
  -5   1  -5  115.42   12.86
  -5   1  -5  115.87   12.60
  -5   1  -5  135.37   12.28
   5  -1   5  134.46   13.58
  -6   1  -5   -1.38    2.36
  -6   1  -5    2.41    3.95
  -6   1  -5    2.71    2.98
  -6   1  -5   -8.87    4.77
   6  -1   5    0.15    4.24
  -7   1  -5    1.97    3.43
  -7   1  -5    5.59    3.17
  -7   1  -5    7.33    6.05
  -7   1  -5   -0.40    3.83
   7  -1   5    3.75    6.26
  -8   1  -5    2.14    8.37
  -8   1  -5    9.59    4.28
  -8   1  -5   20.42    8.27
  -8   1  -5    8.75    4.75
  -8   0   5   89.16   13.40
  -8   0   5   80.63    9.65
  -7   0   5    1.99    3.06
  -7   0   5    2.76    4.39
  -7   0   5    5.90    3.13
  -7   0   5    2.23    2.48
  -6   0   5   -1.86    1.81
  -6   0   5    2.99    2.18
  -6   0   5    7.39    3.89
  -5   0   5    3.97    1.90
  -5   0   5    5.51    2.16
  -5   0   5    0.14    2.71
  -5   0   5    6.15    2.03
   4   0  -5  272.23   24.87
   4   0  -5  357.92   25.00
   4   0  -5  303.17   26.60
  -4   0   5  306.26   24.82
  -4   0   5  308.95   24.64
  -4   0   5  297.95   25.80
  -4   0   5  302.43   25.18
  -4   0   5  308.83   27.06
  -4   0   5  296.86   24.87
   3   0  -5   27.51    2.93
   3   0  -5   31.25    3.90
   3   0  -5   34.49    5.77
   3   0  -5   26.21    4.24
  -3   0   5   32.62    4.85
  -3   0   5   31.03    5.45
  -3   0   5   23.55    3.72
  -3   0   5   24.52    3.13
  -3   0   5   35.99    5.80
  -3   0   5   25.25    2.92
   2   0  -5  104.49    9.26
   2   0  -5   86.64    9.93
   2   0  -5   94.03    8.18
   2   0  -5   95.24    9.44
   2   0  -5   96.06    7.73
  -2   0   5  101.10    9.74
  -2   0   5   95.10    9.99
  -2   0   5   98.79    8.59
  -2   0   5  103.97    9.40
   1   0  -5  537.62   42.12
   1   0  -5  585.99   41.69
   1   0  -5  493.52   42.11
   1   0  -5  507.65   42.44
  -1   0   5  496.95   42.09
  -1   0   5  516.11   41.76
  -1   0   5  543.74   42.61
  -1   0   5  523.37   42.41
  -1   0   5  526.74   43.22
   0   0  -5  975.03   81.90
   0   0  -5 1185.49   82.71
   0   0  -5 1042.54   83.31
   0   0  -5  925.99   81.45
   0   0  -5 1019.35   81.03
   0   0   5 1137.54   82.54
   0   0   5 1087.92   82.43
   0   0   5 1007.84   81.98
   0   0   5 1008.40   83.07
  -1   0  -5 1351.61   93.26
  -1   0  -5  985.61   93.68
  -1   0  -5 1219.32   92.55
  -1   0  -5 1075.68   93.00
  -1   0  -5 1081.59   93.30
  -1   0  -5 1178.61   92.18
   1   0   5 1332.64   93.33
   1   0   5 1130.27   92.47
   1   0   5 1322.85   94.35
   1   0   5 1120.22   92.89
  -2   0  -5  337.00   26.41
  -2   0  -5  300.41   28.02
  -2   0  -5  313.94   27.01
  -2   0  -5  348.54   26.54
  -2   0  -5  287.34   26.82
   2   0   5  314.78   26.32
   2   0   5  318.11   26.68
   2   0   5  298.98   26.80
   2   0   5  348.17   28.04
  -3   0  -5  189.02   16.85
  -3   0  -5  159.69   17.56
  -3   0  -5  182.74   16.18
  -3   0  -5  170.81   16.72
   3   0   5  194.58   16.15
   3   0   5  191.36   17.05
   3   0   5  155.05   15.56
   3   0   5  206.15   17.99
  -4   0  -5   10.12    2.90
  -4   0  -5    8.04    2.95
  -4   0  -5   -2.33    3.44
  -4   0  -5   16.78    5.02
  -4   0  -5    7.82    4.17
   4   0   5    7.33    2.81
   4   0   5    8.45    2.73
  -5   0  -5   14.03    4.83
  -5   0  -5   13.61    5.03
  -5   0  -5   14.44    5.88
  -5   0  -5   13.58    3.71
  -5   0  -5   15.72    4.20
   5   0   5   14.70    2.46
   5   0   5   12.51    4.73
  -6   0  -5   -1.92    5.24
  -6   0  -5   -3.28    3.39
  -6   0  -5   -3.16    2.78
  -6   0  -5    3.05    2.60
   6   0   5   -1.41    4.43
  -7   0  -5    0.35    3.57
  -7   0  -5    0.04    6.64
  -7   0  -5   -4.02    4.39
  -7   0  -5    2.77    4.16
   7   0   5  -12.22    8.30
  -9   1   5   -3.08    3.31
  -9   1   5   -3.92    5.52
  -8   1   5   -0.02    2.83
  -8   1   5    2.50    2.49
  -8   1   5    7.43    4.65
  -7   1   5  111.12   13.79
  -7   1   5  117.47   11.43
  -7   1   5  110.59   10.14
  -7   1   5  123.71   10.24
  -6   1   5   43.88    7.86
  -6   1   5   34.92    3.51
  -6   1   5   27.51    3.64
  -6   1   5   37.75    5.12
  -5   1   5  241.83   20.19
  -5   1   5  258.84   20.86
  -5   1   5  261.68   23.12
  -4   1   5   54.09    5.00
  -4   1   5   48.29    5.13
  -4   1   5   52.40    4.67
  -4   1   5   60.03    6.69
  -4   1   5   50.86    5.44
   3  -1  -5  354.25   33.12
   3  -1  -5  406.92   32.48
   3  -1  -5  412.88   33.02
  -3   1   5  400.77   33.24
  -3   1   5  440.82   33.15
  -3   1   5  425.61   32.78
  -3   1   5  420.92   31.71
  -3   1   5  387.72   32.51
  -3   1   5  408.92   32.10
   2  -1  -5  671.32   52.37
   2  -1  -5  648.67   51.81
   2  -1  -5  596.36   53.17
   2  -1  -5  655.13   52.34
  -2   1   5  672.56   52.75
  -2   1   5  636.15   52.33
  -2   1   5  698.83   52.57
  -2   1   5  652.16   51.98
  -2   1   5  731.95   53.30
   1  -1  -5  587.88   48.75
   1  -1  -5  601.65   48.78
   1  -1  -5  592.79   47.49
   1  -1  -5  571.96   48.47
   1  -1  -5  604.54   48.15
   1  -1  -5  622.29   50.32
  -1   1   5  669.43   49.63
  -1   1   5  586.94   48.55
  -1   1   5  619.63   47.48
  -1   1   5  650.02   49.09
   0  -1  -5   85.00    7.75
   0  -1  -5   86.90    9.03
   0  -1  -5   82.42    8.15
   0  -1  -5   92.29    8.98
   0  -1  -5   86.30    9.47
   0   1   5   91.40    7.73
   0   1   5   87.99    8.76
   0   1   5   85.67    8.72
   0   1   5   81.35    9.26
  -1  -1  -5   41.55    5.94
  -1  -1  -5   42.02    4.64
  -1  -1  -5   35.27    4.66
  -1  -1  -5   42.81    6.11
  -1  -1  -5   33.55    5.18
   1   1   5   41.91    5.23
   1   1   5   36.07    5.64
   1   1   5   37.55    4.64
   1   1   5   38.00    5.55
   1   1   5   37.61    4.43
  -2  -1  -5  151.86   13.62
  -2  -1  -5  142.15   14.88
  -2  -1  -5  136.87   14.03
   2   1   5  148.22   13.34
   2   1   5  144.14   13.41
   2   1   5  149.59   14.24
   2   1   5  170.05   15.11
   2   1   5  144.87   13.80
  -3  -1  -5   68.21    8.93
  -3  -1  -5   61.41    7.86
   3   1   5   48.63    6.76
   3   1   5   63.96    8.21
   3   1   5   51.49    6.67
  -4  -1  -5   43.51    7.96
  -4  -1  -5   36.63    5.57
  -4  -1  -5   32.55    7.14
  -4  -1  -5   32.72    6.17
  -4  -1  -5   28.80    6.74
   4   1   5   36.83    5.77
   4   1   5   39.14    7.76
   4   1   5   39.90    5.65
  -5  -1  -5    6.54    3.12
  -5  -1  -5    2.73    3.56
  -5  -1  -5   -3.73    4.17
  -5  -1  -5    3.56    3.03
   5   1   5    9.96    4.83
   5   1   5    3.47    2.45
   5   1   5    7.51    2.72
  -6  -1  -5    5.32    4.62
  -6  -1  -5    4.00    5.99
  -6  -1  -5    2.77    4.23
  -6  -1  -5    2.93    3.17
  -6  -1  -5    1.05    3.51
   6   1   5    5.03    6.48
  -7  -1  -5   45.92    8.24
  -7  -1  -5   61.63   19.70
  -9   2   5   62.19   11.74
  -8   2   5    0.68    2.47
  -8   2   5    0.42    3.79
  -7   2   5   28.60    6.69
  -7   2   5   35.75    5.37
  -6   2   5   93.13    8.85
  -5   2   5   17.02    3.98
  -5   2   5   13.94    2.42
  -5   2   5   12.92    2.53
  -5   2   5   12.91    1.86
   4  -2  -5  312.95   28.62
   4  -2  -5  323.39   28.28
  -4   2   5  367.73   28.96
  -4   2   5  341.12   28.15
  -4   2   5  357.15   27.97
  -4   2   5  391.81   28.79
  -4   2   5  370.77   27.97
  -4   2   5  354.26   28.46
   2  -2  -5    8.62    1.95
   2  -2  -5    5.25    2.29
   2  -2  -5    6.40    2.57
   2  -2  -5    3.92    2.20
   2  -2  -5    6.36    1.86
   2  -2  -5    6.08    1.57
  -2   2   5    8.50    2.58
  -2   2   5    6.17    2.15
  -2   2   5    5.94    2.11
  -2   2   5    5.52    1.22
  -2   2   5    5.51    1.78
   1  -2  -5   73.21    6.98
   1  -2  -5   60.43    5.71
  -1   2   5   51.69    5.90
  -1   2   5   52.41    5.34
  -1   2   5   56.87    6.88
   0  -2  -5  539.47   45.93
   0  -2  -5  531.02   43.90
   0  -2  -5  576.19   43.57
   0  -2  -5  575.44   44.64
   0  -2  -5  568.31   45.18
   0   2   5  557.70   43.35
   0   2   5  519.02   44.90
   0   2   5  505.29   43.58
   0   2   5  537.22   44.46
  -1  -2  -5    6.62    3.03
  -1  -2  -5    9.89    2.94
  -1  -2  -5    7.73    2.70
  -1  -2  -5    9.26    3.42
  -1  -2  -5   10.66    3.20
   1   2   5   10.07    2.40
   1   2   5   10.80    3.70
  -2  -2  -5   19.87    5.79
  -2  -2  -5   14.49    3.64
  -2  -2  -5    9.46    3.43
  -2  -2  -5   19.15    5.18
  -2  -2  -5    8.55    3.22
   2   2   5   10.54    3.02
   2   2   5    9.23    3.48
   2   2   5   15.62    4.88
   2   2   5    8.63    3.58
  -3  -2  -5   82.95   10.84
   3   2   5   81.10   10.72
  -4  -2  -5   63.18   10.22
  -4  -2  -5   76.17    8.92
  -4  -2  -5   68.85   10.40
  -4  -2  -5   63.79    9.81
  -4  -2  -5   69.20    8.67
   4   2   5   63.56   10.37
   4   2   5   70.85    8.60
   4   2   5   76.77    8.23
  -5  -2  -5   24.90    6.21
  -5  -2  -5   29.91    8.10
  -5  -2  -5   22.93    7.36
  -5  -2  -5   21.78    7.20
  -5  -2  -5   29.38    6.74
   5   2   5   26.48    4.81
   5   2   5   25.38    5.53
  -6  -2  -5   13.33    5.56
  -6  -2  -5    8.24    6.20
  -6  -2  -5    9.86    7.20
  -6  -2  -5   17.48    5.12
   6   2   5   11.48    9.16
  -9   3   5    2.84    4.59
  -9   3   5    4.94    3.35
  -8   3   5    5.52    4.39
  -8   3   5    7.23    2.97
  -7   3   5   38.65    7.14
  -7   3   5   40.28    5.12
  -6   3   5   10.46    3.45
  -6   3   5   10.58    2.22
  -6   3   5    9.46    2.56
  -6   3   5    8.95    2.01
  -5   3   5    8.99    2.38
  -5   3   5    6.92    2.70
  -5   3   5    8.14    2.18
  -5   3   5    7.94    1.93
  -5   3   5   12.90    2.28
  -5   3   5    7.53    2.02
   4  -3  -5   60.70    7.36
   4  -3  -5   72.88    7.62
  -4   3   5   70.20    7.11
  -4   3   5   61.20    6.90
  -4   3   5   65.50    6.84
  -4   3   5   69.55    6.95
   3  -3  -5  124.23   11.98
   3  -3  -5  128.84   13.03
  -3   3   5  143.39   12.68
  -3   3   5  135.19   11.80
  -3   3   5  145.62   12.21
  -3   3   5  146.78   13.03
   2  -3  -5  260.45   22.97
   2  -3  -5  269.90   23.96
   2  -3  -5  264.88   21.93
   2  -3  -5  266.62   21.84
   2  -3  -5  302.91   23.00
   2  -3  -5  273.15   23.31
   2  -3  -5  257.15   24.06
  -2   3   5  270.99   22.92
  -2   3   5  289.32   24.01
  -2   3   5  289.59   23.63
  -2   3   5  270.66   22.30
  -2   3   5  281.71   23.79
   0  -3  -5   14.43    3.95
   0  -3  -5   25.37    5.01
   0  -3  -5   21.76    3.97
   0  -3  -5   27.27    6.54
   0  -3  -5   20.63    4.32
   0  -3  -5   19.61    4.54
   0   3   5   16.32    3.53
   0   3   5   21.74    5.73
   0   3   5   18.01    3.50
   0   3   5   29.01    5.96
   0   3   5   21.69    4.66
  -1  -3  -5   45.90    7.40
  -1  -3  -5   45.04    6.42
  -1  -3  -5   49.46    7.18
  -1  -3  -5   51.58    8.42
   1   3   5   60.88    8.10
   1   3   5   54.62    6.32
  -2  -3  -5  206.22   19.69
  -2  -3  -5  199.10   21.45
  -2  -3  -5  218.21   19.92
  -2  -3  -5  212.73   20.70
  -2  -3  -5  217.21   21.25
   2   3   5  223.41   20.37
   2   3   5  235.03   20.48
   2   3   5  214.67   21.26
   2   3   5  233.31   21.25
  -3  -3  -5    3.01    3.32
  -3  -3  -5    3.05    3.11
  -3  -3  -5    4.64    2.98
  -3  -3  -5    0.83    2.48
  -3  -3  -5    0.54    3.26
   3   3   5    8.37    3.55
   3   3   5    3.96    3.66
   3   3   5    6.59    2.92
  -4  -3  -5   25.54    7.13
  -4  -3  -5   19.10    5.54
  -4  -3  -5   36.17    7.33
  -4  -3  -5   16.79    6.03
  -4  -3  -5   30.96    7.84
   4   3   5   30.40    7.79
   4   3   5   34.54    6.30
  -5  -3  -5    2.24    5.59
  -5  -3  -5    4.16    6.48
  -5  -3  -5   -0.89    3.53
  -5  -3  -5   -2.24    4.00
  -5  -3  -5    2.63    3.59
   5   3   5    7.36    4.56
   5   3   5   -0.19    7.21
  -6  -3  -5   -1.57    4.43
  -6  -3  -5   -1.71    5.02
  -6  -3  -5   -1.18    7.72
  -6  -3  -5    5.21    5.96
  -9   4   5   18.70    6.63
  -9   4   5   22.01    4.48
  -8   4   5    4.91    2.37
  -8   4   5    8.27    2.14
  -8   4   5    0.01    2.49
  -8   4   5    2.59    3.45
  -7   4   5   -0.26    3.85
  -7   4   5   -0.51    1.56
  -7   4   5    4.29    2.31
  -7   4   5   -0.53    2.34
  -6   4   5    0.75    2.19
  -6   4   5    2.46    1.87
  -6   4   5   -1.27    1.61
  -6   4   5    2.42    1.86
  -6   4   5    6.78    3.41
  -6   4   5   -0.29    1.85
  -6   4   5    0.41    1.57
   5  -4  -5   23.25    4.95
   5  -4  -5   29.01    5.37
  -5   4   5   19.14    3.89
  -5   4   5   19.72    4.39
  -5   4   5   14.07    3.57
  -5   4   5   26.61    4.64
  -5   4   5   22.92    4.16
   4  -4  -5   17.61    4.56
   4  -4  -5   17.60    2.95
   4  -4  -5   19.41    4.63
   4  -4  -5   11.57    2.31
  -4   4   5   15.54    3.60
  -4   4   5   10.80    3.32
  -4   4   5   12.70    3.58
  -4   4   5   21.25    3.69
   3  -4  -5   89.86   10.54
  -3   4   5  117.91   10.92
  -3   4   5  133.65   12.16
   2  -4  -5    3.89    2.52
   2  -4  -5    9.78    4.23
   2  -4  -5   12.02    2.48
   2  -4  -5    6.74    3.03
  -2   4   5    9.19    2.83
  -2   4   5   14.27    4.13
  -2   4   5    9.18    3.84
  -2   4   5   15.98    4.59
   1  -4  -5  167.44   15.66
   1  -4  -5  154.23   14.68
   1  -4  -5  174.39   16.52
  -1   4   5  157.78   14.38
  -1   4   5  157.02   14.79
   0  -4  -5  102.40   13.21
   0  -4  -5  132.98   12.33
   0  -4  -5  115.69   12.89
   0  -4  -5  138.52   12.89
   0  -4  -5  148.01   13.80
   0   4   5  122.37   12.07
   0   4   5  123.07   11.91
   0   4   5  103.57   12.55
   0   4   5  102.99   13.27
   0   4   5  141.98   14.42
  -1  -4  -5   13.12    4.41
  -1  -4  -5    6.00    3.30
  -1  -4  -5    6.41    3.31
  -1  -4  -5   10.88    5.21
   1   4   5    8.56    4.42
   1   4   5    3.64    3.33
   1   4   5    1.71    3.09
  -2  -4  -5   -0.26    2.54
  -2  -4  -5    1.60    3.80
  -2  -4  -5   -4.30    3.21
  -2  -4  -5    0.49    2.46
  -2  -4  -5   -0.20    2.33
   2   4   5    4.26    3.03
   2   4   5   -4.50    3.13
  -3  -4  -5   -2.91    2.80
  -3  -4  -5   -3.74    4.16
  -3  -4  -5    4.80    6.87
  -3  -4  -5   -0.46    4.31
   3   4   5    1.74    3.65
   3   4   5   -1.14    4.35
  -4  -4  -5    4.60    4.56
  -4  -4  -5    2.46    3.39
  -4  -4  -5    6.17    7.33
  -4  -4  -5    4.64    6.51
  -4  -4  -5    4.63    6.00
   4   4   5    9.34    6.91
   4   4   5   12.46    5.37
  -5  -4  -5    1.88    5.86
  -5  -4  -5   16.02    6.34
  -5  -4  -5   -0.10   14.55
   5   4   5   -1.66   15.88
   5   4   5    5.91    5.63
  -9   5   5    3.72    4.01
  -9   5   5    5.67    3.22
  -9   5   5    6.70    3.21
  -8   5   5    4.26    3.12
  -8   5   5    4.65    2.71
  -8   5   5    4.79    2.95
  -8   5   5    4.35    4.06
  -8   5   5   -0.86    3.46
  -7   5   5   23.32    4.02
  -7   5   5   24.32    4.19
  -7   5   5   29.60    9.51
  -7   5   5   23.32    3.73
  -7   5   5   15.10    4.48
  -7   5   5   24.25    4.33
   6  -5  -5   24.05    5.55
  -6   5   5   23.02    4.69
  -6   5   5   19.82    4.53
  -6   5   5   22.27    4.91
  -6   5   5   12.62    4.43
  -6   5   5   25.73    4.73
   5  -5  -5    4.95    3.67
  -5   5   5    4.14    2.81
  -5   5   5    0.98    2.75
  -5   5   5   -1.72    2.72
  -5   5   5    6.64    3.15
  -5   5   5    5.59    2.83
   4  -5  -5    9.84    3.88
   4  -5  -5   21.00    6.22
   4  -5  -5   14.02    3.58
  -4   5   5   26.24    5.67
  -4   5   5   13.53    3.94
  -4   5   5   12.68    4.11
  -4   5   5   11.12    3.91
  -4   5   5   24.14    4.41
   3  -5  -5   63.50    8.46
  -3   5   5   72.54   10.42
  -3   5   5   75.78    9.78
  -3   5   5   53.05    7.23
   2  -5  -5   34.23    7.64
   2  -5  -5   23.58    5.41
   2  -5  -5   23.40    6.64
   2  -5  -5   29.18    5.94
   2  -5  -5   21.35    4.13
   2  -5  -5   21.62    5.58
  -2   5   5   19.07    5.55
  -2   5   5   28.08    5.55
  -2   5   5   33.68    8.02
  -2   5   5   24.99    5.88
  -2   5   5   25.81    4.91
   1  -5  -5   59.09    8.27
   1  -5  -5   51.57    7.63
   1  -5  -5   64.73   10.05
   1  -5  -5   55.93    8.56
   1  -5  -5   56.09    7.27
  -1   5   5   51.39    7.21
  -1   5   5   59.47    8.26
  -1   5   5   53.73    8.92
  -1   5   5   85.88   12.64
   0  -5  -5    3.28    4.34
   0  -5  -5   -5.89    3.33
   0  -5  -5    5.09    3.08
   0  -5  -5   -0.50    2.51
   0  -5  -5    1.14    2.99
   0   5   5   -1.35    2.66
   0   5   5    3.11    3.70
  -1  -5  -5   92.64   11.09
  -1  -5  -5   83.32   10.91
  -1  -5  -5   71.62    9.80
  -1  -5  -5   74.56   12.81
  -1  -5  -5   81.65   11.80
   1   5   5   76.04   10.82
  -2  -5  -5   29.11    7.90
  -2  -5  -5   29.02    6.99
  -2  -5  -5   24.83    9.30
  -2  -5  -5   26.17    7.97
  -2  -5  -5   16.69    5.58
   2   5   5   29.89    7.81
   2   5   5   38.39    7.74
  -3  -5  -5    1.13    5.24
  -3  -5  -5   -0.06    4.94
  -3  -5  -5    3.81    4.66
  -3  -5  -5   -4.21    5.66
  -3  -5  -5   -2.55    2.72
   3   5   5   -0.75    4.63
   3   5   5   -0.62    5.71
  -4  -5  -5    2.85    4.99
  -4  -5  -5    2.98    6.78
  -4  -5  -5    4.72    4.72
  -4  -5  -5    6.92    8.00
   4   5   5    4.24    6.13
   4   5   5   -4.49    8.45
  -9   6   5   33.87    5.84
  -9   6   5   47.41    7.39
  -9   6   5   25.76    5.92
  -8   6   5   37.10    6.40
   7  -6  -5   28.38    7.56
  -7   6   5   27.62    5.95
  -7   6   5   35.03    5.83
  -7   6   5   42.14    6.47
  -7   6   5   45.53    8.40
  -6   6   5   57.11    7.89
  -6   6   5   65.68    8.49
  -6   6   5   60.22    8.33
  -6   6   5   46.15    8.42
   5  -6  -5   30.24    4.98
   5  -6  -5   35.13    8.00
   5  -6  -5   36.12    5.04
  -5   6   5   25.36    6.12
  -5   6   5   40.27    7.64
  -5   6   5   37.44    7.62
  -5   6   5   37.05    6.79
   4  -6  -5   -2.52    3.19
   4  -6  -5   -2.20    4.01
   4  -6  -5   -4.84    2.90
   4  -6  -5    5.40    4.11
  -4   6   5   -2.71    2.15
  -4   6   5   -1.50    2.43
  -4   6   5    1.32    4.01
  -4   6   5   -4.25    3.94
   3  -6  -5  124.22   12.60
   3  -6  -5  102.18   13.98
   3  -6  -5  106.21   11.99
   3  -6  -5   97.15   10.05
  -3   6   5  131.59   14.62
  -3   6   5  111.33   11.53
  -3   6   5  104.08   13.00
  -3   6   5  103.81   12.17
   2  -6  -5    1.84    4.17
   2  -6  -5   12.05    4.14
   2  -6  -5    8.97    4.77
   2  -6  -5    4.03    2.59
  -2   6   5    2.38    3.05
  -2   6   5    3.70    3.46
  -2   6   5    8.90    4.28
  -2   6   5    8.59    5.59
   1  -6  -5   31.48    6.64
   1  -6  -5   39.41    8.58
   1  -6  -5   37.21    7.58
   1  -6  -5   54.19   11.63
  -1   6   5   38.52    7.94
  -1   6   5   40.78    9.78
   0  -6  -5  183.62   17.19
   0  -6  -5  135.74   17.29
   0  -6  -5  165.28   19.95
   0  -6  -5  163.70   16.21
   0   6   5  118.71   17.13
   0   6   5  151.82   17.14
  -1  -6  -5   19.80    6.36
  -1  -6  -5    7.26    6.91
  -1  -6  -5   11.69    5.36
  -1  -6  -5    5.16    4.11
  -1  -6  -5   10.25    6.87
   1   6   5    3.39    5.47
   1   6   5    5.96    4.78
  -2  -6  -5    9.37    5.06
  -2  -6  -5   18.20    8.05
  -2  -6  -5   14.14    8.28
  -2  -6  -5   15.35    6.67
  -2  -6  -5   13.17    6.18
   2   6   5   13.47    6.71
   2   6   5   27.13    8.22
  -3  -6  -5    2.34    5.46
  -3  -6  -5   16.44    9.14
  -3  -6  -5   -0.25    5.38
  -3  -6  -5   -0.62    3.81
   3   6   5   -2.19    5.63
  -9   7   5   26.26    6.64
  -8   7   5    6.82    3.80
  -8   7   5    9.55    4.39
  -8   7   5   21.30    5.21
   7  -7  -5   -0.10    7.00
  -7   7   5    5.49    3.48
  -7   7   5    5.29    3.58
  -6   7   5   10.72    4.40
  -6   7   5   14.65    5.34
  -6   7   5   18.02    5.34
   5  -7  -5    5.43    3.73
   5  -7  -5    5.27    6.51
  -5   7   5    7.08    4.02
  -5   7   5   -5.45    4.20
  -5   7   5    3.53    3.82
   4  -7  -5    2.29    5.58
   4  -7  -5    0.82    4.46
   4  -7  -5   -3.14    4.15
   4  -7  -5   -6.46    3.79
  -4   7   5   -3.94    3.25
  -4   7   5   -1.88    5.24
  -4   7   5    9.49    4.54
   3  -7  -5   20.26    4.34
   3  -7  -5   19.65    6.23
   3  -7  -5   23.12    6.91
   3  -7  -5   21.42    8.47
  -3   7   5   19.55    6.09
  -3   7   5   16.05    6.00
  -3   7   5   21.47    7.67
   2  -7  -5   38.27    8.43
   2  -7  -5   37.15    7.06
   2  -7  -5   40.08    8.50
   2  -7  -5   50.98   12.50
  -2   7   5   46.27   11.57
  -2   7   5   41.43    9.65
  -2   7   5   43.92   10.47
   1  -7  -5   16.98    6.10
   1  -7  -5   14.07    4.78
   1  -7  -5   12.12    7.16
  -1   7   5   15.62    5.57
  -1   7   5    3.70    4.67
   0  -7  -5    2.39    6.69
   0  -7  -5   -5.54    4.49
   0  -7  -5   -2.58    4.07
   0  -7  -5    1.83    3.88
   0   7   5   -0.68    3.94
   0   7   5   -5.43    4.44
  -1  -7  -5   43.56   10.28
  -1  -7  -5   55.83   14.28
  -1  -7  -5   59.36   10.46
   1   7   5   54.41   12.58
   1   7   5   57.34   11.75
  -2  -7  -5   36.81   11.48
  -2  -7  -5   40.46   10.65
  -2  -7  -5   54.28   14.71
  -2  -7  -5   51.83   15.42
   2   7   5   67.04   15.89
   2   7   5   69.50   12.60
  -8   8   5    6.48    4.43
  -8   8   5    3.72    5.91
   7  -8  -5  -21.60   11.64
  -7   8   5   -2.88    5.23
  -7   8   5    1.14    6.61
  -7   8   5   -0.11    3.53
   6  -8  -5    2.65    5.37
   6  -8  -5    2.87    3.36
  -6   8   5    0.68    3.88
  -6   8   5   -2.40    3.57
  -6   8   5   11.17    6.37
   5  -8  -5   59.66   11.81
   5  -8  -5   66.53   11.20
   5  -8  -5   50.98   13.37
  -5   8   5   78.18   13.53
  -5   8   5   78.40   10.59
  -5   8   5   55.29   11.47
   4  -8  -5    4.36    2.67
   4  -8  -5    9.60    5.97
   4  -8  -5    4.58    6.16
   4  -8  -5   12.65    7.44
  -4   8   5    5.91    5.40
  -4   8   5    9.41    6.75
  -4   8   5    3.27    4.63
   3  -8  -5   76.65    9.81
   3  -8  -5   72.65   13.90
   3  -8  -5   70.54   16.35
  -3   8   5   96.98   14.43
   2  -8  -5   34.54    8.91
   2  -8  -5   54.65   14.64
   2  -8  -5   44.43    9.94
   2  -8  -5   53.94    8.15
  -2   8   5   52.22   10.92
  -2   8   5   48.12   11.73
  -2   8   5   21.08   13.32
   1  -8  -5   34.75    7.68
   1  -8  -5   25.85    8.39
   1  -8  -5   65.53   12.21
   1  -8  -5   52.65   15.84
  -1   8   5   10.10    8.34
  -1   8   5   49.20   10.57
   0  -8  -5  552.82   44.56
   0  -8  -5  461.44   44.44
   0  -8  -5  523.45   49.50
   0  -8  -5  519.98   44.39
   0   8   5  403.02   46.06
   0   8   5  453.33   44.06
  -1  -8  -5   28.27    8.58
  -1  -8  -5    5.83    7.13
  -1  -8  -5   21.81   13.58
  -1  -8  -5   26.42    9.51
   1   8   5   18.36    9.18
   1   8   5   37.45   13.59
  -8   9   5   -0.34    5.13
  -7   9   5   50.07   14.00
  -7   9   5   45.77    9.69
   6  -9  -5   18.40    8.02
  -6   9   5   17.64    7.40
  -6   9   5   31.28    7.83
   5  -9  -5   21.86    8.57
  -5   9   5   -1.22   12.87
  -5   9   5   28.46    8.64
  -5   9   5   27.36    7.92
   4  -9  -5  109.74   16.25
   4  -9  -5  101.89   16.96
   4  -9  -5  111.16   11.97
  -4   9   5  171.22   23.59
  -4   9   5  135.35   16.08
  -4   9   5  104.24   17.35
   3  -9  -5   14.68    8.41
   3  -9  -5   11.63    7.23
   3  -9  -5    8.30    5.17
   3  -9  -5   18.91   10.78
  -3   9   5   11.01    8.27
  -3   9   5    5.82    7.35
  -3   9   5   -6.51   14.46
   2  -9  -5  168.32   24.86
   2  -9  -5  169.83   20.91
   2  -9  -5  184.07   21.31
   2  -9  -5  141.90   18.17
  -2   9   5  173.81   24.16
  -2   9   5  199.39   21.54
   1  -9  -5   11.64    6.52
   1  -9  -5   29.80   14.27
   1  -9  -5   24.61   11.52
  -1   9   5   19.34   11.08
  -1   9   5   22.64   11.39
   6 -10  -5   40.90   10.00
  -6  10   5   33.27    9.65
   5 -10  -5  111.78   18.00
  -5  10   5  109.69   16.70
   4 -10  -5    6.78    9.88
   4 -10  -5   15.22   10.22
  -4  10   5   30.24   10.20
   3 -10  -5   35.10   11.32
  -3  10   5   33.29   12.28
  -1  10  -6   -6.54   12.34
  -1  10  -6   -2.60    7.63
   1 -10   6    4.53   10.54
   1 -10   6    5.22    8.80
   1 -10   6   26.87   16.93
   1 -10   6   -5.35    8.99
  -2  10  -6   33.08   11.05
   2 -10   6   65.10   18.74
  -3  10  -6    7.92   10.11
  -3  10  -6   -1.32    7.64
   3 -10   6    7.65    7.25
   3 -10   6   30.55    9.80
   3 -10   6   34.84   14.29
  -4  10  -6    7.13    8.89
  -4  10  -6   15.62   14.34
   4 -10   6   16.98    8.19
   4 -10   6    5.82    8.45
   4 -10   6   32.22   17.51
  -5  10  -6    1.03    7.04
   5 -10   6    1.44   13.33
   5 -10   6   -6.61    7.27
   5 -10   6    6.69    7.21
   1   9  -6   50.35   11.89
   1   9  -6   62.51   17.41
  -1  -9   6   33.24   13.05
  -1  -9   6   38.16   18.27
  -1  -9   6   50.09   13.97
  -1  -9   6   37.49   13.14
   0   9  -6   39.17   13.16
   0   9  -6   25.15    9.50
   0  -9   6   47.02   11.64
   0  -9   6   65.43   22.22
   0  -9   6   34.60   12.93
   0  -9   6   40.52   11.39
  -1   9  -6   28.13   12.66
  -1   9  -6    7.39    6.43
   1  -9   6   27.65   10.05
   1  -9   6    8.86    8.20
   1  -9   6   25.35   13.02
   1  -9   6   14.06    7.39
  -2   9  -6   -4.33    7.51
  -2   9  -6    1.28    5.35
   2  -9   6   -0.99    5.58
   2  -9   6   26.68   12.71
   2  -9   6   21.55    8.25
  -3   9  -6    8.63    5.67
  -3   9  -6    3.51    7.17
   3  -9   6    1.82    5.09
   3  -9   6    9.87   10.94
  -4   9  -6    3.75    7.72
  -4   9  -6   17.82    7.06
   4  -9   6   14.79    7.84
   4  -9   6    5.20    6.64
   4  -9   6   10.69   12.29
  -5   9  -6   20.16   19.01
  -5   9  -6   14.24    6.98
  -5   9  -6   19.98    6.71
   5  -9   6   16.40    7.37
   5  -9   6    4.82   11.32
   5  -9   6   -2.39   12.04
  -6   9  -6    8.66    5.86
  -6   9  -6   -5.29    5.46
   6  -9   6   -6.48    5.45
   6  -9   6   -5.74   11.59
  -7   9  -6   21.84    8.39
  -7   9  -6   15.53    7.00
   2   8  -6   30.87   12.48
   2   8  -6    9.13    6.81
  -2  -8   6   11.36    8.54
  -2  -8   6   48.92   16.72
  -2  -8   6    0.85    6.75
  -2  -8   6   -1.06    5.54
   1   8  -6   26.01   11.54
   1   8  -6   30.80    8.43
  -1  -8   6   18.29    7.29
  -1  -8   6   31.39    8.86
  -1  -8   6   17.58    9.35
  -1  -8   6   11.99    8.13
  -1  -8   6   34.46   13.29
   0   8  -6   10.46    8.12
   0   8  -6   -0.19    4.80
   0  -8   6   -1.95    5.36
   0  -8   6    9.53    6.88
   0  -8   6   -9.01    9.57
   0  -8   6   -6.32    3.87
  -1   8  -6    1.59    4.63
  -1   8  -6   -5.53    7.40
   1  -8   6   -3.22    5.98
   1  -8   6    9.94    9.56
   1  -8   6    9.77    6.02
   1  -8   6    0.32    4.91
  -2   8  -6   13.80    7.17
  -2   8  -6   12.62    6.23
  -2   8  -6    8.60   12.05
   2  -8   6   36.50   12.26
   2  -8   6   35.20    7.98
  -3   8  -6   21.10   11.06
  -3   8  -6    9.35    6.03
  -3   8  -6   13.26    8.16
   3  -8   6    4.13    7.89
   3  -8   6    4.36    5.84
   3  -8   6    3.90    4.67
  -4   8  -6   -9.96    7.86
  -4   8  -6   -4.29    4.11
  -4   8  -6  -10.08    4.60
   4  -8   6    3.72    7.68
   4  -8   6   -3.05    4.54
   4  -8   6    3.43    4.96
  -5   8  -6   24.46    8.08
  -5   8  -6   33.93    8.25
  -5   8  -6   44.08   14.27
   5  -8   6   29.52    7.68
   5  -8   6   15.70   10.06
  -6   8  -6   -4.68    4.47
  -6   8  -6    2.96    4.99
  -6   8  -6    2.89    8.98
   6  -8   6   -2.02    4.30
   6  -8   6   -0.72    8.64
  -7   8  -6   -7.41    4.78
  -7   8  -6   13.33    6.34
  -4  -7   6  -30.84   15.40
  -4  -7   6    1.88    7.24
   3   7  -6  -10.81    5.76
   3   7  -6    5.99    9.86
  -3  -7   6    0.86    6.20
  -3  -7   6   -9.48   12.34
  -3  -7   6    8.43    7.09
  -3  -7   6    6.23    6.28
   2   7  -6   -4.56    8.16
  -2  -7   6   10.20   11.06
  -2  -7   6   -4.61    5.00
  -2  -7   6    1.52    4.15
  -2  -7   6    1.18    4.97
  -2  -7   6   -3.61    6.16
   1   7  -6  103.93   17.94
  -1  -7   6   56.37   12.72
  -1  -7   6   68.61   12.24
  -1  -7   6   74.50   12.78
  -1  -7   6   88.30   21.70
  -1  -7   6   87.26   16.02
   0   7  -6   93.11   16.60
   0  -7   6  124.94   20.56
   0  -7   6  118.64   15.34
  -1   7  -6    4.52    6.67
  -1   7  -6    1.39    6.24
  -1   7  -6   -2.45    3.55
   1  -7   6    1.39    3.35
   1  -7   6   -0.87    4.28
   1  -7   6   -1.64    5.30
   1  -7   6   -4.19    7.32
   1  -7   6    0.70    5.17
  -2   7  -6  173.41   22.29
  -2   7  -6  192.31   20.19
  -2   7  -6  204.51   22.50
   2  -7   6  220.29   21.31
   2  -7   6  175.04   20.80
   2  -7   6  183.85   24.69
  -3   7  -6   34.95    8.70
  -3   7  -6   47.64   11.60
  -3   7  -6   37.16   11.84
   3  -7   6   42.21    8.99
   3  -7   6   30.92   11.42
   3  -7   6   38.52    9.14
  -4   7  -6  185.63   20.78
  -4   7  -6  154.97   22.77
  -4   7  -6  199.12   19.95
   4  -7   6  200.46   19.71
   4  -7   6  175.90   22.91
   4  -7   6  199.36   20.88
  -5   7  -6    7.38    8.94
  -5   7  -6   15.61    5.36
   5  -7   6    7.60    7.72
   5  -7   6    8.83    5.07
   5  -7   6   14.85    5.21
  -6   7  -6  239.23   24.64
  -6   7  -6  256.87   24.69
   6  -7   6  212.43   28.99
   6  -7   6  275.34   22.21
  -7   7  -6   81.27   12.26
  -7   7  -6   94.42   11.86
  -7   7  -6   79.39   22.19
   7  -7   6   71.57   15.20
  -8   7  -6  123.89   14.54
  -8   7  -6  109.74   13.70
  -5  -6   6  -22.55   13.17
  -5  -6   6   12.09    7.37
  -5  -6   6   12.93    8.00
  -5  -6   6    7.63    7.46
   4   6  -6    5.92    4.71
   4   6  -6   -1.99    8.14
  -4  -6   6   -6.39    5.23
  -4  -6   6   -2.48   10.04
  -4  -6   6    3.69    5.84
  -4  -6   6    0.77    4.89
   3   6  -6   18.11    5.80
   3   6  -6   13.34    7.78
  -3  -6   6   23.20    6.87
  -3  -6   6   11.62   10.92
  -3  -6   6   12.16    6.58
  -3  -6   6    5.53    5.57
   2   6  -6  127.92   18.97
   2   6  -6  144.57   15.08
  -2  -6   6  218.03   33.85
  -2  -6   6  143.78   17.75
  -2  -6   6  121.50   16.45
  -2  -6   6  162.82   25.08
  -2  -6   6  123.02   15.20
   1   6  -6   13.91    5.26
   1   6  -6   10.72    6.92
  -1  -6   6   16.90    6.50
  -1  -6   6   12.30    5.37
  -1  -6   6   13.04    5.81
  -1  -6   6   13.63    9.72
  -1  -6   6   14.55    5.33
   0   6  -6 1125.37   97.87
   0   6  -6  935.67   93.45
   0  -6   6 1305.77   96.96
   0  -6   6 1128.56   94.01
   0  -6   6 1219.05   95.54
   0  -6   6 1330.68  100.15
  -1   6  -6   21.09    7.25
  -1   6  -6   20.26    6.04
  -1   6  -6   15.06    6.64
   1  -6   6   14.76    8.14
   1  -6   6   22.26    6.38
   1  -6   6    7.94    5.51
   1  -6   6   11.35    5.39
   1  -6   6   12.60    5.35
  -2   6  -6  397.34   31.35
  -2   6  -6  326.49   33.71
  -2   6  -6  261.82   32.25
  -2   6  -6  344.70   32.27
   2  -6   6  358.81   32.19
   2  -6   6  337.65   31.24
   2  -6   6  343.91   35.15
   2  -6   6  335.85   32.71
  -3   6  -6  215.76   20.94
  -3   6  -6  170.47   22.91
   3  -6   6  209.74   20.70
   3  -6   6  214.10   22.03
   3  -6   6  261.24   25.14
  -4   6  -6  159.40   22.50
  -4   6  -6  167.34   17.89
  -4   6  -6  157.17   16.47
   4  -6   6  143.37   19.43
   4  -6   6  149.74   16.22
   4  -6   6  149.69   17.47
   4  -6   6  155.60   15.55
  -5   6  -6  383.37   31.18
  -5   6  -6  338.49   35.20
   5  -6   6  361.66   29.77
   5  -6   6  318.45   33.73
   5  -6   6  300.21   28.73
  -6   6  -6   23.20    9.86
  -6   6  -6   29.71    6.70
  -6   6  -6   31.55    7.79
   6  -6   6   25.29    4.49
   6  -6   6   14.36    9.37
  -7   6  -6   21.51   10.34
  -7   6  -6   32.61    7.33
   7  -6   6   52.56   11.19
  -8   6  -6   13.92    5.41
  -8   6  -6    1.27    4.78
   5   5  -6    3.87    7.73
  -5  -5   6   11.46    6.88
  -5  -5   6   10.95    6.92
  -5  -5   6   13.55    5.79
  -5  -5   6   17.30    6.92
  -5  -5   6    9.23   10.80
   4   5  -6  161.46   20.61
   4   5  -6  183.74   15.83
  -4  -5   6  166.03   23.06
  -4  -5   6  173.35   21.05
  -4  -5   6  173.97   19.42
  -4  -5   6  179.07   22.18
  -4  -5   6  144.45   19.71
   3   5  -6   32.95    6.69
   3   5  -6   22.94    7.91
  -3  -5   6   36.81    7.27
  -3  -5   6   40.85    8.33
  -3  -5   6   26.40   10.08
  -3  -5   6   23.90    7.09
  -3  -5   6   22.43    7.56
   2   5  -6  522.00   42.30
   2   5  -6  523.74   44.86
   2   5  -6  530.51   42.20
  -2  -5   6  507.15   44.60
  -2  -5   6  512.16   47.06
  -2  -5   6  457.78   44.84
  -2  -5   6  455.90   42.38
  -2  -5   6  503.12   43.80
   1   5  -6  104.69   11.63
   1   5  -6   87.02   11.14
   1   5  -6  102.58   13.82
   1   5  -6   99.62   15.18
   1   5  -6   92.18   11.35
  -1  -5   6  107.06   16.52
  -1  -5   6   95.21   11.55
  -1  -5   6   85.02   12.26
  -1  -5   6  110.42   13.57
  -1  -5   6   99.50   12.61
   0   5  -6  147.55   15.40
   0   5  -6  140.37   14.97
   0   5  -6  174.00   19.32
   0   5  -6  151.21   15.84
   0   5  -6  149.62   17.34
   0   5  -6  133.87   16.10
   0  -5   6  187.28   21.19
   0  -5   6  175.21   16.94
   0  -5   6  111.96   15.34
   0  -5   6  157.50   15.42
   0  -5   6  135.82   16.66
   0  -5   6  181.19   17.45
  -1   5  -6  543.35   41.13
  -1   5  -6  463.55   40.80
  -1   5  -6  465.60   41.74
  -1   5  -6  454.56   40.12
   1  -5   6  493.47   42.20
   1  -5   6  475.81   40.75
   1  -5   6  470.29   41.98
   1  -5   6  477.75   44.55
   1  -5   6  447.74   40.93
  -2   5  -6  155.60   18.82
  -2   5  -6  211.91   19.74
   2  -5   6  159.19   18.56
   2  -5   6  222.52   19.52
   2  -5   6  210.00   22.25
   2  -5   6  192.49   20.18
  -3   5  -6  324.28   32.04
  -3   5  -6  313.61   28.83
  -3   5  -6  339.89   28.33
  -3   5  -6  294.90   28.03
  -3   5  -6  286.99   28.91
   3  -5   6  274.82   30.27
   3  -5   6  334.28   29.95
   3  -5   6  321.15   29.46
   3  -5   6  323.69   27.77
   3  -5   6  313.28   28.17
  -4   5  -6  103.91   16.03
  -4   5  -6   77.98   12.54
  -4   5  -6   98.25   12.06
  -4   5  -6  119.14   11.78
  -4   5  -6   86.18   12.64
   4  -5   6   94.25   13.94
   4  -5   6   96.07   11.33
   4  -5   6   97.07   10.91
  -5   5  -6   12.72    6.73
  -5   5  -6    6.29    3.43
  -5   5  -6    2.98    3.55
   5  -5   6    7.19    5.95
   5  -5   6    4.77    2.86
   5  -5   6   -0.17    2.85
  -6   5  -6   43.61    8.33
  -6   5  -6   58.28    8.62
  -6   5  -6   46.82   11.18
   6  -5   6   52.62   10.82
  -7   5  -6   52.63   13.23
  -7   5  -6   46.63    8.33
  -7   5  -6   53.50    8.17
   7  -5   6   58.20   11.75
  -8   5  -6    4.06    4.27
  -8   5  -6   10.42    8.05
  -8   5  -6   -2.25    8.23
  -8   5  -6    8.27    5.81
  -6  -4   6   91.29   12.05
  -6  -4   6   77.27   18.14
  -6  -4   6   83.11   12.10
  -6  -4   6   80.53   12.64
  -6  -4   6   85.17   16.32
   5   4  -6   43.25    9.40
  -5  -4   6   59.07   10.13
  -5  -4   6   49.58   11.80
  -5  -4   6   64.36   14.10
  -5  -4   6   69.43   11.13
  -5  -4   6   69.23   13.86
   4   4  -6   42.38    9.28
   4   4  -6   39.78    5.39
  -4  -4   6   46.03    8.87
  -4  -4   6   50.48   10.73
  -4  -4   6   47.92    9.01
  -4  -4   6   41.11    7.65
  -4  -4   6   65.66   13.24
   3   4  -6  104.04   13.34
   3   4  -6  101.88   10.51
   3   4  -6   85.17    9.53
  -3  -4   6   89.77   11.53
  -3  -4   6   89.78   14.79
  -3  -4   6   80.71   14.29
  -3  -4   6   83.21   14.68
  -3  -4   6   97.20   12.43
  -3  -4   6   99.88   11.09
   2   4  -6  237.47   25.65
   2   4  -6  268.85   22.04
   2   4  -6  246.02   21.63
  -2  -4   6  205.42   23.45
  -2  -4   6  245.55   22.47
  -2  -4   6  244.26   21.91
   1   4  -6  123.72   11.86
   1   4  -6  110.36   14.56
   1   4  -6  106.87   12.98
   1   4  -6  132.16   12.32
   1   4  -6  109.85   12.18
  -1  -4   6  102.45   13.12
  -1  -4   6  103.78   11.94
  -1  -4   6  123.69   13.78
  -1  -4   6  123.98   13.14
   0   4  -6 1674.16  146.04
   0   4  -6 1799.92  146.46
   0   4  -6 1925.33  147.94
   0   4  -6 1724.29  145.66
   0   4  -6 2145.00  150.79
   0   4  -6 1722.85  147.32
   0  -4   6 2137.98  148.69
   0  -4   6 2081.89  147.61
   0  -4   6 1579.75  146.15
  -1   4  -6   11.24    4.09
  -1   4  -6    6.66    4.24
  -1   4  -6   10.87    4.27
  -1   4  -6   12.70    4.53
  -1   4  -6   17.04    4.75
   1  -4   6    8.17    4.50
   1  -4   6   12.07    5.50
   1  -4   6    7.48    3.42
   1  -4   6   12.38    4.19
   1  -4   6   12.83    4.60
  -2   4  -6  244.12   20.87
  -2   4  -6  190.58   18.97
   2  -4   6  224.76   20.72
   2  -4   6  174.81   18.74
  -3   4  -6  175.61   17.61
  -3   4  -6  178.40   16.96
  -3   4  -6  149.32   19.35
  -3   4  -6  189.85   18.82
   3  -4   6  191.97   18.46
   3  -4   6  185.63   16.77
   3  -4   6  201.70   17.77
   3  -4   6  154.31   18.93
  -4   4  -6   15.40    4.25
  -4   4  -6   14.56    4.76
  -4   4  -6   23.04    6.17
  -4   4  -6    7.24    5.05
  -4   4  -6   16.19    6.90
   4  -4   6   15.94    4.50
   4  -4   6   19.35    6.45
   4  -4   6   19.20    4.58
  -5   4  -6   96.85   12.24
  -5   4  -6   86.32   15.97
  -5   4  -6  111.35   11.64
  -5   4  -6  100.31   11.26
   5  -4   6  113.66   10.07
   5  -4   6   88.16   10.07
  -6   4  -6  -12.17    5.24
  -6   4  -6    2.85    3.18
  -6   4  -6    5.23    3.57
   6  -4   6   12.92    5.69
  -7   4  -6   10.60    4.52
  -7   4  -6   26.26    5.86
  -7   4  -6   20.85    8.65
  -7   4  -6   20.95    6.16
   7  -4   6   22.09    8.86
  -8   4  -6   -0.38    7.10
  -8   4  -6   -1.17    3.34
  -8   4  -6   -1.23    3.91
  -7  -3   6   50.59    8.26
  -7  -3   6   45.52    8.26
  -7  -3   6   35.54   11.54
  -7  -3   6   64.19   14.11
   6   3  -6   20.68    6.59
  -6  -3   6   23.56    5.80
  -6  -3   6   24.23    8.54
  -6  -3   6   15.73    6.09
  -6  -3   6   25.59    7.88
  -6  -3   6   29.94    9.04
   5   3  -6   -1.07    3.89
  -5  -3   6   -4.84    2.94
  -5  -3   6    2.20    2.94
  -5  -3   6    4.42    3.59
  -5  -3   6    0.43    3.37
  -5  -3   6   -5.01    5.92
   4   3  -6  361.05   29.24
   4   3  -6  323.99   30.77
  -4  -3   6  365.78   33.25
  -4  -3   6  358.03   29.92
  -4  -3   6  336.76   30.74
  -4  -3   6  342.49   30.53
  -4  -3   6  345.33   33.42
   3   3  -6   85.49    9.08
   3   3  -6   87.26    8.57
   3   3  -6   84.15   15.73
   3   3  -6   92.00   11.15
   3   3  -6   91.63    8.68
  -3  -3   6   94.51   11.83
  -3  -3   6   78.38   10.11
  -3  -3   6   83.28   10.56
  -3  -3   6   83.73   13.29
  -3  -3   6   87.77    9.60
  -3  -3   6   86.23   10.12
   2   3  -6  394.84   31.68
   2   3  -6  368.96   34.94
  -2  -3   6  365.57   31.66
  -2  -3   6  406.68   32.95
  -2  -3   6  370.61   32.29
  -2  -3   6  372.82   34.01
   1   3  -6  121.55   12.67
   1   3  -6  115.24   15.37
   1   3  -6  135.81   13.92
   1   3  -6  132.31   12.20
   1   3  -6  145.78   12.78
   1   3  -6  122.96   13.67
  -1  -3   6  134.23   15.79
  -1  -3   6  141.16   13.13
  -1  -3   6  125.38   13.77
  -1  -3   6  119.05   12.22
  -1  -3   6  115.01   16.83
  -1  -3   6  144.34   14.29
   0   3  -6  105.46   11.67
   0   3  -6  106.18   10.42
   0   3  -6   98.51   11.09
   0   3  -6  115.96   13.70
   0   3  -6   91.54   11.34
   0   3  -6  111.66   11.34
   0  -3   6  134.52   14.14
   0  -3   6   85.88   10.46
   0  -3   6  102.64   11.65
  -1   3  -6  128.91   13.14
  -1   3  -6  119.03   13.47
  -1   3  -6  125.63   13.40
  -1   3  -6  114.43   12.36
  -1   3  -6  124.29   15.67
   1  -3   6  127.14   15.01
   1  -3   6  163.51   14.62
   1  -3   6  136.63   12.96
   1  -3   6  141.96   14.30
  -2   3  -6  254.45   24.58
  -2   3  -6  245.45   24.49
  -2   3  -6  266.47   26.27
  -2   3  -6  253.76   23.97
  -2   3  -6  308.81   24.01
   2  -3   6  275.34   23.35
   2  -3   6  276.55   24.66
   2  -3   6  254.04   24.34
   2  -3   6  251.69   25.51
   2  -3   6  276.71   23.93
  -3   3  -6   -0.81    1.60
  -3   3  -6    1.98    2.93
  -3   3  -6    2.69    2.67
  -3   3  -6    6.88    4.31
  -3   3  -6   -2.30    2.29
   3  -3   6    0.98    2.34
   3  -3   6   -0.61    2.13
   3  -3   6   -0.15    3.11
   3  -3   6    1.98    3.34
  -4   3  -6    2.99    4.06
  -4   3  -6   -0.90    2.12
  -4   3  -6    0.95    4.39
  -4   3  -6    3.15    3.58
  -4   3  -6    2.87    2.42
   4  -3   6    0.85    4.54
   4  -3   6    0.75    2.34
   4  -3   6    4.86    2.71
  -5   3  -6  105.02   16.09
  -5   3  -6  146.64   13.38
  -5   3  -6  141.00   12.95
  -5   3  -6  118.28   13.54
   5  -3   6  135.96   11.53
   5  -3   6  107.81   11.39
  -6   3  -6   20.06    5.07
  -6   3  -6   18.74    4.95
  -6   3  -6   28.64    8.35
  -6   3  -6   25.50    5.56
   6  -3   6   15.04    6.13
  -7   3  -6   61.78    9.05
  -7   3  -6   61.07    8.88
  -7   3  -6   41.92   11.12
  -7   3  -6   62.39    9.26
   7  -3   6   67.83   11.13
  -8   3  -6    6.90    8.64
  -8   3  -6   -1.69    7.96
  -8   3  -6    1.48    5.29
  -7  -2   6   55.10    9.36
  -7  -2   6   56.41   10.38
  -7  -2   6   60.13    8.07
  -7  -2   6   64.87   12.82
   6   2  -6   45.16    6.86
  -6  -2   6   42.78    7.20
  -6  -2   6   55.88    8.73
  -6  -2   6   50.26    8.22
  -6  -2   6   41.94    9.77
  -6  -2   6   38.74    9.41
  -6  -2   6   46.86    6.75
   5   2  -6  138.32   14.33
  -5  -2   6  143.44   17.38
  -5  -2   6  147.79   14.53
  -5  -2   6  126.14   16.99
  -5  -2   6  160.95   14.96
  -5  -2   6  152.24   14.79
  -5  -2   6  170.61   14.63
   4   2  -6    5.46    3.62
   4   2  -6    3.93    3.33
   4   2  -6    7.93    2.46
  -4  -2   6    4.50    5.17
  -4  -2   6    2.48    3.04
  -4  -2   6    4.83    2.94
  -4  -2   6    5.53    3.97
  -4  -2   6    9.98    3.65
   3   2  -6    4.56    3.33
   3   2  -6   -2.14    2.05
   3   2  -6    0.62    1.41
   3   2  -6   -0.38    1.11
   3   2  -6    0.84    2.41
  -3  -2   6    2.68    2.51
  -3  -2   6    4.09    3.57
  -3  -2   6   -3.66    2.17
  -3  -2   6    2.22    2.43
  -3  -2   6   -0.37    1.94
  -3  -2   6    0.47    1.50
   2   2  -6  881.60   64.57
   2   2  -6  840.54   64.89
   2   2  -6  812.41   64.60
   2   2  -6  689.28   68.14
   2   2  -6  806.11   66.56
   2   2  -6  766.80   67.16
  -2  -2   6  821.55   66.03
  -2  -2   6  852.33   65.39
  -2  -2   6  837.47   65.76
  -2  -2   6  826.89   64.62
   1   2  -6   63.74    9.88
   1   2  -6   83.76    8.01
   1   2  -6   72.80    7.54
   1   2  -6   79.35    8.99
   1   2  -6   84.15    8.68
   1   2  -6   76.55    8.98
  -1  -2   6   74.28    7.61
  -1  -2   6   82.75    8.34
  -1  -2   6   75.68    9.16
  -1  -2   6   75.33    9.06
  -1  -2   6   76.13   10.28
  -1  -2   6   71.22    8.76
   0   2  -6 2183.89  196.52
   0   2  -6 2766.00  198.47
   0   2  -6 2914.92  200.26
   0   2  -6 2319.78  197.24
   0   2  -6 2571.40  197.45
   0  -2   6 2610.74  199.49
   0  -2   6 2127.24  196.69
   0  -2   6 2775.95  197.89
  -1   2  -6   31.52    4.87
  -1   2  -6   38.24    5.53
  -1   2  -6   29.14    6.18
   1  -2   6   52.11    7.75
   1  -2   6   33.17    5.73
   1  -2   6   35.85    5.69
   2  -2   6    6.60    2.56
  -3   2  -6   15.50    3.70
  -3   2  -6   11.80    5.60
  -3   2  -6   13.27    4.44
  -3   2  -6   17.77    5.34
  -3   2  -6   15.54    3.95
   3  -2   6   19.73    4.35
   3  -2   6   17.22    5.31
   3  -2   6   19.59    4.31
   3  -2   6   10.63    4.55
  -4   2  -6   36.00    7.63
  -4   2  -6   35.85    6.34
  -4   2  -6   27.48    6.53
  -4   2  -6   36.74    9.20
  -4   2  -6   45.60    7.10
  -4   2  -6   34.74    6.06
   4  -2   6   54.64    9.12
   4  -2   6   45.76    8.26
   4  -2   6   32.68    4.97
   4  -2   6   34.29    5.22
  -5   2  -6   -0.76    2.11
  -5   2  -6   -1.16    2.51
  -5   2  -6    0.75    2.39
  -5   2  -6    1.84    4.48
   5  -2   6   -0.51    3.31
   5  -2   6    0.57    1.79
   5  -2   6    1.60    2.00
  -6   2  -6   16.60    6.84
  -6   2  -6   19.85    5.15
  -6   2  -6   17.75    5.19
  -6   2  -6   27.55    5.29
   6  -2   6   26.11    6.85
  -7   2  -6   45.85   11.34
  -7   2  -6   36.93    8.95
  -7   2  -6   47.79    8.69
   7  -2   6   63.74   10.33
  -8   2  -6   29.86    7.62
  -8   2  -6   19.46    5.25
  -8  -1   6   32.22    7.07
  -8  -1   6   21.11    8.76
  -8  -1   6   32.00    5.97
  -7  -1   6   38.43    6.52
  -7  -1   6   40.96    9.94
  -7  -1   6   36.41    7.00
  -7  -1   6   45.40    7.72
  -6  -1   6  124.56   13.11
  -6  -1   6  107.98   11.36
  -6  -1   6  123.92   11.90
  -6  -1   6  127.26   12.29
  -6  -1   6  116.88   14.91
  -6  -1   6  120.75   11.93
   5   1  -6   29.30    4.89
   5   1  -6   35.55    7.73
   5   1  -6   26.15    4.33
  -5  -1   6   22.16    6.01
  -5  -1   6   24.68    4.47
  -5  -1   6   21.72    4.68
  -5  -1   6   18.82    4.20
  -5  -1   6   38.51    7.25
  -5  -1   6   19.31    4.38
   4   1  -6  369.10   30.88
   4   1  -6  363.92   28.08
   4   1  -6  354.67   28.83
   4   1  -6  314.52   29.26
  -4  -1   6  348.13   31.09
  -4  -1   6  338.65   29.27
  -4  -1   6  351.77   28.68
  -4  -1   6  342.38   29.00
  -4  -1   6  353.24   28.38
  -4  -1   6  324.07   30.35
   3   1  -6   71.04    5.76
   3   1  -6   69.35    6.24
   3   1  -6   62.49    9.11
   3   1  -6   77.43    7.82
   3   1  -6   61.82    8.14
   3   1  -6   67.38    5.67
  -3  -1   6   64.50    8.37
  -3  -1   6   71.24    7.08
  -3  -1   6   55.29    8.61
  -3  -1   6   62.26    7.41
  -3  -1   6   58.47    8.27
  -3  -1   6   66.57    6.53
   2   1  -6  181.95   13.81
   2   1  -6  153.01   15.28
   2   1  -6  160.94   14.14
   2   1  -6  132.98   15.73
   2   1  -6  163.04   13.36
  -2  -1   6  176.47   16.54
  -2  -1   6  162.19   14.31
  -2  -1   6  167.04   14.97
  -2  -1   6  164.05   15.75
  -2  -1   6  150.55   15.01
  -2  -1   6  168.79   13.71
   1   1  -6   12.27    3.60
   1   1  -6   16.84    4.92
   1   1  -6   16.95    2.88
   1   1  -6   16.01    3.84
   1   1  -6   13.63    2.87
   1   1  -6   21.58    4.30
  -1  -1   6   21.17    3.82
  -1  -1   6   13.95    4.01
  -1  -1   6   16.63    4.84
  -1  -1   6   11.05    3.05
  -1  -1   6   20.02    4.50
   0   1  -6  107.78   11.52
   0   1  -6  135.00   11.94
   0   1  -6  138.45   12.53
   0   1  -6  116.25   11.06
   0  -1   6  122.80   13.15
   0  -1   6  134.93   12.18
   0  -1   6  115.44   11.79
   0  -1   6  141.64   12.56
   0  -1   6   98.59   10.98
  -1   1  -6   24.64    6.32
  -1   1  -6   27.05    3.95
  -1   1  -6   20.44    4.80
  -1   1  -6   35.89    6.10
  -1   1  -6   38.31    6.01
   1  -1   6   25.64    5.21
   1  -1   6   27.33    6.10
   1  -1   6   23.44    4.42
   1  -1   6   25.79    5.30
  -3   1  -6    2.14    2.52
  -3   1  -6    3.92    3.21
  -3   1  -6    1.71    3.11
  -3   1  -6    5.56    2.36
  -3   1  -6    5.53    4.15
  -3   1  -6    0.63    1.94
   3  -1   6    8.19    2.71
   3  -1   6    6.16    3.62
   3  -1   6    6.56    3.41
   3  -1   6    1.57    2.27
  -4   1  -6  287.50   23.54
  -4   1  -6  263.98   25.05
  -4   1  -6  227.51   25.67
  -4   1  -6  273.22   24.22
  -4   1  -6  276.37   23.74
   4  -1   6  274.19   23.13
   4  -1   6  256.18   22.96
   4  -1   6  313.27   25.71
  -5   1  -6   28.25    7.59
  -5   1  -6   20.79    6.11
  -5   1  -6   28.13    5.89
  -5   1  -6   30.92    6.64
   5  -1   6   29.09    4.17
   5  -1   6   31.41    4.38
   5  -1   6   36.92    7.23
  -6   1  -6  119.11   16.86
  -6   1  -6  129.10   13.80
  -6   1  -6  131.08   13.29
  -6   1  -6  137.64   15.36
   6  -1   6  148.56   15.69
  -7   1  -6   13.32    5.63
  -7   1  -6   15.85    5.67
  -7   1  -6    8.58    7.70
  -7   1  -6   13.78    5.39
   7  -1   6    0.91    8.04
  -8   0   6    6.11    4.22
  -8   0   6   15.80    4.16
  -8   0   6   11.39    6.27
  -7   0   6  103.12   10.68
  -7   0   6   98.15   10.44
  -7   0   6  109.69   10.60
  -7   0   6  102.49   13.77
  -6   0   6   19.39    4.00
  -6   0   6   18.45    6.10
  -6   0   6   27.68    4.38
  -6   0   6   28.79    4.15
  -5   0   6  103.17    9.49
  -5   0   6  107.33    9.55
  -5   0   6   92.08    9.58
  -5   0   6   94.42   11.66
  -5   0   6   94.29    9.99
  -5   0   6  104.67    9.38
   4   0  -6   58.25    6.00
   4   0  -6   56.76    7.30
  -4   0   6   63.95    6.41
  -4   0   6   62.60    5.57
  -4   0   6   44.66    6.24
  -4   0   6   57.97    5.73
  -4   0   6   52.32    7.41
  -4   0   6   50.50    7.07
   3   0  -6   25.29    4.19
   3   0  -6   18.49    4.11
   3   0  -6   18.34    4.97
  -3   0   6   25.40    4.41
  -3   0   6   21.89    4.55
  -3   0   6   18.91    3.19
  -3   0   6   22.34    4.09
  -3   0   6   16.18    2.29
   2   0  -6   25.46    4.38
   2   0  -6   23.12    3.07
   2   0  -6   28.69    4.37
   2   0  -6   23.42    5.15
  -2   0   6   25.30    4.81
  -2   0   6   27.37    5.00
  -2   0   6   28.90    5.52
  -2   0   6   35.19    4.52
   1   0  -6   11.93    1.55
   1   0  -6   14.59    3.21
   1   0  -6   11.59    3.94
   1   0  -6    8.64    3.00
   1   0  -6   13.15    2.62
  -1   0   6   12.89    4.25
  -1   0   6   10.56    2.60
  -1   0   6   14.65    3.69
  -1   0   6   13.56    3.33
  -1   0   6    7.75    2.61
   0   0  -6  215.06   21.61
   0   0  -6  228.03   18.26
   0   0  -6  240.95   19.82
   0   0  -6  256.98   20.17
   0   0  -6  218.41   19.44
   0   0   6  209.21   20.50
   0   0   6  237.09   19.90
   0   0   6  197.91   18.80
   0   0   6  215.44   19.39
  -1   0  -6   56.34    8.17
  -1   0  -6   59.86    7.40
  -1   0  -6   58.47    7.45
  -1   0  -6   63.86    6.74
  -1   0  -6   58.80    6.18
   1   0   6   71.73    6.93
  -2   0  -6  378.52   33.44
  -2   0  -6  362.49   34.43
   2   0   6  402.13   33.13
   2   0   6  368.98   32.54
   2   0   6  416.20   33.43
   2   0   6  451.82   34.87
  -4   0  -6   88.67   11.19
  -4   0  -6   92.42    9.81
  -4   0  -6   83.03   12.04
  -4   0  -6   89.98   10.08
  -4   0  -6  112.61   11.85
   4   0   6   87.86    9.83
   4   0   6   92.43    9.58
  -5   0  -6    3.22    2.54
  -5   0  -6   10.06    5.58
   5   0   6    1.30    2.27
   5   0   6    0.73    4.18
  -6   0  -6    4.78    4.75
  -6   0  -6    2.57    2.70
  -6   0  -6    3.67    2.94
  -6   0  -6    1.41    6.38
   6   0   6  -11.68    5.48
  -7   0  -6    5.81    5.78
  -7   0  -6   -4.40    7.56
  -7   0  -6    2.84    5.06
  -7   0  -6    3.64    4.13
  -9   1   6   24.88    5.60
  -9   1   6   30.00    8.76
  -8   1   6    1.73    2.64
  -8   1   6   -4.43    2.93
  -7   1   6   20.97    3.21
  -7   1   6   10.21    3.08
  -7   1   6   12.98    5.22
  -7   1   6   13.26    3.40
  -6   1   6   40.29    7.78
  -6   1   6   34.17    4.66
  -6   1   6   42.08    4.78
  -6   1   6   37.72    4.17
  -5   1   6   16.29    2.35
  -5   1   6   17.81    4.86
  -5   1   6   17.63    3.14
  -5   1   6   15.38    2.71
   4  -1  -6   16.91    2.97
   4  -1  -6   19.38    4.22
   4  -1  -6   15.41    3.53
  -4   1   6   12.44    3.51
  -4   1   6   12.36    1.92
  -4   1   6   18.99    3.46
  -4   1   6   18.39    3.37
  -4   1   6   11.85    3.09
   3  -1  -6    9.55    2.91
   3  -1  -6   15.08    4.06
  -3   1   6   17.32    3.27
  -3   1   6   13.31    3.33
  -3   1   6   17.63    3.59
  -3   1   6   18.33    4.12
   2  -1  -6   11.72    3.67
   2  -1  -6   13.05    2.93
   2  -1  -6   14.58    3.14
   2  -1  -6   18.86    2.95
  -2   1   6   10.77    2.72
  -2   1   6   17.71    3.93
  -2   1   6   16.66    3.49
   1  -1  -6  308.24   28.92
   1  -1  -6  398.39   26.72
   1  -1  -6  291.26   27.73
   0  -1  -6  387.02   31.91
   0  -1  -6  369.95   29.73
   0  -1  -6  345.91   28.40
   0  -1  -6  329.12   28.90
   0  -1  -6  337.94   29.78
   0  -1  -6  370.00   29.95
   0   1   6  343.16   29.68
   0   1   6  349.54   30.44
   0   1   6  346.76   29.54
   0   1   6  320.20   28.78
   0   1   6  396.66   28.83
  -1  -1  -6    7.61    2.41
  -1  -1  -6    5.93    3.25
  -1  -1  -6    6.93    3.39
  -1  -1  -6   15.40    4.37
   1   1   6    9.80    3.73
   1   1   6   11.53    3.44
   1   1   6   14.85    3.82
   1   1   6    8.62    2.73
   1   1   6    7.93    2.38
  -2  -1  -6   46.19    7.33
  -2  -1  -6   42.73    5.57
  -2  -1  -6   47.79    7.34
  -2  -1  -6   44.24    5.60
  -2  -1  -6   46.75    7.90
   2   1   6   40.82    6.90
   2   1   6   45.49    5.64
   2   1   6   43.09    6.55
   2   1   6   33.62    5.36
   2   1   6   52.77    7.39
  -3  -1  -6   85.18    9.24
  -3  -1  -6   86.76   11.16
  -3  -1  -6   70.63   10.66
  -3  -1  -6   84.61   10.19
  -3  -1  -6   90.07    9.42
   3   1   6   80.87    9.02
   3   1   6   87.55   10.97
   3   1   6  104.95   11.43
   3   1   6   88.96    9.65
  -4  -1  -6   20.72    5.04
  -4  -1  -6   27.26    7.04
  -4  -1  -6   26.44    5.29
   4   1   6   16.38    8.57
   4   1   6   26.52    6.65
   4   1   6   22.14    4.72
  -5  -1  -6    6.76    5.11
  -5  -1  -6    6.30    4.54
  -5  -1  -6   15.86    4.48
  -5  -1  -6   12.29    4.35
   5   1   6    2.78    3.21
   5   1   6   16.21    3.89
  -6  -1  -6   13.37    6.27
  -6  -1  -6   11.29    4.99
  -6  -1  -6    3.10    4.92
  -6  -1  -6    2.52    9.19
  -6  -1  -6   11.89    4.67
   6   1   6   16.14    7.75
  -7  -1  -6   -3.15    4.36
  -7  -1  -6    2.72    4.59
  -7  -1  -6   -2.20    5.75
  -7  -1  -6    4.53    5.28
  -9   2   6   16.17    4.43
  -9   2   6    7.36    5.82
  -8   2   6    2.29    3.99
  -8   2   6    6.10    2.89
  -7   2   6   -2.24    1.24
  -7   2   6   -0.20    1.67
  -7   2   6   -3.54    2.94
  -6   2   6   13.65    2.77
  -6   2   6   16.33    2.90
  -6   2   6   15.81    2.22
  -6   2   6   10.10    3.82
  -5   2   6    3.98    1.95
  -5   2   6    5.18    2.25
  -5   2   6    4.94    1.46
  -5   2   6    3.14    1.41
  -5   2   6    2.98    1.28
   4  -2  -6  156.38   16.02
   4  -2  -6  174.59   15.56
  -4   2   6  190.39   15.85
  -4   2   6  185.46   14.51
  -4   2   6  177.29   15.38
  -4   2   6  172.86   14.81
  -4   2   6  192.17   15.86
  -4   2   6  196.55   15.70
  -4   2   6  179.59   15.02
   3  -2  -6   54.79    5.85
   3  -2  -6   50.08    7.33
   3  -2  -6   60.07    5.50
   3  -2  -6   60.77    5.60
   3  -2  -6   55.36    6.89
  -3   2   6   52.18    5.61
  -3   2   6   60.19    6.61
  -3   2   6   55.47    5.84
  -3   2   6   63.68    7.39
  -3   2   6   56.52    4.96
  -3   2   6   73.83    7.18
   2  -2  -6   89.70    9.76
   2  -2  -6  112.00   10.62
   2  -2  -6   83.70    8.96
   2  -2  -6   85.15    8.09
   2  -2  -6   92.91    8.42
  -2   2   6   78.40    8.96
  -2   2   6   84.08    7.37
  -2   2   6   82.38    8.25
  -2   2   6   98.68    9.57
  -2   2   6   80.56    8.82
   1  -2  -6    4.09    1.50
   1  -2  -6    4.84    2.74
   1  -2  -6    2.79    2.14
   1  -2  -6    1.84    1.15
   1  -2  -6    1.67    1.47
   1  -2  -6    4.05    2.11
  -1   2   6    0.67    1.85
  -1   2   6   -0.76    1.23
  -1   2   6    3.16    1.14
  -1   2   6    3.70    2.18
   0  -2  -6   25.95    5.41
   0  -2  -6   22.27    3.88
   0  -2  -6   32.31    6.66
   0  -2  -6   18.20    4.52
   0   2   6   24.36    5.48
   0   2   6   19.59    3.95
   0   2   6   20.07    4.86
   0   2   6   20.40    3.02
  -1  -2  -6   66.04    9.24
  -1  -2  -6   97.25    8.80
  -1  -2  -6   99.15    8.45
  -1  -2  -6   51.31    8.18
   1   2   6   55.48    7.60
   1   2   6   89.91    8.08
   1   2   6   73.00    9.37
  -2  -2  -6   61.12    7.82
  -2  -2  -6   65.54    8.79
  -2  -2  -6   68.92   10.04
  -2  -2  -6   68.33    7.96
  -2  -2  -6   53.92    9.05
   2   2   6   65.89    7.80
   2   2   6   74.84    7.97
   2   2   6   66.86    8.58
   2   2   6   84.88    9.97
   2   2   6   73.25    9.62
  -3  -2  -6    2.04    3.79
  -3  -2  -6    5.80    2.97
  -3  -2  -6    1.91    2.77
  -3  -2  -6    3.97    4.16
   3   2   6   -0.38    3.11
   3   2   6    3.25    3.89
   3   2   6    4.01    3.17
  -4  -2  -6   40.00    9.26
  -4  -2  -6   22.31   13.06
  -4  -2  -6   45.87    7.81
  -4  -2  -6   46.51    9.89
   4   2   6   30.96    6.48
   4   2   6   47.06    7.30
   4   2   6   47.07    9.24
  -5  -2  -6   30.79    6.87
  -5  -2  -6   28.25    6.56
  -5  -2  -6   13.19    5.38
  -5  -2  -6   24.52    7.36
  -5  -2  -6   27.97    9.20
   5   2   6   24.61    5.10
   5   2   6   29.67    8.61
  -6  -2  -6   -6.04    3.99
  -6  -2  -6    4.18    6.13
  -6  -2  -6    3.06    4.87
  -6  -2  -6    1.84    4.00
  -9   3   6   -2.22    2.80
  -9   3   6    0.66    4.61
  -8   3   6   58.40    6.72
  -8   3   6   48.42    8.98
  -7   3   6    1.67    1.90
  -7   3   6   -0.86    1.71
  -7   3   6    1.51    1.43
  -6   3   6  151.44   14.24
  -6   3   6  161.80   13.15
  -6   3   6  140.07   12.74
  -6   3   6  154.80   13.29
   5  -3  -6   37.78    5.44
   5  -3  -6   57.52    7.23
  -5   3   6   40.14    5.64
  -5   3   6   48.19    5.12
  -5   3   6   41.67    5.19
  -5   3   6   45.84    5.44
  -5   3   6   47.11    5.12
   4  -3  -6    0.60    1.83
   4  -3  -6    3.57    2.75
  -4   3   6   -1.05    1.48
  -4   3   6    1.78    1.97
  -4   3   6   -0.57    1.36
  -4   3   6    2.02    1.77
  -4   3   6    1.40    1.26
  -3   3   6   33.08    5.26
  -3   3   6   49.94    5.32
   2  -3  -6  101.30   10.79
   2  -3  -6  108.33   11.64
   2  -3  -6  124.02   10.64
   2  -3  -6  104.01    9.47
   2  -3  -6   96.40   11.53
  -2   3   6  116.08   11.42
  -2   3   6  104.56   11.15
  -2   3   6  106.39   11.30
  -2   3   6  106.50    9.65
  -2   3   6  104.15   10.16
   1  -3  -6   63.67    7.94
   1  -3  -6   52.93    8.55
   1  -3  -6   81.49    8.94
   1  -3  -6   66.55    7.53
   1  -3  -6   50.98    6.55
  -1   3   6   64.10    7.79
  -1   3   6   61.34    7.00
  -1   3   6   74.95    9.23
  -1   3   6   74.62    8.54
  -1   3   6   62.20    6.40
   0  -3  -6   31.13    7.16
   0  -3  -6   26.30    6.33
   0  -3  -6   27.04    5.77
   0  -3  -6   29.56    5.17
   0   3   6   53.63    8.57
   0   3   6   24.73    4.80
   0   3   6   27.26    4.55
   0   3   6   35.91    6.83
   0   3   6   27.10    5.94
  -1  -3  -6   45.64    9.26
  -1  -3  -6   41.39    6.36
  -1  -3  -6   63.45    6.85
  -1  -3  -6   39.02    7.86
  -1  -3  -6   51.35    8.72
  -2  -3  -6   98.58   13.02
  -2  -3  -6  106.04   10.99
  -2  -3  -6  100.36   11.19
  -2  -3  -6  110.32   13.67
  -2  -3  -6   86.64   11.68
   2   3   6  106.86   12.92
   2   3   6   95.62   11.50
   2   3   6  111.04   11.19
  -3  -3  -6   11.44    5.06
  -3  -3  -6    3.60    3.61
  -3  -3  -6    6.52    3.15
  -3  -3  -6    9.09    3.86
   3   3   6   17.96    4.54
   3   3   6    0.19    3.57
   3   3   6   12.85    4.14
  -4  -3  -6   11.27    6.74
  -4  -3  -6    6.39    4.14
  -4  -3  -6    1.11    3.78
  -4  -3  -6    8.16    4.72
  -4  -3  -6    6.25    5.28
   4   3   6    7.37    5.14
   4   3   6   11.27    6.25
   4   3   6   12.10    4.77
  -5  -3  -6   40.57    8.36
  -5  -3  -6   49.81   12.70
  -5  -3  -6   35.94   11.02
  -5  -3  -6   45.45    9.16
  -5  -3  -6   33.61   10.76
   5   3   6   39.43    8.11
   5   3   6   43.97   10.94
   5   3   6   59.12    8.72
  -9   4   6    6.44    3.41
  -9   4   6    5.69    4.83
  -8   4   6   -1.48    5.20
  -8   4   6    4.28    2.34
  -8   4   6    2.44    2.59
  -7   4   6    0.00    1.84
  -7   4   6   -1.04    2.00
  -7   4   6    0.19    1.88
  -7   4   6    1.48    2.52
  -7   4   6   -2.50    3.63
  -6   4   6   16.59    2.63
  -6   4   6   16.59    3.03
  -6   4   6   11.42    3.13
  -6   4   6   13.24    2.48
  -6   4   6   14.68    3.25
  -6   4   6   10.20    3.09
  -6   4   6    7.87    3.72
   5  -4  -6    2.98    2.83
   5  -4  -6    6.51    3.68
  -5   4   6    2.87    2.13
  -5   4   6    5.53    2.52
  -5   4   6   -0.21    1.78
  -5   4   6    4.93    2.32
  -5   4   6   -2.93    2.22
   4  -4  -6   17.27    3.30
   4  -4  -6   23.73    5.28
   4  -4  -6   23.39    3.91
   4  -4  -6   28.59    5.67
  -4   4   6   23.34    3.79
  -4   4   6   23.87    5.16
  -4   4   6   23.08    5.08
  -4   4   6   19.62    4.74
  -4   4   6   24.50    4.43
   3  -4  -6  329.34   26.83
   3  -4  -6  255.03   23.93
   3  -4  -6  283.59   23.89
   3  -4  -6  261.51   23.74
   3  -4  -6  276.34   25.68
  -3   4   6  292.83   25.04
  -3   4   6  287.30   24.82
  -3   4   6  278.65   23.10
  -3   4   6  262.10   24.29
  -3   4   6  278.22   23.88
   2  -4  -6   90.65   11.72
   2  -4  -6   86.18   10.29
   2  -4  -6   98.74   10.26
   2  -4  -6  101.78   10.00
   2  -4  -6   92.40   11.01
   2  -4  -6   99.58    8.83
  -2   4   6  104.43   11.40
  -2   4   6   92.60   10.85
  -2   4   6   95.77    9.80
  -2   4   6   86.14   10.37
  -2   4   6   91.44    8.99
   1  -4  -6  445.05   35.42
   1  -4  -6  421.54   37.17
   1  -4  -6  399.84   36.33
   1  -4  -6  404.58   34.64
   1  -4  -6  404.03   34.64
  -1   4   6  408.25   34.12
  -1   4   6  391.01   34.63
  -1   4   6  432.29   36.65
  -1   4   6  423.01   36.19
  -1   4   6  453.85   36.07
   0  -4  -6  222.13   22.66
   0  -4  -6  219.93   23.43
   0  -4  -6  277.71   22.30
   0  -4  -6  275.26   22.97
   0  -4  -6  244.86   22.55
   0  -4  -6  306.42   26.13
   0   4   6  241.15   23.83
   0   4   6  242.46   23.02
   0   4   6  227.04   21.64
  -1  -4  -6  201.82   19.61
  -1  -4  -6  202.73   20.93
  -1  -4  -6  198.81   21.79
  -1  -4  -6  196.39   20.14
  -1  -4  -6  215.22   19.28
   1   4   6  199.14   19.97
   1   4   6  243.99   21.98
   1   4   6  190.06   20.78
  -2  -4  -6   13.39    5.47
  -2  -4  -6    6.58    3.46
  -2  -4  -6   11.96    4.82
  -2  -4  -6    4.35    3.53
  -2  -4  -6    1.81    3.23
   2   4   6    4.97    3.91
   2   4   6    7.84    4.59
  -3  -4  -6  130.81   15.47
  -3  -4  -6  123.64   17.97
  -3  -4  -6  177.33   16.85
  -3  -4  -6  164.18   18.87
  -3  -4  -6  130.28   17.08
   3   4   6  161.13   16.41
   3   4   6  158.26   18.34
  -4  -4  -6    7.38    4.71
  -4  -4  -6   20.36    8.67
  -4  -4  -6   17.34    8.58
  -4  -4  -6   17.01    6.62
  -4  -4  -6   25.19    7.47
   4   4   6   24.47    6.71
   4   4   6    6.74    7.91
  -5  -4  -6   70.92   14.77
  -5  -4  -6   34.79    9.15
  -5  -4  -6   65.16   11.44
  -5  -4  -6   58.26   13.72
   5   4   6   68.22   10.51
  -9   5   6   -6.62    3.07
  -9   5   6   -3.62    2.77
  -8   5   6   11.99    5.84
  -8   5   6   -4.18    3.00
  -8   5   6    2.00    2.66
  -8   5   6   -1.34    2.64
  -8   5   6    2.34    2.69
   7  -5  -6   -0.37    0.26
  -7   5   6    2.85    3.06
  -7   5   6   -8.50    4.06
  -7   5   6    2.90    1.86
  -7   5   6    0.07    3.32
  -7   5   6   -2.34    2.15
  -6   5   6   -1.64    3.17
  -6   5   6    4.17    2.94
  -6   5   6    0.61    2.62
  -6   5   6    7.40    2.97
  -6   5   6    5.56    2.84
   5  -5  -6  296.51   30.92
  -5   5   6  360.78   30.37
  -5   5   6  364.10   29.77
  -5   5   6  380.61   30.02
  -5   5   6  373.85   30.42
  -5   5   6  350.39   30.70
   4  -5  -6   25.87    4.97
   4  -5  -6   13.66    4.24
   4  -5  -6   27.24    8.88
  -4   5   6   17.11    4.81
  -4   5   6   20.14    4.78
  -4   5   6   26.84    6.26
  -4   5   6   19.99    4.21
   3  -5  -6  788.73   69.54
   3  -5  -6  766.97   68.73
   3  -5  -6  884.69   67.98
  -3   5   6  898.40   67.78
  -3   5   6  933.83   67.10
  -3   5   6  839.89   69.16
  -3   5   6  763.51   68.13
   2  -5  -6   83.29    9.66
  -2   5   6   63.85    9.81
  -2   5   6   75.05    8.38
  -2   5   6   77.10   11.36
  -2   5   6   88.34   10.10
   1  -5  -6  189.07   19.28
   1  -5  -6  205.18   19.35
   1  -5  -6  238.57   22.55
   1  -5  -6  179.22   23.40
   1  -5  -6  220.20   20.36
  -1   5   6  221.04   21.95
  -1   5   6  216.68   20.63
  -1   5   6  201.18   18.87
  -1   5   6  236.25   21.99
   0  -5  -6   50.54    7.95
   0  -5  -6   58.51   11.87
   0  -5  -6   71.77   14.10
   0  -5  -6   62.27    8.48
   0  -5  -6   63.53    9.35
   0   5   6   70.46   11.50
   0   5   6   94.48   14.55
   0   5   6   45.62    9.79
  -1  -5  -6   31.54    8.70
  -1  -5  -6   22.58    6.66
  -1  -5  -6   31.69    8.41
  -1  -5  -6   23.75    8.36
   1   5   6   25.94    7.16
   1   5   6   32.76    7.74
  -2  -5  -6   26.60    8.54
  -2  -5  -6   15.87    6.02
  -2  -5  -6   40.49    9.67
   2   5   6   35.96    7.52
  -3  -5  -6   10.83    5.97
  -3  -5  -6    2.87    6.26
  -3  -5  -6    1.47    4.76
  -3  -5  -6    6.29    6.68
  -3  -5  -6    2.65    3.78
   3   5   6    6.37    6.12
   3   5   6    2.64    6.02
  -4  -5  -6   12.91    8.19
  -4  -5  -6   35.27   16.11
  -4  -5  -6   14.73    8.08
  -4  -5  -6    1.94    4.90
   4   5   6   13.41   13.43
   4   5   6   19.74   11.85
  -9   6   6   29.08    5.71
  -9   6   6   28.70    5.78
  -8   6   6    1.46    3.26
  -8   6   6   -7.68    4.30
   7  -6  -6  246.40   25.61
  -7   6   6  267.14   24.73
  -7   6   6  289.76   24.83
  -7   6   6  304.52   26.05
  -7   6   6  316.47   25.20
  -7   6   6  270.34   24.10
  -6   6   6   -5.22    3.31
  -6   6   6    2.45    2.99
  -6   6   6    0.02    3.35
  -6   6   6    2.56    3.34
   5  -6  -6  278.02   22.46
   5  -6  -6  249.56   25.49
  -5   6   6  244.80   24.40
  -5   6   6  273.93   24.61
  -5   6   6  258.56   23.36
  -5   6   6  274.54   24.22
   4  -6  -6    0.60    4.03
   4  -6  -6   -3.50    3.74
   4  -6  -6   -4.81    3.39
   4  -6  -6   -1.49    3.35
  -4   6   6    9.35    4.58
  -4   6   6   -0.77    2.33
  -4   6   6    3.12    3.16
  -4   6   6   -2.08    3.11
   3  -6  -6    3.56    4.10
   3  -6  -6    2.26    3.58
   3  -6  -6    7.16    3.50
   3  -6  -6   -0.97    1.75
  -3   6   6   -0.14    3.06
  -3   6   6    0.23    2.97
  -3   6   6   -3.87    2.64
   2  -6  -6   31.45    7.03
   2  -6  -6   24.98    7.97
   2  -6  -6   20.65    5.99
   2  -6  -6   31.47    5.50
  -2   6   6   22.86    5.54
  -2   6   6   33.86    7.79
  -2   6   6   39.90    9.09
  -2   6   6   18.13    6.75
   1  -6  -6   37.08    7.55
   1  -6  -6   44.65   11.38
   1  -6  -6   70.78    9.18
   1  -6  -6   64.06    8.99
  -1   6   6   49.26   10.99
  -1   6   6   44.16    9.03
   0  -6  -6    1.48    4.54
   0  -6  -6    3.01    3.90
   0  -6  -6    7.33    5.34
   0  -6  -6    4.27    3.64
   0  -6  -6   -4.60    4.16
   0   6   6   -1.24    3.68
   0   6   6    4.91    4.73
  -1  -6  -6    2.34    5.71
  -1  -6  -6   -7.89   10.28
  -1  -6  -6    5.25    4.23
  -1  -6  -6   -0.24    4.25
  -1  -6  -6   -2.81    3.11
   1   6   6   -3.33    3.97
   1   6   6   -3.59    4.20
  -2  -6  -6   25.93   10.41
  -2  -6  -6   44.75    8.91
  -2  -6  -6   37.72    8.66
  -2  -6  -6   25.21    8.83
  -2  -6  -6   31.01    8.86
   2   6   6   32.66   10.64
   2   6   6   39.84    9.23
  -3  -6  -6   15.29    7.99
  -3  -6  -6   13.57    9.63
   3   6   6   12.19   10.25
   3   6   6   -0.80    6.74
  -9   7   6   20.65    6.37
  -8   7   6   -0.31    4.23
  -8   7   6   10.08    4.44
  -8   7   6   13.08    3.94
   7  -7  -6    0.59    7.26
  -7   7   6    4.15    3.82
  -7   7   6    3.14    3.17
  -7   7   6   -3.53    3.87
  -6   7   6    1.57    3.54
  -6   7   6    8.10    5.76
  -6   7   6    8.56    4.19
   5  -7  -6  161.69   28.83
   5  -7  -6   95.76   11.90
  -5   7   6  106.55   13.20
  -5   7   6  107.25   14.20
  -5   7   6  102.49   12.65
   4  -7  -6   32.97    7.85
   4  -7  -6   48.91   11.45
   4  -7  -6   34.49    7.26
   4  -7  -6   48.46    9.46
  -4   7   6   60.98   11.86
  -4   7   6   44.89    8.89
  -4   7   6   38.76    8.98
   3  -7  -6   91.97   14.07
   3  -7  -6   64.97    8.08
  -3   7   6   91.73   14.70
  -3   7   6   69.31   11.43
  -3   7   6   60.78   13.08
   2  -7  -6   34.32    7.86
   2  -7  -6   15.97   12.88
   2  -7  -6   32.68    9.70
   2  -7  -6   20.25    5.74
  -2   7   6   40.76   10.63
  -2   7   6   40.78   10.49
  -2   7   6   49.32    9.83
   1  -7  -6    6.34    5.31
   1  -7  -6    2.94    6.22
   1  -7  -6    6.37    3.79
   1  -7  -6   13.22    5.79
  -1   7   6   12.89    6.26
  -1   7   6   14.56    5.66
   0  -7  -6   36.05    8.23
   0  -7  -6   24.50   10.18
   0  -7  -6   41.22    9.53
   0  -7  -6   35.77    8.18
   0   7   6   26.11    8.05
   0   7   6   18.84    6.95
  -1  -7  -6   14.20    9.45
  -1  -7  -6   16.33    6.36
  -1  -7  -6    8.04    6.32
  -1  -7  -6    0.56    5.57
   1   7   6   11.11    7.73
   1   7   6   20.10    7.31
  -2  -7  -6   13.05    7.49
  -2  -7  -6   18.83   11.47
  -2  -7  -6   10.79    6.71
  -2  -7  -6   17.97    7.63
   2   7   6    3.67    9.21
   2   7   6    9.17    7.26
  -8   8   6   33.33    7.91
  -8   8   6   25.80    6.95
  -8   8   6   41.40    8.04
   7  -8  -6   16.77   18.46
  -7   8   6   45.92    8.89
  -7   8   6   47.48    9.20
  -7   8   6   50.32    9.96
   6  -8  -6   33.85    6.07
  -6   8   6   40.54   10.16
  -6   8   6   46.76    9.11
  -6   8   6   40.41    9.61
   5  -8  -6    4.03    6.26
   5  -8  -6   -1.16    4.74
   5  -8  -6   12.71    8.47
  -5   8   6    8.20    4.90
  -5   8   6    6.58    5.03
  -5   8   6   -0.33    6.58
   4  -8  -6    5.92    5.58
   4  -8  -6  -12.13    6.47
   4  -8  -6    1.84    6.67
  -4   8   6    2.18    4.56
  -4   8   6    2.50    4.44
  -4   8   6    7.53    7.88
   3  -8  -6   42.81    7.97
   3  -8  -6   61.03   11.45
   3  -8  -6   56.21   14.81
   3  -8  -6   97.18   15.60
  -3   8   6   73.00   12.97
  -3   8   6   86.37   15.69
  -3   8   6   64.02   14.36
   2  -8  -6    4.31    8.23
   2  -8  -6   41.98    9.21
   2  -8  -6   33.18    7.79
   2  -8  -6   23.28    5.96
  -2   8   6   33.36   10.08
  -2   8   6   29.88    8.13
   1  -8  -6   -4.82    5.98
   1  -8  -6    2.66    4.66
   1  -8  -6   -3.35    5.76
   1  -8  -6    8.56    8.41
  -1   8   6    8.55    6.77
  -1   8   6   12.79    6.16
   0  -8  -6   45.25    9.84
   0  -8  -6   35.45   10.49
   0  -8  -6   60.22   11.62
   0  -8  -6   66.16   15.96
   0   8   6   26.85    9.74
  -1  -8  -6   53.69   13.81
  -1  -8  -6   70.28   18.16
  -1  -8  -6   48.58   12.03
  -7   9   6   12.59    5.91
  -7   9   6   20.61    6.94
   6  -9  -6   -9.84    7.16
  -6   9   6    3.87    5.55
  -6   9   6    1.04    5.32
   5  -9  -6   18.23    7.32
   5  -9  -6   22.72   11.72
  -5   9   6   10.94    6.55
  -5   9   6   13.88    7.46
   4  -9  -6    3.59    7.03
   4  -9  -6   10.60   11.11
   4  -9  -6    7.02    7.97
   4  -9  -6    4.83    3.26
  -4   9   6    7.44    6.72
  -4   9   6    8.71    6.68
   3  -9  -6   26.87    9.10
   3  -9  -6    5.17    5.18
   3  -9  -6   21.88    9.14
   3  -9  -6   12.25   10.71
  -3   9   6   11.97    7.55
  -3   9   6   17.51    7.72
   2  -9  -6   12.98    9.48
   2  -9  -6   17.60   10.99
   2  -9  -6   -0.03    5.11
   2  -9  -6   26.09    8.31
  -2   9   6   12.08    9.27
   1  -9  -6   82.98   14.53
   1  -9  -6   83.12   20.70
   1  -9  -6  111.57   22.36
   1  -9  -6  109.24   18.04
  -1   9   6  142.95   18.50
  -1   9   6  159.20   26.25
  -2  10  -7   38.44   14.69
  -2  10  -7   47.01   12.39
   2 -10   7   54.92   21.19
   2 -10   7   44.49   12.31
   2 -10   7   57.89   16.54
  -3  10  -7  160.40   25.57
  -3  10  -7  130.45   18.56
   3 -10   7  133.28   21.32
   3 -10   7  137.44   27.94
   3 -10   7  103.74   19.23
  -4  10  -7   27.96    9.51
  -4  10  -7   43.79   13.64
   4 -10   7   10.97   14.14
   4 -10   7   14.17    8.64
   4 -10   7   29.57   10.61
  -5  10  -7   45.44   11.08
  -5  10  -7   28.55   11.84
   5 -10   7   22.75   10.15
   5 -10   7   30.17   10.26
   5 -10   7   10.21   15.55
   1   9  -7   19.79    9.10
   1   9  -7    9.41   13.43
  -1  -9   7   12.32   11.16
  -1  -9   7   13.80   19.83
  -1  -9   7   17.92   10.51
  -1  -9   7   14.57    8.98
   0   9  -7  384.16   41.35
   0   9  -7  314.92   36.28
   0  -9   7  451.70   38.68
   0  -9   7  222.73   54.68
   0  -9   7  413.13   39.31
   0  -9   7  462.06   48.10
  -1   9  -7   46.34   10.71
  -1   9  -7   88.16   27.86
   1  -9   7   41.72   11.41
  -2   9  -7  141.86   19.57
  -2   9  -7  178.09   24.43
   2  -9   7  184.32   21.49
   2  -9   7  203.59   29.88
  -3   9  -7    9.54    6.11
  -3   9  -7    1.96    7.71
   3  -9   7    7.76   11.01
   3  -9   7  -14.00    6.06
   3  -9   7   -3.39    5.76
  -4   9  -7    0.85    5.50
  -4   9  -7   -5.37    6.06
  -4   9  -7    3.85   11.97
   4  -9   7  -10.56    8.92
   4  -9   7    1.86    6.32
   4  -9   7    5.93    6.44
  -5   9  -7   73.23   13.41
  -5   9  -7   78.01   15.32
   5  -9   7   45.50   11.50
   5  -9   7   40.20   15.59
   5  -9   7   47.15   11.15
  -6   9  -7    3.28    6.04
   6  -9   7   -3.76   11.30
   6  -9   7    9.10    6.11
   2   8  -7  132.12   16.90
   2   8  -7  167.01   26.03
  -2  -8   7  130.67   18.55
  -2  -8   7  181.82   32.00
  -2  -8   7   80.14   18.54
   1   8  -7    1.71    8.09
   1   8  -7   12.62    6.88
  -1  -8   7   12.22   12.76
  -1  -8   7   11.78    9.50
  -1  -8   7    5.72    8.20
  -1  -8   7   12.14    7.80
  -1  -8   7    1.62    5.99
   0   8  -7   30.48    8.85
   0   8  -7   30.91   10.94
   0  -8   7   33.53   10.65
   0  -8   7   45.44   16.24
   0  -8   7   41.70    9.88
   0  -8   7   45.40   11.10
  -1   8  -7   79.32   16.51
  -1   8  -7   81.77   13.44
   1  -8   7   67.71   14.10
   1  -8   7   85.16   21.22
   1  -8   7   61.32   13.43
   1  -8   7   63.80   13.73
  -2   8  -7   88.87   12.61
  -2   8  -7  132.22   17.28
   2  -8   7   47.74   12.65
   2  -8   7   78.59   18.88
  -3   8  -7  152.03   21.56
  -3   8  -7  114.60   14.65
  -3   8  -7   96.52   19.92
   3  -8   7  101.91   15.41
  -4   8  -7   10.75    5.86
  -4   8  -7   15.43    6.70
  -4   8  -7   13.62    9.78
   4  -8   7    9.62    6.37
   4  -8   7    9.53    8.47
  -5   8  -7   -2.64   10.20
  -5   8  -7    2.55    5.30
  -5   8  -7   -3.51    5.37
   5  -8   7    5.44    5.76
   5  -8   7   -0.65    5.21
   5  -8   7    1.31    8.49
  -6   8  -7   34.38    9.47
  -6   8  -7   33.33    8.27
  -6   8  -7   20.85   16.22
   6  -8   7   48.65    8.36
   6  -8   7   25.28   12.74
   6  -8   7   28.52    8.69
  -7   8  -7    1.61    5.34
  -7   8  -7    3.76    7.62
   3   7  -7   50.50   13.37
   3   7  -7   54.19   13.19
  -3  -7   7   70.67   18.75
  -3  -7   7   48.66   12.29
  -3  -7   7   37.82   11.93
   2   7  -7   43.23    9.77
   2   7  -7   34.72   10.82
  -2  -7   7   36.16    9.23
  -2  -7   7   35.80    9.77
  -2  -7   7   27.05   15.04
  -2  -7   7   41.85   11.74
  -2  -7   7   43.34   10.90
   1   7  -7    3.75    5.05
   1   7  -7    9.48    7.31
  -1  -7   7   -5.08    6.48
  -1  -7   7   11.65    6.70
  -1  -7   7    9.59    9.79
  -1  -7   7   11.69    6.44
  -1  -7   7    4.02    5.34
   0   7  -7  332.37   35.94
   0   7  -7  379.74   38.45
   0  -7   7  503.87   43.88
   0  -7   7  467.08   38.91
   0  -7   7  310.71   36.71
   0  -7   7  436.38   37.61
  -1   7  -7   40.76   12.48
  -2   7  -7    6.02    5.01
  -2   7  -7   11.95   11.02
   2  -7   7   12.94    8.17
   2  -7   7   -1.27    4.18
  -3   7  -7   -5.25    7.55
  -3   7  -7    5.08    4.03
   3  -7   7   -0.78    4.26
  -4   7  -7  193.63   18.90
   4  -7   7  152.26   17.52
   4  -7   7  128.08   20.78
   4  -7   7  157.31   18.36
  -5   7  -7    4.89    4.59
  -5   7  -7   12.20    5.57
   5  -7   7   13.65    8.72
   5  -7   7    5.55    5.38
   5  -7   7    4.07    5.08
  -6   7  -7   67.90   11.74
  -6   7  -7   62.18   11.25
   6  -7   7   59.18   15.97
   6  -7   7   73.04    9.64
   6  -7   7   52.99    8.79
  -7   7  -7   85.14   12.70
  -7   7  -7   96.42   12.67
   7  -7   7   72.98   16.44
  -8   7  -7    2.90    4.17
  -8   7  -7    2.55    5.72
  -5  -6   7   11.28    8.58
   4   6  -7   42.30   12.55
   4   6  -7   56.61    8.33
  -4  -6   7   55.80   11.90
  -4  -6   7   59.17   17.64
  -4  -6   7   33.73    8.98
  -4  -6   7   47.77   11.28
   3   6  -7   33.03    7.60
   3   6  -7   46.74   11.30
  -3  -6   7   10.07   11.17
  -3  -6   7   41.68    8.61
  -3  -6   7   27.03    9.37
   2   6  -7   56.60    9.46
   2   6  -7   48.99   11.50
  -2  -6   7   40.58    9.79
  -2  -6   7   48.16   11.12
  -2  -6   7   50.59    9.83
  -2  -6   7   48.26   11.56
  -2  -6   7   57.31   14.01
   1   6  -7    1.51    4.13
   1   6  -7    4.94    6.43
  -1  -6   7    0.35    5.41
  -1  -6   7    0.49    4.44
  -1  -6   7   -0.29    8.18
  -1  -6   7    4.86    4.68
  -1  -6   7   -1.53    3.43
   0   6  -7  182.23   23.45
   0   6  -7  212.09   21.02
   0  -6   7  166.90   22.15
   0  -6   7  240.63   22.88
   0  -6   7  227.83   27.44
   0  -6   7  240.23   23.20
   0  -6   7  248.47   21.81
  -1   6  -7   52.06   18.01
  -1   6  -7   77.54   10.53
  -1   6  -7  108.69   16.63
   1  -6   7   62.21   10.37
   1  -6   7   78.37   13.09
   1  -6   7  110.70   19.84
  -2   6  -7  369.77   32.15
  -2   6  -7  352.21   33.36
   2  -6   7  319.82   32.81
   2  -6   7  381.77   34.64
   2  -6   7  352.31   32.67
  -3   6  -7   84.10   10.96
  -3   6  -7  100.74   19.04
  -3   6  -7   82.73   12.24
   3  -6   7   74.37   11.78
   3  -6   7   72.92   11.34
   3  -6   7   74.43   14.99
  -4   6  -7    5.82    4.82
  -4   6  -7   10.59    4.63
   4  -6   7    4.13    4.38
   4  -6   7    3.40    4.38
   4  -6   7    7.64    4.58
   4  -6   7    3.47    6.37
  -5   6  -7   52.61    9.51
  -5   6  -7   61.00   11.06
  -5   6  -7   35.61   12.10
   5  -6   7   52.82    8.97
   5  -6   7   62.09   14.05
   5  -6   7   55.24   12.45
  -6   6  -7  108.99   12.93
  -6   6  -7   55.66   14.92
   6  -6   7  104.88   10.40
   6  -6   7   85.54   10.03
  -7   6  -7   11.17    5.25
  -7   6  -7  -19.52   10.09
  -7   6  -7   10.77    4.45
   7  -6   7    0.54    8.62
  -8   6  -7   28.23    7.15
  -8   6  -7   24.65    6.84
  -8   6  -7   35.44    7.56
  -5  -5   7   85.47   12.70
  -5  -5   7   70.75   12.85
  -5  -5   7   56.81   13.42
  -5  -5   7   66.02   12.76
  -5  -5   7   85.55   21.42
   4   5  -7    3.07    7.07
   4   5  -7    7.92    4.11
  -4  -5   7    5.65    5.46
  -4  -5   7   16.74   10.34
  -4  -5   7   13.70    5.78
  -4  -5   7    6.06    5.31
   3   5  -7   -4.84    4.98
   3   5  -7    0.15    3.59
  -3  -5   7   -1.47    3.24
  -3  -5   7    5.69    4.94
  -3  -5   7   -6.60    3.03
  -3  -5   7    5.29    7.90
  -3  -5   7   -3.16    3.60
   2   5  -7  181.58   18.64
   2   5  -7  180.68   18.18
   2   5  -7  214.35   21.63
   1   5  -7  113.09   12.31
   1   5  -7  110.23   12.73
   1   5  -7  119.56   12.56
   1   5  -7   96.93   14.86
  -1  -5   7  114.34   14.27
  -1  -5   7   93.42   12.28
  -1  -5   7  123.06   15.24
  -1  -5   7  103.38   13.60
  -1  -5   7  149.05   23.42
   0   5  -7   36.39    9.08
   0   5  -7   34.90    7.99
   0   5  -7   40.14    7.46
   0   5  -7   26.12    6.02
   0  -5   7   36.37   10.87
   0  -5   7   38.75    8.80
   0  -5   7   20.60    7.15
   0  -5   7   44.71    9.26
   0  -5   7   53.81    8.91
  -1   5  -7   16.63    6.09
  -1   5  -7   24.93    6.08
  -1   5  -7   25.54    7.93
  -1   5  -7   17.77    5.43
  -1   5  -7   36.91    8.24
  -1   5  -7   21.67    6.13
   1  -5   7   23.73    8.45
   1  -5   7   25.58    6.79
   1  -5   7   15.64    5.75
   1  -5   7   20.22    5.25
   1  -5   7   26.11    6.72
  -2   5  -7  159.53   19.22
  -2   5  -7  234.33   20.20
  -2   5  -7  218.49   22.12
  -2   5  -7  173.45   20.58
  -2   5  -7  205.47   24.09
  -2   5  -7  224.94   21.36
   2  -5   7  195.37   23.06
   2  -5   7  205.15   19.96
   2  -5   7  187.53   20.83
   2  -5   7  262.96   21.44
  -3   5  -7   25.69    5.67
  -3   5  -7   19.16    6.83
  -3   5  -7   24.75    8.40
   3  -5   7   25.22    8.54
   3  -5   7   17.55    6.05
   3  -5   7   25.67    6.42
   3  -5   7   25.92    8.53
   3  -5   7   18.78    5.56
  -4   5  -7  300.01   27.45
  -4   5  -7  239.45   30.33
  -4   5  -7  329.77   27.17
   4  -5   7  300.04   26.72
   4  -5   7  290.91   26.63
   4  -5   7  301.17   30.71
  -5   5  -7   52.41   11.48
  -5   5  -7   31.95    7.01
  -5   5  -7   29.70   10.01
   5  -5   7   28.96    8.85
   5  -5   7   39.06    6.82
   5  -5   7   37.50    6.40
  -6   5  -7    5.50    3.52
  -6   5  -7    3.22    7.49
  -6   5  -7    2.50    3.72
   6  -5   7   -4.30    5.81
   6  -5   7    6.99    2.84
  -7   5  -7   41.62    7.95
  -7   5  -7   40.50    7.52
  -7   5  -7   23.25   11.38
   7  -5   7   54.26   11.55
  -8   5  -7   49.97   13.38
  -8   5  -7   37.53    7.97
  -8   5  -7   42.21   10.50
  -6  -4   7    4.76    5.55
  -6  -4   7   -4.77    4.34
  -6  -4   7   -8.97    8.06
  -6  -4   7    1.12    5.72
  -6  -4   7   -3.65    4.75
   5   4  -7   46.28    9.56
  -5  -4   7   50.47    8.70
  -5  -4   7   40.45   10.29
  -5  -4   7   61.23   14.41
  -5  -4   7   44.83    9.37
  -5  -4   7   46.46    9.54
   4   4  -7   10.08    6.51
   4   4  -7    2.32    2.49
  -4  -4   7    5.47    4.54
  -4  -4   7    8.10    7.88
  -4  -4   7    0.59    3.68
  -4  -4   7   -1.62    4.00
  -4  -4   7   -0.67    4.75
   3   4  -7  181.38   18.77
   3   4  -7  174.65   16.05
   3   4  -7  161.50   15.99
   3   4  -7  161.61   15.50
  -3  -4   7  163.56   21.09
  -3  -4   7  185.21   17.88
  -3  -4   7  164.09   18.00
  -3  -4   7  153.52   18.56
  -3  -4   7  155.03   16.33
   0   4  -7  101.38   12.38
   0   4  -7  106.92   12.55
   0   4  -7  101.82   12.42
   0   4  -7  100.03   10.67
   0   4  -7   87.56   10.55
   0   4  -7   97.62   15.67
   0  -4   7   85.31   12.36
   0  -4   7  128.13   15.56
   0  -4   7  123.38   12.83
   0  -4   7   68.00   11.15
  -1   4  -7  397.68   33.07
  -1   4  -7  279.73   27.20
  -1   4  -7  323.11   27.69
  -1   4  -7  350.21   29.21
   1  -4   7  358.86   29.68
   1  -4   7  286.61   28.78
   1  -4   7  275.25   27.92
   1  -4   7  274.86   30.26
  -2   4  -7    7.10    3.99
  -2   4  -7    6.75    3.21
  -2   4  -7   13.64    4.73
  -2   4  -7    9.86    5.29
  -2   4  -7    8.65    4.44
  -2   4  -7    7.66    4.04
   2  -4   7    8.45    3.77
   2  -4   7    4.89    4.19
   2  -4   7    7.32    4.34
   2  -4   7    5.39    4.52
   2  -4   7    7.68    3.79
  -3   4  -7   54.43   10.57
  -3   4  -7   56.25    8.81
  -3   4  -7   62.03    8.18
  -3   4  -7   56.81   10.11
  -3   4  -7   72.97   14.43
   3  -4   7  100.21   14.11
   3  -4   7   57.57    8.75
   3  -4   7   87.48   14.82
   3  -4   7   61.86    8.97
   3  -4   7   69.41    9.84
  -4   4  -7  182.09   18.09
  -4   4  -7  164.89   18.76
  -4   4  -7  195.80   17.75
  -4   4  -7  173.35   21.38
   4  -4   7  179.71   20.27
   4  -4   7  178.62   16.92
   4  -4   7  183.50   17.35
  -5   4  -7    2.42    2.77
  -5   4  -7    7.95    5.63
  -5   4  -7    5.67    3.06
   5  -4   7    0.83    2.52
   5  -4   7   -1.57    4.24
   5  -4   7    3.13    3.05
  -6   4  -7  252.92   23.25
  -6   4  -7  272.78   23.36
  -6   4  -7  277.02   23.57
  -6   4  -7  204.11   26.23
   6  -4   7  240.66   25.34
  -7   4  -7    3.38    3.87
  -7   4  -7    0.14    7.85
  -7   4  -7   -1.05    3.59
  -7   4  -7    2.09    3.91
   7  -4   7    1.61    6.55
  -8   4  -7   40.19    7.73
  -8   4  -7    9.69   10.45
  -8   4  -7   24.39    7.20
  -7  -3   7   14.28    5.73
  -7  -3   7   23.48    6.09
  -7  -3   7   12.76   10.35
  -7  -3   7   14.24    9.10
   6   3  -7    9.09    5.30
  -6  -3   7    8.46    5.26
  -6  -3   7    8.45    4.35
  -6  -3   7    9.04    7.27
  -6  -3   7    5.58    3.84
  -6  -3   7   -7.97    4.52
   5   3  -7   11.90    4.83
  -5  -3   7    4.00    4.59
  -5  -3   7    8.10    4.41
  -5  -3   7    6.55    3.85
  -5  -3   7    1.14    3.32
  -5  -3   7    9.64    7.10
   4   3  -7   15.76    5.65
   4   3  -7   12.61    2.39
  -4  -3   7   17.39    5.47
  -4  -3   7   25.42    6.03
  -4  -3   7   12.42    4.42
  -4  -3   7   18.19    8.23
  -4  -3   7   17.30    4.32
  -4  -3   7   15.50    5.54
   3   3  -7  150.56   12.95
   3   3  -7  148.34   17.85
   3   3  -7  125.91   12.86
   3   3  -7  144.26   13.30
  -3  -3   7  160.97   15.39
  -3  -3   7  133.99   17.74
  -3  -3   7  127.81   15.89
  -3  -3   7  155.52   15.84
  -3  -3   7  145.69   13.96
   2   3  -7  189.77   14.82
   2   3  -7  192.73   17.11
   2   3  -7  164.58   14.84
   2   3  -7  130.08   16.25
   2   3  -7  148.61   14.88
  -2  -3   7  140.22   15.72
  -2  -3   7  131.68   16.45
  -2  -3   7  134.52   15.25
  -2  -3   7  166.49   16.80
  -2  -3   7  194.42   15.43
   1   3  -7  279.07   25.68
   1   3  -7  299.14   25.09
   1   3  -7  261.48   25.79
   1   3  -7  253.50   27.40
   1   3  -7  286.16   24.82
   1   3  -7  301.47   24.03
  -1  -3   7  275.51   24.10
  -1  -3   7  294.92   26.45
  -1  -3   7  268.88   27.45
  -1  -3   7  279.39   25.83
  -1  -3   7  285.14   25.49
  -1  -3   7  291.00   25.00
   0   3  -7  922.87   75.60
   0   3  -7  892.95   76.83
   0   3  -7  924.76   76.61
   0   3  -7 1014.62   78.00
   0   3  -7  822.44   75.74
   0   3  -7  978.24   79.45
   0  -3   7  922.34   77.75
   0  -3   7 1005.62   79.49
   0  -3   7 1010.02   77.33
   0  -3   7 1055.24   78.40
  -1   3  -7   23.17    5.71
  -1   3  -7   14.86    3.76
  -1   3  -7   14.76    5.87
  -1   3  -7    9.03    3.61
  -1   3  -7    9.27    4.27
  -1   3  -7   15.80    4.56
   1  -3   7   11.54    4.80
   1  -3   7    9.12    3.41
   1  -3   7   11.01    4.12
   1  -3   7   19.39    4.86
   1  -3   7   13.20    4.55
  -2   3  -7  796.45   70.03
  -2   3  -7  768.78   67.11
  -2   3  -7  886.90   66.60
  -2   3  -7  768.37   67.84
  -2   3  -7  881.27   67.40
   2  -3   7  816.20   67.85
   2  -3   7  835.95   67.79
   2  -3   7  800.26   69.19
   2  -3   7  801.30   66.34
   2  -3   7  853.36   67.01
  -3   3  -7  132.59   13.05
  -3   3  -7  116.00   16.81
  -3   3  -7  112.12   14.12
   3  -3   7  141.59   16.02
   3  -3   7  145.79   13.90
   3  -3   7  145.75   15.40
   3  -3   7  119.34   12.89
  -4   3  -7  472.88   38.78
  -4   3  -7  427.74   42.15
  -4   3  -7  502.22   39.23
  -4   3  -7  449.68   39.83
   4  -3   7  433.29   38.04
   4  -3   7  474.82   41.20
  -5   3  -7    2.75    2.90
  -5   3  -7    1.85    2.67
  -5   3  -7   12.40    6.44
  -5   3  -7   -1.28    2.58
   5  -3   7   -0.36    2.31
   5  -3   7    4.90    2.78
  -6   3  -7   37.07    7.51
  -6   3  -7   38.97    7.95
  -6   3  -7   41.98    7.33
   6  -3   7   55.27    9.87
  -7   3  -7    2.31    3.74
  -7   3  -7   -0.15    3.42
  -7   3  -7    3.08    7.07
  -7   3  -7   -0.58    3.84
  -8   3  -7   -2.41    4.27
  -8   3  -7   -4.89    5.56
  -7  -2   7    6.88    3.90
  -7  -2   7    9.44    6.23
  -7  -2   7    4.51    5.18
  -7  -2   7   -0.52    3.27
  -7  -2   7    2.03    4.58
   6   2  -7  106.29   11.83
  -6  -2   7   80.48   13.96
  -6  -2   7  110.58   12.48
  -6  -2   7  114.32   12.01
  -6  -2   7  130.26   15.90
  -6  -2   7  121.43   13.03
  -6  -2   7  112.85   11.87
   5   2  -7   18.26    4.08
  -5  -2   7   16.85    7.71
  -5  -2   7   11.95    3.60
  -5  -2   7   21.67    6.72
  -5  -2   7   14.91    4.64
  -5  -2   7   22.42    5.35
  -5  -2   7   15.60    5.00
   4   2  -7  386.96   35.79
   4   2  -7  400.62   32.53
   4   2  -7  396.52   33.95
  -4  -2   7  417.62   33.50
  -4  -2   7  401.12   33.68
  -4  -2   7  402.94   34.54
  -4  -2   7  369.80   36.17
  -4  -2   7  409.77   34.32
  -4  -2   7  412.16   36.55
   3   2  -7   14.22    6.31
   3   2  -7   21.56    3.70
   3   2  -7   26.51    3.88
   3   2  -7   20.30    3.39
   3   2  -7   17.15    5.56
  -3  -2   7   19.74    6.41
  -3  -2   7   29.82    6.42
  -3  -2   7   11.61    4.44
  -3  -2   7   26.89    4.31
  -3  -2   7   24.62    5.05
   2   2  -7  326.06   28.24
   2   2  -7  376.80   26.97
   2   2  -7  317.31   27.11
   2   2  -7  306.43   29.85
   2   2  -7  320.78   28.89
  -2  -2   7  308.34   28.03
  -2  -2   7  319.89   27.53
  -2  -2   7  330.43   28.49
  -2  -2   7  309.56   29.87
  -2  -2   7  301.14   28.89
   1   2  -7  147.25   15.74
   1   2  -7  175.06   17.07
   1   2  -7  147.69   17.79
   1   2  -7  187.48   15.54
   1   2  -7  165.89   16.36
  -1  -2   7  184.27   16.04
  -1  -2   7  168.96   16.67
  -1  -2   7  180.07   16.95
  -1  -2   7  175.75   18.37
  -1  -2   7  186.65   17.39
   0   2  -7  582.51   45.76
   0   2  -7  490.98   44.47
   0   2  -7  591.10   47.44
   0   2  -7  573.41   45.00
   0   2  -7  499.94   43.87
   0   2  -7  565.85   43.73
   0  -2   7  549.96   46.87
   0  -2   7  592.09   45.40
   0  -2   7  459.11   44.69
   0  -2   7  614.83   46.09
   0  -2   7  469.08   44.01
  -1   2  -7  353.15   29.51
  -1   2  -7  351.65   33.06
  -1   2  -7  332.00   29.77
  -1   2  -7  340.08   30.36
   1  -2   7  325.53   31.16
   1  -2   7  358.72   29.22
   1  -2   7  332.72   29.83
  -2   2  -7  303.17   24.84
  -2   2  -7  266.87   25.67
  -2   2  -7  236.15   22.52
   2  -2   7  246.15   24.86
   2  -2   7  261.96   24.00
  -3   2  -7   29.47    5.65
  -3   2  -7   17.96    6.34
  -3   2  -7   27.53    5.54
  -3   2  -7   24.76    5.87
  -3   2  -7   13.50    5.31
   3  -2   7   23.16    5.90
   3  -2   7   21.78    4.64
   3  -2   7   25.94    8.03
  -4   2  -7    6.90    3.96
  -4   2  -7    4.05    2.49
  -4   2  -7    5.96    4.73
  -4   2  -7    1.80    2.16
  -4   2  -7    4.33    3.14
   4  -2   7    3.27    2.43
   4  -2   7    1.02    3.29
   4  -2   7    4.85    2.98
  -5   2  -7    8.28    4.01
  -5   2  -7    7.14    3.18
  -5   2  -7    4.09    2.96
  -5   2  -7   10.88    6.17
   5  -2   7    2.59    2.45
   5  -2   7   -2.55    2.45
  -6   2  -7    0.04    2.99
  -6   2  -7   -1.79    2.83
  -6   2  -7   -2.23    3.35
   6  -2   7    5.24    5.10
  -7   2  -7   23.18    5.70
  -7   2  -7   21.95    7.03
  -7   2  -7   27.57    9.95
  -8   2  -7    1.72    4.04
  -8  -1   7   35.31    7.87
  -8  -1   7   47.93   11.08
  -7  -1   7   10.02    5.80
  -7  -1   7    7.93    3.31
  -7  -1   7    6.04    4.53
  -7  -1   7   -1.83    5.16
  -6  -1   7  102.47   11.76
  -6  -1   7   89.87    9.73
  -6  -1   7   93.38    9.97
  -6  -1   7   97.86   10.46
  -6  -1   7   95.91   13.18
   5   1  -7   49.38    6.49
   5   1  -7   29.13    7.13
   5   1  -7   33.38    4.98
  -5  -1   7   30.20    6.03
  -5  -1   7   30.72    7.86
  -5  -1   7   34.18    6.17
  -5  -1   7   28.99    6.95
  -5  -1   7   41.00    5.64
  -5  -1   7   27.26    4.69
   4   1  -7   -3.93    3.38
   4   1  -7    1.75    2.69
   4   1  -7    1.79    3.00
   4   1  -7   -0.76    1.12
  -4  -1   7   -4.04    2.18
  -4  -1   7    0.51    2.06
  -4  -1   7   -1.80    2.84
  -4  -1   7    1.53    2.67
  -4  -1   7    0.83    2.33
  -4  -1   7    1.65    1.52
   3   1  -7  337.88   26.98
   3   1  -7  310.61   29.45
   3   1  -7  320.26   30.16
   3   1  -7  320.66   27.07
   3   1  -7  347.07   26.88
   3   1  -7  390.20   28.91
  -3  -1   7  326.89   28.10
  -3  -1   7  328.35   29.22
  -3  -1   7  330.99   27.39
  -3  -1   7  404.51   31.13
  -3  -1   7  320.36   28.70
   1   1  -7  558.79   46.44
   1   1  -7  533.01   44.20
   1   1  -7  611.59   44.97
   1   1  -7  609.23   45.83
   1   1  -7  491.62   47.12
   1   1  -7  545.27   45.58
  -1  -1   7  587.68   45.34
  -1  -1   7  500.09   45.63
  -1  -1   7  547.30   47.33
  -1  -1   7  566.73   46.04
  -1  -1   7  594.46   46.72
   0   1  -7  212.94   19.61
   0   1  -7  206.64   17.74
   0   1  -7  178.52   17.18
   0   1  -7  166.98   16.45
   0   1  -7  212.51   18.30
   0  -1   7  185.03   18.85
   0  -1   7  165.96   16.65
   0  -1   7  200.64   17.89
   0  -1   7  226.68   18.49
   0  -1   7  173.12   17.38
  -1   1  -7   68.43    7.65
  -1   1  -7   46.56    7.12
  -1   1  -7   55.48   11.48
  -1   1  -7   45.66    6.98
   1  -1   7   69.77    8.08
   1  -1   7   42.85    6.22
   1  -1   7   55.50    7.32
   1  -1   7   58.43    8.63
  -2   1  -7   -3.22    1.99
  -2   1  -7    3.48    3.10
  -2   1  -7    0.04    1.40
  -2   1  -7    0.99    2.47
  -2   1  -7    3.02    1.74
  -2   1  -7    0.66    2.31
   2  -1   7    1.43    2.23
  -3   1  -7   -2.42    3.18
  -3   1  -7    2.94    1.80
  -3   1  -7    4.68    3.91
  -3   1  -7   -1.87    2.79
  -3   1  -7   -0.80    1.72
  -3   1  -7    4.72    2.42
   3  -1   7    5.43    3.34
   3  -1   7   -1.24    2.68
   3  -1   7    1.73    2.26
  -4   1  -7   85.49    9.07
  -4   1  -7   69.02   10.10
  -4   1  -7   86.85    9.09
  -4   1  -7   74.11    9.95
  -4   1  -7   66.84   13.55
   4  -1   7   67.58    8.51
   4  -1   7   95.75   11.27
  -5   1  -7   15.96    7.10
   5  -1   7   22.17    4.58
   5  -1   7   29.23    4.93
  -6   1  -7   18.39    5.35
  -6   1  -7   18.58    6.45
  -6   1  -7   18.97    4.90
   6  -1   7   19.83    7.60
  -7   1  -7    3.97    5.33
  -7   1  -7    4.73    3.95
  -7   1  -7    3.29    3.25
  -7   1  -7    5.76    7.86
  -8   0   7   -0.33    5.46
  -8   0   7    0.62    3.51
  -7   0   7    8.80    3.14
  -7   0   7    7.68    3.39
  -7   0   7    1.28    4.30
  -7   0   7    8.67    3.67
  -6   0   7   35.16    5.01
  -6   0   7   31.73    4.89
  -6   0   7   21.14    4.84
  -6   0   7   30.75    7.12
   5   0  -7   42.16    5.04
   5   0  -7   36.56    5.88
   5   0  -7   43.66    6.73
  -5   0   7   42.53    8.18
  -5   0   7   40.37    4.64
  -5   0   7   39.07    5.55
  -5   0   7   38.76    5.69
  -5   0   7   36.87    4.91
  -5   0   7   38.94    6.13
   4   0  -7   96.90   10.64
   4   0  -7  100.80    9.41
  -4   0   7   93.14   10.06
  -4   0   7   98.39    8.55
  -4   0   7   95.00    9.93
  -4   0   7  105.41   10.91
  -4   0   7   97.92    9.17
  -4   0   7   88.96   10.74
   3   0  -7  136.35   15.43
   3   0  -7  191.79   13.97
   3   0  -7  197.02   15.38
   3   0  -7  144.78   16.62
  -3   0   7  168.70   15.55
  -3   0   7  163.61   14.67
  -3   0   7  169.91   16.21
  -3   0   7  172.93   16.57
   2   0  -7   73.28    8.16
   2   0  -7   59.95    8.85
   2   0  -7   72.12    6.75
   2   0  -7   57.09    7.48
   2   0  -7   84.95    8.31
  -2   0   7   65.83    7.93
  -2   0   7   70.74    8.92
  -2   0   7   77.96    8.26
  -2   0   7   76.65    7.18
  -2   0   7   65.73    7.93
   1   0  -7   12.28    3.18
   1   0  -7   11.94    2.58
   1   0  -7   12.46    1.94
   1   0  -7   10.27    3.31
   1   0  -7   13.59    3.75
   1   0  -7    5.90    3.33
  -1   0   7   16.19    4.32
  -1   0   7   11.78    2.87
  -1   0   7   12.34    3.95
  -1   0   7   12.92    3.39
  -1   0   7   12.88    3.52
   0   0  -7  732.98   63.05
   0   0  -7  804.57   61.84
   0   0  -7  728.97   59.96
   0   0  -7  878.75   62.35
   0   0  -7  758.03   61.44
   0   0   7  826.49   61.99
   0   0   7  715.92   62.75
   0   0   7  666.55   60.68
   0   0   7  778.05   61.91
   1   0   7  124.50   13.68
  -2   0  -7  537.30   48.02
  -2   0  -7  598.64   46.95
  -2   0  -7  558.38   48.75
   2   0   7  577.59   47.21
   2   0   7  602.60   47.82
   2   0   7  605.91   48.08
  -4   0  -7   88.44   13.89
  -4   0  -7  110.11   13.24
  -4   0  -7  107.00   11.58
  -4   0  -7  106.51   11.57
   4   0   7  104.77   11.64
   4   0   7  138.74   14.28
   4   0   7  136.19   11.89
  -5   0  -7    1.60    2.61
  -5   0  -7   -0.80    4.30
  -5   0  -7   -5.94    5.32
  -5   0  -7   -0.74    2.54
   5   0   7    2.94    2.96
   5   0   7    2.36    3.11
  -6   0  -7   -4.75    2.93
  -6   0  -7    5.43    5.30
  -6   0  -7   -5.45    6.91
  -6   0  -7   -6.44    3.01
   6   0   7   -1.82    6.43
  -7   0  -7   25.52    9.18
  -7   0  -7   18.82    7.00
  -7   0  -7   18.49    6.14
  -7   0  -7   18.61    5.39
  -9   1   7    5.82    6.45
  -9   1   7   -0.43    3.49
  -8   1   7   50.40   11.06
  -8   1   7   54.99    6.67
  -8   1   7   45.80    6.75
  -8   1   7   50.64    7.05
  -7   1   7    9.88    3.43
  -7   1   7   19.44    6.09
  -7   1   7   14.37    3.27
  -6   1   7  146.69   13.92
  -6   1   7  158.32   16.32
  -6   1   7  155.76   13.53
  -6   1   7  165.01   14.43
  -5   1   7   87.74    9.25
  -5   1   7   94.65    8.30
  -5   1   7   98.60    9.70
  -5   1   7  100.05    9.12
  -5   1   7   91.72   10.66
   4  -1  -7  142.71   15.34
   4  -1  -7  158.59   14.08
   4  -1  -7  157.05   14.72
  -4   1   7  168.63   14.83
  -4   1   7  178.58   15.48
  -4   1   7  170.09   14.48
  -4   1   7  158.30   14.58
  -4   1   7  152.08   14.37
   3  -1  -7   14.26    2.65
   3  -1  -7   16.03    4.55
   3  -1  -7    6.42    3.35
  -3   1   7   18.28    4.21
  -3   1   7   16.07    3.60
  -3   1   7   14.17    3.61
  -3   1   7   13.30    3.45
  -3   1   7   14.30    2.80
   2  -1  -7  605.03   48.13
   2  -1  -7  519.84   49.06
   2  -1  -7  573.17   47.13
   2  -1  -7  596.41   49.10
  -2   1   7  573.88   47.89
  -2   1   7  653.32   49.40
  -2   1   7  602.32   47.99
  -2   1   7  604.58   48.51
  -2   1   7  626.62   47.51
   1  -1  -7  444.01   36.26
   1  -1  -7  387.40   36.68
   1  -1  -7  410.97   37.21
   1  -1  -7  432.93   34.37
   1  -1  -7  445.81   35.35
   1  -1  -7  427.23   36.13
  -1   1   7  505.31   37.66
  -1   1   7  431.24   36.39
  -1   1   7  405.48   35.26
  -1   1   7  469.76   36.15
   0  -1  -7 1786.42  151.46
   0  -1  -7 2083.22  150.72
   0  -1  -7 1868.44  148.78
   0  -1  -7 2225.58  150.85
   0  -1  -7 1725.76  150.06
   0  -1  -7 1939.97  150.55
   0   1   7 1999.79  150.36
   0   1   7 1902.58  151.34
   0   1   7 1714.81  149.28
  -1  -1  -7  105.82   12.24
  -1  -1  -7   93.00   10.74
  -1  -1  -7  106.50   10.21
  -1  -1  -7   97.19   11.41
  -1  -1  -7   98.44    9.59
   1   1   7  114.09   12.03
   1   1   7  104.25   10.72
   1   1   7  100.43   11.09
   1   1   7   93.77    9.92
  -2  -1  -7  111.74   14.15
  -2  -1  -7  139.85   12.38
  -2  -1  -7  123.67   12.30
  -2  -1  -7  125.06   13.93
  -2  -1  -7  112.86   13.78
   2   1   7  135.71   14.29
   2   1   7  138.41   13.07
   2   1   7  142.23   15.05
   2   1   7  111.27   12.12
   3   1   7    7.99    3.30
  -4  -1  -7   13.58    4.23
  -4  -1  -7   10.79    5.73
  -4  -1  -7    9.37    4.97
  -4  -1  -7    4.48    3.34
   4   1   7   19.41    6.35
   4   1   7   12.69    4.12
   4   1   7   14.51    4.61
  -5  -1  -7    6.84    6.67
  -5  -1  -7   -4.07    3.97
  -5  -1  -7   -4.04    2.36
   5   1   7   -2.59    3.56
   5   1   7   -0.54    6.15
  -6  -1  -7   -4.80    3.40
  -6  -1  -7   -3.45    4.04
  -6  -1  -7   -7.85    7.58
  -6  -1  -7    0.53    3.66
  -6  -1  -7   -1.59    4.41
   6   1   7    3.33    8.29
  -9   2   7    2.79    3.09
  -9   2   7   -3.88    5.23
  -8   2   7   87.11    8.83
  -8   2   7  100.87    9.69
  -8   2   7  106.35   10.04
  -8   2   7  109.57   13.03
  -7   2   7   -1.92    3.26
  -7   2   7    5.95    1.81
  -7   2   7   -2.90    1.71
  -7   2   7   -3.23    2.16
  -6   2   7  130.49   10.95
  -6   2   7  117.26   11.54
  -6   2   7  129.77   13.24
   5  -2  -7  142.03   13.19
   5  -2  -7  163.90   15.38
  -5   2   7  148.37   13.49
  -5   2   7  155.38   13.33
  -5   2   7  149.44   12.95
  -5   2   7  157.87   12.51
  -5   2   7  152.27   13.95
  -5   2   7  155.44   14.46
   4  -2  -7  143.98   13.99
   4  -2  -7  145.00   13.42
  -4   2   7  158.63   14.19
  -4   2   7  162.52   13.38
  -4   2   7  166.32   14.05
  -4   2   7  152.95   13.84
  -4   2   7  161.82   14.40
   3  -2  -7  452.24   37.74
   3  -2  -7  443.84   38.09
   3  -2  -7  427.16   39.50
  -3   2   7  490.88   38.05
  -3   2   7  477.08   39.06
  -3   2   7  536.11   38.79
  -3   2   7  484.21   37.94
   2  -2  -7  140.00   11.87
   2  -2  -7  115.73   13.42
   2  -2  -7  125.73   11.79
   2  -2  -7  117.10   12.33
  -2   2   7  157.41   12.94
  -2   2   7  152.17   14.74
  -2   2   7  129.60   11.77
  -2   2   7  123.16   12.66
  -2   2   7  121.78   10.67
   1  -2  -7   27.54    5.47
   1  -2  -7   19.87    5.25
   1  -2  -7   21.31    3.15
   1  -2  -7   27.75    5.28
   1  -2  -7   24.66    5.15
   1  -2  -7   26.12    5.50
  -1   2   7   23.47    4.15
  -1   2   7   21.23    5.13
  -1   2   7   33.33    6.37
  -1   2   7   35.70    6.12
  -1   2   7   21.83    3.37
   0  -2  -7   46.17    5.38
   0  -2  -7   41.45    6.78
   0  -2  -7   48.82    7.68
   0  -2  -7   52.07    8.34
   0  -2  -7   59.91    9.67
   0   2   7   74.23   10.10
   0   2   7   43.38    5.26
   0   2   7   40.75    7.03
   0   2   7   41.55    6.34
  -1  -2  -7   87.85    8.26
  -1  -2  -7   67.75    9.61
  -1  -2  -7   56.84    9.57
   1   2   7   74.71    8.55
   1   2   7   73.37    7.75
  -2  -2  -7  141.12   13.40
  -2  -2  -7  136.51   13.58
  -2  -2  -7  161.02   15.96
  -2  -2  -7  158.22   16.10
  -2  -2  -7  110.32   14.67
   2   2   7  120.24   13.70
   2   2   7  115.19   12.76
   2   2   7  145.59   15.43
  -4  -2  -7    0.05    3.79
  -4  -2  -7   -0.52    2.94
  -4  -2  -7    1.89    5.07
  -4  -2  -7   -0.53    2.99
   4   2   7   -0.88    4.61
   4   2   7   -0.92    4.20
   4   2   7    2.35    3.68
  -5  -2  -7   17.92    5.71
  -5  -2  -7   27.84    8.24
  -5  -2  -7   31.76    7.36
  -5  -2  -7   23.94    7.89
  -5  -2  -7   38.28   11.42
   5   2   7   21.24    8.52
   5   2   7   29.01    6.32
   5   2   7   35.17    6.71
  -6  -2  -7   12.51    5.10
  -6  -2  -7   15.45    5.92
  -6  -2  -7   19.78    7.35
  -6  -2  -7   14.79    7.97
  -9   3   7    5.78    5.70
  -9   3   7    9.96    3.61
  -8   3   7    9.98    2.94
  -8   3   7    7.31    4.50
  -7   3   7   89.66    8.51
  -7   3   7   86.65    8.19
  -7   3   7   78.89    9.87
  -6   3   7   29.97    3.96
  -6   3   7   32.04    4.84
  -6   3   7   21.83    3.49
  -6   3   7   23.40    3.24
  -6   3   7   30.33    5.08
   5  -3  -7   82.44   11.09
  -5   3   7  114.91    9.83
  -5   3   7   95.35    9.95
  -5   3   7  120.30    9.74
  -5   3   7  109.06   10.27
  -5   3   7  113.18   10.71
  -5   3   7  104.10    9.52
   4  -3  -7   13.34    3.76
   4  -3  -7   10.69    4.00
  -4   3   7   13.47    2.11
  -4   3   7   10.55    3.46
  -4   3   7   15.81    3.09
  -4   3   7   23.38    4.23
  -4   3   7    8.39    3.04
   3  -3  -7   45.11    6.44
   3  -3  -7   70.95    6.16
   3  -3  -7   61.40    7.92
  -3   3   7   47.45    7.06
  -3   3   7   48.34    5.02
   2  -3  -7    6.22    2.21
   2  -3  -7    1.45    2.57
   2  -3  -7   -0.69    2.42
   2  -3  -7    4.91    3.12
   2  -3  -7    1.45    1.55
  -2   3   7    4.88    1.99
  -2   3   7    3.71    2.53
  -2   3   7    5.70    2.45
  -2   3   7   -1.02    2.38
   1  -3  -7  261.61   23.44
   1  -3  -7  249.33   23.39
   1  -3  -7  264.66   21.84
   1  -3  -7  247.91   22.38
   1  -3  -7  228.65   20.85
  -1   3   7  262.11   23.32
  -1   3   7  243.06   22.72
  -1   3   7  245.68   20.62
  -1   3   7  237.60   21.38
  -1   3   7  245.90   22.43
   0  -3  -7   16.58    3.78
   0  -3  -7   12.68    5.70
   0  -3  -7    7.49    3.95
   0  -3  -7   12.00    3.42
   0  -3  -7   16.39    5.47
   0   3   7    4.50    3.09
   0   3   7   12.95    5.20
   0   3   7   17.17    5.37
   0   3   7   10.99    2.88
   0   3   7    5.62    2.70
  -1  -3  -7    7.41    3.21
  -1  -3  -7    8.63    3.48
  -1  -3  -7    2.64    3.44
  -1  -3  -7    9.19    4.89
   1   3   7    1.39    2.78
   1   3   7   14.39    4.58
   1   3   7   10.36    4.53
   1   3   7   19.58    9.42
  -2  -3  -7    2.15    4.22
  -2  -3  -7    3.33    3.05
  -2  -3  -7    8.86    5.04
  -2  -3  -7    0.44    2.80
   2   3   7    9.04    4.20
   2   3   7   12.56    5.15
  -3  -3  -7  191.39   17.92
  -3  -3  -7  147.88   27.86
  -3  -3  -7  117.27   18.51
  -3  -3  -7  174.21   20.23
  -3  -3  -7  160.00   18.91
   3   3   7  172.60   17.36
   3   3   7  190.02   19.22
  -4  -3  -7    3.68    4.34
  -4  -3  -7    3.94    4.66
  -4  -3  -7    5.60    4.08
  -4  -3  -7    6.31    3.76
   4   3   7    1.61    4.01
   4   3   7    1.14    5.40
  -5  -3  -7   84.14   11.16
  -5  -3  -7   56.82   10.30
  -5  -3  -7   40.83   10.76
  -5  -3  -7   79.14   15.28
   5   3   7   67.04   13.47
   5   3   7   73.64   10.90
  -9   4   7   -2.49    2.35
  -9   4   7   -5.28    4.38
  -9   4   7   -0.83    2.73
  -8   4   7   61.90    7.34
  -8   4   7   68.83    7.05
  -8   4   7   72.59    8.97
  -8   4   7   75.63    7.60
  -7   4   7    8.84    3.89
  -7   4   7    9.99    2.62
  -7   4   7   18.31    3.43
  -7   4   7    9.83    3.10
  -7   4   7   10.89    2.93
  -6   4   7    4.24    2.76
  -6   4   7    7.01    2.64
  -6   4   7    6.54    2.40
  -6   4   7    4.68    2.37
  -6   4   7    7.82    2.71
   5  -4  -7  159.93   16.39
  -5   4   7  168.40   15.48
  -5   4   7  178.60   15.34
  -5   4   7  171.25   15.85
   4  -4  -7    9.14    3.73
   4  -4  -7   11.16    3.08
   4  -4  -7   14.36    3.45
   4  -4  -7   16.31    5.03
  -4   4   7   13.13    3.58
  -4   4   7   17.29    4.43
  -4   4   7   14.61    4.10
  -4   4   7   10.94    3.68
   3  -4  -7  172.12   13.60
   3  -4  -7  136.47   14.76
   3  -4  -7  149.77   13.44
   3  -4  -7  134.37   14.93
   3  -4  -7  125.72   13.50
  -3   4   7  130.36   12.14
  -3   4   7  140.95   13.36
  -3   4   7  140.53   14.25
  -3   4   7  140.38   13.94
  -3   4   7  126.62   13.98
   2  -4  -7   14.99    3.07
   2  -4  -7   19.78    4.25
   2  -4  -7   23.19    6.25
   2  -4  -7   15.45    4.81
   2  -4  -7   17.71    3.33
   2  -4  -7   20.78    5.74
  -2   4   7   12.09    3.61
  -2   4   7   16.67    4.85
  -2   4   7   14.31    5.03
  -2   4   7   20.65    5.30
  -2   4   7   14.25    3.09
   1  -4  -7  205.15   20.42
   1  -4  -7  208.94   19.78
   1  -4  -7  215.42   18.37
   1  -4  -7  172.96   18.19
   1  -4  -7  183.39   17.28
   1  -4  -7  178.36   17.31
  -1   4   7  198.47   18.73
  -1   4   7  202.47   19.39
  -1   4   7  187.57   16.85
  -1   4   7  179.19   17.37
  -1   4   7  191.42   19.37
   0  -4  -7   92.50    9.92
   0  -4  -7   84.41   10.29
   0  -4  -7   79.32   12.14
   0  -4  -7   90.77   10.31
   0  -4  -7   81.71   11.26
   0   4   7   83.05    9.26
   0   4   7   81.28   11.44
   0   4   7  108.18   12.75
   0   4   7   83.66   10.90
  -1  -4  -7  458.46   38.07
  -1  -4  -7  423.66   40.13
  -1  -4  -7  439.19   38.45
  -1  -4  -7  432.46   37.14
  -1  -4  -7  477.43   39.96
   1   4   7  466.06   38.46
   1   4   7  361.25   40.07
  -2  -4  -7   19.80    6.44
  -2  -4  -7   20.99    7.90
  -2  -4  -7   25.20    8.26
  -2  -4  -7   32.01    8.76
   2   4   7   23.77    6.72
   2   4   7   19.56    6.70
  -3  -4  -7   39.19    7.96
  -3  -4  -7   38.32    9.14
  -3  -4  -7   54.80    9.85
  -3  -4  -7   41.04   10.02
  -3  -4  -7   45.97   11.14
   3   4   7   59.32   12.02
  -4  -4  -7   17.10    6.04
  -4  -4  -7   10.94    8.12
  -4  -4  -7   19.44    7.87
  -4  -4  -7   19.24    6.08
   4   4   7    8.53    6.61
   4   4   7   14.31    8.81
  -9   5   7    8.36    3.71
  -9   5   7   11.91    4.63
  -9   5   7   15.97    3.93
  -8   5   7   19.07    4.06
  -8   5   7   20.14    4.52
  -7   5   7    4.61    2.80
  -7   5   7    1.47    3.99
  -7   5   7    9.86    3.11
  -7   5   7    7.88    3.46
  -7   5   7    7.94    3.44
   6  -5  -7   93.21   12.10
  -6   5   7  110.27   10.80
  -6   5   7   98.18   10.69
  -6   5   7  124.10   11.03
  -6   5   7   96.83   10.88
  -6   5   7  107.31   11.04
   5  -5  -7    3.30    3.74
  -5   5   7    6.69    3.01
  -5   5   7    1.59    2.89
  -5   5   7    2.73    2.68
  -5   5   7   14.44    5.30
  -5   5   7    6.53    3.28
   4  -5  -7    2.94    3.03
   4  -5  -7   -5.22    2.75
   4  -5  -7   -5.90    3.18
  -4   5   7    0.63    3.17
  -4   5   7    2.75    3.41
  -4   5   7    2.17    2.59
  -4   5   7    1.52    2.31
  -4   5   7    2.19    2.68
   3  -5  -7  139.76   16.78
   3  -5  -7  158.70   15.39
   3  -5  -7  147.81   14.96
  -3   5   7  129.28   14.92
  -3   5   7  161.53   16.18
  -3   5   7  154.70   15.59
  -3   5   7  151.75   13.67
  -3   5   7  153.68   16.28
   2  -5  -7   76.34   11.58
   2  -5  -7   71.94   11.58
   2  -5  -7   69.25    8.02
   2  -5  -7   79.31    9.92
   2  -5  -7   75.93   11.76
  -2   5   7   77.48    8.45
  -2   5   7   92.92   12.05
  -2   5   7   67.63    9.99
  -2   5   7   99.32   11.53
   1  -5  -7   66.25   12.94
   1  -5  -7  102.07   10.89
   1  -5  -7   74.15   11.35
   1  -5  -7   71.64   13.70
   1  -5  -7  108.24   10.59
  -1   5   7   66.62   11.17
  -1   5   7   86.99    9.54
   0  -5  -7    9.03    4.84
   0  -5  -7   14.23    6.86
   0  -5  -7    4.95    3.28
   0  -5  -7    7.35    3.69
   0  -5  -7    1.57    4.16
   0   5   7    2.36    3.47
   0   5   7    7.45    6.39
   0   5   7    6.91    4.79
  -1  -5  -7   42.47    9.28
  -1  -5  -7   81.13   16.33
  -1  -5  -7   49.45    9.50
   1   5   7   59.02   12.35
  -2  -5  -7    9.52    5.67
  -2  -5  -7   -1.66    4.09
  -2  -5  -7   12.37    7.22
  -2  -5  -7    2.25    6.36
  -2  -5  -7    3.54    3.46
   2   5   7    4.55    4.67
   2   5   7   17.68    7.10
  -3  -5  -7   62.53   11.33
  -3  -5  -7   70.75   17.62
  -3  -5  -7   54.34   11.82
  -3  -5  -7   99.52   13.33
   3   5   7   95.87   13.06
  -4  -5  -7    7.49    7.13
  -4  -5  -7   12.86    5.97
  -4  -5  -7   14.37    8.57
  -4  -5  -7   -0.30    7.74
   4   5   7    4.88    7.11
  -9   6   7   -3.76    3.12
  -9   6   7   -2.52    3.73
  -8   6   7   73.42    8.77
  -8   6   7   67.93    9.63
  -8   6   7   58.14    9.56
   7  -6  -7    7.27    6.25
  -7   6   7    5.52    4.57
  -7   6   7    8.35    3.74
  -7   6   7    9.66    3.88
  -7   6   7    0.56    3.24
   6  -6  -7   11.60    6.15
  -6   6   7   13.19    4.41
  -6   6   7   14.92    5.05
  -6   6   7   13.36    4.70
  -6   6   7    2.54    4.31
   5  -6  -7    7.76    6.72
   5  -6  -7   19.89    4.37
  -5   6   7   16.22    4.47
  -5   6   7   19.17    6.35
  -5   6   7   20.10    5.38
   4  -6  -7   51.58    9.07
   4  -6  -7   67.27   10.27
   4  -6  -7   52.64   10.69
   4  -6  -7   44.03    8.47
  -4   6   7   59.92    8.68
  -4   6   7   54.72    8.87
  -4   6   7   70.18   11.52
  -4   6   7   51.66    8.20
   3  -6  -7   50.33    9.58
   3  -6  -7   47.45    9.41
   3  -6  -7   38.69    5.15
   3  -6  -7   53.30   10.66
   3  -6  -7   36.64    7.84
  -3   6   7   78.70   12.97
  -3   6   7   58.84    9.89
  -3   6   7   53.96    6.72
  -3   6   7   43.71    8.73
   2  -6  -7   62.78   10.07
   2  -6  -7   53.04    9.35
   2  -6  -7   45.83    6.69
   2  -6  -7   47.14   10.96
  -2   6   7   83.29   13.00
  -2   6   7   42.75    9.70
  -2   6   7   54.56    9.70
   1  -6  -7  139.37   18.54
   1  -6  -7  151.56   15.64
   1  -6  -7  109.46   17.80
   1  -6  -7  148.98   15.14
  -1   6   7  174.76   19.41
  -1   6   7  142.19   17.62
  -1   6   7  141.68   16.84
   0  -6  -7  356.58   30.13
   0  -6  -7  346.82   30.66
   0  -6  -7  325.81   33.18
   0  -6  -7  287.00   30.14
   0   6   7  284.98   31.11
   0   6   7  310.86   30.05
  -1  -6  -7   51.64    9.76
  -1  -6  -7   51.75   10.12
  -1  -6  -7   58.58   13.15
   1   6   7   85.99   11.62
   1   6   7   44.71   10.64
  -2  -6  -7   24.97   13.11
  -2  -6  -7   11.67    5.85
  -2  -6  -7   19.22    7.22
  -2  -6  -7   49.90   10.87
  -2  -6  -7   31.64   10.84
   2   6   7   47.49   11.68
   2   6   7   40.52    8.93
  -3  -6  -7   12.16    5.36
  -3  -6  -7   -2.64    6.50
  -3  -6  -7    1.84   14.12
  -3  -6  -7   10.69    6.65
   3   6   7   27.36    8.49
   3   6   7   11.94    9.74
  -9   7   7   11.20    5.25
  -8   7   7    3.08    3.40
  -8   7   7    6.05    3.82
  -8   7   7    0.69    4.23
  -7   7   7   70.22   11.27
  -7   7   7   82.18   10.20
  -7   7   7   67.92   10.01
   6  -7  -7  -10.74    6.42
  -6   7   7    4.63    4.07
  -6   7   7    1.76    3.54
  -6   7   7  -11.09    4.75
   5  -7  -7   37.33    6.99
   5  -7  -7   24.32    6.31
  -5   7   7   31.16    7.57
  -5   7   7   32.89    8.26
  -5   7   7   27.39    7.16
   4  -7  -7  102.35   15.09
   4  -7  -7  132.71   17.74
   4  -7  -7   82.17   22.59
   4  -7  -7  129.56   14.56
  -4   7   7  146.01   16.55
  -4   7   7  133.99   15.85
   3  -7  -7    2.12    2.62
   3  -7  -7    6.28    4.91
   3  -7  -7    0.01    5.20
   3  -7  -7    2.59    5.72
  -3   7   7   14.25    7.75
  -3   7   7    5.70    4.26
  -3   7   7   -1.32    4.09
   2  -7  -7  105.19   17.69
   2  -7  -7  116.95   14.87
   2  -7  -7  152.43   16.71
   2  -7  -7  121.70   13.46
  -2   7   7  140.01   16.06
  -2   7   7  155.02   18.37
   1  -7  -7   13.75    6.41
   1  -7  -7   21.30    9.01
   1  -7  -7   21.24    6.94
   1  -7  -7   19.32    5.75
  -1   7   7   19.91    8.13
  -1   7   7   12.73    5.95
   0  -7  -7    5.28    4.01
   0  -7  -7    1.44    4.99
   0  -7  -7    6.82   12.41
   0  -7  -7    9.65    5.74
   0   7   7    1.81    4.71
   0   7   7   -2.62    4.52
  -1  -7  -7   55.66   11.50
  -1  -7  -7   73.14   13.78
  -1  -7  -7   60.56   15.25
  -1  -7  -7   63.45   11.85
   1   7   7   61.95   12.29
   1   7   7   65.01   13.95
  -2  -7  -7    4.98    6.80
  -2  -7  -7   -0.22    7.26
  -8   8   7    7.00    6.05
  -8   8   7    4.26    5.33
  -7   8   7   15.83    7.03
  -7   8   7   24.39    6.43
  -7   8   7   23.15    6.15
   6  -8  -7   69.59    8.84
   6  -8  -7  106.94   25.06
  -6   8   7   67.69   12.24
  -6   8   7   64.17   11.78
  -6   8   7   65.34   12.28
   5  -8  -7  107.86   15.07
   5  -8  -7   87.86   12.97
   5  -8  -7  102.31   17.99
  -5   8   7   99.52   16.46
  -5   8   7  113.00   14.06
  -5   8   7   93.20   13.83
   4  -8  -7    5.60   11.43
   4  -8  -7   30.78   11.25
   4  -8  -7   34.50    8.70
  -4   8   7   45.07    9.27
  -4   8   7   24.92   11.89
  -4   8   7   33.58    9.21
   3  -8  -7   81.79   14.25
   3  -8  -7   66.28   11.76
   3  -8  -7   55.27    7.82
   3  -8  -7   47.98   13.91
  -3   8   7    6.64   23.36
  -3   8   7   48.14   10.72
  -3   8   7   44.13   10.04
   2  -8  -7   16.03    6.71
   2  -8  -7   11.07    6.95
   2  -8  -7   13.00    7.99
  -2   8   7    6.96    6.36
  -2   8   7   13.46    6.67
   1  -8  -7   29.38    7.04
   1  -8  -7   19.89    9.11
   1  -8  -7   25.31    8.50
  -1   8   7   29.14   10.91
  -1   8   7   45.47    9.72
   0  -8  -7    6.74    8.68
   0  -8  -7   -4.73    6.49
   0  -8  -7    7.26    5.57
   0  -8  -7    5.55    9.11
   0   8   7   -1.46    7.28
  -7   9   7   49.32   10.41
  -7   9   7   71.62   11.64
   6  -9  -7    8.62    6.77
  -6   9   7   -3.47    7.95
  -6   9   7    3.72    5.20
   5  -9  -7   -1.67    6.34
   5  -9  -7  -19.95   10.78
  -5   9   7    5.70    6.06
  -5   9   7    4.47    6.01
   4  -9  -7    5.74    7.17
   4  -9  -7    8.91   12.57
   4  -9  -7    3.46    8.14
  -4   9   7   13.32    8.40
  -4   9   7   -2.86    6.40
   3  -9  -7  -10.16    6.98
   3  -9  -7  -15.42    9.06
   3  -9  -7    1.28    8.08
  -3   9   7    2.48    7.25
   2  -9  -7   -3.59    7.64
   2  -9  -7    4.26    5.66
   2  -9  -7   -1.68   23.36
   2  -9  -7    3.19    7.57
  -2   9   7   13.80    7.18
  -2   9   7   -4.40    7.54
  -2  10  -8   22.00   13.93
   2 -10   8    7.70   11.55
   2 -10   8    3.32   19.12
  -3  10  -8   13.13    7.78
  -3  10  -8    7.45    9.61
   3 -10   8   -3.49    7.71
  -4  10  -8  163.43   21.47
  -4  10  -8  169.88   27.81
   4 -10   8  164.42   21.52
   4 -10   8  194.69   22.78
   4 -10   8   98.15   25.61
   0   9  -8   69.42   16.55
   0   9  -8   82.97   14.93
   0  -9   8  110.50   24.56
   0  -9   8   70.75   17.21
   0  -9   8  117.36   19.77
   0  -9   8   91.58   23.39
  -1   9  -8   53.58   17.92
  -1   9  -8   85.55   14.50
   1  -9   8   44.80   12.85
   1  -9   8   62.42   13.89
   1  -9   8   97.76   22.07
  -2   9  -8   76.85   15.91
  -2   9  -8   69.85   13.09
   2  -9   8   72.37   15.05
   2  -9   8   45.07   12.30
   2  -9   8   36.10   16.70
  -3   9  -8  127.52   21.15
  -3   9  -8   99.31   14.62
   3  -9   8  106.09   17.71
   3  -9   8   54.88   16.81
   3  -9   8   72.16   14.70
  -4   9  -8    6.04    6.84
  -4   9  -8    5.34    6.13
   4  -9   8   -0.48   11.44
   4  -9   8   -2.29    5.23
   4  -9   8    1.40    6.91
  -5   9  -8   18.58    9.14
  -5   9  -8    7.64    7.02
   5  -9   8   25.24    7.88
   5  -9   8   16.71    8.51
  -6   9  -8   75.47   13.85
   6  -9   8   44.63   14.47
   2   8  -8   38.20   12.70
   2   8  -8   21.00    8.16
  -2  -8   8   -2.99    8.05
  -2  -8   8   18.41   17.97
  -2  -8   8   28.50    9.18
   1   8  -8  202.45   21.24
  -1  -8   8  203.01   32.59
  -1  -8   8  175.48   22.81
  -1  -8   8  153.80   22.14
  -1  -8   8  195.09   21.72
   0   8  -8   24.07    8.19
   0   8  -8   22.03   10.55
   0  -8   8   64.95   18.73
   0  -8   8   33.92   10.67
   0  -8   8   44.86   13.08
   0  -8   8   36.57    9.85
  -1   8  -8   91.44   14.61
  -1   8  -8  111.38   19.84
   1  -8   8   87.91   16.73
   1  -8   8   79.49   15.22
   1  -8   8   87.95   22.61
  -2   8  -8   72.47   12.02
  -2   8  -8   80.20   15.03
   2  -8   8   64.56   13.17
   2  -8   8   67.51   18.86
   2  -8   8   52.35   12.09
  -3   8  -8   54.80   10.81
  -3   8  -8   58.79   16.31
  -3   8  -8   44.21   11.50
   3  -8   8   24.90    8.41
  -4   8  -8  100.01   13.96
  -4   8  -8   94.25   15.90
  -4   8  -8  118.89   21.93
   4  -8   8  107.48   22.11
   4  -8   8   96.93   14.55
   4  -8   8   94.86   14.76
  -5   8  -8   42.33    9.38
  -5   8  -8   64.09   16.09
  -5   8  -8   63.42   13.00
   5  -8   8   18.91   12.06
   5  -8   8   33.50    9.05
  -6   8  -8   -5.18    4.88
  -6   8  -8   -1.18    5.03
   6  -8   8    1.16    5.61
   6  -8   8    4.53   11.32
  -7   8  -8    3.88    5.87
  -7   8  -8   -0.49    5.70
  -3  -7   8   51.42   12.02
  -3  -7   8   41.75   11.87
  -3  -7   8   47.08   21.08
  -3  -7   8   39.35   11.47
   2   7  -8  153.22   21.62
   2   7  -8  134.67   16.17
  -2  -7   8   79.28   18.32
  -2  -7   8  174.69   17.96
  -2  -7   8  101.82   16.49
  -2  -7   8  184.84   28.40
   1   7  -8   30.85   10.45
   1   7  -8   28.00    6.93
  -1  -7   8   15.09    7.43
  -1  -7   8   27.14    8.91
  -1  -7   8   51.03   14.33
  -1  -7   8   11.40    6.68
  -1  -7   8   21.92    9.39
   0   7  -8   37.38   11.08
   0   7  -8   32.82    8.54
   0  -7   8   14.65    8.41
   0  -7   8   33.33    8.62
   0  -7   8   39.79   10.33
   0  -7   8   62.84   13.67
   0  -7   8   69.15   17.45
  -1   7  -8  346.24   34.33
  -1   7  -8  338.60   31.67
   1  -7   8  377.11   38.39
   1  -7   8  323.52   32.83
   1  -7   8  329.46   33.49
  -2   7  -8    5.41    5.75
  -2   7  -8    0.32    4.30
  -2   7  -8    3.07    7.35
   2  -7   8    5.02    6.76
  -3   7  -8  147.57   16.10
  -3   7  -8  124.21   17.29
   3  -7   8  157.80   28.07
   3  -7   8  120.48   19.68
   3  -7   8  119.03   15.79
  -4   7  -8   77.59   11.24
  -4   7  -8   74.29   13.74
   4  -7   8   61.84   14.40
   4  -7   8   76.34   13.22
   4  -7   8   67.62   14.58
  -5   7  -8   -0.18    3.82
  -5   7  -8    0.92    4.22
   5  -7   8   -9.33    8.05
   5  -7   8   -2.92    4.11
  -6   7  -8  102.09   13.19
  -6   7  -8   76.24   13.07
   6  -7   8   68.93   16.04
   6  -7   8  100.06   11.98
  -7   7  -8    1.40    4.50
   4   6  -8    6.64    4.42
   4   6  -8  -12.89    7.61
  -4  -6   8   -1.51   12.49
  -4  -6   8   -0.42    4.92
  -4  -6   8    4.87    6.52
  -4  -6   8   -2.01    6.29
   3   6  -8   76.20   10.58
   3   6  -8   74.43   13.96
  -3  -6   8   86.13   13.08
  -3  -6   8  100.84   21.83
  -3  -6   8   62.70   13.30
  -3  -6   8   71.35   12.81
   2   6  -8  146.17   18.13
   2   6  -8  123.45   13.53
  -2  -6   8   97.37   14.41
  -2  -6   8  136.24   22.30
  -2  -6   8   91.51   16.20
  -2  -6   8  120.54   15.20
  -2  -6   8   81.43   14.09
   1   6  -8  256.35   27.17
   1   6  -8  265.77   23.98
  -1  -6   8  244.52   26.31
  -1  -6   8  248.28   23.95
  -1  -6   8  216.34   30.21
  -1  -6   8  251.32   26.33
   0   6  -8  210.76   23.64
   0   6  -8  227.82   26.14
   0  -6   8  308.97   31.30
   0  -6   8  259.00   25.72
   0  -6   8  258.26   24.65
   0  -6   8  295.09   27.13
  -1   6  -8   92.94   14.26
   1  -6   8  106.62   17.22
   1  -6   8  128.46   17.12
   1  -6   8   66.61   13.30
  -2   6  -8   27.35    7.11
  -2   6  -8   38.23    8.28
  -2   6  -8   33.84   12.12
   2  -6   8   31.39    7.45
   2  -6   8   22.19    8.87
   2  -6   8   68.20   16.81
   2  -6   8   33.53    8.37
  -3   6  -8   66.81   15.46
  -3   6  -8   60.01   10.92
  -3   6  -8   65.61    9.27
   3  -6   8   55.62   10.73
   3  -6   8   32.49   11.10
   3  -6   8   49.04   10.61
  -4   6  -8    4.69    4.42
  -4   6  -8   -7.81    8.67
  -4   6  -8   20.22    5.39
   4  -6   8   17.60    6.75
   4  -6   8   11.13    5.19
   4  -6   8   20.95    7.90
  -5   6  -8    5.89    4.18
  -5   6  -8   -0.14    9.28
   5  -6   8    6.06    4.70
   5  -6   8    9.77    7.79
   5  -6   8   14.50    5.34
  -6   6  -8    4.46    4.10
  -6   6  -8    2.38    4.04
  -6   6  -8   11.82   10.47
   6  -6   8   -2.85    5.20
  -7   6  -8   13.50    5.60
  -7   6  -8    5.42   11.80
  -7   6  -8   15.11    5.48
   7  -6   8    0.29    9.06
  -5  -5   8    4.07   11.55
  -5  -5   8    4.56    6.34
  -5  -5   8    1.14    5.54
  -5  -5   8    6.32    6.91
   4   5  -8  153.28   22.14
   4   5  -8  168.41   17.25
  -4  -5   8  197.94   24.87
  -4  -5   8  165.74   19.53
  -4  -5   8  180.01   20.32
  -4  -5   8  205.16   24.46
  -4  -5   8  173.41   21.91
   3   5  -8   -0.81    5.47
   3   5  -8   11.73    5.68
   3   5  -8    7.77    3.91
  -3  -5   8    9.97    6.14
  -3  -5   8   13.92    7.71
  -3  -5   8   11.85    4.57
  -3  -5   8    4.64    4.90
  -3  -5   8   -1.79    5.61
   2   5  -8   89.98   14.34
   2   5  -8   85.67   10.49
   2   5  -8   69.68   10.44
  -2  -5   8   79.02   14.25
  -2  -5   8   80.31   16.88
  -2  -5   8   96.43   11.61
  -2  -5   8   87.69   14.44
   1   5  -8   41.63   10.59
   1   5  -8   50.36    8.31
   1   5  -8   71.46    9.06
  -1  -5   8   54.82   10.80
  -1  -5   8   52.22    9.49
  -1  -5   8   40.01    9.63
   0   5  -8   10.29    4.88
   0   5  -8    7.47    3.97
   0   5  -8    5.63    3.98
   0  -5   8    6.97    5.07
   0  -5   8   10.24    6.49
   0  -5   8    0.93    3.84
   0  -5   8   11.72    5.54
  -1   5  -8  209.53   24.64
  -1   5  -8  195.12   20.30
  -1   5  -8  172.23   18.43
  -1   5  -8  199.64   18.82
   1  -5   8  206.89   23.10
   1  -5   8  168.54   19.77
   1  -5   8  169.53   19.46
   1  -5   8  208.09   21.54
  -2   5  -8  260.77   25.63
   2  -5   8  268.45   27.19
  -4   5  -8   53.92    9.55
  -4   5  -8   46.56    9.16
  -4   5  -8   38.30   11.18
   4  -5   8   37.73   10.43
   4  -5   8   42.39    8.03
   4  -5   8   63.87    8.97
  -5   5  -8   18.96    8.69
  -5   5  -8   30.86    6.78
  -5   5  -8   34.48    7.61
   5  -5   8   34.42    7.02
   5  -5   8   32.11    9.11
   5  -5   8   22.80    6.22
  -6   5  -8   -7.51    7.21
  -6   5  -8   12.73    4.84
   6  -5   8   13.26    4.02
   6  -5   8    5.81    3.94
  -7   5  -8    0.90    3.70
  -7   5  -8    4.29    4.27
  -7   5  -8   -4.75    3.66
   7  -5   8   -6.71    7.91
  -8   5  -8    6.11    5.91
  -8   5  -8    4.45    5.29
  -8   5  -8   11.02    5.39
  -6  -4   8  100.15   17.76
  -6  -4   8  140.48   31.35
  -6  -4   8   74.86   12.89
  -6  -4   8   88.68   12.60
   5   4  -8   16.04    6.59
  -5  -4   8    5.35    5.90
  -5  -4   8    4.33    4.64
  -5  -4   8   26.01    9.77
  -5  -4   8    9.75    6.46
  -5  -4   8    6.97    5.44
   4   4  -8   23.53    3.81
   4   4  -8   14.05    6.51
  -4  -4   8   16.28    5.12
  -4  -4   8    6.45    5.43
  -4  -4   8   41.84   11.49
  -4  -4   8   16.98    6.63
  -4  -4   8   10.29    5.36
   3   4  -8   18.07    6.38
   3   4  -8   30.27    5.61
   3   4  -8   24.62    4.99
  -3  -4   8   26.91    8.05
  -3  -4   8   31.34    9.79
  -3  -4   8   18.42    6.38
  -3  -4   8   16.95    5.06
  -3  -4   8   13.63    5.85
  -2  -4   8  170.19   18.90
   1   4  -8   93.65   10.24
   1   4  -8   68.89   11.20
   1   4  -8  120.79   20.52
   1   4  -8   88.40   12.14
   1   4  -8   92.49   10.25
  -1  -4   8   90.07   13.54
  -1  -4   8   92.97   10.23
  -1  -4   8   94.34   14.43
  -1  -4   8   72.92   11.09
  -1  -4   8   78.29   11.15
  -1  -4   8   78.28   10.80
   0   4  -8   56.43    9.63
   0   4  -8   30.72    7.15
   0   4  -8   33.28    6.46
   0   4  -8   53.13   12.88
   0   4  -8   49.67    9.87
   0   4  -8   34.87    6.53
   0  -4   8   38.08    8.01
   0  -4   8   38.03    8.17
   0  -4   8   31.16    7.50
   0  -4   8   25.42    6.81
   0  -4   8   56.55   12.48
  -1   4  -8   34.53    7.86
  -1   4  -8   25.99    7.03
  -1   4  -8   35.39    7.00
  -1   4  -8   11.56    7.51
  -1   4  -8   25.56    6.12
   1  -4   8   14.57    4.92
   1  -4   8   24.32    6.52
   1  -4   8   18.17    6.59
   1  -4   8   33.51    7.48
   1  -4   8   23.48    6.79
  -2   4  -8  113.80   13.59
  -2   4  -8  105.11   13.30
  -2   4  -8  104.42   11.81
   2  -4   8  102.36   14.71
   2  -4   8  112.32   13.32
   2  -4   8  107.62   12.19
  -3   4  -8   -1.11    2.16
  -3   4  -8    0.71    2.80
   3  -4   8    0.92    4.30
   3  -4   8   -1.96    4.86
   3  -4   8   -0.39    2.97
   3  -4   8    3.69    3.81
   3  -4   8   -0.28    3.29
  -4   4  -8   19.47    5.56
  -4   4  -8   16.44    4.73
  -4   4  -8    1.17    6.32
   4  -4   8   17.06    7.17
   4  -4   8   22.58    5.73
   4  -4   8   13.70    4.75
  -5   4  -8   39.56    7.65
  -5   4  -8   36.61   11.96
   5  -4   8   47.41   10.65
   5  -4   8   52.23    7.30
   5  -4   8   27.70    6.32
  -6   4  -8    0.79    3.82
  -6   4  -8    5.75    7.24
  -6   4  -8    9.58    4.47
  -6   4  -8   -0.52    3.44
   6  -4   8    8.95    6.46
   6  -4   8    6.56    2.99
  -7   4  -8   46.00   12.79
  -7   4  -8   67.27    9.37
  -7   4  -8   55.23    9.57
  -7   4  -8   74.97   11.25
   7  -4   8   62.78   12.38
  -8   4  -8    5.00    5.96
  -8   4  -8   18.55    5.46
  -8   4  -8    5.72    4.36
  -7  -3   8   14.36   11.91
  -7  -3   8    4.06    6.89
  -7  -3   8   22.64    5.49
  -7  -3   8   16.90    5.85
   6   3  -8    0.90    5.24
  -6  -3   8    3.15    5.45
  -6  -3   8    1.77    7.18
  -6  -3   8    3.09    4.13
  -6  -3   8    0.95    3.71
  -6  -3   8   11.42    5.19
   5   3  -8   23.13    5.96
   5   3  -8   32.73    5.66
  -5  -3   8   34.19    7.62
  -5  -3   8   41.13    9.64
  -5  -3   8   21.74    5.57
  -5  -3   8   34.10   10.70
  -5  -3   8   33.77    7.37
   4   3  -8   20.48    4.31
   4   3  -8   27.68    3.60
   4   3  -8   31.00    7.09
  -4  -3   8   24.09    5.27
  -4  -3   8   29.53    7.62
  -4  -3   8   27.05    6.76
  -4  -3   8   23.36    5.91
  -4  -3   8   30.17    7.41
  -4  -3   8   33.37   10.11
   3   3  -8  302.04   21.46
   3   3  -8  227.24   23.40
   3   3  -8  212.69   21.10
  -3  -3   8  192.62   23.84
  -3  -3   8  251.20   23.46
  -3  -3   8  317.10   24.37
   2   3  -8   89.39   11.48
  -2  -3   8  101.55   11.91
  -2  -3   8   72.01   10.37
   1   3  -8  200.14   19.51
   1   3  -8  202.86   18.49
   1   3  -8  225.93   19.09
  -1  -3   8  215.27   20.62
  -1  -3   8  204.22   20.84
  -1  -3   8  210.46   20.30
   0   3  -8  268.08   26.06
   0   3  -8  326.62   27.64
   0   3  -8  283.92   26.21
   0   3  -8  276.40   25.16
   0   3  -8  295.90   24.94
   0   3  -8  317.68   29.25
   0  -3   8  312.23   26.65
   0  -3   8  240.11   25.32
   0  -3   8  341.63   27.90
   0  -3   8  262.60   26.61
  -1   3  -8   19.32    6.89
  -1   3  -8   20.54    5.10
  -1   3  -8   18.76    4.68
  -1   3  -8   24.65    6.37
  -1   3  -8   20.91    5.94
  -1   3  -8   13.40    5.07
   1  -3   8   13.67    4.63
   1  -3   8   13.38    5.41
   1  -3   8   26.34    6.66
   1  -3   8    6.85    3.70
   1  -3   8   30.88    7.39
  -2   3  -8    7.41    4.77
   2  -3   8    7.13    3.48
   2  -3   8   12.78    5.04
  -3   3  -8   28.84    7.68
  -3   3  -8   42.82    6.14
  -3   3  -8   59.39    8.11
  -3   3  -8   41.08    8.63
  -3   3  -8   38.32   10.12
   3  -3   8   42.74    8.22
   3  -3   8   34.13    6.68
  -4   3  -8   38.20   10.75
  -4   3  -8   25.07    5.89
  -4   3  -8   44.13    7.49
   4  -3   8   33.62    6.24
   4  -3   8   46.42    9.98
   4  -3   8   26.40    5.91
  -5   3  -8  115.26   11.70
  -5   3  -8  102.32   18.78
   5  -3   8   82.58   10.37
  -6   3  -8   -5.06    3.20
  -6   3  -8    1.54    3.53
  -6   3  -8   13.13    8.69
  -6   3  -8   -2.39    3.28
   6  -3   8   -0.71    2.45
   6  -3   8   -7.11    5.28
  -7   3  -8   37.88    7.58
  -7   3  -8   26.68   11.22
  -7   3  -8   34.43    7.35
  -7   3  -8   28.50    8.06
   7  -3   8   34.96   10.41
  -7  -2   8   -2.35    5.56
  -7  -2   8   -1.54    4.82
  -7  -2   8   -0.01    3.64
  -7  -2   8    4.70    3.42
  -7  -2   8    9.35    5.51
   6   2  -8   18.28    4.93
   6   2  -8   27.03    5.52
  -6  -2   8   24.98    6.07
  -6  -2   8   14.24    4.40
  -6  -2   8   25.40    6.20
  -6  -2   8   18.24    6.73
  -6  -2   8   17.59    4.71
  -6  -2   8   29.48    8.78
   5   2  -8   65.24    7.71
   5   2  -8   98.96   12.60
  -5  -2   8  107.37   21.06
  -5  -2   8   67.26   11.59
  -5  -2   8   76.91    8.60
  -5  -2   8   61.30   11.66
  -5  -2   8   77.06    9.74
  -5  -2   8   60.67    9.45
   4   2  -8    5.70    4.21
   4   2  -8    5.20    2.44
  -4  -2   8    9.89    3.65
  -4  -2   8    5.06    3.50
  -4  -2   8   16.31    5.55
  -4  -2   8    3.79    4.93
  -4  -2   8    4.37    4.06
  -4  -2   8    8.92    3.22
   3   2  -8   69.16    9.70
   3   2  -8   80.00   13.84
  -3  -2   8   65.41    9.90
  -3  -2   8   67.01    9.16
  -3  -2   8   63.16    8.42
  -3  -2   8   93.42   10.12
   2   2  -8    1.56    2.61
   2   2  -8    1.17    1.70
   2   2  -8    0.51    2.51
   2   2  -8    2.99    4.75
   2   2  -8    1.60    2.66
  -2  -2   8    1.21    2.14
  -2  -2   8    1.07    3.32
  -2  -2   8    1.06    2.84
  -2  -2   8    3.37    2.77
  -2  -2   8    3.19    3.03
  -2  -2   8    5.07    3.19
   1   2  -8    8.02    3.12
   1   2  -8   13.27    4.40
   1   2  -8    8.87    5.44
   1   2  -8    7.26    3.86
   1   2  -8    8.29    3.70
  -1  -2   8   11.02    3.72
  -1  -2   8   11.78    4.67
  -1  -2   8   14.94    4.95
  -1  -2   8    8.10    3.55
  -1  -2   8   13.49    5.51
   0   2  -8  219.17   22.08
   0   2  -8  268.14   23.45
   0   2  -8  243.22   21.20
   0   2  -8  260.93   25.36
   0   2  -8  280.82   23.06
   0   2  -8  228.69   21.49
   0  -2   8  270.74   23.03
   0  -2   8  266.27   23.52
   0  -2   8  208.91   21.65
   0  -2   8  242.92   23.07
   0  -2   8  264.93   25.05
  -1   2  -8   -0.67    2.59
  -1   2  -8    7.46    4.34
  -1   2  -8    3.71    3.20
  -1   2  -8    4.04    2.87
  -1   2  -8    1.59    1.96
   1  -2   8    2.59    3.13
   1  -2   8    2.22    2.62
   1  -2   8    2.57    3.22
   1  -2   8   -0.29    2.06
   1  -2   8    2.24    2.95
  -2   2  -8  116.47   12.06
  -2   2  -8  137.53   12.91
   2  -2   8  108.47   13.58
   2  -2   8  103.19   12.17
   2  -2   8  134.81   13.12
   2  -2   8  120.12   14.64
  -3   2  -8  136.15   12.44
  -3   2  -8  100.60   13.54
  -3   2  -8  102.20   15.01
  -3   2  -8  116.96   13.19
  -3   2  -8  135.42   13.25
   3  -2   8  113.13   14.30
   3  -2   8  118.24   14.79
   3  -2   8  125.01   12.75
   3  -2   8  115.72   12.36
  -4   2  -8   -1.72    4.76
  -4   2  -8    1.16    2.95
  -4   2  -8    3.61    2.52
  -4   2  -8    1.87    2.60
   4  -2   8    4.50    3.01
   4  -2   8    0.96    3.88
   4  -2   8    6.00    3.32
  -5   2  -8   45.18    7.48
  -5   2  -8   44.73    8.14
  -5   2  -8   30.39   10.09
  -5   2  -8   49.07    9.36
   5  -2   8   34.57    5.87
   5  -2   8   37.96    9.07
  -6   2  -8   17.86    8.67
  -6   2  -8   20.99    6.02
  -6   2  -8   16.39    5.76
  -6   2  -8    7.00    3.97
   6  -2   8   26.98    7.39
  -7   2  -8   -7.84    5.46
  -7   2  -8   -0.64    3.64
  -7   2  -8   -6.48    3.33
  -7   2  -8  -18.09    8.68
  -8  -1   8   49.50    8.91
  -8  -1   8   51.30   11.71
  -8  -1   8   45.63    7.76
  -7  -1   8   12.30    6.34
  -7  -1   8   19.20    4.59
  -7  -1   8   23.42    5.02
  -7  -1   8   30.40    8.49
  -6  -1   8   53.52    6.44
  -6  -1   8   49.42    6.70
  -6  -1   8   40.02    7.38
  -6  -1   8   45.58    7.55
  -6  -1   8   47.61   10.06
   5   1  -8   12.06    3.61
   5   1  -8    2.68    2.06
  -5  -1   8    5.72    4.08
  -5  -1   8    3.17    3.51
  -5  -1   8    5.32    2.38
  -5  -1   8   11.20    3.36
  -5  -1   8   10.87    4.56
   4   1  -8    0.95    2.18
   4   1  -8    1.11    3.07
  -4  -1   8    4.81    2.83
  -4  -1   8    0.73    2.79
  -4  -1   8    1.45    2.64
  -4  -1   8    0.59    2.40
  -4  -1   8   -1.46    3.41
  -4  -1   8   -1.17    1.66
   3   1  -8   87.33    7.62
   3   1  -8   68.72    9.25
   3   1  -8   60.73   10.02
  -3  -1   8   66.33    8.95
  -3  -1   8   84.72    8.25
  -3  -1   8   63.13    9.19
  -3  -1   8   75.65    9.41
   2   1  -8   61.79   10.10
   2   1  -8   68.16    8.18
  -2  -1   8   53.45    9.58
  -2  -1   8   32.44    9.70
  -2  -1   8   53.87    6.62
   0   1  -8  855.41   64.39
   0   1  -8  736.45   62.94
   0   1  -8  800.92   65.74
   0   1  -8  806.12   63.57
   0  -1   8  866.57   64.43
   0  -1   8  718.62   64.79
   0  -1   8  693.58   62.50
   0  -1   8  761.20   64.50
   0  -1   8  809.53   63.88
  -1   1  -8  176.88   16.94
  -1   1  -8  191.75   16.14
  -1   1  -8  141.29   16.66
  -1   1  -8  181.72   16.70
  -1   1  -8  156.68   18.36
   1  -1   8  180.51   16.25
   1  -1   8  178.69   17.08
   1  -1   8  199.94   18.80
   1  -1   8  166.13   17.03
  -2   1  -8  215.13   19.46
  -2   1  -8  230.37   20.09
  -2   1  -8  258.97   21.18
  -2   1  -8  170.66   23.21
   2  -1   8  214.67   20.59
   2  -1   8  241.44   22.80
   2  -1   8  188.12   19.85
   2  -1   8  281.26   22.02
  -3   1  -8   31.22    5.82
  -3   1  -8   20.82    6.13
  -3   1  -8   43.26    5.72
  -3   1  -8   65.14   10.28
  -3   1  -8   40.66   10.09
   3  -1   8   29.08    5.97
   3  -1   8   45.66    8.72
   3  -1   8   45.26    6.39
  -4   1  -8  153.75   15.90
  -4   1  -8  115.48   17.69
  -4   1  -8  170.06   15.09
  -4   1  -8  166.46   15.01
   4  -1   8  127.90   14.56
   4  -1   8  152.92   14.84
   4  -1   8  171.76   17.42
  -5   1  -8   65.02   13.67
  -5   1  -8   45.06    7.04
  -5   1  -8   58.73    9.28
   5  -1   8   46.64    7.30
   5  -1   8   89.97   13.98
  -6   1  -8   98.98   18.39
  -6   1  -8  129.95   13.61
  -6   1  -8  127.39   13.91
  -6   1  -8  121.69   15.42
   6  -1   8  138.67   17.34
  -7   1  -8   25.60   10.48
  -7   1  -8   37.62    6.93
  -7   1  -8   28.42    8.97
  -8   0   8    5.34    5.88
  -8   0   8    5.69    4.60
  -8   0   8   -1.62    3.18
  -7   0   8    0.74    3.32
  -7   0   8   -0.69    3.48
  -7   0   8    4.48    2.62
  -7   0   8   -4.30    4.07
  -6   0   8   28.86    4.86
  -6   0   8   34.94    5.66
  -6   0   8   24.00    4.03
  -6   0   8   26.95    5.19
  -6   0   8   24.10    6.41
   5   0  -8   20.90    3.75
   5   0  -8   10.85    4.47
  -5   0   8   23.60    4.72
  -5   0   8   27.01    5.65
  -5   0   8   13.07    2.61
  -5   0   8   12.92    4.94
  -5   0   8   18.71    3.57
  -5   0   8   12.99    4.01
   4   0  -8   -0.14    3.58
   4   0  -8    3.85    2.41
   4   0  -8   -3.08    2.16
  -4   0   8   -0.73    2.35
  -4   0   8   -0.96    2.34
  -4   0   8   -0.81    2.22
  -4   0   8   -0.27    1.10
  -4   0   8    3.60    2.02
   3   0  -8    8.17    4.56
   3   0  -8    4.36    2.66
   3   0  -8    5.71    1.68
   3   0  -8    4.23    2.06
   3   0  -8    1.55    2.38
  -3   0   8    1.94    1.91
  -3   0   8   -0.44    2.61
  -3   0   8    4.94    3.03
  -3   0   8    2.35    2.48
  -3   0   8    5.34    3.07
   2   0  -8  247.34   22.36
   2   0  -8  267.47   23.16
   2   0  -8  309.85   21.68
   2   0  -8  217.06   23.83
  -2   0   8  269.22   22.05
  -2   0   8  253.12   23.08
  -2   0   8  234.71   22.54
   1   0  -8   75.97    9.69
   1   0  -8  107.61    9.31
   1   0  -8  103.07    7.94
   1   0  -8   78.19    9.64
   1   0  -8   79.46   10.99
  -1   0   8  120.02   12.17
  -1   0   8   97.30   10.05
  -1   0   8   82.91   10.62
  -1   0   8   79.99    9.65
  -1   0   8   78.79    8.89
   0   0  -8  655.76   47.96
   0   0  -8  565.98   46.34
   0   0  -8  604.88   47.37
   0   0  -8  534.55   45.18
   0   0  -8  558.35   46.91
   0   0  -8  568.41   48.90
   0   0   8  566.99   47.05
   0   0   8  523.54   46.19
   0   0   8  529.70   48.28
   0   0   8  618.49   47.85
  -1   0  -8   80.11    9.66
  -1   0  -8   64.99   10.37
  -1   0  -8   92.08    8.00
  -1   0  -8   69.36    9.23
   1   0   8   70.72    8.34
  -2   0  -8   79.84    8.00
  -2   0  -8   70.18    8.11
  -2   0  -8   66.54    9.47
  -2   0  -8   59.15    9.10
  -2   0  -8   66.93    9.17
   2   0   8   70.61    8.68
   2   0   8   84.44   10.54
   2   0   8   73.13   10.57
   2   0   8   67.21    8.54
  -3   0  -8  469.07   48.45
  -3   0  -8  548.02   46.16
  -3   0  -8  568.75   46.16
  -3   0  -8  633.61   47.93
   3   0   8  540.29   46.46
   3   0   8  557.75   46.60
   3   0   8  613.05   48.70
  -4   0  -8   19.40    5.05
  -4   0  -8   19.89    7.58
  -4   0  -8   22.53    6.92
  -4   0  -8   23.99    5.61
   4   0   8   41.07    8.32
   4   0   8   25.43    5.42
   4   0   8   36.14    6.66
  -5   0  -8  135.90   16.14
  -5   0  -8  137.75   14.26
  -5   0  -8  125.24   14.05
  -5   0  -8  123.27   18.06
   5   0   8  118.39   13.23
   5   0   8  160.19   14.13
  -6   0  -8   -3.95    3.36
  -6   0  -8    4.15    3.88
  -6   0  -8    4.51    5.52
  -6   0  -8   10.52    9.06
   6   0   8   -7.02    7.30
  -7   0  -8   -4.67    3.94
  -7   0  -8   -0.17    6.58
  -7   0  -8   -5.58    4.40
  -9   1   8    1.18    3.85
  -9   1   8    0.54    6.00
  -8   1   8   49.31   10.43
  -8   1   8   63.14    8.42
  -8   1   8   66.83    7.51
  -8   1   8   61.29    7.99
  -7   1   8    2.41    4.19
  -7   1   8    3.37    2.82
  -7   1   8    4.23    3.13
  -7   1   8    3.91    2.33
  -6   1   8   -4.35    2.48
  -6   1   8   -2.72    2.86
  -6   1   8    3.32    2.14
  -6   1   8    0.14    1.45
   5  -1  -8   45.75    6.44
   5  -1  -8   48.61    7.55
   5  -1  -8   37.23    5.43
  -5   1   8   40.15    6.60
  -5   1   8   45.73    5.25
  -5   1   8   46.18    6.98
  -5   1   8   41.55    4.17
  -5   1   8   51.91    6.01
  -5   1   8   45.85    6.12
   4  -1  -8  339.14   28.13
   4  -1  -8  334.11   27.55
   4  -1  -8  268.75   28.70
  -4   1   8  378.62   28.78
  -4   1   8  342.08   28.69
  -4   1   8  338.10   27.11
  -4   1   8  342.27   28.24
  -4   1   8  304.69   27.78
   3  -1  -8   93.62    9.35
   3  -1  -8   84.33    9.86
   3  -1  -8   77.94    8.55
   3  -1  -8   96.13    8.11
   3  -1  -8   74.35   10.57
  -3   1   8   94.71    9.64
  -3   1   8   99.01   10.41
  -3   1   8   84.35    9.54
  -3   1   8   78.22    9.11
  -3   1   8   97.66    8.68
   2  -1  -8  247.49   21.14
   2  -1  -8  202.75   21.92
   2  -1  -8  221.39   21.57
   2  -1  -8  226.84   20.67
   2  -1  -8  239.80   19.87
  -2   1   8  263.36   21.79
  -2   1   8  241.79   20.10
  -2   1   8  230.74   20.77
  -2   1   8  250.58   22.13
  -2   1   8  237.85   20.71
   1  -1  -8  372.77   31.82
   1  -1  -8  380.59   31.92
   1  -1  -8  330.69   32.81
   1  -1  -8  353.57   31.38
   1  -1  -8  376.52   29.77
   1  -1  -8  339.96   31.55
  -1   1   8  386.80   31.00
  -1   1   8  393.45   32.39
  -1   1   8  423.28   33.62
  -1   1   8  384.32   31.69
   0  -1  -8   41.48    7.99
   0  -1  -8   50.31    6.56
   0  -1  -8   33.43    4.48
   0  -1  -8   67.19    9.89
   0  -1  -8   43.69    6.41
   0  -1  -8   35.09    5.08
   0   1   8   38.59    6.91
   0   1   8   35.33    7.16
   0   1   8   37.74    5.34
   0   1   8   47.15    7.33
  -1  -1  -8  424.51   33.58
  -1  -1  -8  356.10   34.24
  -1  -1  -8  341.01   35.32
  -1  -1  -8  440.83   33.29
   1   1   8  379.62   33.39
   1   1   8  457.90   35.91
   1   1   8  399.28   34.22
  -2  -1  -8   96.07    9.81
  -2  -1  -8   85.90   10.95
  -2  -1  -8   78.38    9.06
  -2  -1  -8   84.61   12.10
   2   1   8   75.95    9.92
   2   1   8   98.81   10.58
  -3  -1  -8   -1.98    3.50
  -3  -1  -8   -1.74    3.85
  -3  -1  -8    3.39    2.62
  -3  -1  -8   -1.14    2.22
   3   1   8   -3.11    3.46
   3   1   8   -2.03    2.81
   3   1   8   -0.02    3.68
  -4  -1  -8   32.12    9.35
  -4  -1  -8   51.19    8.41
  -4  -1  -8   55.23   11.11
  -4  -1  -8   49.20    8.66
   4   1   8   36.23    7.30
   4   1   8   64.52   10.63
   4   1   8   47.36    8.13
  -5  -1  -8   90.97   13.97
  -5  -1  -8  101.53   11.94
  -5  -1  -8  105.51   12.19
  -5  -1  -8   83.34   15.90
   5   1   8  117.61   15.88
   5   1   8  102.45   11.77
   5   1   8  103.47   11.78
  -6  -1  -8   25.08    6.24
  -6  -1  -8    1.34    8.99
  -6  -1  -8   21.27    8.33
  -9   2   8   -3.04    2.92
  -9   2   8    1.73    6.61
  -8   2   8   19.96    3.76
  -8   2   8   20.30    6.03
  -8   2   8   18.22    4.19
  -8   2   8   17.08    3.65
  -7   2   8   39.78    5.28
  -7   2   8   45.71    8.13
  -7   2   8   40.80    4.85
  -6   2   8  103.67   11.74
  -6   2   8  114.24    9.33
  -6   2   8  102.54   10.83
   5  -2  -8   41.75    5.91
   5  -2  -8   46.98    7.70
  -5   2   8   58.03    6.60
  -5   2   8   50.53    5.81
  -5   2   8   40.84    6.15
  -5   2   8   47.37    6.32
   4  -2  -8   30.87    5.71
   4  -2  -8   40.42    7.45
   4  -2  -8   25.09    3.90
  -4   2   8   26.99    3.98
  -4   2   8   35.85    5.95
  -4   2   8   31.77    5.85
  -4   2   8   28.14    4.39
  -4   2   8   37.92    5.62
   3  -2  -8   12.61    3.07
   3  -2  -8    2.51    6.52
   3  -2  -8   19.43    3.28
  -3   2   8   21.05    4.56
  -3   2   8   13.04    2.99
  -3   2   8   13.71    4.15
  -3   2   8   20.20    3.72
  -3   2   8   17.22    3.97
   2  -2  -8  637.53   52.99
   2  -2  -8  600.84   54.78
   2  -2  -8  581.58   53.27
  -2   2   8  634.07   51.45
  -2   2   8  693.59   54.20
  -2   2   8  729.77   54.81
  -2   2   8  626.27   52.70
  -2   2   8  777.34   53.95
   1  -2  -8   69.50    9.25
   1  -2  -8   49.14    5.53
   0  -2  -8  390.64   33.58
   0  -2  -8  392.79   32.77
   0  -2  -8  406.94   35.30
   0  -2  -8  460.37   34.67
   0  -2  -8  388.10   35.77
   0   2   8  382.04   34.39
   0   2   8  404.60   34.40
   0   2   8  407.87   32.72
   0   2   8  377.38   35.23
  -1  -2  -8  268.01   23.18
  -1  -2  -8  247.92   25.64
  -1  -2  -8  262.35   25.69
  -1  -2  -8  255.40   23.63
  -1  -2  -8  251.60   24.70
   1   2   8  281.53   23.41
   1   2   8  304.29   26.10
   1   2   8  277.83   24.78
   1   2   8  271.68   24.48
   1   2   8  263.53   23.41
  -2  -2  -8    5.72    3.29
  -2  -2  -8   15.82    4.54
  -2  -2  -8    2.08    2.59
   2   2   8    8.74    3.89
   2   2   8    9.17    3.75
  -3  -2  -8  332.84   31.90
  -3  -2  -8  321.88   29.55
  -3  -2  -8  317.54   29.57
  -3  -2  -8  321.40   32.15
   3   2   8  363.69   30.29
   3   2   8  371.15   32.22
  -4  -2  -8   -0.61    6.34
  -4  -2  -8    8.01    4.29
  -4  -2  -8   -1.28    3.52
  -4  -2  -8    4.48    5.67
   4   2   8    8.18    6.41
   4   2   8    0.73    4.31
  -5  -2  -8    4.71    8.03
  -5  -2  -8    6.49    6.07
  -5  -2  -8   15.67    5.37
  -5  -2  -8   24.18    7.59
  -5  -2  -8   19.06    5.98
   5   2   8   15.11    8.14
   5   2   8    6.27    8.04
   5   2   8   15.83    5.87
  -6  -2  -8    3.91    6.51
  -6  -2  -8   -3.51    5.23
  -6  -2  -8    2.20    4.56
  -9   3   8   25.00    7.45
  -9   3   8   40.21    5.79
  -8   3   8   -3.69    2.42
  -8   3   8   -5.31    3.89
  -8   3   8    4.92    4.37
  -8   3   8   -0.76    2.62
  -7   3   8   -2.57    3.02
  -7   3   8    3.01    2.47
  -7   3   8    2.39    1.62
  -7   3   8    5.12    2.93
  -7   3   8   -0.25    1.92
  -6   3   8  119.60   11.56
  -6   3   8  128.61   11.87
  -6   3   8  127.24   11.41
  -6   3   8  129.27   11.20
  -6   3   8  122.73   12.09
  -6   3   8  140.69   12.55
  -6   3   8  126.81   10.62
   5  -3  -8  122.77   13.00
  -5   3   8  121.37   12.45
  -5   3   8  131.06   11.02
  -5   3   8  139.65   10.89
  -5   3   8  143.24   11.68
  -5   3   8  136.76   13.24
  -5   3   8  141.56   12.85
  -5   3   8  136.20   12.21
   4  -3  -8  280.66   28.81
   4  -3  -8  326.06   26.24
   4  -3  -8  296.91   28.16
   4  -3  -8  312.04   26.30
  -4   3   8  351.71   25.74
  -4   3   8  360.79   28.45
  -4   3   8  350.90   27.32
   3  -3  -8  314.90   26.14
   3  -3  -8  291.51   26.50
   3  -3  -8  283.90   28.05
   3  -3  -8  311.16   25.42
   3  -3  -8  308.13   25.08
  -3   3   8  323.46   24.88
  -3   3   8  295.42   26.80
  -3   3   8  322.85   26.25
  -3   3   8  293.89   27.09
  -3   3   8  371.23   28.10
   2  -3  -8   -0.41    2.44
   2  -3  -8   -2.74    2.59
   2  -3  -8   -0.87    1.57
  -2   3   8    0.23    1.24
  -2   3   8   -3.23    1.74
  -2   3   8    3.15    2.55
   1  -3  -8  292.72   26.73
   1  -3  -8  277.04   28.32
   1  -3  -8  319.11   29.10
   1  -3  -8  304.00   26.07
   1  -3  -8  324.88   27.03
  -1   3   8  293.72   27.68
  -1   3   8  292.29   26.56
  -1   3   8  368.11   28.41
  -1   3   8  343.58   29.02
  -1   3   8  323.50   25.82
   0  -3  -8  478.55   40.30
   0  -3  -8  457.69   38.49
   0  -3  -8  465.11   36.49
   0  -3  -8  401.43   38.90
   0  -3  -8  417.55   37.11
   0   3   8  430.45   38.82
   0   3   8  480.55   38.50
   0   3   8  417.26   37.80
   0   3   8  424.64   36.06
  -1  -3  -8   78.38    9.79
  -1  -3  -8   69.21   11.50
   1   3   8   86.58    9.28
  -2  -3  -8   40.85    9.81
  -2  -3  -8   62.47   11.76
  -2  -3  -8   50.88    7.99
  -2  -3  -8   70.92    8.42
   2   3   8   63.25    9.01
   2   3   8   64.57   11.85
  -3  -3  -8   32.85    8.80
  -3  -3  -8   31.98    8.83
  -3  -3  -8   25.47    6.11
  -3  -3  -8   22.65    7.10
  -3  -3  -8   28.38    7.20
   3   3   8   32.22    8.46
   3   3   8   34.65    7.46
  -4  -3  -8    6.29    5.33
  -4  -3  -8    3.17    3.65
  -4  -3  -8   -1.13    4.06
  -4  -3  -8   -3.45    4.62
  -4  -3  -8    0.38    7.17
   4   3   8    5.68    6.54
   4   3   8    1.39    4.60
  -5  -3  -8   58.28   11.52
  -5  -3  -8   41.20    8.79
  -5  -3  -8   50.41   17.90
  -5  -3  -8   56.43   14.37
   5   3   8   63.97   10.11
  -9   4   8   34.18    5.17
  -9   4   8   33.05    5.06
  -9   4   8   29.94    6.96
  -8   4   8   11.45    4.25
  -8   4   8    6.17    3.20
  -8   4   8   12.26    3.30
  -8   4   8   15.29    4.56
  -7   4   8  225.77   18.78
  -7   4   8  204.23   19.44
  -7   4   8  226.00   19.21
  -7   4   8  239.92   19.94
  -7   4   8  232.09   18.67
  -6   4   8    3.45    2.14
  -6   4   8   -2.06    2.24
  -6   4   8   -2.64    3.51
  -6   4   8   -0.31    1.99
   5  -4  -8   75.78   10.48
  -5   4   8   90.09    9.60
  -5   4   8   89.04    9.94
  -5   4   8   93.98    9.28
  -5   4   8  106.05   10.37
  -5   4   8   85.68    8.20
   4  -4  -8  387.02   31.72
   4  -4  -8  326.14   28.54
  -4   4   8  333.37   29.64
  -4   4   8  364.06   30.25
  -4   4   8  336.79   30.15
   3  -4  -8    7.50    4.98
   3  -4  -8   16.17    4.10
   2  -4  -8  732.85   64.04
   2  -4  -8  844.39   65.38
   2  -4  -8  766.28   66.90
   2  -4  -8  799.80   64.02
   2  -4  -8  879.24   64.77
   2  -4  -8  657.77   66.84
   2  -4  -8  726.58   66.82
  -2   4   8  964.55   69.81
  -2   4   8  882.51   67.20
  -2   4   8  809.84   64.96
  -2   4   8  848.00   66.32
  -2   4   8  788.89   63.81
   1  -4  -8    6.22    2.97
   1  -4  -8    5.80    4.08
   1  -4  -8    4.66    2.88
   1  -4  -8    6.10    5.02
   1  -4  -8   13.26    4.14
   1  -4  -8    5.39    3.98
  -1   4   8    6.07    3.80
  -1   4   8   11.83    4.59
  -1   4   8    4.07    2.33
  -1   4   8    8.44    4.93
   0  -4  -8  257.52   23.32
   0  -4  -8  276.86   26.25
   0  -4  -8  265.20   23.51
   0  -4  -8  172.55   29.49
   0  -4  -8  272.73   22.64
   0   4   8  260.08   24.01
   0   4   8  237.33   21.96
   0   4   8  231.60   24.76
   0   4   8  272.67   45.46
  -1  -4  -8    3.35    3.22
  -1  -4  -8    9.85    5.62
  -1  -4  -8   -0.82    4.31
  -1  -4  -8    1.85    3.56
  -1  -4  -8   -0.25    2.86
   1   4   8    8.37    4.89
   1   4   8    1.87    3.45
  -2  -4  -8   -0.74    3.13
  -2  -4  -8   11.19   10.63
  -2  -4  -8    2.76    2.99
  -2  -4  -8   -0.90    2.74
  -2  -4  -8   -3.15    5.52
   2   4   8   -1.60    4.19
   2   4   8    0.96    3.80
  -3  -4  -8    5.92    4.37
  -3  -4  -8    0.60    7.40
  -3  -4  -8    2.27    5.89
  -3  -4  -8   -1.02    3.07
  -3  -4  -8    5.99    5.34
   3   4   8   12.67    6.01
   3   4   8   -4.72    5.71
  -4  -4  -8    5.87    7.17
  -4  -4  -8   10.33    5.68
  -4  -4  -8    8.47    6.01
  -4  -4  -8    6.77    7.22
   4   4   8   16.00    8.90
   4   4   8   12.68    7.90
  -9   5   8   41.79    5.81
  -9   5   8   31.91    5.85
  -8   5   8   91.76    9.09
  -8   5   8   85.41    9.76
  -8   5   8   94.71   11.01
  -8   5   8   86.89    9.73
  -7   5   8    7.00    3.08
  -7   5   8    4.59    3.32
  -7   5   8    1.50    2.70
   6  -5  -8  228.04   26.72
  -6   5   8  283.62   25.41
  -6   5   8  296.91   24.09
  -6   5   8  263.77   22.91
  -6   5   8  270.85   23.62
  -6   5   8  283.36   24.40
   5  -5  -8   70.82   11.19
  -5   5   8   92.15    9.63
  -5   5   8   85.16   10.07
  -5   5   8   76.70   10.17
  -5   5   8   91.31    8.60
   4  -5  -8  287.76   25.15
   4  -5  -8  275.29   28.56
  -4   5   8  295.32   23.98
  -4   5   8  281.08   26.02
  -4   5   8  279.52   26.33
  -4   5   8  296.86   26.18
   3  -5  -8    8.03    5.16
   3  -5  -8   -5.47    3.54
   3  -5  -8    1.68    3.00
   3  -5  -8    6.51    4.89
  -3   5   8   -2.34    2.39
  -3   5   8   -3.10    3.83
  -3   5   8   -0.70    2.77
  -3   5   8   -0.38    2.15
   2  -5  -8   24.38    7.74
   2  -5  -8   18.85    4.06
   2  -5  -8   22.45    6.27
   2  -5  -8   21.05    5.40
  -2   5   8   15.25    4.32
  -2   5   8   11.09    5.03
  -2   5   8   27.05    7.28
  -2   5   8   26.54    7.13
   1  -5  -8   97.70   11.70
   1  -5  -8  147.76   16.40
  -1   5   8  100.62   11.37
   0  -5  -8    5.03    3.21
   0  -5  -8    3.27    4.27
   0  -5  -8    7.62    5.67
   0  -5  -8    0.38    2.93
   0   5   8   -4.96    3.42
  -1  -5  -8    4.18    4.10
  -1  -5  -8   -0.17    5.19
  -1  -5  -8    2.13    3.01
  -1  -5  -8   -0.18    6.12
  -1  -5  -8   -1.41    3.22
   1   5   8    3.43    4.50
   1   5   8    7.08    5.60
  -2  -5  -8   54.30   10.50
  -2  -5  -8   65.34   13.83
  -2  -5  -8   56.96   12.78
  -2  -5  -8   74.30   12.50
   2   5   8   79.11   12.85
   2   5   8   60.57   13.31
  -3  -5  -8   -0.59    7.89
  -3  -5  -8   -5.21    5.35
  -3  -5  -8   -1.27    4.35
  -3  -5  -8    2.99    5.42
   3   5   8   -6.71    6.91
   3   5   8    2.90    5.90
  -9   6   8   50.83    6.70
  -9   6   8   35.39    6.55
  -8   6   8   34.61    5.55
  -8   6   8   42.97    6.88
  -8   6   8   29.46    5.65
  -7   6   8   71.70    9.65
  -7   6   8   90.05    9.48
  -7   6   8   74.85   10.19
  -7   6   8   75.02    9.68
   6  -6  -8   64.31   11.44
  -6   6   8   56.61    9.12
  -6   6   8   89.68    9.69
  -6   6   8   72.94    9.49
  -6   6   8   67.80    8.58
   5  -6  -8    1.14    3.41
   5  -6  -8   -0.95    3.33
  -5   6   8    1.03    4.07
  -5   6   8    3.70    2.91
  -5   6   8    2.47    2.95
  -5   6   8    0.10    3.11
   4  -6  -8   36.78    7.59
   4  -6  -8   40.88    9.67
   4  -6  -8   46.82    8.77
  -4   6   8   45.37    7.02
  -4   6   8   26.48    6.70
  -4   6   8   38.20    9.02
   3  -6  -8   50.60    8.99
   3  -6  -8   52.96    5.94
   3  -6  -8   58.85   11.64
   3  -6  -8   71.37   11.40
   3  -6  -8   51.96    6.00
  -3   6   8   74.88   11.98
  -3   6   8   59.32    7.67
  -3   6   8   63.85   10.21
  -3   6   8   68.61   11.22
   2  -6  -8   12.29    6.54
   2  -6  -8    8.31    4.51
   2  -6  -8   12.96    5.17
   2  -6  -8    5.84    3.13
  -2   6   8   13.95    6.27
  -2   6   8   23.86    8.40
  -2   6   8   15.58    5.74
   1  -6  -8    3.94    5.39
   1  -6  -8   -0.05    2.97
   1  -6  -8    6.09    4.62
   1  -6  -8    2.98    4.32
  -1   6   8    3.08    4.88
  -1   6   8    4.30    4.34
  -1   6   8   21.10    7.55
   0  -6  -8   70.48   10.82
   0  -6  -8   93.44   11.58
   0  -6  -8   79.84   12.92
   0  -6  -8   71.15   14.62
   0   6   8   69.56   13.24
   0   6   8   82.73   13.40
  -1  -6  -8   21.25    6.40
  -1  -6  -8   31.07    8.27
  -1  -6  -8   34.16    8.65
  -1  -6  -8   41.46   12.45
   1   6   8   27.48    9.06
   1   6   8   41.82    9.81
  -2  -6  -8   12.06    6.72
  -2  -6  -8   21.26    9.84
  -2  -6  -8   27.84    8.30
  -2  -6  -8   32.78    9.61
   2   6   8   13.26    8.36
   2   6   8   25.68    7.98
  -8   7   8    9.81    4.65
  -8   7   8    9.49    4.41
  -8   7   8    5.87    3.89
  -7   7   8   18.32    5.79
  -7   7   8   15.41    5.83
  -7   7   8    8.01    5.23
  -7   7   8   12.74    5.64
   6  -7  -8    9.18    7.59
  -6   7   8   -1.25    4.78
  -6   7   8   10.68    4.82
  -6   7   8    3.76    4.09
   5  -7  -8    9.07    5.71
   5  -7  -8    8.72    7.40
   5  -7  -8    1.43    5.11
  -5   7   8   16.78    6.09
  -5   7   8   29.61    7.44
  -5   7   8    8.79    5.18
  -5   7   8   12.02    5.02
   4  -7  -8   10.32    7.67
   4  -7  -8    6.43    6.47
   4  -7  -8    7.22    5.98
  -4   7   8   15.66    7.74
  -4   7   8   17.93    6.10
  -4   7   8   11.10    5.00
   3  -7  -8  101.41   15.64
  -3   7   8   69.22   12.51
  -3   7   8  110.28   13.13
   2  -7  -8    5.76    3.59
   2  -7  -8    2.44    4.59
   2  -7  -8    8.77    7.11
   2  -7  -8   13.71   10.76
  -2   7   8    2.98    4.39
  -2   7   8    5.66    5.65
  -2   7   8   -0.30    9.48
   1  -7  -8  108.98   14.43
   1  -7  -8  107.27   18.13
   1  -7  -8   99.01   13.14
   1  -7  -8  138.53   15.77
  -1   7   8  124.64   15.85
   0  -7  -8    3.85    5.82
   0  -7  -8    0.15    4.47
   0  -7  -8   -1.05    5.36
   0  -7  -8    9.54    8.24
   0   7   8   -3.65    5.33
   0   7   8    6.39    5.60
  -1  -7  -8    8.39    6.74
  -1  -7  -8    6.91    6.47
  -1  -7  -8    2.67    8.82
  -1  -7  -8    7.78    6.57
   1   7   8    7.73    7.24
   1   7   8    7.39    7.20
  -8   8   8    0.49    4.93
  -8   8   8    1.20    4.54
  -7   8   8   -1.21    6.40
  -7   8   8    4.78    4.86
   6  -8  -8   38.57    6.57
  -6   8   8   51.63   10.70
  -6   8   8   37.42    8.62
  -6   8   8   28.92    9.96
   5  -8  -8   41.75   11.97
   5  -8  -8   21.92    7.67
  -5   8   8   29.85    8.13
  -5   8   8   37.01    9.09
  -5   8   8   46.03   10.42
   4  -8  -8   40.34   11.73
   4  -8  -8   -5.41    9.95
   4  -8  -8   -0.28   12.64
  -4   8   8   45.76   10.45
  -4   8   8   18.41    7.66
  -4   8   8   45.83   11.90
   3  -8  -8   30.67   10.22
   3  -8  -8   32.76   12.16
   3  -8  -8   28.42    5.64
   3  -8  -8   28.37    9.31
  -3   8   8   47.16   13.86
  -3   8   8   18.93    8.17
  -3   8   8   20.03    7.76
   2  -8  -8    7.05    6.65
   2  -8  -8    0.92    4.07
   2  -8  -8    3.51    7.38
   2  -8  -8   15.26    6.46
  -2   8   8    6.59    5.53
  -2   8   8    2.63    6.08
   1  -8  -8   13.92    6.58
   1  -8  -8    2.74    7.98
   1  -8  -8   -2.54    6.02
   1  -8  -8   -3.70    4.57
  -1   8   8   -7.82    6.93
   0  -8  -8   -1.79    6.24
   0  -8  -8   11.34    9.10
   0  -8  -8    6.14    6.87
   0   8   8    2.75    9.26
   0   8   8   -0.28    7.14
   6  -9  -8    1.50    7.72
  -6   9   8    1.65    5.70
  -6   9   8    2.25    5.79
   5  -9  -8   -6.09   13.20
   5  -9  -8  -18.46   11.16
  -5   9   8    2.72    6.54
  -5   9   8   -1.95   12.23
   4  -9  -8   17.12    8.71
   4  -9  -8   -4.34    8.50
   4  -9  -8   27.76   13.09
  -4   9   8    8.85    7.11
   3  -9  -8    9.81    8.27
   3  -9  -8   11.00    9.90
   3  -9  -8   11.68   12.84
  -3   9   8    3.14    7.66
  -3   9   8   -1.12    7.53
   2  -9  -8    8.71    9.72
   0   9  -9   11.51   12.43
   0   9  -9   18.37   10.35
   0  -9   9   35.79   21.29
   0  -9   9   10.96    8.99
   0  -9   9    4.91    9.73
  -1   9  -9    1.06    6.47
  -1   9  -9   15.25   10.49
   1  -9   9    9.74   11.46
   1  -9   9   -3.65    6.34
   1  -9   9   14.67   12.83
  -2   9  -9   25.78    9.46
  -2   9  -9   25.08   11.71
   2  -9   9   17.84    8.28
   2  -9   9   19.58    9.80
   2  -9   9    5.82   23.44
  -3   9  -9   27.52    9.90
  -3   9  -9   53.95   14.06
   3  -9   9   40.70   16.47
   3  -9   9   36.67   10.82
   3  -9   9   33.84   10.38
  -4   9  -9   22.45   10.25
  -4   9  -9   33.66   10.37
   4  -9   9   31.89    9.61
   4  -9   9   14.54    8.59
   4  -9   9   16.41   11.87
  -5   9  -9    7.05    7.83
   5  -9   9   -0.35    7.24
   5  -9   9   -3.53    6.95
   5  -9   9   27.53   14.23
   2   8  -9   -5.82   10.31
   2   8  -9    9.65    7.34
  -2  -8   9    3.84    8.98
  -2  -8   9   18.03    8.65
  -2  -8   9   -1.16    7.53
   1   8  -9   27.51   10.25
   1   8  -9   14.82    7.59
  -1  -8   9    5.81    7.65
  -1  -8   9   11.01   13.65
  -1  -8   9   18.76    9.96
  -1  -8   9   -1.37    5.87
   0   8  -9  186.06   26.60
   0   8  -9  178.65   21.71
   0  -8   9  213.66   24.37
   0  -8   9  250.03   32.20
   0  -8   9  223.69   24.78
  -1   8  -9   -0.91    7.76
  -1   8  -9   -1.98    5.03
   1  -8   9    1.23    5.66
   1  -8   9  -13.20   11.83
   1  -8   9    6.27    6.83
  -2   8  -9   73.81   13.32
   2  -8   9   50.70   12.34
   2  -8   9   75.25   18.94
   2  -8   9  110.02   15.01
  -3   8  -9   28.37    9.50
  -3   8  -9   11.02    6.25
   3  -8   9   12.30    9.87
   3  -8   9    5.00    5.29
   3  -8   9   14.00    7.62
  -4   8  -9    1.99    5.20
  -4   8  -9   -6.87    6.22
   4  -8   9   -4.64    5.68
   4  -8   9    1.62    5.60
   4  -8   9   -3.74    9.96
  -5   8  -9   66.03   13.07
  -5   8  -9   66.62   12.46
   5  -8   9   55.54   11.38
   5  -8   9   49.24   14.23
  -6   8  -9   16.36    7.04
  -6   8  -9   18.97    9.50
   6  -8   9   24.38    7.23
   6  -8   9  -11.17   12.02
   3   7  -9   -9.20    9.55
  -3  -7   9   -8.90    8.26
  -3  -7   9   -9.53    9.71
  -3  -7   9   39.21   18.79
   2   7  -9   92.82   12.14
   2   7  -9   43.39   14.46
  -2  -7   9   89.32   20.24
  -2  -7   9   73.58   17.63
  -2  -7   9   56.55   13.81
  -2  -7   9  119.66   14.95
   1   7  -9   24.71    8.16
   1   7  -9   12.30    6.34
  -1  -7   9   27.87    8.25
  -1  -7   9   18.42   12.05
  -1  -7   9   -0.95    4.22
   0   7  -9    1.92    4.43
   0   7  -9    4.08    6.80
   0  -7   9  -12.64    5.29
   0  -7   9   17.91    7.85
   0  -7   9   -6.79    3.91
   0  -7   9  -12.30    8.99
  -1   7  -9    1.80    6.53
  -1   7  -9    3.01    4.43
   1  -7   9    0.37    4.87
   1  -7   9    4.88    7.92
   1  -7   9    1.95    5.91
  -2   7  -9  167.33   20.62
  -2   7  -9  179.61   18.54
   2  -7   9  147.63   24.99
   2  -7   9  151.59   19.21
  -3   7  -9    5.05    4.27
  -3   7  -9    3.75    5.88
   3  -7   9    9.70    6.47
   3  -7   9    5.52    7.43
   3  -7   9   -3.02    4.44
  -4   7  -9   78.46   11.47
  -4   7  -9  101.98   16.06
  -4   7  -9   95.65   22.12
   4  -7   9   55.14   13.21
   4  -7   9   54.31   12.26
   4  -7   9   71.77   13.03
  -5   7  -9    7.41    6.34
  -5   7  -9    9.88   12.35
  -5   7  -9    3.59    4.89
   5  -7   9   -1.83    8.65
   5  -7   9   -0.77    4.73
  -6   7  -9   -1.20    4.12
  -6   7  -9   -8.51   20.02
  -6   7  -9    1.31    4.96
   6  -7   9    5.33    9.88
   6  -7   9    1.51    7.63
   6  -7   9    3.45    5.23
  -7   7  -9   30.48    8.51
  -7   7  -9   46.22    9.45
   4   6  -9   -3.60    4.51
  -4  -6   9    3.29    6.36
  -4  -6   9   10.14    7.04
  -4  -6   9    5.27   10.79
   3   6  -9   -3.54    7.11
   3   6  -9    0.28    4.46
  -3  -6   9   -0.44    5.43
  -3  -6   9    2.64   10.13
  -3  -6   9   -1.82    6.37
  -3  -6   9   11.15    8.16
  -3  -6   9   14.78    6.16
   2   6  -9   20.67    6.77
  -2  -6   9   32.70   10.89
  -2  -6   9   10.93    7.07
  -2  -6   9    8.76    6.34
  -2  -6   9   19.99    7.09
  -2  -6   9   23.80    9.07
   1   6  -9  330.51   33.92
  -1  -6   9  298.88   32.25
  -1  -6   9  341.14   32.42
   0   6  -9  262.38   26.29
   0   6  -9  229.18   23.41
   0  -6   9  259.62   29.62
   0  -6   9  223.63   27.50
  -1   6  -9   61.69    9.59
  -1   6  -9   69.45   13.30
   1  -6   9   68.30   12.92
   1  -6   9   62.81   12.25
   1  -6   9   69.65   14.94
   1  -6   9   82.81   16.77
  -2   6  -9   34.02    7.70
  -2   6  -9   69.75   17.45
  -2   6  -9   55.23   11.07
   2  -6   9   26.72    7.95
   2  -6   9   23.15    9.68
   2  -6   9   51.88   10.53
  -3   6  -9   47.71   13.08
  -3   6  -9   79.94   11.57
   3  -6   9   46.35   10.67
   3  -6   9   28.79    9.98
   3  -6   9   52.94    9.84
  -4   6  -9    9.26    5.46
  -4   6  -9    5.38    4.00
  -4   6  -9   -2.22   11.19
   4  -6   9    2.89    4.46
   4  -6   9  -11.84    7.10
  -5   6  -9  117.32   13.31
  -5   6  -9   85.78   13.48
   5  -6   9  123.47   20.54
   5  -6   9   91.24   12.65
  -6   6  -9    8.69   12.06
  -6   6  -9    1.16    4.10
  -6   6  -9   -3.50    3.99
   6  -6   9    1.86    6.49
   6  -6   9    5.37    8.16
   6  -6   9   -0.30    4.26
  -7   6  -9   44.10    9.65
  -5  -5   9   28.22    9.08
  -5  -5   9   26.32    8.93
  -5  -5   9   29.54    7.40
   4   5  -9   -4.83    5.90
   4   5  -9   -1.48    7.66
   4   5  -9   -2.07    4.61
  -4  -5   9   10.47    8.90
  -4  -5   9    3.66    5.38
  -4  -5   9    4.36    5.97
  -4  -5   9   -3.44    4.66
  -4  -5   9   -5.10    4.36
   3   5  -9  205.32   20.00
   3   5  -9  225.11   19.53
   3   5  -9  220.76   23.18
  -3  -5   9  192.41   22.67
  -3  -5   9  156.71   24.78
  -3  -5   9  243.89   27.53
   2   5  -9   11.65    6.12
   2   5  -9   14.79    5.09
  -2  -5   9   15.78    9.93
  -2  -5   9   21.14    6.23
  -2  -5   9    6.65    5.83
  -2  -5   9   26.68   10.76
  -2  -5   9   26.69    9.57
   1   5  -9   94.43   14.13
   1   5  -9   97.54   11.60
   1   5  -9   88.38   12.08
  -1  -5   9   94.77   14.70
  -1  -5   9   89.64   13.08
  -1  -5   9  112.80   17.40
  -1  -5   9   83.81   12.63
  -1  -5   9   93.07   12.19
   0   5  -9    2.75    4.03
   0   5  -9   -0.21    2.90
   0   5  -9  -12.50    8.11
   0  -5   9    1.03    2.82
   0  -5   9   -2.73    5.74
   0  -5   9   -8.79    3.86
   0  -5   9  -11.43    5.02
  -1   5  -9   38.89    9.32
  -1   5  -9   37.24    7.84
  -1   5  -9   28.67    6.90
  -1   5  -9   52.02   18.53
   1  -5   9   41.01    9.04
   1  -5   9   42.48    9.34
   1  -5   9   39.58   10.70
   1  -5   9   43.84   11.75
  -2   5  -9   91.04   18.64
  -2   5  -9   81.05   10.57
  -2   5  -9   75.38   11.59
   2  -5   9   77.21   11.07
   2  -5   9   91.81   16.29
   2  -5   9   67.46   12.47
  -3   5  -9  221.78   20.33
  -3   5  -9  171.13   24.83
  -3   5  -9  196.82   21.10
   3  -5   9  197.62   21.50
   3  -5   9  201.74   20.81
   3  -5   9  208.44   24.93
  -4   5  -9   18.72    6.48
  -4   5  -9   11.51    5.00
  -4   5  -9   10.31    8.81
   4  -5   9   17.85    8.77
   4  -5   9   13.49    5.83
  -5   5  -9  199.24   19.78
  -5   5  -9  133.90   23.76
   5  -5   9  195.30   23.74
   5  -5   9  189.05   18.38
   5  -5   9  198.91   18.79
  -6   5  -9   12.58   10.09
  -6   5  -9    3.20    3.90
  -6   5  -9    0.55    3.54
   6  -5   9    3.81    4.60
   6  -5   9   12.57    9.74
  -7   5  -9   17.27    7.01
  -7   5  -9   27.20    7.50
  -7   5  -9   17.47    6.21
  -6  -4   9   17.67   11.77
  -6  -4   9   18.11    7.16
  -6  -4   9   18.98    6.49
  -6  -4   9    7.58    6.31
   5   4  -9   54.00   10.37
  -5  -4   9   42.70   12.56
  -5  -4   9   70.79   12.49
  -5  -4   9   64.54    9.94
  -5  -4   9   80.40   16.25
  -5  -4   9   78.80   15.06
   4   4  -9   -1.03    3.58
   4   4  -9   -0.66    2.32
  -4  -4   9   -3.14    3.99
  -4  -4   9   -2.78    6.02
  -4  -4   9    2.23    3.82
  -4  -4   9    5.18    5.49
  -4  -4   9   -3.41    4.29
   3   4  -9   48.81    7.89
   3   4  -9   58.47    7.28
   3   4  -9   60.77    8.75
   3   4  -9   52.05   10.16
  -3  -4   9   63.28   11.98
  -3  -4   9   53.87    9.28
  -3  -4   9   57.41   13.64
  -3  -4   9   65.93   11.33
  -3  -4   9   40.51    9.94
   2   4  -9    0.51    3.31
   2   4  -9    7.90    3.19
   2   4  -9    7.30    4.71
  -2  -4   9   11.55    6.21
  -2  -4   9   -3.66    3.51
  -2  -4   9    0.99    3.12
  -2  -4   9    8.62    5.37
   1   4  -9   64.32    8.13
   1   4  -9   43.07    7.70
   1   4  -9   42.40    8.24
  -1  -4   9   44.66    9.91
  -1  -4   9   56.35   11.02
   0   4  -9  190.79   21.02
   0   4  -9  190.88   21.03
   0   4  -9  230.12   20.08
   0   4  -9  199.99   19.81
   0  -4   9  238.03   22.57
   0  -4   9  226.68   24.46
   0  -4   9  199.27   21.90
   0  -4   9  236.66   21.95
  -1   4  -9  174.55   23.21
  -1   4  -9  182.36   24.29
  -1   4  -9  188.15   25.13
  -1   4  -9  261.10   22.08
  -1   4  -9  262.61   23.24
   1  -4   9  244.62   23.19
   1  -4   9  255.39   26.10
   1  -4   9  279.82   25.01
   1  -4   9  229.91   23.50
   1  -4   9  228.13   22.70
  -2   4  -9   67.64   15.41
  -2   4  -9   86.91   11.28
  -2   4  -9   68.46   10.04
  -2   4  -9   88.54   10.07
   2  -4   9   81.87   14.73
   2  -4   9   71.63   11.01
   2  -4   9   98.22   14.87
   2  -4   9   70.53   10.61
   2  -4   9   68.55   12.45
  -3   4  -9  146.29   14.99
  -3   4  -9  124.66   19.14
  -3   4  -9  119.87   13.47
   3  -4   9  109.64   16.74
   3  -4   9  112.98   14.16
   3  -4   9  129.27   13.95
  -4   4  -9    5.14    4.14
  -4   4  -9    4.76    3.78
  -4   4  -9    6.53    8.34
   4  -4   9    7.81    5.59
   4  -4   9   17.66    5.37
   4  -4   9    5.23    4.55
  -5   4  -9   15.41    9.25
  -5   4  -9   12.22    5.19
  -5   4  -9   22.81    5.89
   5  -4   9   11.76    6.97
   5  -4   9   15.55    5.66
   5  -4   9   21.03    5.26
  -6   4  -9   15.56    5.47
  -6   4  -9   16.77    5.43
  -6   4  -9   13.22    5.09
  -6   4  -9    0.06    8.69
   6  -4   9   14.39    4.59
   6  -4   9    8.29    4.59
  -7   4  -9   40.70    9.85
  -7   4  -9   48.80    8.69
  -7   4  -9   46.76   10.11
  -7  -3   9    5.82    6.88
  -7  -3   9    0.75    5.47
  -7  -3   9   15.35    5.26
  -7  -3   9   22.83    8.88
   6   3  -9   -9.76    7.50
  -6  -3   9   -0.70    4.46
  -6  -3   9   -1.32    4.09
  -6  -3   9   -0.65    5.89
  -6  -3   9   -0.49    5.54
  -6  -3   9    2.78    4.93
   5   3  -9    3.36    3.20
   5   3  -9    0.38    4.65
  -5  -3   9    3.22    4.17
  -5  -3   9    2.74    3.48
  -5  -3   9    6.98    5.04
  -5  -3   9    8.85    6.68
  -5  -3   9    0.64    4.25
   4   3  -9    0.70    4.15
   4   3  -9    4.13    2.20
   4   3  -9    1.15    2.23
  -4  -3   9    3.45    4.02
  -4  -3   9    1.47    4.24
  -4  -3   9    1.48    4.38
  -4  -3   9    5.83    3.37
   3   3  -9    3.77    3.09
   3   3  -9    9.07    3.36
  -3  -3   9    7.72    4.36
  -3  -3   9   11.90    4.59
  -3  -3   9    4.57    3.86
  -3  -3   9    8.77    4.68
   2   3  -9  342.79   26.15
   2   3  -9  219.43   37.97
   2   3  -9  275.23   28.60
   2   3  -9  317.68   28.28
   2   3  -9  296.65   26.95
   2   3  -9  355.81   26.64
  -2  -3   9  275.19   28.62
  -2  -3   9  317.19   28.32
  -2  -3   9  308.31   26.39
  -2  -3   9  281.45   30.20
  -2  -3   9  311.24   27.55
  -2  -3   9  309.30   28.62
   1   3  -9    0.22    3.22
   1   3  -9   -0.87    3.80
   1   3  -9    0.19    2.24
   1   3  -9    1.93    2.61
   1   3  -9    8.14    5.23
   1   3  -9   -3.14    3.04
  -1  -3   9    0.13    3.07
  -1  -3   9   -1.42    3.22
  -1  -3   9    1.65    3.51
  -1  -3   9    0.28    2.84
  -1  -3   9    3.83    4.42
   0   3  -9 1168.06   85.64
   0   3  -9 1029.18   79.65
   0   3  -9 1010.36   82.14
   0   3  -9  934.13   80.88
   0   3  -9  895.00   79.73
   0  -3   9 1091.69   81.88
   0  -3   9  887.00   81.31
   0  -3   9  849.28   80.17
   0  -3   9 1021.99   84.19
   0  -3   9 1164.12   83.13
  -1   3  -9   18.19    7.02
  -1   3  -9    7.89    3.39
  -1   3  -9    0.57    5.60
  -1   3  -9   16.37    4.65
  -1   3  -9    7.44    4.33
   1  -3   9   13.98    4.28
   1  -3   9    5.66    3.78
   1  -3   9   14.29    5.57
   2  -3   9   72.59   12.30
  -3   3  -9  253.03   21.75
  -3   3  -9  227.41   20.92
  -3   3  -9  277.74   28.74
   3  -3   9  216.41   21.35
   3  -3   9  197.27   20.77
   3  -3   9  197.34   23.35
  -4   3  -9    5.96    3.41
  -4   3  -9   14.05    7.59
  -4   3  -9   11.42    4.65
   4  -3   9   -0.29    5.12
   4  -3   9    6.58    5.71
   4  -3   9    9.16    4.42
  -5   3  -9  104.40   13.00
  -5   3  -9  122.52   12.55
  -5   3  -9   96.12   17.98
  -5   3  -9  114.95   12.34
   5  -3   9  122.50   12.23
   5  -3   9   89.27   11.71
   5  -3   9  114.00   15.71
  -6   3  -9   -4.27    4.00
  -6   3  -9   -3.04    3.66
  -6   3  -9    1.84    3.61
  -6   3  -9   -4.20    8.56
   6  -3   9    5.69    3.54
  -7   3  -9   -3.97    4.02
  -7   3  -9    0.19    5.66
  -7  -2   9   -0.75    5.89
  -7  -2   9   -1.68    4.06
  -7  -2   9    4.97    5.20
  -7  -2   9    1.93    3.54
  -7  -2   9   -0.56    4.84
   6   2  -9   40.64    6.29
   6   2  -9   50.07   12.51
  -6  -2   9   54.65   10.59
  -6  -2   9   30.75    7.71
  -6  -2   9   44.84    7.78
  -6  -2   9   43.75   10.55
  -6  -2   9   36.48    6.76
   5   2  -9   19.13    5.94
   5   2  -9   19.17    3.58
  -5  -2   9   11.25    4.33
  -5  -2   9   19.80    5.22
  -5  -2   9   18.10    7.03
  -5  -2   9   14.02    4.04
  -5  -2   9   16.67    5.95
  -5  -2   9   11.11    5.39
   4   2  -9  299.37   24.89
   4   2  -9  251.69   22.22
  -4  -2   9  253.35   24.76
  -4  -2   9  269.10   23.15
  -4  -2   9  278.74   27.04
  -4  -2   9  282.27   26.97
  -4  -2   9  268.25   24.75
   3   2  -9   47.84    5.30
   3   2  -9   80.50   12.44
   3   2  -9   33.86    7.80
   3   2  -9   43.50    5.36
   3   2  -9   43.20    6.44
  -3  -2   9   41.39    9.46
  -3  -2   9   34.51    8.03
  -3  -2   9   63.81   10.56
  -3  -2   9   43.16    8.38
  -3  -2   9   55.21    6.20
   2   2  -9  118.65   11.23
   2   2  -9   87.19   13.49
   2   2  -9   76.50   12.17
  -2  -2   9  115.45   12.07
  -2  -2   9   98.16   12.02
  -2  -2   9   94.70   10.65
   1   2  -9   36.65    9.57
   1   2  -9   56.42    6.77
   1   2  -9   46.10    8.98
   1   2  -9   48.94    6.42
   1   2  -9   52.48    7.96
   1   2  -9   73.12    8.98
  -1  -2   9   68.09   12.91
  -1  -2   9   61.95   10.13
  -1  -2   9   52.63    7.30
  -1  -2   9   51.15    9.24
  -1  -2   9   54.70    8.64
   0   2  -9  567.18   45.54
   0   2  -9  512.05   42.81
   0   2  -9  463.69   43.10
   0   2  -9  587.73   45.04
   0   2  -9  505.42   44.22
   0   2  -9  589.56   48.05
   0  -2   9  468.83   44.47
   0  -2   9  437.37   43.79
   0  -2   9  586.28   45.18
   0  -2   9  605.87   45.98
  -1   2  -9  191.30   19.86
  -1   2  -9  201.06   17.64
  -1   2  -9  189.67   19.46
   1  -2   9  166.78   18.48
  -2   2  -9  275.92   27.09
  -2   2  -9  309.95   26.02
  -2   2  -9  265.15   29.18
  -2   2  -9  277.31   27.50
   2  -2   9  359.34   29.90
   2  -2   9  306.98   26.86
   2  -2   9  271.92   26.69
  -3   2  -9   32.56    6.17
  -3   2  -9   31.55    5.97
   3  -2   9   31.55    8.02
   3  -2   9   44.43    8.01
  -4   2  -9    9.40    5.96
  -4   2  -9    3.18    2.75
  -4   2  -9    4.61    3.21
  -4   2  -9    3.11    2.95
   4  -2   9   -2.52    2.76
   4  -2   9   -2.83    3.95
  -5   2  -9   24.30    8.89
  -5   2  -9   32.07    7.72
  -5   2  -9   20.67    5.08
  -5   2  -9   39.58    6.92
   5  -2   9   30.90    5.75
   5  -2   9   24.68    5.46
   5  -2   9   17.71    7.33
  -6   2  -9   15.11    4.63
  -6   2  -9   12.95    9.39
  -6   2  -9   13.89    6.45
   6  -2   9   15.65    4.18
  -7   2  -9    5.06    4.23
  -7   2  -9   18.63    7.83
  -7   2  -9    3.13    4.60
  -8  -1   9    7.02    6.91
  -8  -1   9    1.68    5.77
  -8  -1   9   -0.13    4.04
  -7  -1   9   70.40    7.96
  -7  -1   9   63.25    9.80
  -7  -1   9   67.55   10.07
  -7  -1   9   71.72    8.98
  -7  -1   9   77.20    8.83
  -7  -1   9   61.78   12.67
   6   1  -9   10.61    3.66
  -6  -1   9   12.80    3.81
  -6  -1   9    4.06    4.20
  -6  -1   9    8.60    4.35
  -6  -1   9    8.18    5.50
  -5  -1   9   92.13   12.15
  -5  -1   9  108.63   10.32
  -5  -1   9  108.79   13.49
  -5  -1   9  100.88   11.27
  -5  -1   9  113.49   14.03
  -5  -1   9  127.31   12.50
   4   1  -9   58.04    5.72
   4   1  -9   66.76    8.53
   4   1  -9   59.94    9.08
  -4  -1   9   62.84    8.85
  -4  -1   9   59.19    9.23
  -4  -1   9   61.31   10.24
  -4  -1   9   59.23    7.58
  -4  -1   9   66.21    8.94
  -4  -1   9   65.63    6.63
   3   1  -9   -1.55    2.76
   3   1  -9    3.70    3.98
  -3  -1   9    2.97    2.36
  -3  -1   9   -3.43    2.56
  -3  -1   9    4.27    2.97
  -3  -1   9    1.55    3.20
  -3  -1   9    7.21    3.57
   2   1  -9  819.52   73.22
   2   1  -9  817.87   67.25
   2   1  -9  765.52   65.71
   2   1  -9  906.57   66.42
   2   1  -9  865.27   64.01
  -2  -1   9  766.01   66.47
  -2  -1   9  766.72   65.59
  -2  -1   9  853.80   67.61
  -2  -1   9  788.34   66.64
  -2  -1   9  823.76   68.66
   1   1  -9   14.55    5.51
   1   1  -9   17.19    3.44
   1   1  -9   12.03    4.19
   1   1  -9   17.71    4.72
   1   1  -9   14.68    3.70
   1   1  -9   24.40    5.35
  -1  -1   9   15.49    4.52
  -1  -1   9   22.76    5.84
  -1  -1   9   21.49    6.04
  -1  -1   9   18.71    4.78
  -1  -1   9   16.33    4.87
   0   1  -9 1426.20   99.08
   0   1  -9 1063.78   96.23
   0   1  -9 1136.91   97.11
   0   1  -9 1262.93   97.90
   0   1  -9 1224.75  100.23
   0  -1   9 1348.53   98.40
   0  -1   9 1068.47   96.64
   0  -1   9 1150.59   97.78
   0  -1   9 1371.82   98.80
   0  -1   9 1204.78   99.91
  -1   1  -9   11.86    5.20
  -1   1  -9    8.41    3.06
  -1   1  -9    9.20    5.48
  -1   1  -9   -0.78    3.29
  -1   1  -9    6.54    2.70
   1  -1   9   10.36    4.00
   1  -1   9   15.16    4.72
  -2   1  -9    1.48    3.70
  -2   1  -9    6.69    4.74
  -2   1  -9    9.31    4.26
  -2   1  -9   10.37    3.24
  -2   1  -9    7.85    3.21
  -2   1  -9    7.95    4.22
   2  -1   9    6.47    3.55
   2  -1   9    4.45    3.82
   2  -1   9   17.68   10.43
   2  -1   9    8.33    4.05
  -3   1  -9    2.38    2.23
  -3   1  -9    4.18    3.75
  -3   1  -9    1.15    2.40
   3  -1   9   -0.49    3.23
   3  -1   9    8.45    4.42
   3  -1   9    1.54    3.05
  -4   1  -9   69.79    8.33
  -4   1  -9   60.37    9.70
  -4   1  -9   56.29   12.58
   4  -1   9   77.96   11.36
   4  -1   9   65.16   12.38
   4  -1   9   55.60    8.44
  -5   1  -9   32.65    8.31
  -5   1  -9   23.02   10.28
  -5   1  -9   26.14    5.89
   5  -1   9   39.65    9.29
   5  -1   9   28.28    6.27
   5  -1   9   39.12    6.93
  -6   1  -9   -4.00    3.17
  -6   1  -9    2.93    6.09
  -6   1  -9    5.06    9.37
   6  -1   9   -1.81    3.28
  -7   1  -9   77.25   12.80
  -7   1  -9   87.07   10.82
  -7   1  -9   78.67   14.13
  -8   0   9   20.09    4.84
  -8   0   9   21.21    7.95
  -8   0   9   21.03    6.47
  -7   0   9   -1.42    4.03
  -7   0   9   -7.54    3.95
  -7   0   9   -6.27    4.19
  -6   0   9  181.04   16.49
  -6   0   9  167.22   16.15
  -6   0   9  165.23   18.88
  -6   0   9  181.75   15.19
  -6   0   9  172.60   16.06
   5   0  -9  175.00   15.58
  -5   0   9  162.67   13.79
  -5   0   9  154.02   16.71
  -5   0   9  186.40   16.92
  -5   0   9  165.17   17.50
  -5   0   9  170.18   15.08
  -5   0   9  143.98   15.71
   4   0  -9  485.92   40.66
   4   0  -9  479.14   39.28
  -4   0   9  486.02   41.21
  -4   0   9  494.49   41.31
  -4   0   9  497.20   41.05
  -4   0   9  469.13   39.08
  -4   0   9  444.73   39.86
   3   0  -9  129.22   16.04
   3   0  -9  148.29   14.91
  -3   0   9  154.97   15.20
  -3   0   9  145.60   13.63
  -3   0   9  157.25   15.04
   2   0  -9   56.98   10.18
   2   0  -9   69.46    8.46
   2   0  -9   66.68    8.62
  -2   0   9   73.04    8.57
  -2   0   9   62.34    8.69
  -2   0   9   80.40    7.92
   1   0  -9   21.28    5.39
   1   0  -9   40.04    3.80
   1   0  -9   32.04    5.72
  -1   0   9   34.91    7.16
   0   0  -9  579.28   47.69
   0   0  -9  530.11   46.45
   0   0  -9  591.13   50.03
   0   0  -9  667.27   48.81
   0   0  -9  542.89   45.55
   0   0  -9  629.90   48.15
   0   0   9  604.96   48.17
   0   0   9  498.56   46.58
   0   0   9  569.07   47.69
   0   0   9  550.87   49.15
  -1   0  -9   82.92   11.91
  -1   0  -9  101.04   12.09
  -1   0  -9   87.57   13.20
  -1   0  -9  111.53   10.31
  -1   0  -9   97.46   10.51
   1   0   9  101.36   13.93
   1   0   9  123.52   12.05
  -2   0  -9  141.21   13.19
  -2   0  -9  100.30   13.75
  -2   0  -9  138.08   15.03
  -2   0  -9  127.45   12.42
  -2   0  -9  153.39   16.56
   2   0   9  104.94   12.94
   2   0   9  154.19   15.93
   2   0   9  131.21   13.71
  -3   0  -9   30.25    8.51
  -3   0  -9   45.93    6.49
  -3   0  -9   42.88    7.76
  -3   0  -9   46.44    9.05
   3   0   9   49.78    8.08
   3   0   9   58.93   10.31
   3   0   9   31.49    7.02
  -4   0  -9   36.11   10.80
  -4   0  -9   38.88    7.27
  -4   0  -9   52.71   12.72
   4   0   9   26.16    6.42
   4   0   9   48.33    8.02
   4   0   9   41.73    9.41
  -5   0  -9   11.93    6.64
  -5   0  -9    7.10    3.92
  -5   0  -9    7.64    3.70
  -5   0  -9    7.36    8.28
   5   0   9    7.09    4.47
   5   0   9    6.77    6.13
  -6   0  -9   42.35    9.69
  -6   0  -9   12.43    6.18
  -6   0  -9   13.10    5.11
   6   0   9   25.77    5.16
  -8   1   9   25.09    7.43
  -8   1   9   21.37    5.88
  -8   1   9   20.85    5.10
  -7   1   9  157.47   17.81
  -7   1   9  164.70   14.03
  -7   1   9  157.80   15.73
  -7   1   9  161.03   14.60
  -6   1   9   12.83    4.09
  -6   1   9   14.58    3.76
  -6   1   9   12.38    3.40
  -6   1   9   10.65    2.04
  -6   1   9   11.11    2.99
  -6   1   9    6.08    4.12
   5  -1  -9   54.65    7.82
  -5   1   9   59.70    8.10
  -5   1   9   60.54    7.77
  -5   1   9   73.96    8.36
  -5   1   9   68.76    7.10
   4  -1  -9   13.74    5.04
   4  -1  -9    6.50    3.60
   4  -1  -9    7.08    3.00
  -4   1   9    9.86    3.59
  -4   1   9   10.38    3.59
  -4   1   9    7.67    3.38
  -4   1   9   12.86    4.17
  -4   1   9    8.66    2.49
   3  -1  -9  126.78   12.98
   3  -1  -9  142.45   11.41
   3  -1  -9  119.43   12.49
   3  -1  -9  106.64   14.12
  -3   1   9  126.01   12.64
  -3   1   9  125.92   12.64
  -3   1   9  115.91   11.66
  -3   1   9  144.49   14.02
   2  -1  -9   73.04    8.71
   2  -1  -9   65.16   10.22
   2  -1  -9   77.53    9.45
   2  -1  -9   79.33    8.87
  -2   1   9   77.53    9.17
  -2   1   9   71.64    7.80
  -2   1   9   71.65    8.45
   1  -1  -9  169.08   14.62
   1  -1  -9  170.50   15.83
   1  -1  -9  151.62   13.25
   1  -1  -9  185.85   16.33
   1  -1  -9  157.06   17.03
   1  -1  -9  122.27   14.93
  -1   1   9  159.92   16.69
  -1   1   9  166.71   16.01
  -1   1   9  170.08   15.86
  -1   1   9  140.93   14.40
   0  -1  -9   30.70    4.31
   0  -1  -9   21.94    6.31
   0  -1  -9   38.67    6.93
   0  -1  -9   51.26    9.27
   0  -1  -9   41.08    6.45
   0   1   9   37.00    8.36
   0   1   9   42.46    7.81
   0   1   9   30.26    6.14
   0   1   9   35.44    6.80
  -1  -1  -9    8.39    4.47
  -1  -1  -9    7.25    2.90
  -1  -1  -9    5.56    3.57
  -1  -1  -9   14.89    4.07
  -1  -1  -9   16.63    4.66
   1   1   9   15.40    5.03
   1   1   9   14.90    4.61
   1   1   9   14.64    5.04
   1   1   9    8.87    3.79
  -2  -1  -9  170.39   20.70
  -2  -1  -9  202.30   18.33
  -2  -1  -9  201.92   20.15
  -2  -1  -9  211.43   18.01
   2   1   9  184.92   18.35
   2   1   9  181.21   20.09
   2   1   9  214.06   20.70
   2   1   9  178.17   18.57
  -3  -1  -9   83.89   11.80
  -3  -1  -9   74.35   12.25
  -3  -1  -9   62.23    8.68
  -3  -1  -9   65.54    8.55
   3   1   9   62.77    9.53
   3   1   9   76.51   11.47
  -4  -1  -9    2.29    3.48
  -4  -1  -9    9.23    4.39
  -4  -1  -9   -1.30    5.56
   4   1   9   20.59    7.44
   4   1   9    1.38    4.35
  -5  -1  -9   50.85   11.28
  -5  -1  -9   58.80   14.48
  -5  -1  -9   50.25    9.44
  -5  -1  -9   50.40    9.20
   5   1   9   55.95   10.27
   5   1   9   66.21    9.83
   5   1   9   85.68   14.55
  -6  -1  -9   57.88   10.27
  -6  -1  -9   44.32    8.44
  -6  -1  -9   46.40   11.40
  -9   2   9   32.24    5.90
  -8   2   9    7.48    2.75
  -8   2   9    9.00    5.62
  -8   2   9   12.03    3.59
  -8   2   9    6.07    4.03
  -7   2   9    9.22    3.76
  -7   2   9    8.09    2.07
  -7   2   9   11.35    4.84
  -7   2   9   11.70    3.27
  -6   2   9    0.24    1.73
  -6   2   9   -3.49    2.49
  -6   2   9   -2.68    2.25
  -6   2   9   -5.46    2.49
  -6   2   9    0.42    2.19
   5  -2  -9  246.84   21.09
  -5   2   9  255.85   21.52
  -5   2   9  253.34   22.03
  -5   2   9  222.12   21.33
  -5   2   9  245.99   21.71
   4  -2  -9   -2.78    3.87
   4  -2  -9    3.37    1.87
   4  -2  -9    2.33    3.24
  -4   2   9    0.20    2.14
  -4   2   9   -0.09    2.02
  -4   2   9    6.15    3.87
   3  -2  -9   39.90    7.67
   3  -2  -9   42.32    6.72
   3  -2  -9   33.75    5.29
   3  -2  -9   36.48    5.17
   3  -2  -9   37.05    8.57
  -3   2   9   43.71    6.76
  -3   2   9   43.77    6.49
  -3   2   9   44.13    6.86
   2  -2  -9   -0.09    2.03
   2  -2  -9    5.00    2.87
   2  -2  -9    4.65    3.01
  -2   2   9   -1.77    2.06
  -2   2   9    0.23    2.71
  -2   2   9    1.36    2.25
   1  -2  -9  391.62   30.99
   1  -2  -9  359.90   29.49
   1  -2  -9  343.92   28.78
   1  -2  -9  349.97   26.44
  -1   2   9  281.05   26.06
  -1   2   9  262.91   27.13
  -1   2   9  296.57   29.08
  -1   2   9  327.86   28.59
   0  -2  -9    5.46    2.93
   0  -2  -9    8.78    4.75
   0  -2  -9   -1.58    3.65
   0  -2  -9   -1.15    2.98
   0  -2  -9    2.39    1.83
   0  -2  -9    4.14    2.97
   0   2   9    6.79    2.91
   0   2   9    3.76    3.59
   0   2   9   -0.18    3.59
   0   2   9    5.44    3.39
   0   2   9    1.38    2.03
  -1  -2  -9  200.05   20.36
  -1  -2  -9  232.37   22.86
  -1  -2  -9  197.87   22.90
  -1  -2  -9  209.84   19.85
   1   2   9  281.24   24.43
   1   2   9  231.19   21.47
   1   2   9  209.60   19.73
   1   2   9  263.26   23.91
  -2  -2  -9  112.37   12.46
  -2  -2  -9  110.59   12.01
  -2  -2  -9  136.24   16.07
   2   2   9  102.29   12.81
  -3  -2  -9   16.93    7.42
  -3  -2  -9   24.47    6.29
   3   2   9   21.66    6.51
  -4  -2  -9  202.80   27.11
  -4  -2  -9  237.31   26.53
  -4  -2  -9  275.94   24.54
  -4  -2  -9  271.78   24.51
   4   2   9  260.14   24.49
   4   2   9  279.47   27.43
  -5  -2  -9   -0.51    5.39
  -5  -2  -9   -8.79    3.75
  -5  -2  -9   -2.44    4.83
  -5  -2  -9    3.15    4.16
   5   2   9   -0.17    8.55
   5   2   9   -5.52    4.95
  -9   3   9    2.89    5.89
  -8   3   9    7.29    2.20
  -8   3   9   -0.14    3.37
  -8   3   9   14.18    3.80
  -8   3   9    4.30    4.37
  -8   3   9    2.38    5.11
  -7   3   9   28.57    3.16
  -7   3   9   22.12    3.56
  -7   3   9   26.96    5.05
  -7   3   9   25.92    5.55
   6  -3  -9   -7.18    3.02
  -6   3   9   -0.18    2.10
  -6   3   9   -0.07    2.52
  -6   3   9    4.53    2.31
  -6   3   9   -1.16    1.78
   5  -3  -9   24.13    5.17
  -5   3   9   28.71    5.86
  -5   3   9   19.05    3.26
  -5   3   9   31.37    4.73
  -5   3   9   23.20    4.86
  -5   3   9   30.15    5.32
   4  -3  -9   46.37    7.44
   4  -3  -9   35.59    5.14
   4  -3  -9   36.27    5.54
   4  -3  -9   39.69    4.05
  -4   3   9   38.54    5.99
  -4   3   9   46.55    6.69
  -4   3   9   42.73    6.54
  -4   3   9   51.27    7.05
   3  -3  -9  209.99   19.65
   3  -3  -9  208.19   18.06
   3  -3  -9  226.06   20.93
   3  -3  -9  214.92   18.31
   3  -3  -9  186.91   19.46
   3  -3  -9  202.82   21.41
  -3   3   9  223.45   17.42
  -3   3   9  234.66   20.76
  -3   3   9  226.37   21.60
  -3   3   9  216.12   19.88
  -3   3   9  222.96   20.34
   2  -3  -9  135.73   14.14
   2  -3  -9  133.41   12.19
   2  -3  -9   98.85   12.42
   2  -3  -9   92.94   13.70
  -2   3   9  138.68   13.31
  -2   3   9  107.39   10.30
  -2   3   9  100.34   11.40
  -2   3   9  115.68   12.72
  -2   3   9  137.43   13.72
   0  -3  -9  639.67   51.72
   0  -3  -9  589.84   49.27
   0  -3  -9  558.60   51.37
   0  -3  -9  622.23   48.35
   0   3   9  525.91   50.75
   0   3   9  614.46   50.32
   0   3   9  596.95   50.09
  -1  -3  -9  170.14   18.54
  -1  -3  -9  137.23   17.44
  -1  -3  -9  141.04   14.69
  -1  -3  -9  158.93   15.57
   1   3   9  118.48   19.37
   1   3   9  162.31   16.30
   1   3   9  163.42   17.85
  -2  -3  -9  384.27   37.61
  -2  -3  -9  413.36   34.56
  -2  -3  -9  416.64   35.65
  -2  -3  -9  345.75   36.70
   2   3   9  426.92   35.92
  -3  -3  -9   44.29    8.88
  -3  -3  -9   76.92   12.48
  -3  -3  -9   44.76   11.80
  -3  -3  -9   42.59    8.43
   3   3   9   55.11   10.38
   3   3   9   60.77   10.98
  -4  -3  -9   85.00   13.76
  -4  -3  -9   93.26   12.32
  -4  -3  -9   91.86   16.85
  -4  -3  -9   88.94   12.23
   4   3   9   69.36   14.01
   4   3   9  119.64   20.35
  -5  -3  -9   10.04    7.78
  -5  -3  -9    2.37    6.25
  -5  -3  -9    3.63    6.33
   5   3   9   -1.29    7.09
  -9   4   9    0.81    3.45
  -8   4   9   -0.23    1.70
  -8   4   9   -5.57    4.36
  -8   4   9   -0.59    2.92
  -8   4   9    5.08    2.97
  -7   4   9   -0.65    2.96
  -7   4   9    5.42    2.23
  -7   4   9    8.10    3.00
  -7   4   9    4.05    2.31
  -7   4   9    7.67    1.65
  -7   4   9   -2.99    3.00
   6  -4  -9  138.16   13.91
  -6   4   9  143.18   13.46
  -6   4   9  132.31   10.77
  -6   4   9  120.78   10.89
  -6   4   9  131.97   13.03
  -6   4   9  126.83   12.62
   5  -4  -9   -4.05    2.96
  -5   4   9    4.56    2.94
  -5   4   9    2.12    2.43
  -5   4   9    0.76    2.62
  -5   4   9    1.96    1.27
  -5   4   9   -3.87    2.02
   4  -4  -9  158.38   14.69
   4  -4  -9  147.85   14.28
  -4   4   9  161.63   13.01
  -4   4   9  146.31   14.47
  -4   4   9  164.04   15.98
  -4   4   9  145.03   15.19
  -4   4   9  152.47   15.72
   3  -4  -9  126.39   13.92
   3  -4  -9  143.15   11.70
   3  -4  -9  130.43   13.47
   3  -4  -9  131.39   12.96
   3  -4  -9  130.33   11.27
   3  -4  -9  110.46   14.89
  -3   4   9  137.63   14.40
  -3   4   9  136.58   14.78
  -3   4   9  139.35   14.43
  -3   4   9  141.85   11.92
   2  -4  -9   90.15   11.74
   2  -4  -9   82.58    9.59
   2  -4  -9   95.00   10.87
   2  -4  -9   97.47   13.06
   2  -4  -9   89.64   10.15
  -2   4   9   99.19    9.21
  -2   4   9   96.35   11.48
  -2   4   9   90.54   12.59
  -2   4   9  101.97   12.45
   1  -4  -9  368.45   32.19
   1  -4  -9  355.13   34.43
   1  -4  -9  348.93   31.10
  -1   4   9  420.67   33.88
  -1   4   9  390.35   33.32
  -1   4   9  348.86   31.17
  -1   4   9  359.30   34.01
   0  -4  -9  235.75   25.23
   0  -4  -9  254.91   22.17
   0  -4  -9  248.17   23.02
   0  -4  -9  263.60   25.91
   0   4   9  211.63   24.28
   0   4   9  237.57   23.52
   0   4   9  253.66   24.52
  -1  -4  -9   56.67    9.54
  -1  -4  -9   38.78    8.14
  -1  -4  -9   45.56    8.52
  -1  -4  -9   32.46    9.73
  -1  -4  -9   50.56   10.38
   1   4   9   61.06   11.38
  -2  -4  -9   41.32    9.15
  -2  -4  -9   32.92    7.46
  -2  -4  -9   41.17   11.35
  -2  -4  -9   40.67    8.37
   2   4   9   54.24   10.08
   2   4   9   33.71    8.71
  -3  -4  -9    5.21    3.98
  -3  -4  -9    0.09    8.94
  -3  -4  -9   -2.30    4.04
  -3  -4  -9   -5.46    4.44
  -3  -4  -9    1.06    6.03
   3   4   9   -1.12    5.47
   3   4   9   -0.80    5.89
  -4  -4  -9    4.98    8.31
  -4  -4  -9   -4.74    4.23
   4   4   9    3.96    9.57
   4   4   9   11.42    6.58
  -9   5   9   23.93    4.99
  -8   5   9   48.50    7.67
  -8   5   9   58.97    6.08
  -8   5   9   62.13    9.08
  -7   5   9   39.63    6.49
  -7   5   9   31.18    5.96
  -7   5   9   33.61    6.33
  -7   5   9   32.55    5.18
  -7   5   9   40.16    4.59
  -7   5   9   43.79    6.55
  -6   5   9   14.94    6.39
  -6   5   9   12.30    4.15
  -6   5   9   11.89    4.06
  -6   5   9   13.31    4.13
  -6   5   9   14.50    3.39
   5  -5  -9   81.03   13.27
   5  -5  -9   99.01    9.68
   5  -5  -9  112.77    9.70
  -5   5   9  116.81   15.21
  -5   5   9  104.48    9.66
  -5   5   9   99.57   11.89
  -5   5   9  115.49   12.24
   4  -5  -9   -2.78    3.81
   4  -5  -9   -0.56    3.52
   4  -5  -9    0.74    3.35
  -4   5   9    0.57    1.79
  -4   5   9    5.40    3.30
  -4   5   9   -3.23    2.70
  -4   5   9    3.18    3.70
   3  -5  -9  148.82   18.44
   3  -5  -9  155.26   13.54
   3  -5  -9  151.26   16.13
   3  -5  -9  158.06   13.82
   3  -5  -9  163.15   16.91
   3  -5  -9  203.78   17.39
  -3   5   9  170.60   17.30
  -3   5   9  182.94   18.06
  -3   5   9  159.23   14.65
   2  -5  -9   40.24    7.69
   2  -5  -9   30.48    5.24
   2  -5  -9   28.94    8.71
   2  -5  -9   37.48    6.19
  -2   5   9   37.65    8.44
  -2   5   9   51.52    9.72
  -2   5   9   60.52   10.72
   1  -5  -9   -0.30    3.72
   1  -5  -9   -0.01    3.19
   1  -5  -9   -1.02    2.22
   1  -5  -9    1.59    5.02
  -1   5   9    1.72    3.66
  -1   5   9    6.51   18.47
   0  -5  -9   41.35    8.68
   0  -5  -9   47.27    8.22
   0  -5  -9   48.32   12.32
   0  -5  -9   33.04    7.52
   0   5   9   38.89    8.36
   0   5   9   39.21   10.00
  -1  -5  -9   54.21    9.84
  -1  -5  -9   30.98    7.98
  -1  -5  -9   27.55   15.10
  -1  -5  -9   39.73    8.26
   1   5   9   40.94    9.74
   1   5   9   44.74    9.52
  -2  -5  -9   14.14    6.02
  -2  -5  -9   13.82   10.84
  -2  -5  -9   18.19    6.64
  -2  -5  -9   15.18    8.67
  -2  -5  -9   21.75    7.41
   2   5   9   16.67    8.16
   2   5   9    9.03    6.81
  -3  -5  -9    3.15    8.68
  -3  -5  -9    9.42    8.48
  -3  -5  -9    3.66    6.07
   3   5   9    3.44    6.52
   3   5   9   15.27    8.14
  -8   6   9    6.42    3.92
  -8   6   9    7.15    3.42
  -8   6   9   -0.20    3.72
  -7   6   9    1.72    3.30
  -7   6   9    4.68    3.22
  -7   6   9   -1.11    3.04
  -7   6   9   -4.10    3.29
   6  -6  -9   37.95    9.24
  -6   6   9   36.00    7.33
  -6   6   9   36.13    5.55
  -6   6   9   39.55    7.75
  -6   6   9   56.62    7.80
   5  -6  -9    5.97    4.15
   5  -6  -9    8.59    4.38
  -5   6   9   13.95    5.38
  -5   6   9   15.62    5.05
  -5   6   9    8.78    4.46
  -5   6   9    7.75    3.24
   4  -6  -9    2.25    5.54
   4  -6  -9    5.37    5.49
   4  -6  -9    3.53    5.69
   4  -6  -9    9.70    4.49
  -4   6   9    9.43    4.85
  -4   6   9   11.34    5.72
  -4   6   9    7.98    3.62
  -4   6   9   10.22    4.87
   2  -6  -9   15.38    6.14
   2  -6  -9    9.26    3.75
   2  -6  -9   10.09    7.14
  -2   6   9   12.93    6.10
  -2   6   9    9.66    8.05
  -2   6   9   21.41    7.06
   1  -6  -9   39.74    8.22
   1  -6  -9   47.92    9.14
   1  -6  -9   43.17   11.33
   1  -6  -9   30.53    6.93
  -1   6   9   29.95    7.95
  -1   6   9   29.01    8.30
   0  -6  -9  269.08   25.22
   0  -6  -9  252.57   28.32
   0  -6  -9  258.89   24.27
   0  -6  -9  254.65   23.91
   0   6   9  239.74   25.16
   0   6   9  188.12   25.51
  -1  -6  -9    1.42    5.99
  -1  -6  -9    7.75    8.14
  -1  -6  -9    3.61    5.12
  -1  -6  -9    0.21    4.57
   1   6   9   -4.18    6.09
   1   6   9    4.46    6.31
  -2  -6  -9   79.57   17.99
   2   6   9   88.88   17.87
   2   6   9  119.83   16.68
  -8   7   9   15.35    5.02
  -8   7   9   23.40    6.16
  -7   7   9    4.42    4.54
  -7   7   9   11.71    5.24
  -7   7   9    3.70    5.08
   6  -7  -9   10.28    8.08
  -6   7   9   10.01    5.57
  -6   7   9    7.92    4.45
  -6   7   9    5.73    3.94
  -6   7   9    6.36    4.15
   5  -7  -9   -2.23    6.64
   5  -7  -9   -1.96    5.09
   5  -7  -9  -12.28    5.84
  -5   7   9   -2.13    3.71
  -5   7   9    2.99    5.73
  -5   7   9   -1.78    3.67
  -5   7   9   -6.09    3.28
   4  -7  -9   10.18    5.38
   4  -7  -9   10.07    7.01
   4  -7  -9   -2.84    5.82
  -4   7   9    5.84    4.97
  -4   7   9    0.97    4.53
  -4   7   9    9.45    6.99
   3  -7  -9   56.02    6.84
   3  -7  -9   53.64   10.06
  -3   7   9   58.34   11.44
  -3   7   9   96.19   14.65
  -3   7   9   42.54   10.02
   2  -7  -9   56.07   12.99
   2  -7  -9   53.92    8.03
   2  -7  -9   55.33   13.77
   2  -7  -9   58.21   10.73
  -2   7   9   57.33   14.34
  -2   7   9   52.59   12.37
  -2   7   9   62.56   11.18
   1  -7  -9   51.96   10.06
   1  -7  -9   57.42   13.96
   1  -7  -9   45.70    9.63
   1  -7  -9   52.52    9.44
  -1   7   9   72.33   14.30
  -1   7   9   42.69   10.07
   0  -7  -9   31.31    8.89
   0  -7  -9   25.79    7.84
   0  -7  -9   56.72   14.42
   0  -7  -9   28.05    8.53
   0   7   9   18.66   10.51
   0   7   9   23.19    9.66
  -1  -7  -9   -0.15    6.74
  -1  -7  -9    8.63    9.63
  -1  -7  -9    5.72    7.11
  -1  -7  -9    8.44    7.14
   1   7   9   -3.28    7.73
  -7   8   9   15.59    6.45
  -7   8   9   18.01    7.21
   6  -8  -9    2.76    5.54
  -6   8   9    7.45    4.65
  -6   8   9    1.71    5.11
   5  -8  -9  152.39   24.09
   5  -8  -9  117.32   15.93
  -5   8   9  143.18   17.76
  -5   8   9  132.79   16.65
   4  -8  -9   -0.56    8.83
   4  -8  -9  -15.63    7.15
   4  -8  -9   15.52   10.41
  -4   8   9   -8.32    4.71
  -4   8   9    1.76    4.99
   3  -8  -9   62.32   15.26
   3  -8  -9   72.34    9.46
  -3   8   9  103.59   15.42
  -3   8   9  117.14   15.01
   2  -8  -9   17.12    7.83
   2  -8  -9   11.28    7.68
   2  -8  -9   20.98   10.04
  -2   8   9   19.80    8.99
  -2   8   9   16.75   12.48
   1  -8  -9   16.77    9.44
   1  -8  -9   -1.16    6.23
   1  -8  -9   -0.32   10.07
   1  -8  -9    1.60    5.29
  -1   8   9    3.01    6.06
  -1   8   9   -5.94    6.28
   5  -9  -9   -7.13    8.92
  -5   9   9   10.62    7.50
  -5   9   9   13.47    7.84
   4  -9  -9   15.21    9.65
   4  -9  -9   -0.72   13.32
   4  -9  -9   -1.87    8.20
  -4   9   9    9.77   12.66
  -4   9   9   25.14    9.06
   0  -9  10   29.93   16.54
   0  -9  10    3.70    7.61
   0  -9  10    7.86   13.06
  -1   9 -10   22.92   10.41
   1  -9  10   25.36   15.19
   1  -9  10   16.66   11.03
  -2   9 -10    6.13    8.28
   2  -9  10   10.88    7.54
   2  -9  10    5.11   13.35
   2  -9  10   25.10   11.30
  -3   9 -10   11.00    9.18
  -3   9 -10  -10.91   10.78
   3  -9  10   -8.60    6.16
   3  -9  10    7.65   12.00
   3  -9  10   -8.64    7.76
  -4   9 -10   -0.13    6.43
  -4   9 -10   10.14    9.35
   4  -9  10    4.83    7.13
   4  -9  10    9.20    8.63
   4  -9  10    6.81   13.39
  -5   9 -10    9.62    7.09
  -5   9 -10   -6.34    7.51
   5  -9  10   -4.20    7.47
   5  -9  10   -3.35   14.42
   2   8 -10    3.81   11.97
  -2  -8  10   -8.39    9.15
  -2  -8  10   -5.38    7.13
  -2  -8  10    0.78   15.52
   1   8 -10   52.42   11.29
   1   8 -10   45.17   13.88
  -1  -8  10   39.38   21.81
  -1  -8  10   50.30   19.07
  -1  -8  10   42.34   11.71
   0   8 -10   12.51    7.54
   0   8 -10    6.17    8.90
   0  -8  10   10.88   12.84
   0  -8  10    4.25    7.66
   0  -8  10    3.35    8.19
  -1   8 -10   21.88    9.27
  -1   8 -10   20.61    7.20
   1  -8  10   44.44   10.47
  -2   8 -10    2.78    5.38
  -2   8 -10   -2.84    7.82
   2  -8  10    2.49    5.72
   2  -8  10   13.58   10.10
   2  -8  10   17.47    8.62
  -3   8 -10   27.45   10.33
  -3   8 -10   15.42    6.62
   3  -8  10   14.02    7.04
   3  -8  10   35.97   13.27
   3  -8  10   10.05    7.65
  -4   8 -10    1.02    6.39
  -4   8 -10    0.05    5.45
   4  -8  10    3.75    6.65
   4  -8  10    4.16    6.07
   4  -8  10    1.92   10.02
  -5   8 -10   69.17   14.22
  -5   8 -10   58.68   12.19
   5  -8  10   46.90   10.65
  -6   8 -10   -9.00    6.76
   6  -8  10   -4.81   10.01
   3   7 -10   32.56    8.85
   3   7 -10   16.12   14.89
  -3  -7  10   31.96    9.98
  -3  -7  10   48.18   19.85
  -3  -7  10   38.61   18.57
  -3  -7  10   18.23    9.92
   2   7 -10   24.74    7.45
  -2  -7  10   35.66    9.61
  -2  -7  10   29.29   13.51
  -2  -7  10   15.91    9.15
  -2  -7  10   14.08    9.08
   1   7 -10    3.41    5.63
   1   7 -10    6.35    7.96
  -1  -7  10   -5.30    8.95
  -1  -7  10   11.42    7.30
  -1  -7  10   -8.09   10.40
  -1  -7  10    8.20    5.68
  -1  -7  10    3.61    8.18
   0   7 -10    5.41    5.47
   0   7 -10    2.38    6.81
   0  -7  10    6.07    6.75
   0  -7  10   11.95    5.78
   0  -7  10   11.68   12.19
   0  -7  10    3.20   10.07
  -1   7 -10   25.17    8.57
  -1   7 -10   28.26   10.30
   1  -7  10   54.68   14.29
   1  -7  10   42.86   10.55
   1  -7  10   22.49    7.35
  -2   7 -10  110.57   15.73
  -2   7 -10  151.42   18.79
   2  -7  10  153.82   17.74
  -3   7 -10  104.15   24.23
  -3   7 -10   90.03   12.84
  -3   7 -10  121.59   16.36
   3  -7  10   74.25   13.98
   3  -7  10   89.48   14.16
   3  -7  10   51.85   13.63
  -4   7 -10   15.98    7.18
  -4   7 -10   25.39    7.06
  -4   7 -10   12.20   14.66
   4  -7  10   15.30    7.46
   4  -7  10   10.67   12.62
   4  -7  10   28.26    8.27
  -5   7 -10   10.26    5.63
  -5   7 -10   28.91    9.07
  -5   7 -10   12.53   13.28
   5  -7  10   12.96    6.76
   5  -7  10   17.07   12.28
  -6   7 -10   -6.30    4.77
  -6   7 -10   -3.65    4.80
   6  -7  10   -8.73   11.57
   6  -7  10  -10.36    5.38
   4   6 -10    3.05    5.05
  -4  -6  10    9.08    7.48
  -4  -6  10   11.43   13.09
  -4  -6  10   31.78   15.05
  -4  -6  10    8.21    7.06
   3   6 -10   25.96    6.09
   3   6 -10   22.63    8.91
  -3  -6  10   17.42    8.34
  -3  -6  10   29.64    9.02
  -3  -6  10   43.92   13.09
  -3  -6  10   16.31   10.28
   2   6 -10   34.10    6.94
   2   6 -10   31.77    8.57
  -2  -6  10   40.96   10.63
  -2  -6  10   41.98   10.43
  -2  -6  10   33.85    9.52
  -2  -6  10   20.59    7.61
   1   6 -10   21.38    7.18
   1   6 -10   24.37   11.39
  -1  -6  10    5.93   14.92
  -1  -6  10    2.61    5.83
  -1  -6  10   25.65    9.13
  -1  -6  10   15.36    7.80
   0   6 -10  312.00   32.78
   0  -6  10  315.60   31.92
   0  -6  10  356.23   33.51
   0  -6  10  330.24   36.60
  -1   6 -10  127.86   17.49
  -2   6 -10   14.76    6.38
  -2   6 -10   38.09   12.94
   2  -6  10   26.01    9.78
  -3   6 -10    4.45    4.63
  -3   6 -10   23.16   12.68
  -3   6 -10   -1.67    3.32
   3  -6  10    3.96    4.28
   3  -6  10   -3.00    4.86
   3  -6  10   -8.62    7.29
  -4   6 -10    8.54    5.40
  -4   6 -10  -11.81   11.60
  -4   6 -10   -1.74    3.85
   4  -6  10    1.33    5.11
   4  -6  10    3.92    8.28
  -5   6 -10    7.97    5.03
  -5   6 -10    3.86   12.74
  -5   6 -10    2.91    5.61
   5  -6  10   19.04   10.89
   5  -6  10   14.73    5.37
  -6   6 -10    5.02    5.09
  -6   6 -10   17.29    6.23
   6  -6  10    7.92    5.21
   6  -6  10    3.74    9.02
   6  -6  10    0.09    6.78
  -7   6 -10    6.76    6.00
  -7   6 -10   16.71    6.02
  -5  -5  10   -2.96    6.13
  -5  -5  10    0.46    6.35
  -5  -5  10    4.67   12.06
   4   5 -10   26.77    5.92
   4   5 -10   24.04    6.27
  -4  -5  10    9.94    7.73
  -4  -5  10   18.94    8.82
  -4  -5  10   26.18    8.81
  -4  -5  10   -4.40   10.08
  -4  -5  10   18.68    7.46
   3   5 -10   89.89   12.93
   3   5 -10   92.09   10.93
   3   5 -10   79.10   14.83
  -3  -5  10  104.04   15.56
  -3  -5  10  114.97   18.43
  -3  -5  10  112.06   12.96
  -3  -5  10   80.51   15.96
  -3  -5  10  101.68   16.36
   2   5 -10  135.56   14.17
   2   5 -10  116.20   16.98
  -2  -5  10  146.67   19.26
   1   5 -10   44.36    8.36
  -1  -5  10   50.30   10.60
  -1  -5  10   64.76   15.26
  -1  -5  10   25.37    8.06
  -1  -5  10   45.72   10.13
   0   5 -10    0.98    4.73
   0   5 -10   10.21    4.65
   0  -5  10    3.46    4.36
   0  -5  10   14.95    6.04
   0  -5  10    7.11    7.01
   0  -5  10   13.23    8.04
  -1   5 -10   18.46    5.86
  -1   5 -10   13.85   10.08
  -1   5 -10   29.17    8.35
   1  -5  10   17.61    7.23
   1  -5  10   29.87    8.48
   1  -5  10   17.87    6.61
   1  -5  10    8.81    5.40
  -2   5 -10  166.75   17.28
  -2   5 -10  123.38   15.04
   2  -5  10  137.14   16.24
   2  -5  10  131.04   20.18
  -4   5 -10   41.85   10.29
  -4   5 -10   28.05    6.91
  -4   5 -10   27.16   11.16
   4  -5  10    7.47    8.74
   4  -5  10   21.26    6.87
  -5   5 -10   -1.72    3.51
  -5   5 -10    5.59    4.30
   5  -5  10    3.72    7.40
   5  -5  10   -8.15    3.98
  -6   5 -10   83.16   18.68
  -6   5 -10   98.73   13.25
  -6   5 -10  102.68   12.96
   6  -5  10   91.37   11.77
   6  -5  10   98.28   15.91
   6  -5  10  110.58   18.09
  -7   5 -10    0.77    4.71
  -7   5 -10   -6.10    4.43
  -7   5 -10    2.89    4.60
  -6  -4  10   11.90    9.10
  -6  -4  10    2.40    6.59
  -6  -4  10   -3.88    4.99
   5   4 -10   71.88   13.59
  -5  -4  10  144.03   18.02
  -5  -4  10  118.13   15.48
  -5  -4  10   92.55   17.81
  -5  -4  10  144.80   19.98
  -5  -4  10  111.91   13.15
   4   4 -10    2.07    2.61
   4   4 -10    0.33    3.28
  -4  -4  10    1.07    4.61
  -4  -4  10    1.38    4.62
  -4  -4  10    1.62    5.75
  -4  -4  10    1.40    4.87
  -4  -4  10    0.19    6.82
   3   4 -10   82.12   10.21
   3   4 -10  116.96   11.31
  -3  -4  10   95.95   14.96
   2   4 -10   57.67    7.34
   2   4 -10   41.73    8.70
   2   4 -10   42.91    7.41
   2   4 -10   28.41    6.93
  -2  -4  10   39.84    9.51
  -2  -4  10   49.86   11.78
  -2  -4  10   47.50   11.91
  -2  -4  10   30.43    8.40
   1   4 -10    4.00    5.03
   1   4 -10    5.42    3.86
   1   4 -10   -2.35    2.50
   1   4 -10    5.55    3.84
  -1  -4  10    7.27    5.34
  -1  -4  10   -1.36    3.21
  -1  -4  10    2.39    4.36
  -1  -4  10   -5.46    3.77
   0   4 -10    7.77    3.84
   0   4 -10   21.31    9.49
   0   4 -10   19.29    7.15
   0   4 -10   21.91    6.92
   0  -4  10   18.92    7.23
   0  -4  10   25.93    9.67
   0  -4  10   13.87    5.68
  -1   4 -10   32.62    6.77
  -1   4 -10   24.53    9.51
  -1   4 -10   52.35    8.70
  -1   4 -10   46.84    9.35
   1  -4  10   49.25   12.39
   1  -4  10   34.33    8.68
   1  -4  10   36.19    8.86
   1  -4  10   48.73   11.24
  -2   4 -10  269.20   23.70
  -2   4 -10  269.33   29.43
   2  -4  10  276.95   25.00
   2  -4  10  248.67   26.33
   2  -4  10  227.13   28.75
   2  -4  10  215.44   24.48
  -3   4 -10  117.70   18.71
  -3   4 -10   87.00   11.36
  -3   4 -10  122.61   13.48
   3  -4  10   76.83   11.99
   3  -4  10   95.82   18.20
  -4   4 -10  258.24   26.33
  -4   4 -10  262.47   23.91
  -4   4 -10  185.38   28.92
   4  -4  10  258.10   24.12
   4  -4  10  280.09   28.08
  -5   4 -10   34.67    7.80
  -5   4 -10   42.78    8.64
  -5   4 -10   52.84   13.99
   5  -4  10   41.15   10.21
   5  -4  10   30.40    7.72
   5  -4  10   44.76    7.71
  -6   4 -10   -1.40    3.61
  -6   4 -10    0.22    4.46
  -6   4 -10    3.92    4.53
  -6   4 -10   13.85   11.47
   6  -4  10    7.16    5.51
   6  -4  10   -2.33    3.89
  -7   4 -10   20.79    6.00
  -7   4 -10   26.71    7.28
  -7   4 -10   21.51    7.52
  -6  -3  10    0.37    6.16
  -6  -3  10    8.68    4.68
  -6  -3  10    4.41    7.01
  -6  -3  10    6.37    5.36
   5   3 -10   -0.62    4.59
   5   3 -10    0.68    3.08
  -5  -3  10    1.55    5.25
  -5  -3  10    2.58    5.86
  -5  -3  10   -1.79    3.49
  -5  -3  10   -0.44    4.72
  -5  -3  10   13.00    4.71
   4   3 -10   11.73    4.87
   4   3 -10   -3.85    2.24
  -4  -3  10    6.37    4.72
  -4  -3  10    3.88    5.05
  -4  -3  10    1.22    5.51
  -4  -3  10   -4.06    3.33
  -4  -3  10   -1.03    4.01
   3   3 -10   15.70    4.78
   3   3 -10   21.96    4.25
   3   3 -10   28.40    6.63
  -3  -3  10   21.05    6.60
  -3  -3  10    8.70    6.07
  -3  -3  10   34.99    7.96
  -3  -3  10   13.29    7.04
   2   3 -10   18.98    5.71
   2   3 -10   29.38    6.91
  -2  -3  10   15.02    5.52
  -2  -3  10   27.24    8.49
  -2  -3  10   29.96    7.25
  -2  -3  10   33.93    7.72
   1   3 -10   96.52   12.94
   1   3 -10  109.32   11.27
   1   3 -10   93.10   10.40
   1   3 -10   94.40   12.91
  -1  -3  10   92.12   12.47
  -1  -3  10   89.91   12.31
  -1  -3  10  126.43   16.58
   0   3 -10  304.46   27.68
   0   3 -10  288.65   24.92
   0   3 -10  307.51   27.14
   0   3 -10  279.13   26.54
   0   3 -10  304.62   31.42
   0   3 -10  251.01   24.95
   0  -3  10  324.95   27.40
   0  -3  10  250.57   29.12
   0  -3  10  315.48   27.85
   0  -3  10  271.45   27.40
   0  -3  10  243.08   26.19
  -1   3 -10  222.94   27.42
  -1   3 -10  204.56   25.56
  -1   3 -10  228.99   22.83
  -1   3 -10  287.88   24.78
  -1   3 -10  313.83   23.98
   1  -3  10  248.38   25.38
   1  -3  10  271.22   25.01
   1  -3  10  262.47   27.69
   1  -3  10  266.83   24.79
   1  -3  10  241.73   24.94
  -2   3 -10  152.93   19.24
  -2   3 -10  109.75   13.35
   2  -3  10   95.30   14.98
  -3   3 -10   35.68   11.61
  -3   3 -10   32.10    6.92
  -3   3 -10   41.62    7.44
   3  -3  10   25.47    8.57
   3  -3  10   24.20    7.06
   3  -3  10   32.53    7.49
  -4   3 -10  212.50   20.60
  -4   3 -10  211.44   19.07
  -4   3 -10  198.32   19.28
   4  -3  10  182.33   19.31
   4  -3  10  203.41   22.95
   4  -3  10  186.81   19.08
  -5   3 -10    2.14    8.28
  -5   3 -10    4.60    3.69
  -5   3 -10    0.42    3.61
  -5   3 -10    5.68    4.59
   5  -3  10    6.16    4.51
   5  -3  10   -5.88    4.71
   5  -3  10   -0.10    5.57
  -6   3 -10  180.55   18.33
  -6   3 -10  182.48   26.16
  -6   3 -10  197.58   18.62
  -6   3 -10  182.29   19.72
   6  -3  10  145.80   16.78
   6  -3  10  218.71   24.31
  -7   3 -10   21.26    6.28
  -7   3 -10   13.38    7.19
  -7  -2  10    3.00    4.08
  -7  -2  10   -0.82    5.50
  -7  -2  10    0.13    5.38
  -7  -2  10    1.64    4.69
  -7  -2  10    3.26    4.93
   6   2 -10   20.98    4.80
   6   2 -10   30.50    6.32
  -6  -2  10   22.73    7.12
  -6  -2  10   16.40    6.03
  -6  -2  10   21.16    6.48
  -6  -2  10    7.13    6.71
  -6  -2  10   13.96    4.86
   5   2 -10    8.49    5.05
   5   2 -10   -1.73    2.31
  -5  -2  10    4.25    4.21
  -5  -2  10    2.91    4.16
  -5  -2  10    7.09    3.64
  -5  -2  10    7.91    5.92
  -5  -2  10   -4.49    4.06
   4   2 -10    4.44    1.61
   4   2 -10    0.86    1.76
   4   2 -10    9.51    4.74
   4   2 -10   -0.47    1.54
  -4  -2  10    4.28    4.35
  -4  -2  10    8.00    5.09
  -4  -2  10    2.71    3.74
  -4  -2  10    6.87    2.91
  -4  -2  10    0.10    5.08
  -4  -2  10    3.93    3.85
   3   2 -10  252.29   24.63
   3   2 -10  250.15   21.96
   3   2 -10  245.97   20.80
  -3  -2  10  271.34   26.65
  -3  -2  10  233.12   23.86
  -3  -2  10  239.71   22.88
  -3  -2  10  242.40   24.57
  -3  -2  10  271.50   24.18
   2   2 -10    9.21    3.74
   2   2 -10   -5.55    5.10
   2   2 -10    0.26    3.49
  -2  -2  10    4.54    3.21
  -2  -2  10    3.50    3.65
  -2  -2  10    3.81    3.35
   1   2 -10  204.40   20.27
   1   2 -10  196.03   24.88
   1   2 -10  192.41   20.63
   1   2 -10  187.70   17.94
   1   2 -10  227.11   18.85
   1   2 -10  224.88   20.48
  -1  -2  10  189.81   22.27
  -1  -2  10  226.34   20.97
  -1  -2  10  195.29   19.27
  -1  -2  10  217.27   21.01
   0   2 -10  160.23   18.62
   0   2 -10  140.69   15.38
   0   2 -10  152.58   13.38
   0   2 -10  136.34   15.41
   0   2 -10  124.91   14.57
   0   2 -10  129.25   13.36
   0  -2  10  143.08   17.41
   0  -2  10  130.08   15.15
   0  -2  10  145.48   15.37
   0  -2  10  110.90   13.65
   0  -2  10  127.27   15.35
  -1   2 -10  129.80   18.17
  -1   2 -10  142.43   15.71
  -1   2 -10  106.83   15.54
  -1   2 -10  149.82   16.14
  -1   2 -10  134.68   14.18
   1  -2  10  146.09   18.23
   1  -2  10  167.55   15.20
   1  -2  10  176.18   17.52
   1  -2  10  137.79   15.56
  -2   2 -10  365.40   30.79
  -2   2 -10  374.44   31.71
  -2   2 -10  279.22   33.74
   2  -2  10  332.60   31.03
   2  -2  10  360.04   31.80
   2  -2  10  366.98   34.14
   2  -2  10  391.28   33.42
  -3   2 -10  454.15   37.57
  -3   2 -10  426.49   35.90
  -3   2 -10  343.33   39.59
  -3   2 -10  443.70   36.55
   3  -2  10  406.90   36.80
   3  -2  10  472.43   40.19
   3  -2  10  428.60   37.06
  -4   2 -10   92.76   20.80
  -4   2 -10  135.08   18.38
  -4   2 -10  155.93   14.71
  -4   2 -10  129.81   14.86
   4  -2  10  151.50   14.90
   4  -2  10  154.88   18.07
   4  -2  10  132.84   14.83
  -5   2 -10  118.20   20.81
  -5   2 -10  111.97   12.62
  -5   2 -10  126.47   12.63
  -5   2 -10  100.64   13.78
   5  -2  10  104.40   15.79
   5  -2  10   84.16   12.65
   5  -2  10  115.03   12.43
  -6   2 -10   19.59   10.85
  -6   2 -10    6.88    4.53
  -6   2 -10    8.14    6.02
   6  -2  10   -4.94   10.45
   6  -2  10    3.86    7.11
  -7   2 -10    5.56    4.17
  -7   2 -10    0.04    8.06
  -7   2 -10    9.89    5.17
  -8  -1  10   15.15    6.56
  -8  -1  10   19.54    7.77
  -7  -1  10    4.43    3.73
  -7  -1  10    7.34    3.27
  -7  -1  10   -2.33    5.67
  -7  -1  10   12.17    5.65
  -7  -1  10    5.16    3.97
  -6  -1  10   17.24    6.00
  -6  -1  10   32.63    6.81
  -6  -1  10   25.95    6.18
  -6  -1  10   26.67    8.12
  -6  -1  10   17.49    5.65
  -6  -1  10   13.56    3.89
   5   1 -10   43.74    7.22
  -5  -1  10   50.09    8.73
  -5  -1  10   31.25    8.35
  -5  -1  10   35.92    7.24
  -5  -1  10   23.86    6.11
  -5  -1  10   38.14    5.37
   4   1 -10  160.50   13.28
   4   1 -10  138.58   16.76
   4   1 -10  199.11   16.56
  -4  -1  10  163.85   17.85
  -4  -1  10  147.84   16.60
  -4  -1  10  165.66   18.67
   3   1 -10   51.16    8.29
   3   1 -10   27.83    5.31
   3   1 -10   30.22    7.26
   3   1 -10   28.11    4.27
   3   1 -10   24.22    2.93
  -3  -1  10   22.89    6.38
  -3  -1  10   30.48    6.87
  -3  -1  10   40.53    7.91
  -3  -1  10   48.32   10.22
   2   1 -10  126.18   13.52
   2   1 -10  146.29   13.97
   2   1 -10   87.39   16.45
   2   1 -10  140.70   11.09
   2   1 -10  109.89   13.90
  -2  -1  10  124.68   14.09
  -2  -1  10  123.65   15.61
  -2  -1  10  151.78   14.45
  -2  -1  10  114.48   13.72
   1   1 -10 1024.59   73.20
   1   1 -10  927.65   73.13
   1   1 -10  826.45   75.22
   1   1 -10  792.47   73.31
   1   1 -10  992.91   71.77
   1   1 -10  941.39   71.76
  -1  -1  10  828.50   75.06
  -1  -1  10  839.67   73.45
  -1  -1  10  816.66   73.11
  -1  -1  10  945.76   75.51
  -1  -1  10  912.11   73.06
   0   1 -10  172.88   16.41
   0   1 -10  154.75   15.96
   0   1 -10  142.35   14.03
   0   1 -10  151.82   18.28
   0   1 -10  136.28   15.17
   0  -1  10  140.72   17.16
   0  -1  10  160.76   15.92
   0  -1  10  143.22   15.53
   0  -1  10  144.53   16.30
   0  -1  10  128.89   14.32
  -1   1 -10  612.00   58.84
  -1   1 -10  758.75   57.30
  -1   1 -10  621.84   59.49
  -1   1 -10  741.26   58.13
   1  -1  10  636.91   58.05
   1  -1  10  721.86   59.74
   1  -1  10  825.16   59.97
   1  -1  10  802.55   62.09
  -2   1 -10   -2.07    2.05
  -2   1 -10   -0.66    2.99
  -2   1 -10   -0.95    4.73
  -2   1 -10    3.90    2.53
   2  -1  10    1.44    4.67
   2  -1  10    2.61    3.88
   2  -1  10    4.18    3.50
   2  -1  10    1.99    3.32
  -3   1 -10   18.01    4.18
  -3   1 -10   31.33    7.37
  -3   1 -10   19.60    7.77
   3  -1  10   13.08    5.22
   3  -1  10   17.91    6.45
   3  -1  10   21.31    5.79
  -4   1 -10   72.95   14.67
  -4   1 -10  101.45   13.47
   4  -1  10   79.55   13.24
   4  -1  10   76.11   11.17
   4  -1  10   69.06    9.96
  -5   1 -10   20.28    7.30
  -5   1 -10    0.50    8.28
  -5   1 -10   15.38    4.77
  -5   1 -10   10.74    4.43
   5  -1  10   11.82    5.64
   5  -1  10   -2.74    5.40
   5  -1  10   18.90    5.71
  -6   1 -10   21.01    8.41
  -6   1 -10   20.34    5.73
  -6   1 -10   16.26    5.76
   6  -1  10   19.20   10.92
  -8   0  10   74.12    9.51
  -8   0  10   58.57   10.40
  -8   0  10   86.78   13.48
  -7   0  10    1.59    2.50
  -7   0  10    1.74    2.74
  -7   0  10   -8.81    4.31
   6   0 -10   70.88    8.13
  -6   0  10   90.12   10.28
  -6   0  10   87.51    9.60
  -6   0  10   60.91    8.80
  -6   0  10   72.13    9.48
  -6   0  10   70.04    7.13
  -6   0  10   73.35   11.25
   5   0 -10   57.59    9.29
   5   0 -10   28.86    6.74
  -5   0  10   41.91    7.67
  -5   0  10   35.90    6.99
  -5   0  10   31.91    7.35
  -5   0  10   27.31    5.40
  -5   0  10   41.95    8.37
   4   0 -10   29.26    6.84
  -4   0  10   31.82    7.38
  -4   0  10   37.68    7.55
  -4   0  10   60.43   10.25
  -4   0  10   30.64    6.25
  -4   0  10   49.84    8.85
   3   0 -10  318.33   30.49
   3   0 -10  355.19   28.38
   3   0 -10  328.44   29.21
  -3   0  10  381.82   32.47
  -3   0  10  372.48   32.90
  -3   0  10  337.85   29.36
  -3   0  10  356.67   30.87
  -3   0  10  344.37   30.64
   2   0 -10  154.12   19.26
   2   0 -10  194.15   18.31
   2   0 -10  194.37   14.51
   2   0 -10  180.61   17.51
  -2   0  10  167.14   17.84
  -2   0  10  187.47   17.53
   1   0 -10  121.94   14.79
   1   0 -10  115.87   16.38
   1   0 -10  153.90   13.89
   1   0 -10  158.78   12.50
   1   0 -10  124.42   14.96
   1   0 -10  161.18   15.64
  -1   0  10  157.00   15.17
  -1   0  10  151.34   15.65
  -1   0  10  157.06   16.88
  -1   0  10  150.98   14.72
   0   0 -10   96.54   10.67
   0   0 -10  120.19   12.61
   0   0 -10  125.78   12.86
   0   0 -10  100.48    9.64
   0   0 -10   99.94   12.08
   0   0 -10  106.30   14.45
   0   0  10   89.52   10.82
   0   0  10  108.33   12.44
   0   0  10  101.85   12.01
   0   0  10  101.65   13.34
  -1   0 -10   84.99    8.90
  -1   0 -10   79.42   11.10
  -1   0 -10  101.48   11.80
  -1   0 -10   80.93   11.93
  -1   0 -10   73.27   12.85
  -1   0 -10   80.73    9.73
   1   0  10  103.00   13.07
   1   0  10   93.43   11.15
   1   0  10   95.36   10.68
   1   0  10   75.65   11.60
  -2   0 -10   62.84   10.15
  -3   0 -10  109.98   11.83
  -3   0 -10  108.54   11.57
  -3   0 -10   90.54   15.45
  -3   0 -10  112.20   13.81
   3   0  10   94.79   12.15
   3   0  10  131.76   15.07
  -4   0 -10    9.44    7.29
  -4   0 -10    1.55    2.97
  -4   0 -10    4.52    3.30
  -4   0 -10    6.63    4.62
   4   0  10    3.50    3.80
   4   0  10    3.29    5.58
  -5   0 -10   -1.47    5.80
  -5   0 -10   -4.98    9.00
  -5   0 -10    1.06    3.06
  -5   0 -10    2.55    3.69
   5   0  10    1.31    4.74
   5   0  10    2.88    6.55
   5   0  10    6.36    6.47
  -6   0 -10    3.48    4.42
  -6   0 -10   16.70    6.28
  -6   0 -10    5.40    7.37
  -8   1  10    9.65    5.28
  -8   1  10   13.92    6.52
  -8   1  10    6.83    3.16
  -7   1  10   -1.07    3.23
  -7   1  10   -8.32    3.56
  -7   1  10    0.88    4.01
   6  -1 -10  235.08   21.69
  -6   1  10  314.26   24.06
  -6   1  10  248.54   22.88
  -6   1  10  245.82   22.59
  -6   1  10  272.63   24.99
  -6   1  10  270.51   23.86
   5  -1 -10   10.81    3.83
   5  -1 -10    4.22    3.48
  -5   1  10    4.16    3.03
  -5   1  10    2.67    2.74
  -5   1  10    0.16    3.35
  -5   1  10    6.64    3.43
  -5   1  10    8.66    3.80
   4  -1 -10  287.16   24.71
   4  -1 -10  276.78   24.83
   4  -1 -10  288.55   22.53
  -4   1  10  285.90   25.74
  -4   1  10  274.45   23.93
  -4   1  10  276.38   25.29
  -4   1  10  270.46   25.37
  -3   1  10   50.80    8.38
  -3   1  10   49.24    7.82
   2  -1 -10    3.50    2.71
   2  -1 -10    2.94    2.33
   2  -1 -10    0.33    3.83
   2  -1 -10    5.47    1.29
   2  -1 -10    1.37    3.07
   2  -1 -10    1.73    3.36
  -2   1  10    7.51    3.49
  -2   1  10    4.30    3.37
  -2   1  10    4.59    2.55
  -2   1  10    0.24    3.17
   1  -1 -10  293.17   24.51
   1  -1 -10  245.50   26.52
   1  -1 -10  327.95   27.69
   1  -1 -10  324.88   26.05
   1  -1 -10  273.26   28.98
  -1   1  10  329.27   27.75
  -1   1  10  308.35   28.54
  -1   1  10  312.07   27.12
  -1   1  10  311.63   26.22
   0  -1 -10   -1.03    3.10
   0  -1 -10    3.36    4.67
   0  -1 -10   -0.91    1.48
   0  -1 -10   -1.51    1.93
   0  -1 -10    2.98    3.21
   0  -1 -10   -0.22    3.13
   0   1  10    0.23    2.39
   0   1  10   -6.38    2.41
   0   1  10    3.15    3.72
   0   1  10    3.03    3.35
  -1  -1 -10   68.83   10.56
  -1  -1 -10   57.64   12.52
  -1  -1 -10   93.33    8.87
  -1  -1 -10   85.22    9.52
  -1  -1 -10   72.01   11.38
   1   1  10   79.21    9.95
   2   1  10  160.66   18.41
  -3  -1 -10   16.79    4.65
  -3  -1 -10   24.76    7.31
  -3  -1 -10    8.65    7.20
   3   1  10   30.85    8.50
  -4  -1 -10    4.57    6.94
  -4  -1 -10    3.63    6.31
  -4  -1 -10    1.78    3.05
  -4  -1 -10   -6.22    3.10
   4   1  10   -3.73    4.44
   4   1  10   -1.29    6.32
  -5  -1 -10   -5.54    6.56
  -5  -1 -10    6.17    4.72
  -5  -1 -10    0.28    4.10
   5   1  10    2.02    8.28
   5   1  10   -3.88    5.08
  -8   2  10  119.09   14.64
  -7   2  10   34.41    7.65
  -7   2  10   59.22    7.12
  -7   2  10   51.85   11.36
   6  -2 -10   30.47    5.37
  -6   2  10   39.85    5.82
  -6   2  10   33.52    5.23
  -6   2  10   43.37    6.65
  -6   2  10   41.14    6.88
  -6   2  10   42.25    6.44
   5  -2 -10   19.29    3.93
   5  -2 -10   15.15    4.36
  -5   2  10   16.55    4.92
  -5   2  10   19.40    4.11
  -5   2  10   13.18    3.90
  -5   2  10   18.04    4.41
  -5   2  10   13.26    4.53
   4  -2 -10  104.83    9.61
   4  -2 -10   92.81    9.84
   4  -2 -10   99.55   11.89
   4  -2 -10  106.58   10.97
  -4   2  10  115.72   11.03
  -4   2  10  122.94   12.28
  -4   2  10  102.14   11.49
  -4   2  10  107.78   12.10
  -4   2  10  110.39   10.82
   3  -2 -10   90.74    8.23
   3  -2 -10   62.26    8.12
   3  -2 -10   60.81    8.84
   3  -2 -10   85.13   10.54
  -3   2  10   72.08    8.86
  -3   2  10   73.17    9.27
  -3   2  10   81.38   10.07
  -3   2  10   59.17    8.91
   2  -2 -10  163.64   15.56
   2  -2 -10  199.75   18.05
   2  -2 -10  135.75   15.68
  -2   2  10  176.04   17.12
  -2   2  10  150.54   15.44
  -2   2  10  195.50   18.28
  -2   2  10  175.55   16.82
   1  -2 -10   81.71   12.35
   1  -2 -10   60.38   12.16
   1  -2 -10   61.22    7.59
   1  -2 -10   51.95    6.10
   1  -2 -10   51.02    8.89
   1  -2 -10   47.08    7.50
  -1   2  10   63.19    9.45
  -1   2  10   86.27   11.91
  -1   2  10   54.58    8.27
  -1   2  10   56.90    8.08
   0  -2 -10   13.33    4.35
   0  -2 -10   19.06    6.46
   0  -2 -10   11.69    6.49
   0  -2 -10   12.68    3.48
   0  -2 -10   20.77    5.25
   0   2  10   17.99    6.08
   0   2  10   10.77    4.56
   0   2  10    3.70    3.79
  -1  -2 -10    3.54    2.97
  -1  -2 -10   -5.24    4.07
  -1  -2 -10    9.33    3.25
  -1  -2 -10    1.47    4.22
  -1  -2 -10    8.80    4.47
   1   2  10    4.09    3.47
   1   2  10   14.77    5.54
   1   2  10    9.68    5.64
  -2  -2 -10   15.19    7.37
  -2  -2 -10   13.92    3.90
  -2  -2 -10   15.68    7.04
   2   2  10    9.60    5.06
  -3  -2 -10   52.23    9.26
  -3  -2 -10   28.75   10.43
  -3  -2 -10   53.40    9.63
   3   2  10   53.49   10.80
   3   2  10   76.07   10.09
  -4  -2 -10   14.40    5.06
  -4  -2 -10   15.15    5.37
  -4  -2 -10    1.68    8.30
  -4  -2 -10   10.34    6.42
   4   2  10    0.11    7.03
   4   2  10   13.16    6.40
  -5  -2 -10   70.03   12.25
  -5  -2 -10   92.06   13.15
  -5  -2 -10   70.13   14.42
  -5  -2 -10   87.20   16.58
   5   2  10  106.79   13.51
  -9   3  10    8.61    6.05
  -8   3  10   10.56    4.28
  -8   3  10    7.01    4.61
  -7   3  10    1.64    3.44
  -7   3  10    2.30    2.61
  -7   3  10    5.76    3.27
  -7   3  10    0.24    1.90
  -7   3  10    3.06    3.18
   6  -3 -10  165.49   16.13
  -6   3  10  162.67   15.93
  -6   3  10  166.72   15.04
  -6   3  10  182.96   16.75
   5  -3 -10   54.56    8.20
  -5   3  10   57.94    8.11
  -5   3  10   55.44    7.51
  -5   3  10   56.68    7.73
   4  -3 -10  118.27   10.88
   4  -3 -10   98.23    9.88
   4  -3 -10  117.44   13.99
  -4   3  10  115.75   11.39
  -4   3  10  109.87   12.13
  -4   3  10  117.32   12.62
  -4   3  10  142.23   13.26
  -3   3  10  254.58   22.79
  -3   3  10  176.17   21.36
  -3   3  10  256.81   18.91
   1  -3 -10   93.59    9.79
  -1   3  10  113.19   11.70
  -1   3  10   76.17    8.39
  -1   3  10   67.59   10.96
   0  -3 -10   31.06    9.55
   0  -3 -10   45.95   10.68
   0  -3 -10   57.42    8.12
   0  -3 -10   40.21    6.78
   0  -3 -10   38.98    7.34
   0   3  10   29.39    5.91
   0   3  10   62.79   11.52
   0   3  10   36.10    8.18
  -1  -3 -10   28.17    6.05
   1   3  10   36.34    8.29
   1   3  10   39.56    8.83
  -2  -3 -10   60.66   13.88
  -2  -3 -10   56.09   10.17
  -2  -3 -10   75.08   21.56
   2   3  10   71.95   15.93
   2   3  10   67.25   12.88
  -3  -3 -10   45.84    8.93
  -3  -3 -10   60.97   15.01
  -3  -3 -10   58.27   10.18
   3   3  10   54.72   14.24
   3   3  10   78.14   11.02
  -4  -3 -10  -10.95    5.36
  -4  -3 -10   -3.37    5.29
  -4  -3 -10    5.27    5.05
  -4  -3 -10    2.57    4.55
   4   3  10    1.09    7.79
   4   3  10    1.13    6.20
  -9   4  10    1.51    4.91
  -8   4  10   58.96    8.43
  -7   4  10    5.27    2.81
  -7   4  10   -1.22    3.51
  -7   4  10    5.90    3.47
  -7   4  10    7.71    3.96
   6  -4 -10   87.05   12.97
  -6   4  10  102.88   11.56
  -6   4  10  117.47   11.36
  -6   4  10  117.72   11.93
  -6   4  10  128.81   12.57
   5  -4 -10   56.36    9.39
  -5   4  10   46.76    7.28
  -5   4  10   54.58    7.86
  -5   4  10   51.70    9.37
   4  -4 -10   57.18    9.32
   4  -4 -10   28.48   10.30
   4  -4 -10   48.81    7.62
  -4   4  10   56.66    5.31
  -4   4  10   63.93    8.71
  -4   4  10   53.75    9.15
  -4   4  10   65.66    8.75
   3  -4 -10   -0.50    3.12
   3  -4 -10   -1.04    1.95
   3  -4 -10    8.13    8.07
   3  -4 -10    1.79    2.74
   3  -4 -10   -0.40    3.43
  -3   4  10    1.08    1.61
  -3   4  10   -0.63    3.24
  -3   4  10   -3.63    2.48
  -3   4  10   -0.31    3.66
   2  -4 -10   96.99   12.92
   2  -4 -10   96.18   13.84
   2  -4 -10   81.05   10.55
  -2   4  10  113.92   10.12
  -2   4  10  135.42   14.36
  -2   4  10  105.06   12.54
  -2   4  10  111.22   13.82
   0  -4 -10  168.20   15.43
   0  -4 -10  138.14   18.57
   0  -4 -10  159.30   21.85
   0   4  10  190.08   20.90
   0   4  10  128.23   17.87
   0   4  10  133.71   28.04
  -1  -4 -10   20.34    7.77
  -1  -4 -10   17.19    5.79
  -1  -4 -10   20.28    6.17
  -1  -4 -10   16.15    5.73
  -1  -4 -10   19.93    8.69
   1   4  10   19.18    7.47
   1   4  10   21.93    7.03
  -2  -4 -10    5.96    8.00
  -2  -4 -10   -1.89    3.09
  -2  -4 -10    1.87    4.49
  -2  -4 -10    7.09    4.41
  -2  -4 -10    5.65    6.19
   2   4  10    0.78    4.89
   2   4  10    1.97    5.39
  -3  -4 -10   13.78    7.06
  -3  -4 -10   13.35    6.92
  -3  -4 -10   12.28    5.41
  -3  -4 -10    4.52    5.48
   3   4  10    1.08    6.91
   3   4  10   27.12    7.33
  -8   5  10   84.00   10.26
   7  -5 -10    8.61    6.67
  -7   5  10   12.70    4.34
  -7   5  10    7.36    3.92
  -7   5  10    6.79    3.38
   6  -5 -10   27.00    7.20
  -6   5  10   20.45    3.13
  -6   5  10   26.04    5.69
  -6   5  10   26.08    6.07
  -6   5  10   16.29    5.32
   5  -5 -10   10.64    3.80
   5  -5 -10    9.32    4.70
   5  -5 -10   17.12    6.77
  -5   5  10   16.17    4.81
  -5   5  10   22.09    5.85
  -5   5  10   18.55    5.60
   4  -5 -10    8.31    5.45
   4  -5 -10   -0.55    4.64
   4  -5 -10    7.49    4.18
   4  -5 -10    5.01    4.26
  -4   5  10   13.08    5.21
  -4   5  10    6.04    2.68
  -4   5  10    7.04    4.22
  -4   5  10    4.76    3.63
   3  -5 -10   36.89    4.85
   3  -5 -10   31.01    4.17
   3  -5 -10   31.46    7.63
  -3   5  10   35.35    7.85
   2  -5 -10  102.18   11.80
   2  -5 -10   62.85   14.21
  -2   5  10   95.61    9.79
  -2   5  10   84.80   12.32
   1  -5 -10   13.88    4.82
   1  -5 -10   24.42    8.59
   1  -5 -10    0.51    4.43
   1  -5 -10    1.88    3.48
  -1   5  10   20.67    6.35
  -1   5  10   10.93    5.60
  -1   5  10   35.86    8.19
   0  -5 -10   16.62    5.31
   0  -5 -10   13.29    5.92
   0  -5 -10   32.42    9.99
   0  -5 -10   12.61    5.42
   0   5  10   32.94    8.58
   0   5  10   18.71    7.56
  -1  -5 -10   12.65    5.49
  -1  -5 -10    9.85    7.59
  -1  -5 -10   18.32    7.01
  -1  -5 -10   21.42    6.32
   1   5  10   11.78    6.89
   1   5  10    0.11    6.18
  -2  -5 -10    0.02    4.94
  -2  -5 -10    9.43    7.96
  -2  -5 -10    6.61    5.51
  -2  -5 -10    3.00    5.97
   2   5  10    4.85    6.49
   2   5  10    6.53    6.69
  -8   6  10    0.94    2.74
  -8   6  10    1.33    3.66
  -8   6  10   -3.45    3.85
  -8   6  10   -3.60    3.12
   7  -6 -10   20.20   10.40
  -7   6  10   13.69    4.31
  -7   6  10   11.44    3.26
  -7   6  10    8.33    4.62
  -7   6  10    9.02    3.97
   6  -6 -10   12.73    6.99
  -6   6  10   14.80    5.07
  -6   6  10    5.27    2.93
  -6   6  10   10.02    4.83
  -6   6  10    4.00    3.81
   5  -6 -10    2.86    5.84
   5  -6 -10    3.03    4.61
  -5   6  10    8.95    5.04
  -5   6  10    6.38    4.23
  -5   6  10    6.40    2.97
   4  -6 -10   12.02    5.57
   4  -6 -10    5.76    5.19
   4  -6 -10    8.62    6.49
   4  -6 -10   11.96    6.77
  -4   6  10    9.62    4.17
  -4   6  10    0.11    4.08
  -4   6  10    9.96    5.04
  -4   6  10    3.69    5.97
   3  -6 -10   42.60   11.08
   3  -6 -10   43.66    8.56
   3  -6 -10   32.21    4.52
   3  -6 -10   29.10    4.84
   3  -6 -10   35.99    7.85
  -3   6  10   40.30    9.94
  -3   6  10   33.26    8.57
  -3   6  10   34.32    8.02
  -3   6  10   35.10    6.35
   2  -6 -10   28.75    6.00
   2  -6 -10   19.20    4.94
   2  -6 -10    5.09    6.88
   2  -6 -10   10.51    5.98
  -2   6  10    3.15    5.94
  -2   6  10   19.44   12.98
  -2   6  10    3.30    4.79
   1  -6 -10    4.73    4.88
   1  -6 -10   -0.49    3.64
   1  -6 -10    8.42    7.39
  -1   6  10    9.36    5.87
   0  -6 -10    9.51    5.94
   0  -6 -10    2.55   13.95
   0  -6 -10    1.25    4.63
   0  -6 -10    9.06    5.03
   0   6  10   -2.52    5.32
   0   6  10   17.91    6.77
  -1  -6 -10   69.28   12.52
  -1  -6 -10   65.70   17.10
  -1  -6 -10   44.63   10.98
   1   6  10   92.81   15.27
   1   6  10   66.33   16.11
  -8   7  10    6.05    4.90
  -8   7  10    5.84    4.71
  -8   7  10    9.70    4.99
  -7   7  10    1.91    4.41
  -7   7  10   -0.45    3.93
  -7   7  10   -0.54    4.82
   6  -7 -10   30.52   10.11
  -6   7  10   11.41    6.17
  -6   7  10   14.59    5.54
  -6   7  10    6.42    5.13
   5  -7 -10    1.04    5.72
   5  -7 -10   -4.21    7.55
  -5   7  10  -10.41    3.62
  -5   7  10    0.47    4.69
  -5   7  10    6.80    4.72
  -5   7  10   -1.62    5.92
   4  -7 -10    0.80    6.71
   4  -7 -10    5.58    5.84
   4  -7 -10    8.75    7.56
  -4   7  10   17.17    6.28
  -4   7  10   16.47    6.80
  -4   7  10   17.47    8.16
   3  -7 -10    3.27    5.68
   3  -7 -10    2.19    2.78
   3  -7 -10   -7.30    6.36
   3  -7 -10   10.14    5.91
   3  -7 -10   15.50    6.83
  -3   7  10    3.59    5.76
  -3   7  10    3.74    5.67
  -3   7  10    3.82    9.07
   2  -7 -10   48.37   12.98
   2  -7 -10   37.88    8.78
   2  -7 -10   33.54    6.83
   2  -7 -10   37.32    9.48
  -2   7  10   34.92    9.06
  -2   7  10   49.04   10.92
   1  -7 -10   51.35   10.09
   1  -7 -10   44.02   10.67
   1  -7 -10   65.19   15.85
   1  -7 -10   33.77    8.31
  -1   7  10   64.59   13.04
  -1   7  10   48.95   11.76
   0  -7 -10  178.48   26.09
   0  -7 -10  205.22   23.44
   0  -7 -10  181.30   20.57
   0  -7 -10  186.10   20.75
   0   7  10  137.77   26.76
   0   7  10  195.79   24.37
  -7   8  10   -7.14    5.15
  -7   8  10   -3.36    5.19
   6  -8 -10   -0.57    8.76
  -6   8  10    5.16    5.22
  -6   8  10    5.86    5.92
   5  -8 -10  -16.77    9.85
   5  -8 -10    3.13    7.28
  -5   8  10    5.96    5.52
  -5   8  10    2.20    5.09
   4  -8 -10  182.08   20.40
   4  -8 -10  176.32   36.78
   4  -8 -10  198.85   22.39
  -4   8  10  159.43   21.60
  -4   8  10  168.50   20.55
   3  -8 -10   -2.72    3.85
   3  -8 -10    5.11    9.59
   3  -8 -10    9.54    8.10
   3  -8 -10    3.16    7.51
  -3   8  10    0.00    6.06
   2  -8 -10  177.11   21.29
   2  -8 -10  210.28   20.71
   2  -8 -10  139.43   17.18
   2  -8 -10  158.00   25.09
  -2   8  10  174.97   22.01
  -2   8  10  169.28   22.80
  -1   9 -11    6.92   10.91
  -1   9 -11   17.65    8.23
   1  -9  11   12.19   10.78
   1  -9  11    5.62    7.25
   1  -9  11   23.17   15.55
  -2   9 -11   17.05    9.91
  -2   9 -11   37.67   15.31
   2  -9  11   24.93   14.32
   2  -9  11   22.41   12.92
   2  -9  11   26.71   11.39
  -3   9 -11    7.76    7.92
  -3   9 -11   15.86   10.63
   3  -9  11   18.26   10.36
   3  -9  11   -0.42   15.29
  -4   9 -11    3.70    7.49
  -4   9 -11   10.59    7.71
   4  -9  11   -2.73    9.03
   4  -9  11    5.64    8.81
   4  -9  11   -4.26   13.40
   1   8 -11    6.32   11.24
   1   8 -11   10.57    7.55
  -1  -8  11   -8.52    6.66
  -1  -8  11   -4.46    9.32
  -1  -8  11   17.76   13.43
   0   8 -11   31.35   12.21
   0   8 -11   11.27    7.17
   0  -8  11   20.93   14.26
   0  -8  11   10.78    8.28
   0  -8  11   -3.67    8.17
  -1   8 -11   56.92   16.71
  -1   8 -11   39.06    9.68
   1  -8  11   39.46   11.34
   1  -8  11   36.20   13.38
   1  -8  11   39.95   11.57
  -2   8 -11   19.54    8.74
  -2   8 -11    8.31    6.29
   2  -8  11    4.22    6.90
   2  -8  11   20.97    8.05
   2  -8  11    0.83    9.55
   3  -8  11   44.16   10.07
   3  -8  11   21.21    8.28
   3  -8  11   20.29   10.79
  -4   8 -11   18.10    6.95
  -4   8 -11   14.35    8.44
   4  -8  11   -7.52   12.34
   4  -8  11   13.55    8.25
   4  -8  11   12.80    7.38
  -5   8 -11    3.68    7.56
   5  -8  11   26.83   15.81
   5  -8  11   -5.66    6.24
   3   7 -11    2.46    5.61
  -3  -7  11   -4.00    7.18
  -3  -7  11   -0.30    8.23
  -3  -7  11    9.36   14.84
  -3  -7  11   -2.22    9.15
   2   7 -11   -3.03    9.69
   2   7 -11   -2.67    5.06
  -2  -7  11    1.15   11.99
  -2  -7  11    6.03    6.99
  -2  -7  11    8.58    7.82
  -2  -7  11   -3.36    6.44
   1   7 -11   92.17   14.26
   1   7 -11  115.53   20.30
  -1  -7  11  104.42   16.87
  -1  -7  11  128.45   17.78
  -1  -7  11   94.10   19.74
  -1  -7  11  112.67   23.97
   0   7 -11    6.38    5.43
   0   7 -11    0.47    8.09
   0  -7  11  -12.03    6.33
   0  -7  11    0.59    8.66
   0  -7  11   -1.57    4.93
  -1   7 -11   47.84   11.99
  -1   7 -11   29.69    7.78
   1  -7  11   52.75   12.39
   1  -7  11   10.77    6.89
   1  -7  11   34.21   12.80
  -2   7 -11   26.64    9.37
  -2   7 -11   21.05    7.09
   2  -7  11   14.41    7.58
   2  -7  11   20.64    9.63
   2  -7  11   28.30    9.56
  -3   7 -11   52.49   11.05
  -3   7 -11   33.50    8.65
  -3   7 -11   20.54   17.91
   3  -7  11   19.68    7.99
   3  -7  11   32.35    9.45
   3  -7  11   12.10   10.52
  -4   7 -11   49.91   12.02
  -4   7 -11  -66.64   46.74
  -4   7 -11   60.23   12.01
   4  -7  11   64.91   17.45
   4  -7  11   52.25   12.30
   4  -7  11   64.06   11.64
  -5   7 -11   38.30    9.49
  -5   7 -11   52.94   11.60
   5  -7  11   19.47   14.22
   5  -7  11   35.15    9.21
  -6   7 -11    3.58    5.46
  -6   7 -11   -3.00    5.18
   6  -7  11    8.23    6.28
   4   6 -11    3.49    5.22
  -4  -6  11   17.97    9.31
  -4  -6  11    6.53    7.59
  -4  -6  11   -0.76    7.63
  -4  -6  11   19.32   12.41
   3   6 -11   43.38    7.96
   3   6 -11   31.35    9.35
  -3  -6  11   57.90   10.22
  -3  -6  11   49.29   14.18
  -3  -6  11   21.05    9.38
  -3  -6  11   48.85   12.29
   2   6 -11   11.63    7.52
  -2  -6  11   -2.29    5.10
  -2  -6  11   14.98    7.06
  -2  -6  11   -1.08    9.28
  -2  -6  11    8.08    6.61
   1   6 -11   37.18    8.31
   1   6 -11   38.70   10.12
  -1  -6  11   45.95   10.60
  -1  -6  11   21.08    8.13
  -1  -6  11   59.50   13.95
  -1  -6  11   51.87   15.30
   0   6 -11   11.00    6.59
   0   6 -11    4.28    4.77
   0  -6  11    7.42    8.92
   0  -6  11    4.97   10.14
   0  -6  11    8.72    7.16
   0  -6  11   -2.45    4.72
  -1   6 -11  311.49   31.03
  -1   6 -11  353.05   29.69
   1  -6  11  299.70   34.20
   1  -6  11  286.33   30.40
   1  -6  11  287.98   31.01
  -2   6 -11    7.17   14.45
  -2   6 -11    2.27    3.96
  -2   6 -11    1.91    4.88
   2  -6  11   -1.29    4.79
   2  -6  11    7.65    7.87
   2  -6  11    7.63    5.00
  -3   6 -11  111.70   14.20
   3  -6  11  131.15   17.06
   3  -6  11  134.85   24.03
   3  -6  11   93.39   15.28
  -4   6 -11   66.87   12.08
  -4   6 -11   59.13   12.22
  -4   6 -11   66.84   18.97
   4  -6  11   58.39   16.19
   4  -6  11   28.79   11.70
  -5   6 -11    5.14    4.43
  -5   6 -11    0.01   12.33
  -5   6 -11   10.17    5.31
   5  -6  11   -7.54    4.66
   5  -6  11  -12.40    8.33
  -6   6 -11   57.55   12.89
  -6   6 -11   55.56   11.00
   6  -6  11   57.11    9.77
   6  -6  11   37.01   14.01
  -5  -5  11   -2.62    6.66
  -5  -5  11    2.22    6.98
  -5  -5  11   -6.59   10.01
  -5  -5  11    7.20    7.39
   4   5 -11   -5.83    5.46
   4   5 -11   -1.05    3.66
  -4  -5  11   12.67    6.22
  -4  -5  11  -10.69    9.08
  -4  -5  11   -2.50    6.05
  -4  -5  11   -6.90    7.25
  -4  -5  11   11.43    6.97
   3   5 -11   60.25    8.72
   3   5 -11   47.03   10.00
  -3  -5  11   82.80   17.81
  -3  -5  11   55.94   12.62
  -3  -5  11   53.94   14.46
  -3  -5  11   52.29   11.92
  -3  -5  11   62.76   10.30
   2   5 -11  119.09   16.37
   2   5 -11  125.91   13.44
  -2  -5  11  127.73   19.61
  -2  -5  11   98.91   17.76
  -2  -5  11  125.06   16.76
  -2  -5  11  114.97   18.92
   1   5 -11  186.47   18.34
   1   5 -11  180.41   20.70
  -1  -5  11  187.94   22.91
  -1  -5  11  194.81   22.30
  -1  -5  11  174.07   23.41
  -1  -5  11  145.67   20.07
   0   5 -11  354.95   33.74
   0   5 -11  326.10   31.49
   0  -5  11  402.39   38.17
  -1   5 -11   12.18   10.05
  -1   5 -11    2.21    3.35
  -1   5 -11    2.53    4.77
   1  -5  11   -1.34    5.12
   1  -5  11    0.16    3.59
   1  -5  11   -1.37    5.84
   1  -5  11   -7.13    6.81
  -2   5 -11  123.43   26.41
  -2   5 -11  142.68   16.91
   2  -5  11  128.09   16.20
   2  -5  11  125.72   21.15
  -3   5 -11   38.28   14.18
  -3   5 -11   75.14   10.47
   3  -5  11   67.40   12.92
   3  -5  11  112.51   19.90
   3  -5  11   95.51   12.81
  -4   5 -11   31.86    7.28
  -4   5 -11   26.58   14.26
  -4   5 -11   52.62   10.50
   4  -5  11   39.84    8.91
   4  -5  11   23.37    9.17
  -5   5 -11   -2.51    3.78
  -5   5 -11   -3.34    4.04
  -5   5 -11   -2.61   10.87
   5  -5  11    1.41    4.64
   5  -5  11   10.53    8.10
  -6   5 -11    4.57    4.53
  -6   5 -11    4.78    4.51
   6  -5  11   -3.15    9.21
   6  -5  11    3.58    5.06
  -6  -4  11   39.29   13.37
  -6  -4  11   26.83    9.03
  -6  -4  11   25.08   10.79
  -6  -4  11   35.18   11.96
   5   4 -11   17.84    8.96
  -5  -4  11   10.85    6.47
  -5  -4  11    8.79    7.89
  -5  -4  11   20.23   10.76
  -5  -4  11   32.24    9.00
   4   4 -11  242.96   20.87
   4   4 -11  218.23   20.15
  -4  -4  11  207.59   25.32
  -4  -4  11  236.56   22.00
  -4  -4  11  242.34   24.37
  -4  -4  11  249.79   28.45
  -4  -4  11  220.70   25.71
   3   4 -11   32.03    6.12
   3   4 -11   26.72    8.18
   3   4 -11   42.19    6.37
  -3  -4  11   24.12    6.56
  -3  -4  11   35.08   10.84
  -3  -4  11   18.43    6.64
  -3  -4  11   28.13    9.51
  -3  -4  11   42.60   11.53
   2   4 -11   69.80   12.39
   2   4 -11   65.96    9.36
   2   4 -11   99.36   14.41
  -2  -4  11   90.31   12.67
  -2  -4  11   75.06   16.06
  -2  -4  11   91.30   16.40
  -2  -4  11   61.19   12.48
   1   4 -11   35.55    8.80
   1   4 -11   34.48   11.81
   1   4 -11   43.17    7.91
  -1  -4  11   55.57   13.43
  -1  -4  11   45.89   10.84
  -1  -4  11   52.18   10.99
  -1  -4  11   42.57    9.55
   0   4 -11   15.20    5.58
   0   4 -11    6.95    6.26
   0   4 -11    4.90    3.47
   0   4 -11   18.38   12.46
   0  -4  11   18.62    6.89
   0  -4  11   17.42    8.00
   0  -4  11    8.09    7.00
   0  -4  11   16.02    5.80
  -1   4 -11  109.51   13.11
  -1   4 -11  114.05   19.34
  -1   4 -11  133.20   13.45
   1  -4  11  108.30   14.52
   1  -4  11   90.02   14.26
   1  -4  11  167.53   20.31
  -2   4 -11    4.62    8.94
  -2   4 -11    6.37    3.72
  -2   4 -11    8.20    5.53
   2  -4  11    3.15    4.38
   2  -4  11   12.35    7.29
   2  -4  11   11.86    5.07
  -3   4 -11   16.08   11.25
   3  -4  11   15.22    6.39
   3  -4  11   16.04    7.25
  -4   4 -11    4.39    3.74
  -4   4 -11    4.04    9.84
  -4   4 -11    2.97    3.85
   4  -4  11    7.01    4.73
   4  -4  11    5.83    6.66
  -5   4 -11   89.16   12.72
  -5   4 -11   88.48   11.32
  -5   4 -11   93.26   11.87
  -5   4 -11   82.47   20.93
   5  -4  11  113.75   17.60
   5  -4  11   88.70   11.86
  -6   4 -11    3.38    4.53
  -6   4 -11    1.12    4.29
  -6   4 -11   -0.35    3.96
   6  -4  11    5.80    5.12
   6  -4  11   -4.46    7.91
  -6  -3  11   29.54    8.40
  -6  -3  11   23.05    9.23
  -6  -3  11   35.57   11.04
  -6  -3  11   52.20    8.34
  -6  -3  11   43.81    9.50
   5   3 -11   19.75    6.19
  -5  -3  11   13.73    8.71
  -5  -3  11    9.98    5.38
  -5  -3  11   23.18    7.89
  -5  -3  11   11.74    6.16
  -5  -3  11   12.41    7.05
   4   3 -11   17.67    3.52
   4   3 -11   11.47    3.42
  -4  -3  11   17.41    6.62
  -4  -3  11   15.15    8.61
  -4  -3  11   11.01    7.03
  -4  -3  11    8.20    6.28
  -4  -3  11   17.09    4.99
   3   3 -11   51.34    8.17
   3   3 -11   73.63   11.45
   3   3 -11   59.92    7.01
   3   3 -11   49.71    6.98
  -3  -3  11   80.62   12.20
  -3  -3  11   36.31    9.62
  -3  -3  11   47.09   13.85
  -3  -3  11   41.15   10.36
   2   3 -11  192.39   15.97
   2   3 -11  174.77   17.68
   2   3 -11  169.74   16.14
   2   3 -11  191.37   19.07
  -2  -3  11  159.21   18.60
  -2  -3  11  148.42   19.09
  -2  -3  11  180.55   21.57
  -2  -3  11  137.32   18.23
   1   3 -11   20.62    4.70
   1   3 -11   18.18    6.00
   1   3 -11   16.09    4.73
   1   3 -11   19.22    6.22
  -1  -3  11   18.10    6.19
  -1  -3  11   16.60    7.51
  -1  -3  11   24.18    6.61
  -1  -3  11    6.88    4.80
   0   3 -11   14.44    4.86
   0   3 -11   11.67    4.25
   0   3 -11   18.81    6.39
   0   3 -11   17.22    9.22
   0  -3  11   12.32    6.84
   0  -3  11   10.07    5.29
   0  -3  11   14.31    7.14
   0  -3  11   19.64    6.53
  -1   3 -11   62.22   14.76
  -1   3 -11  101.41   12.64
  -1   3 -11   94.32   10.62
   1  -3  11   69.92   14.76
   1  -3  11  126.59   16.88
   1  -3  11   73.27   11.37
   1  -3  11   88.55   14.48
  -2   3 -11   33.79   12.02
  -2   3 -11   37.24    7.91
  -2   3 -11   46.62    9.58
   2  -3  11   43.84    9.22
   2  -3  11   40.56   12.06
  -3   3 -11   78.40   17.42
  -3   3 -11   53.60    9.62
  -3   3 -11   40.88    8.00
   3  -3  11   58.20   11.45
   3  -3  11   72.50   11.81
  -4   3 -11   12.36    5.86
  -4   3 -11   12.50    4.39
  -4   3 -11   19.66   10.78
  -4   3 -11    9.63    4.40
   4  -3  11    7.71    5.86
   4  -3  11    6.48    4.80
  -5   3 -11   42.05    9.38
  -5   3 -11   33.02   20.41
  -5   3 -11   43.05    8.03
  -5   3 -11   46.57    8.84
   5  -3  11   32.31    7.60
   5  -3  11   36.40   10.21
  -6   3 -11    3.48    4.89
  -6   3 -11    0.44    5.55
  -6   3 -11    2.16    4.08
   6  -3  11   -9.01    7.54
   6  -3  11    0.61    5.18
  -7  -2  11    1.01    5.16
  -7  -2  11   -0.11    6.19
  -7  -2  11    0.14    4.39
  -7  -2  11   -1.58    4.10
   6   2 -11   55.82    8.79
  -6  -2  11   50.77    9.69
  -6  -2  11   47.05   11.16
  -6  -2  11   36.47    8.91
  -6  -2  11   48.84   10.53
  -6  -2  11   37.29    8.35
   5   2 -11   12.22    2.82
   5   2 -11   18.60    5.80
  -5  -2  11   11.63    5.48
  -5  -2  11   13.67    6.27
  -5  -2  11    6.84    3.90
  -5  -2  11   17.30    7.18
  -5  -2  11    2.79    8.75
   4   2 -11   73.79    7.74
   4   2 -11   66.39    6.62
   4   2 -11   68.19   10.41
   4   2 -11   64.49    6.60
  -4  -2  11   59.09   11.27
  -4  -2  11   70.81   17.76
  -4  -2  11   74.57   11.85
  -4  -2  11   77.62   12.98
   2   2 -11  179.01   15.48
   2   2 -11  175.43   17.64
  -2  -2  11  133.61   19.09
  -2  -2  11  150.49   17.45
  -2  -2  11  172.99   18.64
  -1  -2  11  104.51   15.97
   0   2 -11  652.41   53.87
   0   2 -11  687.63   53.45
   0   2 -11  600.31   50.59
   0   2 -11  580.02   51.08
   0   2 -11  598.36   52.24
   0  -2  11  689.42   53.62
   0  -2  11  591.29   53.37
   0  -2  11  646.88   53.79
   0  -2  11  583.12   54.91
  -1   2 -11   26.00    6.33
  -1   2 -11   19.94    7.17
   1  -2  11   11.00    6.20
   1  -2  11    8.64    5.99
   1  -2  11   16.93    6.18
   1  -2  11   21.83    6.79
  -2   2 -11   83.77   12.08
   2  -2  11  129.84   19.35
  -3   2 -11   36.10   10.98
  -3   2 -11   31.12    6.32
  -3   2 -11   33.73    6.84
   3  -2  11   26.92    6.76
   3  -2  11   39.33    9.45
  -4   2 -11    4.81    3.88
  -4   2 -11   12.55    8.78
  -4   2 -11   11.75    4.95
  -4   2 -11   12.72    5.47
   4  -2  11    5.34    4.58
   4  -2  11   15.82    7.18
  -5   2 -11   22.28    7.70
  -5   2 -11   16.06    5.40
  -5   2 -11   12.87   11.65
   5  -2  11   23.62    8.43
   5  -2  11   23.55    6.14
  -6   2 -11   -3.84    8.84
  -6   2 -11   -1.37    4.32
  -6   2 -11   -3.37    4.16
   6  -2  11   -1.37    5.58
   6  -2  11   -8.50    9.05
  -7  -1  11   49.71    7.90
  -7  -1  11   38.83   10.25
  -7  -1  11   51.26    7.18
  -7  -1  11   46.80    8.36
  -7  -1  11   50.22    9.17
   6   1 -11    1.28   11.41
  -6  -1  11    1.92    4.24
  -6  -1  11    0.50    3.14
  -6  -1  11   10.23    5.14
  -6  -1  11    2.83    5.04
  -6  -1  11  -11.57    4.51
   5   1 -11   37.76    7.08
  -5  -1  11   31.49    8.15
  -5  -1  11   21.95    6.71
  -5  -1  11   43.01    8.07
  -5  -1  11   27.31    8.00
  -5  -1  11   31.75    6.41
   4   1 -11  141.91   16.43
   4   1 -11  143.90   12.78
   4   1 -11  171.70   15.63
   4   1 -11  147.99   12.56
  -4  -1  11  155.02   18.10
  -4  -1  11  150.80   16.47
  -4  -1  11  141.29   14.79
  -4  -1  11  157.13   17.18
  -4  -1  11  142.58   16.39
   3   1 -11  105.13   10.44
   3   1 -11  105.22   14.22
  -3  -1  11   99.28   12.93
  -3  -1  11   76.11   13.13
   2   1 -11   91.00   12.33
   2   1 -11  124.10   12.77
   2   1 -11  117.78    9.69
   2   1 -11   98.10   10.69
  -2  -1  11  120.55   14.95
  -2  -1  11   93.95   11.63
  -2  -1  11   82.21   12.82
  -2  -1  11  114.43   13.28
  -2  -1  11  118.69   13.09
   1   1 -11  148.77   14.64
   1   1 -11  140.98   17.75
   1   1 -11  162.84   17.21
  -1  -1  11  151.08   16.93
  -1  -1  11  150.93   16.66
  -1  -1  11  208.88   20.36
   0   1 -11  234.83   22.26
   0   1 -11  206.47   18.66
   0   1 -11  199.55   19.73
   0   1 -11  238.57   22.13
   0   1 -11  223.99   21.32
   0   1 -11  238.58   25.09
   0  -1  11  202.27   21.96
   0  -1  11  226.69   21.96
   0  -1  11  228.27   21.85
   0  -1  11  203.30   23.43
  -1   1 -11   63.89    8.41
  -1   1 -11   54.90    7.31
  -1   1 -11   50.31   13.22
   1  -1  11   92.83   10.96
   1  -1  11   76.73   14.12
   1  -1  11   84.10   14.83
  -2   1 -11  194.72   25.22
  -2   1 -11  216.45   19.89
  -2   1 -11  247.74   22.70
   2  -1  11  260.76   24.91
   2  -1  11  198.53   21.44
  -3   1 -11   19.73    6.04
  -3   1 -11   25.89    5.10
  -3   1 -11   34.26   10.97
   3  -1  11   24.31    7.54
   3  -1  11   15.10    5.30
  -4   1 -11    2.36    8.83
  -4   1 -11   23.66    6.83
  -4   1 -11   16.62    5.56
  -4   1 -11   15.52    4.80
   4  -1  11   17.39    7.39
   4  -1  11   22.51    5.49
  -5   1 -11   72.09    9.89
  -5   1 -11   57.27    9.97
  -5   1 -11   68.85   12.74
   5  -1  11   74.90   10.94
   5  -1  11   45.79   11.26
  -6   1 -11  -15.91    6.79
  -6   1 -11    4.09    4.46
  -6   1 -11    5.71    4.38
   6  -1  11   15.03    6.16
  -8   0  11   -9.68    5.79
  -8   0  11    4.10    6.54
  -7   0  11   12.30    6.12
  -7   0  11   12.22    5.85
  -7   0  11   18.10    4.21
  -7   0  11   10.83    3.54
  -7   0  11    1.63    5.55
   6   0 -11   25.34    4.81
  -6   0  11   15.20    5.93
  -6   0  11   22.84    5.41
  -6   0  11   16.00    6.57
  -6   0  11   28.27    6.46
  -6   0  11   15.42    5.34
   5   0 -11   47.66    7.51
   5   0 -11   27.22    6.74
  -5   0  11   50.33    8.40
  -5   0  11   36.84    8.05
  -5   0  11   23.97    6.89
  -5   0  11   36.60    6.38
   4   0 -11    3.62    1.87
   4   0 -11    8.02    4.38
   4   0 -11    6.73    2.19
   4   0 -11    7.22    4.15
  -4   0  11    0.54    3.43
  -4   0  11    2.57    3.53
  -4   0  11    3.48    4.18
  -4   0  11    0.75    3.54
  -4   0  11   -0.71    3.13
   3   0 -11  293.33   28.12
   3   0 -11  299.98   26.91
  -3   0  11  288.99   28.19
  -3   0  11  349.62   28.78
  -3   0  11  306.85   28.32
  -3   0  11  342.68   30.38
  -3   0  11  299.80   27.02
   2   0 -11  110.13   13.13
   2   0 -11   97.59   16.38
   2   0 -11  101.44   12.57
   2   0 -11  112.84    9.10
  -2   0  11   96.25   12.33
  -2   0  11  123.22   13.55
  -2   0  11  104.99   11.66
  -2   0  11  141.06   15.34
   1   0 -11  774.13   64.29
   1   0 -11  707.39   59.71
   1   0 -11  846.61   62.01
  -1   0  11  772.07   61.62
  -1   0  11  747.72   63.40
  -1   0  11  618.41   59.87
   0   0 -11  241.85   21.31
   0   0 -11  179.55   22.38
   0   0 -11  177.59   18.28
   0   0 -11  229.82   21.78
   0   0 -11  191.42   22.75
   0   0 -11  196.60   17.29
   0   0  11  200.20   20.27
   0   0  11  211.98   20.35
   0   0  11  200.14   21.65
  -1   0 -11  103.23   11.17
  -1   0 -11   91.74   16.58
  -1   0 -11   77.86   14.75
  -1   0 -11  110.97   13.15
  -1   0 -11   96.77    9.83
   1   0  11  111.32   15.20
   1   0  11   81.86   11.56
   1   0  11   92.50   14.04
  -2   0 -11   16.88    5.04
  -2   0 -11    9.67    3.49
  -2   0 -11   18.40    6.05
  -2   0 -11   25.43    6.97
   2   0  11   12.47    5.56
   2   0  11    4.32    3.98
  -3   0 -11  129.07   15.79
  -3   0 -11   78.14   10.40
  -3   0 -11   88.94   11.33
   3   0  11  103.90   12.26
   3   0  11   94.79   14.66
  -4   0 -11   21.46    5.59
  -4   0 -11   27.99   11.55
  -4   0 -11   19.65    5.10
  -4   0 -11   20.79    7.39
   4   0  11   18.95    7.92
   4   0  11   22.71    6.09
  -5   0 -11   72.51   14.66
  -5   0 -11   40.51    8.29
  -5   0 -11   53.76    9.81
   5   0  11   54.62    9.73
   5   0  11   48.59   12.24
  -8   1  11   -1.21    5.34
  -8   1  11   -2.04    5.73
  -7   1  11   75.93   11.13
  -7   1  11   75.71    9.08
  -7   1  11   74.04    9.73
  -7   1  11   60.94   11.41
  -7   1  11   88.92    8.27
   6  -1 -11   -1.95    3.24
   6  -1 -11   10.93    4.70
  -6   1  11    3.43    3.07
  -6   1  11    9.29    4.72
  -6   1  11    7.42    3.99
  -6   1  11    6.21    4.11
  -6   1  11   10.36    6.45
   5  -1 -11  366.06   32.81
   5  -1 -11  389.30   33.59
  -5   1  11  407.48   34.18
  -5   1  11  388.00   34.29
  -5   1  11  393.26   34.31
  -5   1  11  431.50   34.34
  -5   1  11  355.63   33.38
   4  -1 -11   28.36    3.67
   4  -1 -11   18.36    5.44
   4  -1 -11   15.85    4.67
   4  -1 -11   16.78    3.53
  -4   1  11   36.96    7.34
  -4   1  11   18.67    5.55
  -4   1  11   19.16    5.67
  -4   1  11   11.69    4.23
  -4   1  11   17.95    5.54
   3  -1 -11  236.82   24.37
   3  -1 -11  263.36   25.20
   3  -1 -11  331.42   26.08
  -3   1  11  288.07   24.43
  -3   1  11  268.41   25.13
  -3   1  11  311.93   27.12
  -3   1  11  268.72   25.88
  -3   1  11  274.10   25.40
   2  -1 -11   13.39    2.14
   2  -1 -11   15.59    6.81
   2  -1 -11    8.48    3.86
   2  -1 -11   14.74    5.11
   2  -1 -11    2.92    4.39
   2  -1 -11   10.84    3.61
  -2   1  11    7.95    4.16
  -2   1  11   19.68    5.75
  -2   1  11   14.10    3.89
  -2   1  11   18.97    5.66
   1  -1 -11    4.69    3.98
   1  -1 -11   10.75    4.60
   1  -1 -11   17.94    6.06
  -1   1  11   11.17    5.19
  -1   1  11   15.45    5.68
   0  -1 -11  185.47   19.16
   0  -1 -11  196.54   18.62
   0  -1 -11  180.05   16.91
   0  -1 -11  149.83   15.67
   0   1  11  177.89   18.71
   0   1  11  173.62   19.66
   0   1  11  179.80   18.13
  -1  -1 -11   27.28    5.99
  -1  -1 -11   30.70    8.13
  -1  -1 -11   22.78    5.36
  -1  -1 -11   24.96    8.53
   1   1  11   38.21    8.98
   1   1  11   28.43    6.93
   1   1  11   29.53    7.05
  -2  -1 -11  132.35   17.25
  -2  -1 -11  148.85   14.76
  -2  -1 -11  139.33   18.70
   2   1  11  153.69   16.30
   2   1  11  167.07   18.70
  -3  -1 -11   86.32   13.65
  -3  -1 -11   74.72   10.26
  -3  -1 -11   83.38   10.06
  -3  -1 -11   46.48   13.45
   3   1  11   78.40   14.23
   3   1  11   77.62   11.43
  -4  -1 -11   35.93    7.55
  -4  -1 -11   27.93   12.32
  -4  -1 -11   36.08   10.41
  -4  -1 -11   24.93    6.44
   4   1  11   46.66    9.86
   4   1  11   36.46    9.99
  -5  -1 -11   12.15   12.70
  -5  -1 -11   13.59    5.92
   5   1  11    8.64    9.83
   5   1  11   10.58    6.46
  -8   2  11    4.98    5.09
  -8   2  11   12.75    5.63
  -7   2  11   76.11    9.91
  -7   2  11   75.60    8.70
  -7   2  11   70.12   10.01
  -7   2  11   67.30    7.59
   6  -2 -11   -0.18    3.36
  -6   2  11    6.06    3.50
  -6   2  11    7.31    3.76
  -6   2  11    4.83    2.70
  -6   2  11    4.17    3.65
  -6   2  11    7.41    4.06
   5  -2 -11   29.46    5.37
  -5   2  11   29.91    5.55
  -5   2  11   31.99    5.63
  -5   2  11   30.84    6.36
  -5   2  11   54.42    8.67
  -5   2  11   30.70    7.27
   4  -2 -11    5.57    4.19
   4  -2 -11   -2.03    1.86
   4  -2 -11   -4.20    2.27
  -4   2  11   -1.35    2.05
  -4   2  11   -2.04    3.06
  -4   2  11   -2.97    3.00
  -4   2  11   -1.25    2.50
  -4   2  11    2.36    2.74
   3  -2 -11    7.49    4.18
   3  -2 -11    6.42    4.45
   3  -2 -11    5.91    3.09
   3  -2 -11    5.46    2.83
  -3   2  11    5.75    3.62
  -3   2  11    5.20    3.06
  -3   2  11    6.20    3.74
  -3   2  11    0.17    3.45
   2  -2 -11  104.79   11.82
   2  -2 -11  108.53   13.45
   2  -2 -11  104.43   11.29
   2  -2 -11   84.36   12.03
   2  -2 -11  111.31    9.70
  -2   2  11  110.92   12.60
  -2   2  11  122.07   13.91
   1  -2 -11    3.97    3.64
   1  -2 -11   17.39    6.01
   1  -2 -11   16.48    5.59
  -1   2  11    8.44    4.32
  -1   2  11   22.97    6.00
  -1   2  11   10.03    4.80
   0  -2 -11  404.87   35.34
   0  -2 -11  397.90   34.06
   0  -2 -11  382.95   38.42
   0  -2 -11  410.32   37.45
   0  -2 -11  487.16   37.18
   0   2  11  380.78   37.50
   0   2  11  430.66   37.35
   0   2  11  403.84   36.59
  -1  -2 -11   45.40    6.78
  -1  -2 -11   45.49    8.24
  -1  -2 -11   51.20   10.04
   1   2  11   78.62   11.38
   1   2  11   29.72    7.19
  -2  -2 -11  105.54   17.06
  -2  -2 -11   64.22   10.33
  -2  -2 -11   79.11    9.96
  -2  -2 -11   72.05   14.89
   2   2  11   92.39   13.55
  -3  -2 -11    5.50    6.50
  -3  -2 -11   -4.23    3.48
  -3  -2 -11    2.93    4.18
  -3  -2 -11   10.56    8.11
   3   2  11   13.05    5.49
   3   2  11    2.34    6.80
  -4  -2 -11   24.56    7.14
  -4  -2 -11   35.00    8.61
  -4  -2 -11   28.58   10.17
   4   2  11   34.36   10.92
   4   2  11   34.59    9.21
  -8   3  11   13.73    4.54
  -7   3  11    1.44    3.06
  -7   3  11    0.08    3.28
  -7   3  11    6.04    2.81
  -7   3  11   12.14    4.39
  -7   3  11    7.60    4.16
   6  -3 -11    0.05    3.38
  -6   3  11   -0.86    3.26
  -6   3  11   -0.41    2.28
  -6   3  11    2.28    3.30
  -6   3  11    2.78    2.38
  -6   3  11   -1.92    3.64
   5  -3 -11   12.01    4.53
  -5   3  11   19.56    5.23
  -5   3  11   18.49    5.35
   4  -3 -11  118.18   12.61
   4  -3 -11  112.33   11.13
   4  -3 -11  116.07   11.92
  -4   3  11  138.60   13.82
  -4   3  11  136.31   14.12
  -4   3  11  136.55   14.39
   3  -3 -11   14.69    5.28
   3  -3 -11   16.53    5.83
   3  -3 -11   35.96    7.83
   3  -3 -11   29.29    5.31
  -3   3  11   28.73    6.30
  -3   3  11   17.89    6.11
  -3   3  11   27.63    6.73
   2  -3 -11  360.71   34.72
   2  -3 -11  375.29   32.78
   2  -3 -11  365.00   32.38
   2  -3 -11  318.28   34.24
   2  -3 -11  380.00   31.10
  -2   3  11  397.67   33.92
  -2   3  11  396.71   34.05
  -2   3  11  438.73   35.53
   1  -3 -11    2.16    3.65
   1  -3 -11    4.04    3.66
   1  -3 -11    2.40    2.46
   1  -3 -11   20.55   10.88
  -1   3  11    7.25    5.77
  -1   3  11    1.22    3.81
  -1   3  11    3.20    2.60
  -1   3  11    6.40    4.36
   0  -3 -11  255.13   22.01
   0  -3 -11  216.32   20.81
   0  -3 -11  204.90   19.45
   0  -3 -11  201.11   23.06
   0   3  11  217.93   22.96
   0   3  11  236.33   22.52
   0   3  11  222.21   19.43
   0   3  11  178.93   22.25
  -1  -3 -11   72.68    9.54
  -1  -3 -11  102.77   17.17
  -1  -3 -11   67.42   14.44
  -1  -3 -11   77.47   12.13
   1   3  11   70.17   12.92
   1   3  11   83.40   11.60
  -2  -3 -11    2.55    4.12
  -2  -3 -11   -5.71    5.34
  -2  -3 -11    2.05    3.64
  -2  -3 -11    0.81    7.25
   2   3  11    1.71    5.28
   2   3  11   10.41    6.42
  -3  -3 -11   58.69   19.31
  -3  -3 -11  118.57   17.44
  -3  -3 -11   87.71   12.51
  -3  -3 -11   96.90   13.25
   3   3  11  101.51   17.26
   3   3  11  127.63   14.81
  -4  -3 -11   13.85   10.67
  -4  -3 -11   11.65    6.07
  -4  -3 -11   -1.47    6.70
  -4  -3 -11    5.27    5.65
   4   3  11   -6.96    6.93
  -8   4  11    0.11    4.01
   7  -4 -11   -6.51    6.43
  -7   4  11   -2.53    3.55
  -7   4  11    3.25    2.94
   6  -4 -11   46.78    9.26
  -6   4  11   53.46    8.34
  -6   4  11   68.19    9.13
  -6   4  11   63.46    8.29
   5  -4 -11   44.13    8.67
  -5   4  11   48.36    8.72
  -5   4  11   48.73    8.74
  -5   4  11   51.97    8.84
   4  -4 -11   91.70   12.64
   4  -4 -11   74.26   10.88
   4  -4 -11   89.70   10.17
  -4   4  11   75.23   11.19
  -4   4  11   81.77   11.20
  -4   4  11   94.75    7.67
   3  -4 -11   53.32    9.71
   3  -4 -11   49.13   10.85
   3  -4 -11   74.35    9.42
   3  -4 -11   66.95    8.29
  -3   4  11   50.51   10.50
  -3   4  11   97.85   12.12
  -3   4  11   73.61    6.95
  -3   4  11   63.02   10.28
   2  -4 -11   50.29   10.81
   2  -4 -11   26.69    6.40
   2  -4 -11   22.84    5.49
   2  -4 -11   20.65    4.95
  -2   4  11   30.24    4.72
  -2   4  11   29.20    7.83
  -2   4  11   11.76    4.94
  -2   4  11   43.05    8.69
   1  -4 -11   71.06   11.29
   1  -4 -11   89.92   10.13
   1  -4 -11   74.88   14.48
   1  -4 -11  100.96   11.89
  -1   4  11   99.10   12.48
  -1   4  11   94.80   13.69
  -1   4  11   88.27    9.63
   0  -4 -11  308.11   26.04
   0  -4 -11  277.33   26.93
   0  -4 -11  308.01   30.49
   0   4  11  295.86   28.35
   0   4  11  257.89   29.11
  -1  -4 -11  155.90   16.50
   1   4  11  183.66   19.77
   1   4  11  128.63   18.89
  -2  -4 -11   11.63    7.83
  -2  -4 -11   25.21    7.29
  -2  -4 -11   19.50    5.97
  -2  -4 -11   24.17    6.83
   2   4  11   19.67    7.92
   2   4  11   19.18    7.06
  -3  -4 -11    0.77    5.44
  -3  -4 -11    5.72    5.75
  -3  -4 -11   -3.80    4.59
  -3  -4 -11   -4.58    7.68
   3   4  11    6.00    6.97
   3   4  11    4.39    8.05
  -8   5  11    7.11    3.13
  -8   5  11    0.19    3.86
  -8   5  11    5.28    3.88
   7  -5 -11  108.53   14.60
  -7   5  11   78.04   10.69
  -7   5  11  101.99   11.49
  -7   5  11   93.00   11.57
   6  -5 -11   -2.11    5.81
  -6   5  11    2.36    3.32
  -6   5  11    0.72    3.81
  -6   5  11   -3.11    3.50
   5  -5 -11   41.33    6.24
  -5   5  11   42.43    8.40
  -5   5  11   46.36    8.97
  -5   5  11   36.31    4.52
  -5   5  11   43.39    8.18
   4  -5 -11  129.15   13.54
   4  -5 -11  118.44   14.34
   4  -5 -11   99.22   16.43
  -4   5  11  131.54   14.93
  -4   5  11  128.48   11.20
  -4   5  11  113.86   14.52
   3  -5 -11   -2.52    4.19
   3  -5 -11   -2.33    4.90
   3  -5 -11    0.05    1.83
   3  -5 -11   -3.18    3.72
   3  -5 -11    1.56    2.60
  -3   5  11   -0.81    3.67
  -3   5  11   -0.01    2.72
  -3   5  11    5.16    4.53
  -3   5  11   -0.21    4.10
   2  -5 -11  137.19   15.21
   2  -5 -11  108.15   17.94
   2  -5 -11  159.91   20.48
   2  -5 -11  135.57   14.85
   2  -5 -11  178.35   15.81
  -2   5  11  179.43   18.39
  -2   5  11  169.26   18.85
  -2   5  11  165.88   14.75
   1  -5 -11    9.19    5.85
   1  -5 -11   17.91    6.17
   1  -5 -11   11.60    4.71
   1  -5 -11   14.34    8.05
   1  -5 -11    8.00    4.29
  -1   5  11   15.68    6.70
  -1   5  11   15.69    7.00
  -1   5  11   24.89   11.54
   0  -5 -11    2.54    3.71
   0  -5 -11   -2.73    4.73
   0  -5 -11   -7.15    6.45
   0  -5 -11    8.52    4.43
   0   5  11   -6.64    4.52
   0   5  11    2.79    5.87
  -1  -5 -11   24.40    8.32
  -1  -5 -11   48.84   12.37
  -1  -5 -11   23.42    7.32
  -1  -5 -11   36.57    8.12
   1   5  11   37.44   10.16
   1   5  11   31.95    8.80
  -2  -5 -11   32.97    8.64
  -2  -5 -11   51.70   15.35
  -2  -5 -11   46.90   10.60
  -2  -5 -11   20.01    8.17
   2   5  11   16.67    8.23
   2   5  11   21.42    9.09
  -8   6  11   13.24    5.94
  -8   6  11   14.47    5.34
  -7   6  11   21.05    5.48
  -7   6  11   23.86    7.25
  -7   6  11   23.32    6.51
   6  -6 -11   61.77   12.27
  -6   6  11   67.67    7.19
  -6   6  11   59.91   10.16
  -6   6  11   54.38   12.35
  -6   6  11   74.20   10.38
   5  -6 -11  186.30   16.97
   5  -6 -11  115.22   15.52
  -5   6  11  152.82   17.05
  -5   6  11  143.22   13.42
  -5   6  11  153.36   16.81
  -5   6  11  136.72   16.79
   4  -6 -11   32.34    7.64
   4  -6 -11   16.48    7.22
   4  -6 -11   18.38    8.16
  -4   6  11   21.91    6.85
  -4   6  11   34.19    9.03
  -4   6  11   23.14    7.50
  -4   6  11   22.87    5.15
   3  -6 -11   34.44    5.74
   3  -6 -11   53.23    9.18
   3  -6 -11   40.79   10.47
   3  -6 -11   37.54    5.22
  -3   6  11   44.59    7.96
  -3   6  11   61.55   11.82
  -3   6  11   52.63   11.29
  -3   6  11   67.65   12.30
   2  -6 -11   59.56    9.94
   2  -6 -11   46.71    7.53
   2  -6 -11   41.80    8.42
   2  -6 -11   80.12   12.57
   2  -6 -11   50.62   11.90
  -2   6  11   55.00   11.16
  -2   6  11   76.95   14.63
  -2   6  11   65.96   13.05
   1  -6 -11   -4.42    4.42
   1  -6 -11   -2.74    6.58
   1  -6 -11   -6.26    4.66
   1  -6 -11    2.16    3.78
  -1   6  11   -3.77    5.06
  -1   6  11    7.62    5.73
   0  -6 -11  131.30   18.80
   0  -6 -11  132.51   20.33
   0  -6 -11  121.18   15.50
   0   6  11  101.41   16.82
   0   6  11  139.09   17.25
  -1  -6 -11    2.44    5.64
  -1  -6 -11   -2.18    5.06
  -1  -6 -11   -5.49    9.00
  -1  -6 -11   -9.07    8.10
   1   6  11    2.04    8.70
  -7   7  11   35.18    7.96
  -7   7  11   54.39    9.57
  -6   7  11    8.12    5.46
  -6   7  11   22.96    6.87
   5  -7 -11    2.95    8.69
   5  -7 -11    7.93    8.48
   5  -7 -11   -1.24    5.99
  -5   7  11   -2.33    4.36
  -5   7  11    3.63    4.74
  -5   7  11   -4.97   10.44
   4  -7 -11   61.71   10.94
   4  -7 -11   31.42   11.09
  -4   7  11   29.30   12.90
  -4   7  11   50.73   10.91
  -4   7  11   56.88   10.64
   3  -7 -11   13.22    8.03
   3  -7 -11   21.85    4.24
   3  -7 -11   20.20    7.38
   3  -7 -11   21.28   10.43
  -3   7  11   24.37    9.17
  -3   7  11   31.31    8.53
   2  -7 -11   10.23    9.69
   2  -7 -11   11.68    6.85
   2  -7 -11    9.24    4.76
   2  -7 -11   11.80    6.68
  -2   7  11   14.99    8.38
  -2   7  11   -0.47    6.45
   1  -7 -11    4.44    5.83
   1  -7 -11   -1.84    9.72
   1  -7 -11   13.14    8.89
   1  -7 -11    0.86    4.77
  -1   7  11    1.67    7.02
  -1   7  11   -5.69    6.80
  -6   8  11   13.01    6.55
  -6   8  11   14.74    7.07
   5  -8 -11   39.03    9.60
  -5   8  11   75.20   13.79
  -5   8  11   44.75   14.99
   4  -8 -11   -5.47   10.83
   4  -8 -11   -7.31   10.66
   4  -8 -11  -18.16    7.07
  -4   8  11   10.76    8.07
   3  -8 -11    7.33   10.60
   3  -8 -11    5.64    8.88
   3  -8 -11   -0.22    7.98
  -3   8  11    5.12    7.48
  -3   8  11   20.38    9.81
   1   8 -12   63.79   11.83
   1   8 -12   37.98   14.83
  -1  -8  12   26.73   10.37
  -1  -8  12   47.97   24.96
  -1  -8  12   47.70   14.51
   0   8 -12  186.22   25.07
   0   8 -12  133.27   19.55
   0  -8  12  180.68   24.78
   0  -8  12  183.66   31.79
   0  -8  12  175.99   29.71
  -1   8 -12    3.92    6.70
  -1   8 -12   20.73    9.77
   1  -8  12   -3.92   11.03
   1  -8  12    9.89    9.74
   1  -8  12    5.59    7.03
  -2   8 -12    8.78    6.25
  -2   8 -12   13.53    9.52
   2  -8  12   18.89    9.72
   2  -8  12   -3.14    5.45
   2  -8  12  -16.98   12.11
  -3   8 -12  119.49   25.34
  -3   8 -12  114.15   18.34
   3  -8  12   97.29   21.69
   3  -8  12   71.26   15.93
   3  -8  12   84.38   16.16
  -4   8 -12    3.19    6.56
  -4   8 -12    7.66    8.52
   4  -8  12    2.70   11.22
   4  -8  12   -0.45    8.15
   4  -8  12   -8.03   14.77
  -5   8 -12   29.26   10.97
  -5   8 -12   32.00    9.31
   5  -8  12    9.93   17.09
   5  -8  12   21.25    9.40
   2   7 -12   33.53    9.07
   2   7 -12   29.61   10.75
  -2  -7  12   30.04   16.46
  -2  -7  12   19.91    9.97
   1   7 -12   64.06   11.45
   1   7 -12   48.82   12.08
  -1  -7  12   51.18   12.55
  -1  -7  12   35.09   10.73
  -1  -7  12   64.46   17.47
   0   7 -12   79.19   15.66
   0   7 -12   50.08   10.86
   0  -7  12   74.04   19.61
   0  -7  12   49.51   11.93
   0  -7  12   97.19   16.60
  -1   7 -12   71.30   12.67
  -1   7 -12  116.41   17.30
   1  -7  12   94.64   16.57
   1  -7  12   73.33   14.87
  -2   7 -12   21.84    9.71
  -2   7 -12   16.44    7.01
   2  -7  12   23.54   10.23
   2  -7  12   36.18    9.75
   2  -7  12    7.59    6.78
  -3   7 -12    3.78    7.37
  -3   7 -12    4.82    5.31
   3  -7  12   -5.41    7.04
   3  -7  12    9.82   11.55
   3  -7  12    7.75    6.11
  -4   7 -12   15.07    8.31
  -4   7 -12   26.38   41.73
  -4   7 -12    5.68    6.77
   4  -7  12    4.85    6.80
   4  -7  12   14.00   14.56
  -5   7 -12   69.59   13.71
   5  -7  12   46.39   23.70
   5  -7  12   78.45   13.32
   3   6 -12    9.63    6.46
   3   6 -12   -4.58    7.99
  -3  -6  12   17.58    7.45
  -3  -6  12  -13.74    8.19
  -3  -6  12   12.19    8.27
  -3  -6  12   19.29   11.99
   2   6 -12  112.40   17.75
   2   6 -12   92.70   12.29
  -2  -6  12  119.51   20.17
  -2  -6  12   71.99   14.70
  -2  -6  12   98.47   16.42
  -2  -6  12   77.29   18.22
   1   6 -12    2.82    6.81
   1   6 -12    6.47    5.31
  -1  -6  12   19.12    7.97
  -1  -6  12    9.57    6.32
  -1  -6  12    8.25    9.17
   0   6 -12    8.55    7.54
   0   6 -12    2.84    4.69
   0  -6  12   12.92    8.06
   0  -6  12    5.27    4.91
   0  -6  12    6.79   11.44
  -1   6 -12    9.43    6.79
  -1   6 -12    1.85    4.04
   1  -6  12   12.55    6.12
   1  -6  12    6.61    5.55
   1  -6  12   10.01    7.80
  -2   6 -12  170.23   20.96
  -2   6 -12  191.27   18.92
   2  -6  12  158.08   25.41
   2  -6  12  138.93   19.60
   2  -6  12  182.59   20.38
  -3   6 -12   37.15    8.55
  -3   6 -12   33.21   10.30
  -3   6 -12   44.41   17.02
   3  -6  12   13.61    8.19
   3  -6  12   20.18    8.62
   3  -6  12   30.03   11.90
  -4   6 -12  120.96   23.89
  -4   6 -12  123.07   17.05
  -4   6 -12  105.99   13.99
   4  -6  12   86.07   20.14
   4  -6  12  105.65   15.57
  -5   6 -12   -5.37    5.58
  -5   6 -12   -0.55    4.77
   5  -6  12   -2.28    5.63
   5  -6  12    8.19    9.87
  -6   6 -12    6.14    5.26
   6  -6  12   16.97    6.92
   4   5 -12   24.67    9.30
   4   5 -12   40.14    6.21
  -4  -5  12   38.12   10.90
  -4  -5  12   50.60    9.58
  -4  -5  12   21.10    8.80
  -4  -5  12   32.00   13.24
   3   5 -12    4.64    4.80
   3   5 -12    4.70    7.26
  -3  -5  12    2.26    8.06
  -3  -5  12    5.48    5.62
  -3  -5  12    8.74    6.81
   2   5 -12   16.25    5.40
   2   5 -12    9.29    6.40
  -2  -5  12    3.79    5.68
  -2  -5  12   14.19    7.05
  -2  -5  12    9.48    8.45
  -2  -5  12   13.21    8.24
  -1  -5  12  217.49   25.45
  -1  -5  12  176.99   22.35
   0   5 -12  242.37   31.56
   0   5 -12  279.55   29.79
   0  -5  12  317.12   34.80
   0  -5  12  326.71   30.59
   0  -5  12  291.98   33.43
   0  -5  12  334.86   31.21
  -1   5 -12   -2.80    3.64
  -1   5 -12    0.98    5.57
   1  -5  12    3.06    7.95
   1  -5  12    0.38    4.42
   1  -5  12   -0.88    4.98
  -2   5 -12   30.23   12.87
  -2   5 -12   13.74    5.90
  -2   5 -12   11.07    4.72
   2  -5  12   11.05    9.42
   2  -5  12    4.54    4.83
   2  -5  12   19.92    7.82
  -3   5 -12    3.04    4.01
  -3   5 -12   22.01   14.54
  -3   5 -12    8.65   12.06
   3  -5  12   11.51    5.94
   3  -5  12    9.47    8.75
  -4   5 -12   34.07   16.22
  -4   5 -12   70.91   10.62
  -4   5 -12   76.03   12.49
   4  -5  12   66.01   14.16
   4  -5  12   74.07   13.82
  -5   5 -12    8.44    5.26
  -5   5 -12   13.42    5.67
  -5   5 -12   22.27   16.72
   5  -5  12    5.19    5.50
   5  -5  12  -12.28    7.34
  -6   5 -12   19.98    7.03
  -6   5 -12   20.74    8.18
   6  -5  12   13.44    6.64
  -5  -4  12  -13.87    9.35
  -5  -4  12   11.97    7.13
  -5  -4  12   -3.47    5.95
   4   4 -12    4.38    4.49
   4   4 -12   -4.65    3.94
   4   4 -12   -2.07    6.79
  -4  -4  12    4.06    5.84
  -4  -4  12    7.00    8.27
  -4  -4  12    7.96    8.31
  -4  -4  12    2.56    5.82
  -4  -4  12   -0.96    5.11
   3   4 -12   80.37   14.13
   3   4 -12   88.97   10.13
   3   4 -12   95.26   11.35
  -3  -4  12  106.19   17.46
  -3  -4  12   81.00   15.65
  -3  -4  12   53.77   12.79
   2   4 -12   15.25    5.31
   2   4 -12    4.38    6.04
  -2  -4  12    8.38    5.20
  -2  -4  12   19.16    8.15
  -2  -4  12   -0.02    8.25
   1   4 -12   24.91    7.59
   1   4 -12   14.25    6.07
   1   4 -12   16.59    5.11
  -1  -4  12   14.61    7.91
  -1  -4  12   11.59    7.11
  -1  -4  12   18.06    6.94
  -1  -4  12   18.05    7.92
   0   4 -12   93.15   14.63
   0   4 -12   71.72   10.53
   0   4 -12   65.74    9.77
   0  -4  12   72.11   13.00
   0  -4  12   61.86   13.67
   0  -4  12   63.11   15.54
   0  -4  12   69.04   13.41
  -1   4 -12   14.05    5.66
  -1   4 -12    5.42    4.24
  -1   4 -12   13.36    9.73
   1  -4  12    5.18    6.59
   1  -4  12   17.81    7.35
   1  -4  12    8.75    6.01
   1  -4  12   11.78    7.66
  -2   4 -12  215.67   40.84
  -2   4 -12  159.05   18.30
  -2   4 -12  170.39   18.77
   2  -4  12  192.23   19.75
   2  -4  12  115.65   18.67
   2  -4  12  184.33   23.67
  -3   4 -12   11.23    4.98
  -3   4 -12   11.48   11.10
  -3   4 -12   12.43    4.89
   3  -4  12    1.95    5.00
   3  -4  12   -1.90    6.82
  -4   4 -12    3.78    4.70
  -4   4 -12    6.64   11.21
  -4   4 -12    9.59    4.52
   4  -4  12   17.76    8.02
   4  -4  12   13.21    6.15
  -5   4 -12   17.86   13.23
  -5   4 -12   17.06    6.26
  -5   4 -12   28.46    6.60
  -5   4 -12    7.18    5.73
   5  -4  12   22.65    6.43
   5  -4  12   31.05   10.66
  -6   4 -12    9.35    5.72
   6  -4  12   -0.28    5.48
  -6  -3  12   10.81    7.42
  -6  -3  12   19.37    7.38
  -6  -3  12   -2.15    7.81
  -6  -3  12    3.28    5.79
   5   3 -12   10.08    7.73
   5   3 -12   15.24    3.85
  -5  -3  12    3.76    5.07
  -5  -3  12   11.51    8.19
  -5  -3  12    6.69    7.01
  -5  -3  12   17.30    9.53
  -5  -3  12   15.81    7.47
   4   3 -12   -0.67    2.59
   4   3 -12    0.80    2.36
   4   3 -12   -6.62    3.53
  -4  -3  12    2.63    4.47
  -4  -3  12   -3.27    6.45
  -4  -3  12    2.70    5.33
  -4  -3  12   10.03    7.25
   3   3 -12   46.02    7.05
   3   3 -12    7.95   11.95
   3   3 -12   47.63    6.20
   3   3 -12   44.44   10.00
  -3  -3  12   48.61   10.64
  -3  -3  12   26.71    8.15
  -3  -3  12   35.91    9.49
  -3  -3  12   39.86   11.81
   2   3 -12   74.15    9.40
   2   3 -12   90.52    9.41
   2   3 -12   76.73   12.91
  -2  -3  12   53.65   12.34
   1   3 -12  195.65   19.37
   1   3 -12  233.03   20.03
  -1  -3  12  267.11   24.39
  -1  -3  12  181.60   21.42
  -1  -3  12  179.47   21.45
   0   3 -12   78.29   10.57
   0   3 -12   97.07   11.59
   0   3 -12  104.70   27.35
   0   3 -12   86.04   13.40
   0  -3  12  106.20   13.58
   0  -3  12  111.84   16.04
   0  -3  12   96.28   17.94
   0  -3  12   98.65   12.84
  -1   3 -12   56.49    9.61
  -1   3 -12   74.01   11.10
  -1   3 -12   60.53    8.80
  -1   3 -12   72.17   16.58
   1  -3  12   52.51   11.01
   1  -3  12   56.84   11.83
   1  -3  12   66.91   13.20
   1  -3  12   96.33   15.52
  -2   3 -12   24.25    7.19
  -2   3 -12   24.60    6.60
  -2   3 -12   23.77   11.53
   2  -3  12   33.60   10.05
   2  -3  12   17.49    6.75
  -3   3 -12   11.71   11.74
  -3   3 -12   41.73    9.24
  -3   3 -12   22.02    6.12
  -3   3 -12   18.85    4.75
   3  -3  12   33.27   16.46
   3  -3  12   34.04    8.22
  -4   3 -12   92.62   11.29
  -4   3 -12   90.54   13.45
  -4   3 -12   70.48   17.80
  -4   3 -12   78.01   10.70
   4  -3  12   76.74   11.69
   4  -3  12  100.91   16.64
  -5   3 -12   61.03   10.12
  -5   3 -12   62.34   10.33
  -5   3 -12   80.74   14.07
  -5   3 -12   57.42   17.48
   5  -3  12   51.39    9.62
   5  -3  12   53.99   12.42
  -6   3 -12    9.69    7.47
  -6   3 -12    1.67    7.40
  -6   3 -12    6.69    5.17
   6  -3  12   -0.85    6.06
  -7  -2  12   -1.90    4.92
  -7  -2  12    6.66    7.13
  -7  -2  12  -10.07    6.41
  -7  -2  12    6.68    5.65
  -6  -2  12    0.21    5.45
  -6  -2  12    2.64    6.07
  -6  -2  12    1.09    4.10
  -6  -2  12   -4.84    5.39
  -6  -2  12   -1.87    5.88
   5   2 -12   54.94    9.10
   5   2 -12   36.77    5.71
  -5  -2  12   45.45   10.50
  -5  -2  12   47.35   10.73
  -5  -2  12   40.39   10.67
  -5  -2  12   47.67    9.32
   4   2 -12   29.71    4.27
   4   2 -12   32.69   10.82
  -4  -2  12   30.29    8.22
  -4  -2  12   28.49    8.15
  -4  -2  12   24.28    8.17
  -4  -2  12   14.42    6.67
   3   2 -12  165.67   16.49
   3   2 -12  189.63   18.44
   3   2 -12  170.01   15.33
  -3  -2  12  145.90   18.41
  -3  -2  12  164.87   21.10
  -3  -2  12  166.64   18.69
  -3  -2  12  156.85   18.70
   2   2 -12   18.39    3.83
   2   2 -12   14.92    5.91
   2   2 -12   12.57    3.87
   2   2 -12    8.90    5.35
  -2  -2  12   11.50    4.83
  -2  -2  12   21.80    7.68
  -2  -2  12    7.96    6.11
  -2  -2  12   19.17    6.85
   1   2 -12   74.87   10.35
   1   2 -12  105.56   11.25
   1   2 -12  129.63   13.79
  -1  -2  12  105.73   16.33
  -1  -2  12  132.68   16.59
  -1  -2  12   75.62   12.34
  -1  -2  12  137.76   15.57
   0   2 -12  110.30   12.55
   0   2 -12  116.60   15.09
   0   2 -12  109.04   12.52
   0   2 -12  154.39   20.20
   0  -2  12  117.51   16.55
   0  -2  12  119.90   15.07
   0  -2  12  112.55   16.61
   0  -2  12  129.96   14.71
  -1   2 -12   76.08    9.88
   1  -2  12   71.45   12.90
   1  -2  12   92.87   15.73
   1  -2  12   92.53   14.42
  -2   2 -12   74.32   17.64
  -2   2 -12   96.15   10.29
  -2   2 -12   97.15   11.29
  -2   2 -12   95.99   12.82
   2  -2  12   78.43   12.24
   2  -2  12  109.90   15.64
  -3   2 -12  188.05   26.81
  -3   2 -12  253.10   23.36
  -3   2 -12  208.56   20.32
  -3   2 -12  238.71   21.56
   3  -2  12  230.91   25.57
   3  -2  12  198.89   21.93
  -4   2 -12    8.15    4.23
  -4   2 -12    8.25    4.17
  -4   2 -12    7.82   11.13
  -4   2 -12   16.15    6.36
   4  -2  12    9.67    5.01
   4  -2  12    9.94    7.20
  -5   2 -12   97.66   23.39
  -5   2 -12   98.26   15.80
  -5   2 -12  111.39   13.12
   5  -2  12  131.40   19.02
   5  -2  12  117.51   13.76
  -6   2 -12   -3.91    6.36
  -6   2 -12    0.94    5.03
  -6   2 -12   -4.22    4.08
   6  -2  12    9.90    6.83
  -7  -1  12   23.20    7.56
  -7  -1  12   20.36    5.86
  -7  -1  12   14.28    7.70
  -7  -1  12   29.34    7.04
   6   1 -12   95.13   11.59
  -6  -1  12   57.55   18.01
  -6  -1  12   61.80   11.37
  -6  -1  12   85.54   12.62
  -6  -1  12   79.25   12.96
   5   1 -12  117.15   12.91
  -5  -1  12  103.33   15.49
  -5  -1  12  100.73   14.07
  -5  -1  12  111.20   14.33
  -5  -1  12  125.73   14.39
   4   1 -12   19.91    3.31
   4   1 -12   16.27    5.52
  -4  -1  12    5.71    5.52
  -4  -1  12   12.30    5.80
  -4  -1  12   15.37    8.08
  -4  -1  12   12.04    5.60
   3   1 -12   84.70    8.25
   3   1 -12   59.97    9.73
   3   1 -12   71.31   10.98
  -3  -1  12   78.80   11.87
  -3  -1  12   66.94   10.60
  -3  -1  12   76.71   11.35
   2   1 -12   38.78    8.95
   2   1 -12   46.60    6.47
   2   1 -12   60.01    9.09
   2   1 -12   33.86    7.99
   2   1 -12   33.36    4.12
  -2  -1  12   45.59    9.49
  -2  -1  12   44.56   10.84
  -2  -1  12   39.82    8.33
   1   1 -12  101.80   12.01
   1   1 -12   64.63   11.05
   1   1 -12   88.20    8.10
   1   1 -12   78.80   11.76
   1   1 -12   75.93    9.14
  -1  -1  12  105.83   14.31
  -1  -1  12   76.09   10.73
  -1  -1  12   81.11   11.89
  -1  -1  12   80.14   13.13
   0   1 -12  367.18   37.40
   0   1 -12  380.90   34.84
   0  -1  12  378.59   34.30
   0  -1  12  380.25   34.90
   0  -1  12  358.03   35.98
  -1   1 -12  324.63   28.39
   1  -1  12  356.18   32.82
   1  -1  12  355.51   31.52
   1  -1  12  316.72   33.09
  -2   1 -12   71.38    8.97
  -2   1 -12   77.55   17.58
   2  -1  12   75.98   11.14
   2  -1  12  107.99   14.32
  -3   1 -12  162.46   16.55
  -3   1 -12  156.56   16.43
  -3   1 -12  134.38   23.06
   3  -1  12  170.73   17.55
   3  -1  12  170.73   20.60
  -4   1 -12   -3.61    8.97
  -4   1 -12   18.30    5.33
  -4   1 -12   -4.26    3.49
  -4   1 -12    7.58    6.03
   4  -1  12   -4.38    3.80
   4  -1  12   -2.12    5.74
  -5   1 -12    8.06    6.67
  -5   1 -12    3.21    4.23
  -5   1 -12    6.63    5.29
   5  -1  12    7.50    8.02
   5  -1  12    7.05    5.92
  -8   0  12   23.99    7.71
  -7   0  12   80.70   11.36
  -7   0  12   63.67    9.45
  -7   0  12   56.92    8.41
   6   0 -12   -2.85    4.09
  -6   0  12   -2.13    4.54
  -6   0  12    0.79    3.24
  -6   0  12    2.68    4.45
  -6   0  12    2.09    3.82
   5   0 -12   66.98   10.77
   5   0 -12   88.12   10.75
  -5   0  12   90.61   13.00
  -5   0  12   72.88   11.32
  -5   0  12   80.33   11.50
  -5   0  12   85.02   12.08
   4   0 -12   10.81    5.07
   4   0 -12   13.66    5.42
   4   0 -12    6.43    2.46
  -4   0  12    7.48    5.33
  -4   0  12   12.31    4.91
  -4   0  12   13.71    5.78
  -4   0  12    7.56    5.08
   3   0 -12   64.09    7.29
   3   0 -12   65.47    9.94
   3   0 -12   69.48   10.66
   3   0 -12   38.03    9.70
  -3   0  12   70.85   11.65
  -3   0  12   81.35   11.32
  -3   0  12   42.82    8.94
  -3   0  12   61.39   11.93
   2   0 -12  107.09   15.77
   2   0 -12  139.02   13.16
   2   0 -12  127.76   10.87
   2   0 -12  127.35   15.06
   2   0 -12  144.28   15.83
   2   0 -12  131.54   11.42
  -2   0  12  145.03   15.54
  -2   0  12  158.17   16.70
  -2   0  12  124.66   14.56
  -2   0  12  134.36   17.07
   1   0 -12  132.84   15.28
   1   0 -12  115.06   12.88
   1   0 -12  139.29   16.54
   1   0 -12  122.44   18.99
   1   0 -12  123.82   11.07
  -1   0  12  140.57   15.47
  -1   0  12  113.24   15.75
   0   0 -12   65.78   10.31
   0   0 -12   62.17   13.14
   0   0 -12   70.66    9.74
   0   0 -12   43.79    8.36
   0   0  12   50.33   10.19
   0   0  12   62.01   10.99
   0   0  12   63.31   12.64
  -1   0 -12   18.80    4.46
  -1   0 -12   16.45    5.44
  -1   0 -12   14.45    6.60
   1   0  12   16.57    5.73
   1   0  12   14.79    7.96
   1   0  12   16.69    6.88
  -2   0 -12   34.92    7.46
  -2   0 -12   32.17    6.58
  -2   0 -12   52.84   10.55
  -2   0 -12   26.87    9.20
   2   0  12   43.90   10.22
   2   0  12   24.63    6.92
  -3   0 -12   98.63   15.31
  -3   0 -12  155.40   22.24
  -4   0 -12   25.66   10.86
  -4   0 -12   -4.66    5.64
  -4   0 -12   -3.44    3.39
   4   0  12   -2.76    5.82
  -5   0 -12    2.83   15.90
  -5   0 -12    0.74    4.98
  -5   0 -12    8.76    5.12
   5   0  12    4.87    9.40
   5   0  12    7.40    7.97
  -8   1  12   -2.03    6.14
  -8   1  12    0.37    5.89
  -7   1  12   10.11    3.71
  -7   1  12    5.59    2.85
  -7   1  12   -2.85    4.83
  -7   1  12    2.47    5.27
   6  -1 -12   -1.97    4.55
   6  -1 -12   -5.55    3.87
  -6   1  12   -2.36    4.55
  -6   1  12    1.38    3.79
  -6   1  12    3.33    3.90
  -6   1  12    6.27    3.22
   5  -1 -12   67.63    9.20
   5  -1 -12   46.33    8.13
  -5   1  12   41.76    8.37
  -5   1  12   59.16    9.92
  -5   1  12   42.88    8.91
  -5   1  12   49.52    8.49
   4  -1 -12   55.42    8.88
   4  -1 -12   41.97   12.30
   4  -1 -12   72.15    7.26
  -4   1  12   78.72   10.69
  -4   1  12   70.05   10.31
  -4   1  12   87.04   11.67
  -4   1  12   68.58    9.39
   3  -1 -12   53.38    9.19
   3  -1 -12   57.43    8.89
  -3   1  12   72.95    9.94
  -3   1  12   86.99   11.25
  -3   1  12   50.23    8.26
   2  -1 -12    3.30    4.98
   2  -1 -12    8.76    4.66
  -2   1  12   11.68    5.38
  -2   1  12    5.63    4.02
   1  -1 -12   11.83    4.95
   1  -1 -12   10.21    3.48
  -1   1  12    7.39    4.73
  -1   1  12   14.71    4.68
   0  -1 -12   88.68   16.37
   0  -1 -12   93.48    9.47
   0  -1 -12  125.37   13.28
   0  -1 -12   98.83   11.09
   0  -1 -12   74.00   13.15
   0   1  12   81.34   12.03
   0   1  12   97.32   13.76
   0   1  12   92.74   13.31
  -3  -1 -12    5.72    3.69
  -3  -1 -12   -7.80    9.63
  -3  -1 -12    3.45    4.22
  -3  -1 -12    0.90    6.07
   3   1  12    6.88    4.59
   3   1  12   -0.96    5.82
  -4  -1 -12   74.55   11.22
  -4  -1 -12   83.76   11.54
  -4  -1 -12   87.01   15.90
   4   1  12   89.09   13.85
   4   1  12   88.39   16.22
  -5  -1 -12    2.31    5.63
   5   1  12    4.81    7.26
  -8   2  12    3.68    5.16
  -8   2  12    7.00    5.20
  -7   2  12   62.68    7.44
  -7   2  12   52.70    9.35
  -7   2  12   72.15    9.11
  -7   2  12   41.11    8.49
   6  -2 -12    2.70    4.09
   6  -2 -12   15.78    4.42
  -6   2  12    4.38    3.08
  -6   2  12    9.21    4.57
  -6   2  12    3.87    4.70
   5  -2 -12    8.13    3.59
  -5   2  12    9.96    5.55
  -5   2  12   -0.11    4.07
  -5   2  12    8.87    3.70
  -5   2  12    7.91    3.54
   4  -2 -12   14.16    3.36
   4  -2 -12    2.50    3.85
   4  -2 -12    4.21    3.52
  -4   2  12    9.20    3.58
  -4   2  12    8.85    4.28
  -4   2  12    5.90    4.27
  -4   2  12   16.27    5.11
   3  -2 -12   60.49    7.46
   3  -2 -12   64.86   11.06
   3  -2 -12   48.40    8.58
   3  -2 -12   59.00    9.54
  -3   2  12   65.20    9.92
  -3   2  12   58.90   10.43
  -3   2  12   71.14   11.10
   2  -2 -12   59.19    8.17
   2  -2 -12   48.09    9.08
   2  -2 -12   85.24   13.72
   2  -2 -12   51.31    8.50
   2  -2 -12   53.72    6.21
  -2   2  12   64.34   10.72
  -2   2  12   81.62   13.02
   1  -2 -12    9.09    3.14
   1  -2 -12    6.84    6.58
   1  -2 -12    5.08    5.13
   1  -2 -12    9.67    4.20
  -1   2  12    9.97    5.37
  -1   2  12   11.72    5.03
  -1   2  12   19.33    5.94
   0  -2 -12   31.76    7.21
   0  -2 -12   37.29    7.96
   0  -2 -12   28.76    5.50
   0  -2 -12   45.51   10.49
   0   2  12   23.99    7.09
   0   2  12   27.54    7.77
   0   2  12   23.68    7.51
  -1  -2 -12    5.29    6.94
  -1  -2 -12    7.72    5.95
  -1  -2 -12   22.64    5.93
  -1  -2 -12   12.46    4.61
   1   2  12   26.49    7.38
   1   2  12    4.85    4.61
  -2  -2 -12  175.56   18.45
  -2  -2 -12  166.07   21.87
  -2  -2 -12  191.94   18.58
  -2  -2 -12  158.41   22.47
   2   2  12  179.29   21.23
   2   2  12  176.58   19.47
  -3  -2 -12   14.35    5.92
  -3  -2 -12    7.62    4.85
  -3  -2 -12    7.67    7.21
  -3  -2 -12    8.18   11.63
   3   2  12   10.94    7.52
   3   2  12   15.17    6.72
  -4  -2 -12   25.25   12.48
  -4  -2 -12   18.56    7.12
   4   2  12   17.47    8.33
   4   2  12   18.61   10.23
  -8   3  12    1.62    6.34
  -8   3  12   -0.59    4.74
  -7   3  12    3.08    4.32
  -7   3  12    0.96    4.08
  -7   3  12    7.80    3.62
  -7   3  12    9.81    3.40
   6  -3 -12   -2.20    3.88
  -6   3  12   -7.30    3.71
  -6   3  12    6.34    4.49
  -6   3  12   -1.94    2.56
   5  -3 -12  139.73   12.78
   5  -3 -12  137.98   15.71
  -5   3  12  164.03   16.34
  -5   3  12  152.05   15.55
   4  -3 -12   -1.20    4.56
  -4   3  12    5.38    4.13
  -4   3  12   -4.30    3.60
  -4   3  12    2.66    3.46
   1  -3 -12   87.96    9.05
   1  -3 -12   58.32   11.81
   1  -3 -12   87.78   10.92
  -1   3  12   73.98   12.07
  -1   3  12   92.83   13.27
   0  -3 -12   45.00    7.16
   0  -3 -12   37.78    7.88
   0  -3 -12   42.39   10.78
   0   3  12   38.52   10.09
   0   3  12   26.86    7.60
  -1  -3 -12   49.93    9.23
  -1  -3 -12   38.88    7.51
  -1  -3 -12   37.13   10.39
   1   3  12   55.35   12.34
   1   3  12   44.34    9.96
  -2  -3 -12   40.05   10.63
  -2  -3 -12   22.76    6.77
  -2  -3 -12   32.47    7.42
   2   3  12   22.17    8.22
   2   3  12   52.48   11.47
  -3  -3 -12    7.21    4.81
  -3  -3 -12    6.26    6.32
  -3  -3 -12    8.34    8.27
   3   3  12    4.43    6.50
   3   3  12   -8.56    7.51
  -8   4  12   21.31    5.59
  -7   4  12   67.75    8.88
  -7   4  12   69.72   10.15
  -7   4  12   71.94   10.86
  -6   4  12    4.50    4.27
  -6   4  12    6.77    4.33
  -6   4  12    3.72    3.64
   5  -4 -12    5.24    2.98
   5  -4 -12    3.44    4.77
   5  -4 -12    6.44    3.27
  -5   4  12   10.33    5.32
  -5   4  12    4.48    3.97
  -5   4  12   -1.54    3.03
   4  -4 -12   -0.40    3.40
   4  -4 -12    8.47    5.00
   4  -4 -12    0.83    4.56
  -4   4  12   -1.12    3.21
  -4   4  12    2.12    4.14
  -4   4  12    2.35    4.28
   3  -4 -12  113.12   12.45
   3  -4 -12  136.83   13.91
   3  -4 -12  121.96   16.49
   3  -4 -12  117.16   12.99
  -3   4  12  130.65   11.24
  -3   4  12  117.11   15.41
  -3   4  12  135.21   15.83
   2  -4 -12    4.97    3.98
   2  -4 -12   10.88    5.76
  -2   4  12   27.29    7.16
  -2   4  12   10.23    4.75
  -2   4  12    6.30    3.31
  -2   4  12   10.50    4.91
   1  -4 -12    7.62    3.97
   1  -4 -12    7.79    5.37
   1  -4 -12    5.38    3.28
   1  -4 -12    0.95    5.33
  -1   4  12    0.11    4.38
  -1   4  12   13.44    7.36
  -1   4  12   -5.81    3.81
  -1   4  12    5.81    3.96
   0  -4 -12   75.97   11.74
   0  -4 -12   91.06   10.79
   0  -4 -12  107.13   18.86
   0   4  12   95.10   14.69
   0   4  12   58.75   12.36
  -1  -4 -12  138.18   15.54
  -1  -4 -12  117.88   19.80
  -1  -4 -12  135.04   16.60
   1   4  12  148.49   19.58
   1   4  12  162.70   18.62
  -2  -4 -12   31.93    7.72
  -2  -4 -12   24.44    8.49
  -2  -4 -12   42.65   12.16
  -2  -4 -12   20.73    7.55
   2   4  12   17.89    8.19
   2   4  12   17.36    9.08
  -8   5  12    1.09    2.99
  -8   5  12   -5.46    4.30
  -8   5  12   -2.44    4.64
  -7   5  12    3.73    3.27
  -7   5  12   -0.26    4.62
  -7   5  12    0.67    4.57
   6  -5 -12   47.83   10.30
  -6   5  12   50.45    9.10
  -6   5  12   46.39    9.15
   5  -5 -12    0.97    4.31
   5  -5 -12    0.11    4.95
  -5   5  12    5.81    4.23
  -5   5  12   -1.86    4.65
  -5   5  12   -3.00    3.67
   4  -5 -12   39.04    8.63
   4  -5 -12   27.90    6.98
   4  -5 -12   29.16    9.15
  -4   5  12   38.44    5.06
  -4   5  12   36.24    8.34
  -4   5  12   35.21    8.02
  -4   5  12   41.75    8.94
   3  -5 -12  118.32   13.52
   3  -5 -12  101.21   11.29
   3  -5 -12  149.50   18.52
   3  -5 -12  149.80   14.84
  -3   5  12  128.01   12.23
  -3   5  12  112.44   16.60
  -3   5  12  125.69   15.51
  -3   5  12  145.75   16.78
   2  -5 -12    0.63    2.85
   2  -5 -12    3.74    6.10
   2  -5 -12    2.08    4.70
   2  -5 -12    5.88    4.41
   2  -5 -12   -1.96    4.82
  -2   5  12    5.71    5.72
  -2   5  12    6.66    4.25
  -2   5  12   -6.24    4.44
  -2   5  12   11.48   15.53
   1  -5 -12  230.77   25.99
   1  -5 -12  243.80   24.29
   1  -5 -12  226.13   23.63
   1  -5 -12  289.51   26.67
   1  -5 -12  271.55   29.34
  -1   5  12  298.32   29.37
  -1   5  12  289.89   27.56
   0  -5 -12   -0.23    3.91
   0  -5 -12   -1.32    5.61
   0  -5 -12    7.75    5.23
   0   5  12   11.15    6.27
  -1  -5 -12    7.89    9.56
  -1  -5 -12    8.66    6.62
  -1  -5 -12   20.74    6.59
   1   5  12   24.12    8.55
   1   5  12   14.11    7.30
  -7   6  12   15.90    4.98
   6  -6 -12    9.62    8.58
  -6   6  12    4.61    4.49
  -6   6  12   -6.20    4.49
  -6   6  12   -0.35    5.41
   5  -6 -12   21.55    7.32
   5  -6 -12   43.44   10.88
   5  -6 -12   33.01   10.68
  -5   6  12   40.33    8.75
  -5   6  12   39.38    5.71
  -5   6  12   41.80    9.48
  -5   6  12   35.64    8.58
   4  -6 -12   84.27   13.25
   4  -6 -12   90.54   13.58
   4  -6 -12  109.41   18.96
  -4   6  12   98.28   11.41
  -4   6  12  122.57   15.34
  -4   6  12   98.89   15.59
  -4   6  12  115.37   14.57
   3  -6 -12   39.41    8.43
   3  -6 -12   76.33   20.63
   3  -6 -12   29.49    5.03
  -3   6  12   27.42    8.60
  -3   6  12   59.41   10.88
  -3   6  12   50.94   10.78
   2  -6 -12   86.24   14.04
   2  -6 -12   81.33    9.83
   2  -6 -12   79.83   11.57
   2  -6 -12   58.52   10.82
   2  -6 -12   68.93   15.57
  -2   6  12  102.65   16.45
  -2   6  12   92.76   16.12
   1  -6 -12   11.39    5.64
   1  -6 -12   14.82    6.15
   1  -6 -12   19.30    7.92
   1  -6 -12   23.55    9.81
  -1   6  12   28.92   10.88
  -1   6  12   34.71    9.52
   0  -6 -12   57.72   10.34
   0  -6 -12   42.58    9.47
   0  -6 -12   30.09   13.17
   0   6  12   38.44   11.35
  -7   7  12    6.57    4.88
  -7   7  12    1.73    5.21
  -6   7  12  112.70   14.81
  -6   7  12  100.69   14.55
   5  -7 -12    3.46    6.87
   5  -7 -12   11.78   10.57
  -5   7  12   10.27    6.95
  -5   7  12   16.23    8.30
   4  -7 -12   12.70    7.86
   4  -7 -12   10.40    9.86
   4  -7 -12    0.41    7.60
  -4   7  12    4.03    7.18
  -4   7  12   22.63    7.68
   3  -7 -12  109.26   20.76
   3  -7 -12  115.99   15.23
   3  -7 -12   81.58   10.63
   3  -7 -12  112.08   17.14
  -3   7  12  132.60   17.82
  -3   7  12  114.75   20.50
   2  -7 -12    4.79    7.12
   2  -7 -12   18.31    7.44
   2  -7 -12    9.07    5.18
   2  -7 -12    9.05   10.84
  -2   7  12    4.35    7.36
  -2   7  12    6.51    6.90
   1  -7 -12   73.67   14.64
   0   8 -13  137.83   29.51
   0  -8  13  137.97   26.23
   0  -8  13  127.09   22.91
   0  -8  13  137.38   19.31
  -1   8 -13   92.11   17.53
   1  -8  13   39.42   12.04
   1  -8  13   62.49   16.48
   1  -8  13   61.68   15.77
  -2   8 -13    9.70    9.48
  -2   8 -13    3.31    7.45
   2  -8  13    9.27   10.37
   2  -8  13   18.71    8.62
  -3   8 -13   22.43   11.83
  -3   8 -13   23.91    9.25
   3  -8  13   12.22    9.45
   3  -8  13   41.14   12.51
   3  -8  13   22.07   17.53
  -4   8 -13   41.29   14.12
   4  -8  13   59.48   23.01
   4  -8  13   25.46   10.63
   2   7 -13  -11.35   10.77
   2   7 -13   -3.64    5.94
  -2  -7  13   15.10    9.93
  -2  -7  13   -1.26   14.42
  -2  -7  13    7.90    7.68
   1   7 -13   57.58   12.02
   1   7 -13   39.28   13.11
  -1  -7  13   35.15   21.23
  -1  -7  13   49.19   17.34
   0   7 -13   55.33   11.57
   0   7 -13   76.74   14.94
   0  -7  13   54.84   12.88
   0  -7  13   67.97   17.10
   0  -7  13  104.45   18.24
  -1   7 -13   -1.07    5.43
  -1   7 -13   -3.50    8.15
   1  -7  13    0.29    6.99
   1  -7  13    0.81    6.34
   1  -7  13   -6.67    8.91
  -2   7 -13  193.40   23.68
  -2   7 -13  172.29   19.09
   2  -7  13  232.41   35.17
   2  -7  13  106.84   21.09
   2  -7  13  155.23   21.38
  -3   7 -13   -1.41    8.11
  -3   7 -13    0.51    5.60
   3  -7  13    7.82   12.49
   3  -7  13   -2.17    8.15
   3  -7  13   -0.48    5.63
  -4   7 -13   57.35   13.12
   4  -7  13   64.86   19.72
   4  -7  13   55.55   12.51
  -5   7 -13   -3.21    5.18
  -5   7 -13    8.10    7.90
   5  -7  13   -1.54   13.30
   5  -7  13   -5.34    7.42
   3   6 -13  -13.58   12.10
  -3  -6  13    0.59   12.16
  -3  -6  13    3.21    7.34
  -3  -6  13   -2.65    8.16
   2   6 -13   54.45   10.18
  -2  -6  13   52.20   16.43
  -2  -6  13   54.38   12.71
  -2  -6  13   50.20   13.00
   1   6 -13  114.28   18.09
   1   6 -13  113.81   13.52
  -1  -6  13   97.46   19.25
  -1  -6  13   78.17   16.41
  -1  -6  13   80.14   17.88
  -1  -6  13   89.86   17.37
   0   6 -13  211.70   22.22
   0   6 -13  197.66   25.27
   0  -6  13  234.49   25.41
   0  -6  13  245.49   31.08
   0  -6  13  215.53   25.48
  -1   6 -13   48.04    9.54
  -1   6 -13   74.70   13.31
   1  -6  13   30.67    9.19
   1  -6  13   60.00   16.68
   1  -6  13   48.78   11.80
  -2   6 -13   38.04   14.98
  -2   6 -13   53.21   10.50
   2  -6  13   59.01   17.65
   2  -6  13   56.84   12.60
   2  -6  13   49.48   12.03
  -3   6 -13   -0.46    5.49
  -3   6 -13    4.47    4.44
   3  -6  13    1.47   10.41
   3  -6  13   -7.30    5.76
   3  -6  13   -3.47    5.42
  -4   6 -13    1.85    5.37
  -4   6 -13    6.20    6.62
   4  -6  13    8.68   10.32
   4  -6  13    4.73    6.34
  -5   6 -13    2.90    5.47
   5  -6  13    1.74    6.20
  -4  -5  13    7.34    6.90
  -4  -5  13    9.71    7.90
  -4  -5  13   -7.38   10.39
   3   5 -13  126.11   13.50
   3   5 -13  115.48   19.22
  -3  -5  13  128.75   20.60
  -3  -5  13  126.42   24.07
  -3  -5  13  101.70   16.53
  -3  -5  13  156.70   25.89
   2   5 -13   23.96    9.02
  -2  -5  13   28.16    9.31
  -2  -5  13   45.95   11.13
  -2  -5  13   39.81   13.47
  -2  -5  13   34.98   13.62
   1   5 -13   36.91   10.34
   1   5 -13   57.80    9.71
  -1  -5  13   65.58   16.82
  -1  -5  13   55.06   15.30
  -1  -5  13   46.10   11.68
  -1  -5  13   35.36    9.87
   0   5 -13   79.12   12.89
   0   5 -13  110.28   16.44
   0  -5  13  143.46   22.05
   0  -5  13  103.18   14.95
   0  -5  13   99.38   15.04
   0  -5  13  102.71   20.30
  -1   5 -13   -3.71    5.35
  -1   5 -13    0.08    3.78
   1  -5  13    1.11    4.89
   1  -5  13    6.09    6.62
   1  -5  13    4.03    8.89
  -2   5 -13    3.01    5.17
  -2   5 -13   -0.55    3.86
   2  -5  13    2.87    5.27
   2  -5  13  -10.14    4.07
   2  -5  13   -5.10    8.54
  -3   5 -13    3.11    4.59
  -3   5 -13    1.95    5.18
  -3   5 -13   34.12   14.69
   3  -5  13   13.35    7.94
   3  -5  13   -1.15    5.82
  -4   5 -13    4.78    4.96
  -4   5 -13    4.30   16.46
  -4   5 -13    3.02    5.51
   4  -5  13    5.42    5.82
   4  -5  13    4.86    9.31
  -5   5 -13   26.38    7.89
  -5   5 -13   30.32    8.81
   5  -5  13   26.31   11.81
   5  -5  13   36.15    8.72
  -5  -4  13   37.89   11.02
  -5  -4  13   69.81   12.77
  -5  -4  13   46.74   14.66
   4   4 -13    4.18    4.53
   4   4 -13    3.42    5.73
  -4  -4  13    5.08    9.59
  -4  -4  13    3.32    6.56
  -4  -4  13    9.62    9.42
  -4  -4  13   10.56    7.23
   3   4 -13   58.35    8.36
   3   4 -13   62.18   13.76
   3   4 -13   67.96   12.87
  -3  -4  13   77.07   16.59
  -3  -4  13   43.36   11.15
  -3  -4  13   44.88   13.06
  -3  -4  13   51.88   12.29
   2   4 -13  132.31   13.85
   2   4 -13  117.31   16.84
  -2  -4  13  108.33   16.44
  -2  -4  13  137.24   22.01
   1   4 -13   -2.92    5.03
   1   4 -13   -5.84    3.27
   1   4 -13    7.66    9.35
  -1  -4  13   -3.34    8.10
  -1  -4  13    2.71    4.27
  -1  -4  13    1.54    6.88
  -1  -4  13   -4.71    5.02
   0   4 -13    3.77    5.45
   0   4 -13   -1.09    5.69
   0  -4  13   20.94   10.17
   0  -4  13   -1.64    4.05
   0  -4  13    4.12    7.65
   0  -4  13    2.71    5.77
  -1   4 -13   15.10    6.22
  -1   4 -13    9.16    4.80
   1  -4  13   -4.10    5.36
   1  -4  13   18.98    8.21
  -2   4 -13  171.52   19.59
  -3   4 -13   14.32    5.82
  -3   4 -13   21.29   17.40
   3  -4  13   22.55    7.15
   3  -4  13   13.53    9.16
  -4   4 -13    2.69    4.60
  -4   4 -13    9.20    5.61
  -4   4 -13    7.94   14.61
  -4   4 -13    2.25    3.99
   4  -4  13    3.88   10.95
   4  -4  13    5.03    5.77
  -5   4 -13   -2.73    3.99
  -5   4 -13   -0.24    5.51
  -5   4 -13    5.82    4.72
   5  -4  13   -8.56    4.88
   5  -4  13   -0.54    8.69
  -6  -3  13   -6.82    6.66
  -6  -3  13   -2.83    6.38
  -6  -3  13   11.04    7.54
   5   3 -13    7.01    4.46
   5   3 -13   -3.73    7.38
  -5  -3  13    9.65    6.15
  -5  -3  13    9.80    8.53
  -5  -3  13    7.90    6.94
   4   3 -13    2.95    2.84
   4   3 -13    4.96    4.77
   4   3 -13   13.01    8.33
  -4  -3  13   10.38    6.34
  -4  -3  13   18.15    7.49
  -4  -3  13   14.08    8.95
  -4  -3  13    3.88    6.91
   3   3 -13  126.57   15.69
   3   3 -13  104.25   10.63
  -3  -3  13   58.69   17.29
  -3  -3  13  134.04   18.97
   2   3 -13   66.55   11.21
   2   3 -13   60.87    8.55
   2   3 -13   62.16    8.43
  -2  -3  13   45.55   10.38
  -2  -3  13   56.07   12.29
   1   3 -13   94.96   12.92
   1   3 -13   64.95    9.79
   1   3 -13   70.37   10.47
  -1  -3  13   63.67   17.54
  -1  -3  13   98.02   16.78
  -1  -3  13   78.46   16.06
  -1  -3  13   66.09   12.72
   0   3 -13  417.56   37.49
   0   3 -13  379.07   35.53
   0  -3  13  444.39   42.45
   0  -3  13  374.07   39.29
   0  -3  13  467.61   39.47
  -1   3 -13    5.16    4.49
  -1   3 -13    3.56    5.10
  -1   3 -13    3.09   10.78
   1  -3  13    1.20    5.89
   1  -3  13    2.63    6.45
   1  -3  13   12.01    9.13
  -2   3 -13   56.95   10.84
  -2   3 -13   46.89    8.61
  -2   3 -13   42.47   15.59
   2  -3  13   32.31   10.10
   2  -3  13   43.72   10.74
  -3   3 -13    3.46   11.27
  -3   3 -13    0.83    3.70
  -3   3 -13    5.65    4.56
  -3   3 -13    3.60    4.27
   3  -3  13    7.28    5.43
   3  -3  13    2.96    6.20
  -4   3 -13   14.62    6.81
  -4   3 -13   -6.52   14.04
  -4   3 -13   12.65    4.78
  -4   3 -13    9.02    5.02
   4  -3  13   13.94    5.99
   4  -3  13   -9.03    7.65
  -5   3 -13    4.39    5.91
  -5   3 -13   10.12    4.97
  -5   3 -13   17.84    7.45
   5  -3  13    7.50    8.82
  -6  -2  13    1.89    6.32
  -6  -2  13    4.79    5.33
  -6  -2  13    8.82    7.85
  -6  -2  13   -7.00    5.90
   5   2 -13   80.65   12.11
  -5  -2  13   70.73   14.08
  -5  -2  13   79.01   14.71
  -5  -2  13   55.44   11.91
   4   2 -13   48.18    7.31
   4   2 -13   47.10    4.71
   4   2 -13   41.00    5.96
  -4  -2  13   76.56   14.96
  -4  -2  13   43.19   10.72
  -4  -2  13   58.42   12.16
  -4  -2  13   64.65   12.18
   3   2 -13  126.12   13.90
   3   2 -13   79.86    8.35
   3   2 -13  106.61   10.21
  -3  -2  13   77.97   14.55
  -3  -2  13   86.87   13.01
   2   2 -13  132.14   15.38
  -2  -2  13  128.67   15.75
  -2  -2  13  113.39   18.14
  -2  -2  13  106.16   17.05
   1   2 -13   15.17    4.40
   1   2 -13   11.05    4.68
   1   2 -13    9.47    4.76
  -1  -2  13   15.91    6.64
  -1  -2  13   21.00    6.97
  -1  -2  13   11.13    4.97
  -1  -2  13   19.94    6.39
   0   2 -13   -7.18    2.58
   0   2 -13   -3.86    3.88
   0   2 -13   -0.19    4.20
   0  -2  13    2.19    5.32
   0  -2  13   -4.21    4.64
   0  -2  13   -7.13    6.07
   0  -2  13    2.31    3.20
  -1   2 -13   77.94    9.16
  -1   2 -13   49.35   11.54
  -1   2 -13   82.45   17.49
   1  -2  13  107.40   16.24
   1  -2  13  123.58   17.27
   1  -2  13   91.35   15.33
  -2   2 -13    8.92    4.97
  -2   2 -13   17.95    9.51
  -2   2 -13    2.51    3.17
  -2   2 -13    3.14    2.92
   2  -2  13    4.34    5.38
  -3   2 -13   34.78   13.75
  -3   2 -13   40.03    7.93
  -3   2 -13   43.25    8.12
   3  -2  13   42.49    9.17
   3  -2  13   43.80   11.18
  -4   2 -13   87.38   11.15
  -4   2 -13   65.62   19.19
  -4   2 -13  101.99   15.04
   4  -2  13   86.95   12.45
   4  -2  13   96.15   16.83
  -5   2 -13   30.69    7.54
  -5   2 -13   25.94    9.59
  -5   2 -13   22.84    6.91
   5  -2  13   41.74   11.66
  -7  -1  13   61.54   13.12
  -7  -1  13   55.00    9.97
  -7  -1  13   49.07   11.59
  -6  -1  13    1.15    6.04
  -6  -1  13    5.31    5.60
  -6  -1  13    1.78    5.60
  -6  -1  13    6.15    5.87
   5   1 -13   46.28    9.33
  -5  -1  13   61.09   11.36
  -5  -1  13   52.19   11.88
  -5  -1  13   78.42   10.89
  -5  -1  13   37.39    9.56
   4   1 -13   -4.87    3.36
   4   1 -13   -2.38    2.31
  -4  -1  13   -0.64    4.06
  -4  -1  13    5.77    5.26
  -4  -1  13    2.12    5.27
  -4  -1  13    1.79    5.08
   3   1 -13   52.41    7.04
   3   1 -13   53.26    8.92
   3   1 -13   67.91   10.49
  -3  -1  13   94.56   19.70
  -3  -1  13   67.77   12.00
  -3  -1  13   43.91    9.92
  -3  -1  13   45.85    9.81
   2   1 -13    6.42    3.37
   2   1 -13    6.36    5.09
   2   1 -13   15.63    3.18
   2   1 -13    5.88    5.23
   2   1 -13    7.23    1.85
  -2  -1  13    6.50    5.69
  -2  -1  13    0.96    4.44
  -2  -1  13   12.59    6.02
  -2  -1  13    3.72    4.01
   1   1 -13  199.35   18.45
   1   1 -13  138.06   14.27
   1   1 -13  141.12   13.23
   1   1 -13  162.25   15.56
  -1  -1  13  119.02   16.21
  -1  -1  13  163.73   19.24
  -1  -1  13  167.19   20.50
  -1  -1  13  160.99   17.72
   0   1 -13   -6.01    2.61
   0   1 -13   -2.33    4.33
   0   1 -13    0.34    1.90
   0  -1  13   -0.82    6.04
   0  -1  13    1.52    4.01
   0  -1  13   -4.45    4.10
  -1   1 -13   -3.01    2.03
  -1   1 -13    1.46    5.17
  -1   1 -13    7.38    8.99
  -1   1 -13   -4.23    3.94
   1  -1  13    3.77    4.18
   1  -1  13   -7.21    4.06
   1  -1  13    3.78   10.15
  -2   1 -13   69.35    8.52
  -2   1 -13   59.52   17.47
  -2   1 -13   51.41    9.79
  -2   1 -13   74.48   12.32
   2  -1  13   63.94   13.65
  -3   1 -13   17.15   13.16
  -3   1 -13   11.90    4.35
  -3   1 -13   20.37    7.66
  -3   1 -13   17.96    5.73
   3  -1  13   11.18    5.58
   3  -1  13   26.73    8.82
  -4   1 -13    1.59    6.45
  -4   1 -13    7.43    5.13
  -4   1 -13   14.47   11.82
  -4   1 -13    8.90    4.75
   4  -1  13    2.34    4.84
   4  -1  13   13.30    8.15
  -5   1 -13   -1.31    9.55
  -5   1 -13    0.81    5.01
  -5   1 -13   -7.43   13.42
   5  -1  13    5.45    6.67
   5  -1  13   -2.09    8.68
  -7   0  13    2.45    5.42
  -7   0  13    0.06    3.21
  -7   0  13    4.44    5.24
  -7   0  13    2.26    5.77
   6   0 -13    9.67    4.95
  -6   0  13    4.30    5.01
  -6   0  13   -9.45    4.67
  -6   0  13    0.64    4.86
  -6   0  13   -0.76    3.39
   5   0 -13   73.03   10.93
  -5   0  13   76.75   12.36
  -5   0  13   52.42   10.39
  -5   0  13   74.86   12.05
  -5   0  13   70.83   12.08
   4   0 -13    2.49    3.69
   4   0 -13    0.50    4.51
   4   0 -13    0.30    2.39
  -4   0  13    2.20    3.50
  -4   0  13   -0.61    4.01
  -4   0  13   -8.47    4.61
  -4   0  13   -2.87    4.64
   3   0 -13    9.35    5.47
   3   0 -13    4.78    5.30
  -3   0  13    9.14    4.55
  -3   0  13   14.85    6.19
  -3   0  13   27.11    7.14
  -3   0  13   13.77    5.55
   2   0 -13    3.43    2.91
   2   0 -13   -4.20    4.50
   2   0 -13    8.14    4.88
   2   0 -13   -5.34    5.38
  -2   0  13    1.65    4.22
  -2   0  13   28.43    7.58
  -2   0  13   -4.24    3.75
  -2   0  13    1.25    3.09
   1   0 -13  322.08   24.25
   1   0 -13  294.04   25.92
  -1   0  13  242.35   28.86
   0   0 -13   10.26    3.21
   0   0 -13   12.15    6.12
   0   0 -13   15.57    4.78
   0   0  13   13.02    6.07
   0   0  13   15.25   11.99
   0   0  13   17.71    6.40
  -1   0 -13  112.71   15.25
  -1   0 -13   96.41   18.43
  -1   0 -13  113.54   13.28
  -1   0 -13  114.44   11.50
   1   0  13  102.32   15.89
  -2   0 -13   -2.18    8.93
  -2   0 -13    2.08    3.74
  -2   0 -13    2.48    3.16
  -2   0 -13    6.98    6.31
   2   0  13    1.51    5.54
   2   0  13    2.19    4.24
  -3   0 -13   16.94    5.28
  -3   0 -13   21.35    5.97
  -3   0 -13   17.31    6.93
   3   0  13   20.05    8.07
   3   0  13   14.31    6.04
  -4   0 -13   53.97   12.06
  -4   0 -13   54.54    9.25
  -4   0 -13   34.61    7.33
   4   0  13   37.19    9.00
   4   0  13   31.05   16.15
  -5   0 -13   30.88    8.48
   5   0  13   28.19    9.28
  -7   1  13   -4.98    5.67
  -7   1  13   11.01    4.66
  -7   1  13   11.15    5.95
  -7   1  13    9.13    3.52
   6  -1 -13   15.54    5.94
   6  -1 -13   12.59    5.37
  -6   1  13    1.44    4.47
  -6   1  13    7.51    5.17
  -6   1  13    8.56    5.16
  -6   1  13    9.86    4.18
   5  -1 -13    5.87    5.01
  -5   1  13    3.35    3.77
  -5   1  13   10.56    5.85
  -5   1  13    2.46    4.00
  -5   1  13   -6.08    4.52
   4  -1 -13   14.08    5.79
   4  -1 -13   36.61    6.13
   4  -1 -13   33.15    5.07
  -4   1  13   32.99    8.14
  -4   1  13   23.47    7.15
  -4   1  13   25.76    8.59
  -4   1  13   26.39    6.08
   3  -1 -13  101.58   10.36
   3  -1 -13   75.24   11.67
   3  -1 -13  109.40   13.63
  -3   1  13  101.67   13.13
  -3   1  13   85.83   13.37
  -3   1  13   89.75   13.14
  -3   1  13   88.32   11.02
   2  -1 -13   85.22    7.85
   2  -1 -13   91.80   13.23
   2  -1 -13   92.36   10.41
  -2   1  13   87.32   12.89
  -2   1  13   95.63   13.62
  -2   1  13   78.41   11.67
   1  -1 -13   -0.46    5.94
   1  -1 -13    3.33    4.85
   1  -1 -13    1.29    1.74
   1  -1 -13    0.89    2.95
  -1   1  13   -7.78    4.94
  -1   1  13    4.77    4.29
  -1   1  13    0.28    3.97
   0  -1 -13   76.31   10.89
   0  -1 -13   97.24   15.51
   0  -1 -13   70.66    8.39
   0   1  13   94.88   14.08
   0   1  13   63.01   12.42
  -1  -1 -13  203.13   24.35
  -1  -1 -13  243.90   22.85
  -1  -1 -13  251.39   21.63
   1   1  13  279.91   26.80
   1   1  13  208.35   23.51
  -2  -1 -13   25.66    6.50
  -2  -1 -13   44.96   13.91
  -2  -1 -13   24.71   11.60
   2   1  13   23.54    6.90
   2   1  13   22.95    7.71
  -3  -1 -13  134.68   18.21
  -3  -1 -13  123.43   14.61
  -3  -1 -13  101.65   22.26
  -3  -1 -13   96.20   13.09
   3   1  13  117.81   15.13
   3   1  13  130.43   19.36
  -4  -1 -13    1.85    5.07
  -4  -1 -13    8.19    9.72
   4   1  13   13.34    9.90
   4   1  13    2.37    6.90
  -8   2  13    8.99    6.05
  -8   2  13   -1.72    5.54
  -7   2  13   -2.99    4.40
  -7   2  13    3.83    4.37
  -7   2  13   -4.71    4.91
  -7   2  13    4.01    2.99
   6  -2 -13   57.09    9.99
   6  -2 -13   56.14    8.95
  -6   2  13   68.98   10.94
  -6   2  13   76.23    9.01
  -6   2  13   64.80   11.03
  -6   2  13   56.88    9.92
   5  -2 -13    2.49    3.35
   5  -2 -13    4.26    5.20
  -5   2  13    3.58    3.38
  -5   2  13   -3.30    3.82
  -5   2  13    9.05    9.84
  -5   2  13   -1.15    2.91
   4  -2 -13   37.55    6.87
   4  -2 -13   31.44    6.52
   4  -2 -13   32.99    9.61
  -4   2  13   34.49    7.77
  -4   2  13   33.21    7.20
  -4   2  13   34.61    7.90
   3  -2 -13   65.20   11.42
   3  -2 -13   86.04   12.67
   3  -2 -13   78.22    9.59
   3  -2 -13   77.61   10.69
  -3   2  13   79.50   12.60
  -3   2  13   78.25   11.79
  -3   2  13  118.37   16.39
   2  -2 -13   49.07    8.84
   2  -2 -13   53.94    8.60
   2  -2 -13   56.43    5.90
   2  -2 -13   45.22    9.91
  -2   2  13   44.88    9.62
  -2   2  13   54.04   10.60
  -2   2  13   38.19    8.52
   1  -2 -13  348.41   33.23
   1  -2 -13  406.79   32.16
   1  -2 -13  313.56   34.13
   1  -2 -13  388.78   36.35
  -1   2  13  371.09   35.15
  -1   2  13  432.71   39.36
  -1   2  13  449.22   37.39
   0  -2 -13  104.07   11.51
   0  -2 -13  119.66   16.69
   0  -2 -13  126.40   13.89
   0   2  13  114.73   15.96
   0   2  13  118.24   14.74
   0   2  13  116.01   20.36
  -1  -2 -13  113.70   13.05
  -1  -2 -13  108.94   14.14
  -1  -2 -13  145.52   18.60
   1   2  13  139.35   15.57
   1   2  13  121.56   17.57
  -2  -2 -13    7.68    7.81
  -2  -2 -13   13.62    5.14
  -2  -2 -13    8.41    5.08
   2   2  13    4.84    6.65
   2   2  13   13.71    6.79
  -3  -2 -13    8.15    5.57
  -3  -2 -13    1.35    4.55
  -3  -2 -13    0.46    7.31
   3   2  13    1.17    7.80
   3   2  13    8.58    7.38
  -8   3  13    7.83    5.52
   7  -3 -13   53.03   11.33
  -7   3  13   59.60    9.59
  -7   3  13   51.73    7.73
  -7   3  13   43.97    6.97
   6  -3 -13    9.91    5.23
  -6   3  13   16.71    6.26
  -6   3  13   15.36    4.84
  -6   3  13    8.21    4.92
   5  -3 -13  124.51   14.88
  -5   3  13  112.17   14.35
  -5   3  13  121.00   13.70
  -5   3  13  115.06   14.49
   4  -3 -13  154.19   15.51
   4  -3 -13  143.15   18.20
   4  -3 -13  167.65   15.93
   4  -3 -13  173.04   17.68
  -4   3  13  192.28   18.82
  -4   3  13  170.36   18.42
  -4   3  13  182.56   18.30
   3  -3 -13  167.95   19.60
   3  -3 -13  190.03   16.69
   3  -3 -13  133.47   16.18
   3  -3 -13  168.04   14.16
  -3   3  13  166.06   18.75
   2  -3 -13   85.22   14.80
   2  -3 -13   56.49   10.03
   2  -3 -13   52.34    7.38
   2  -3 -13   67.20    9.99
  -2   3  13   91.61   14.01
  -2   3  13   80.35   12.99
  -2   3  13   80.90   13.02
   1  -3 -13    9.22    4.70
   1  -3 -13    1.22    2.76
   1  -3 -13    4.79    5.53
   1  -3 -13    0.61    5.73
  -1   3  13    4.16    6.97
  -1   3  13   -4.10    3.76
  -1   3  13   -0.43    3.98
   0  -3 -13   10.13    6.60
   0  -3 -13   16.89    4.75
   0  -3 -13   12.06    5.08
   0   3  13   20.26    8.21
   0   3  13   17.65    6.59
  -1  -3 -13   60.23   16.87
  -1  -3 -13   38.11    7.73
  -1  -3 -13   48.73    9.04
   1   3  13   53.25   12.48
   1   3  13   35.42    9.82
  -2  -3 -13   19.19    9.63
  -2  -3 -13   17.04    6.49
  -2  -3 -13   10.99    5.23
   2   3  13   14.67    8.41
   2   3  13   15.50    8.83
  -3  -3 -13   12.06    8.89
  -3  -3 -13   10.93   12.63
  -3  -3 -13    3.54    5.66
   3   3  13    2.97    7.65
   3   3  13   -3.71    8.72
  -8   4  13    3.97    4.55
  -8   4  13    6.63    3.45
  -8   4  13    5.66    5.37
  -7   4  13   -7.10    4.24
  -7   4  13   -2.95    5.36
  -7   4  13    1.96    3.53
   6  -4 -13   80.23   13.44
  -6   4  13   63.38   11.43
  -6   4  13   94.08   11.31
   5  -4 -13    2.85    3.59
   5  -4 -13    0.51    6.89
  -5   4  13    8.12    4.10
  -5   4  13    7.91    5.46
   4  -4 -13   -0.85    2.04
   4  -4 -13    6.87    4.43
   4  -4 -13   -5.15    5.17
   4  -4 -13    0.83    5.48
  -4   4  13    4.84    3.63
  -4   4  13   -2.78    4.10
  -4   4  13    4.60    5.10
   3  -4 -13   19.66    5.18
   3  -4 -13   11.85    4.77
   3  -4 -13    7.61    4.31
   3  -4 -13   16.43    6.86
  -3   4  13   11.21    5.63
  -3   4  13   17.26    6.89
  -3   4  13   13.06    6.12
   2  -4 -13  163.84   21.28
   2  -4 -13  184.41   16.07
   2  -4 -13  180.33   18.05
  -2   4  13  187.09   20.48
  -2   4  13  149.57   18.39
  -2   4  13  123.83   18.92
   1  -4 -13   15.98    7.92
   1  -4 -13   18.91    6.25
   1  -4 -13   18.80    5.37
   1  -4 -13   10.12    8.17
  -1   4  13   32.29    7.78
  -1   4  13   19.08    8.10
   0  -4 -13   40.14   11.04
   0  -4 -13   61.90    9.65
   0  -4 -13   37.21    8.48
   0   4  13   31.09   10.53
   0   4  13   36.50    9.64
  -1  -4 -13   -2.16    4.31
  -1  -4 -13   -0.04    7.02
  -1  -4 -13  -12.62    4.49
   1   4  13    0.37    6.84
   1   4  13   -4.33    5.99
  -2  -4 -13    8.67    6.45
  -2  -4 -13   -5.18    5.49
  -2  -4 -13    0.82    5.84
  -2  -4 -13    8.65    9.99
   2   4  13   10.22    8.17
   2   4  13    0.14    7.76
  -7   5  13   28.25    6.83
  -7   5  13   12.69    6.19
  -7   5  13   22.24    6.17
   6  -5 -13   13.41    7.88
  -6   5  13   21.42    6.13
  -6   5  13    8.08    5.49
  -6   5  13   23.37    7.39
   5  -5 -13    0.56    6.45
   5  -5 -13    6.45    6.34
  -5   5  13    0.91    5.21
  -5   5  13    1.76    4.52
  -5   5  13    3.47    4.28
   4  -5 -13   73.19   10.25
   4  -5 -13   54.39   12.43
  -4   5  13   64.32   11.94
  -4   5  13   54.28   10.50
   3  -5 -13   32.04   10.67
   3  -5 -13   14.33    3.59
   3  -5 -13    6.65    7.11
   3  -5 -13    8.22    6.00
   3  -5 -13   14.34    4.94
  -3   5  13   16.37    6.71
  -3   5  13   20.63    4.71
  -3   5  13    6.29    5.41
  -3   5  13   23.39    8.48
   2  -5 -13   -1.82    3.16
   2  -5 -13    2.70    5.99
   2  -5 -13    6.41    5.45
   2  -5 -13    6.57    7.06
   2  -5 -13    7.72    4.35
  -2   5  13    0.66    8.43
  -2   5  13   -4.47    4.65
  -2   5  13   -8.02    5.00
   1  -5 -13   24.71    6.81
   1  -5 -13   32.13    9.43
  -1   5  13   44.09   10.06
  -1   5  13   21.56    8.38
   0  -5 -13  100.52   14.34
   0  -5 -13  127.98   14.50
   0  -5 -13  113.80   16.28
   0  -5 -13  120.68   20.08
   0   5  13  115.41   17.77
   0   5  13   97.40   16.88
  -1  -5 -13    8.52    6.14
  -1  -5 -13    8.27    9.77
  -1  -5 -13    7.69    7.33
  -1  -5 -13    5.50    6.36
   1   5  13   10.98    9.07
   1   5  13    5.86    8.88
  -7   6  13   -0.92    5.01
  -7   6  13   -4.24    4.50
  -6   6  13   10.60    5.89
   5  -6 -13   26.88    7.29
   5  -6 -13    8.23    9.89
  -5   6  13   24.27    7.70
  -5   6  13   21.90    7.37
   4  -6 -13    4.00    8.40
   4  -6 -13  -10.23    5.77
   4  -6 -13    0.32    6.19
  -4   6  13   -6.44    4.86
  -4   6  13   -5.09    5.58
   3  -6 -13   91.85   13.48
   3  -6 -13  129.05   15.10
   3  -6 -13   78.96    9.58
   3  -6 -13  118.49   19.61
  -3   6  13  106.12   15.62
  -3   6  13  113.01   16.04
   2  -6 -13   24.86    7.32
   2  -6 -13   11.25    4.81
   2  -6 -13    7.25    7.07
   2  -6 -13    5.34    9.01
  -2   6  13   10.07    7.04
  -2   6  13    5.01    8.59
   1  -6 -13   61.70   13.51
   1  -6 -13   60.64   10.55
   1  -6 -13   41.98   10.13
   1  -6 -13   93.66   28.72
  -1   6  13   47.13   13.02
  -1   6  13   62.16   13.86
  -6   7  13    0.84    5.61
   5  -7 -13   97.95   14.82
  -5   7  13  102.13   15.73
  -5   7  13   79.52   18.37
   4  -7 -13    8.73    7.12
   4  -7 -13  -19.67   12.16
   4  -7 -13   -5.39    7.87
  -4   7  13    8.86   11.18
   3  -7 -13   20.94    8.74
   3  -7 -13   27.49   13.85
   3  -7 -13   -4.78   16.54
  -3   7  13   22.19   15.57
  -3   7  13    8.28    9.05
   1   7 -14   32.94    8.95
   1   7 -14   11.55   10.71
  -1  -7  14   18.38   12.29
  -1  -7  14   -0.51    7.95
  -1  -7  14   54.10   13.88
   0   7 -14    6.69    6.47
   0   7 -14   26.81   10.27
   0  -7  14   17.70   12.64
   0  -7  14   -9.88   11.42
  -1   7 -14    7.02    6.56
   1  -7  14   15.53   13.43
   1  -7  14   14.95   10.98
  -2   7 -14   42.48   13.62
  -2   7 -14   58.49   12.93
   2  -7  14   18.07   14.66
   2  -7  14   27.16   10.21
   2  -7  14   11.90   11.51
  -3   7 -14    6.09    6.50
   3  -7  14   27.13    9.53
   3  -7  14   12.74    8.62
  -4   7 -14   -1.09    8.46
  -4   7 -14   -3.25    6.06
   4  -7  14    8.51    8.55
   4  -7  14  -16.79   17.01
   3   6 -14   -4.30    6.42
  -3  -6  14   -4.34    7.75
  -3  -6  14  -10.60    8.38
  -3  -6  14    7.37   12.80
   2   6 -14   13.68   11.93
   2   6 -14   17.69    7.06
  -2  -6  14   17.43   13.24
  -2  -6  14    8.57    9.26
  -2  -6  14   19.29   14.17
   1   6 -14   -2.08    5.27
   1   6 -14    9.72    9.63
  -1  -6  14    5.03   11.45
  -1  -6  14    7.84    6.41
  -1  -6  14    3.25    7.79
  -1  -6  14    6.86   25.01
   0   6 -14  102.46   14.81
   0   6 -14  115.13   19.30
   0  -6  14  147.31   26.18
   0  -6  14  103.31   16.17
   0  -6  14  103.29   17.98
  -1   6 -14   51.32   12.69
  -1   6 -14   37.26    9.00
   1  -6  14   20.52    8.84
   1  -6  14   54.08   12.80
   1  -6  14   73.60   17.09
  -2   6 -14   -0.01    4.87
  -2   6 -14    5.06    7.22
   2  -6  14   19.92   12.08
   2  -6  14    2.92    6.19
   2  -6  14    5.24    7.71
  -3   6 -14   70.73   12.60
  -3   6 -14  117.43   18.90
   3  -6  14  106.94   24.43
   3  -6  14   63.16   14.12
  -4   6 -14    4.21    6.71
   4  -6  14   17.81    8.50
   4  -6  14    8.18   10.92
   5  -6  14    9.51   14.85
  -4  -5  14   28.12   11.58
  -4  -5  14    4.52    7.72
  -4  -5  14    7.00    7.91
   3   5 -14   10.68    9.71
   3   5 -14   23.00    5.93
  -3  -5  14   11.33    8.77
  -3  -5  14    0.45    8.79
  -3  -5  14   29.58   12.21
  -2  -5  14   53.63   16.35
  -2  -5  14   55.99   12.76
  -2  -5  14   32.81   10.69
  -2  -5  14   89.87   19.18
   1   5 -14   19.55    6.89
   1   5 -14   34.98    9.48
  -1  -5  14   13.83   11.62
  -1  -5  14   14.78    6.93
  -1  -5  14    5.89   14.61
  -1  -5  14   47.18   15.48
   0   5 -14   28.64    9.83
   0   5 -14   26.20    7.20
   0  -5  14   22.69    8.42
   0  -5  14   27.43   14.16
   0  -5  14   20.07    7.47
  -1   5 -14  102.28   14.17
  -1   5 -14  134.36   17.19
   1  -5  14  120.21   19.42
   1  -5  14   82.52   19.73
  -2   5 -14    5.22    4.54
  -2   5 -14   42.09   12.76
   2  -5  14    3.11    6.04
   2  -5  14   -1.79    4.71
   2  -5  14    4.10    9.75
  -3   5 -14    4.89    5.60
  -3   5 -14    6.16    5.47
   3  -5  14   21.08    9.49
   3  -5  14    2.67    6.87
  -4   5 -14   22.71    7.24
  -4   5 -14   14.76    6.10
   4  -5  14   -4.55    9.67
   4  -5  14    9.19    7.59
  -5   5 -14    5.26   11.84
  -5   5 -14    9.98    6.60
  -5   5 -14   20.44   10.98
   5  -5  14  -10.73   11.85
  -5  -4  14   15.18    7.75
  -5  -4  14   -2.89    9.85
   4   4 -14   12.07    9.66
   4   4 -14   15.92    4.87
  -4  -4  14    9.59    9.98
  -4  -4  14   12.68    7.58
  -4  -4  14   19.28    9.06
   3   4 -14   21.74    5.57
   3   4 -14   19.73   10.13
  -3  -4  14   27.69    9.59
  -3  -4  14   18.91   12.27
  -3  -4  14   14.56    9.87
  -3  -4  14    9.49    6.43
   2   4 -14   37.12    7.63
   2   4 -14   45.57    8.32
   2   4 -14   46.57   11.50
  -2  -4  14   21.35    8.85
  -2  -4  14   36.72   11.99
  -2  -4  14   18.48    7.69
  -2  -4  14   45.81   12.21
   1   4 -14   44.64   11.14
   1   4 -14   37.26    8.35
   1   4 -14   69.71   10.51
  -1  -4  14   35.75   10.23
  -1  -4  14   14.15   11.53
  -1  -4  14   27.33   10.96
  -1  -4  14   52.82   11.79
   0   4 -14   19.79    6.98
   0  -4  14   16.10    8.59
   0  -4  14   14.73   11.83
   0  -4  14   20.37    9.56
   0  -4  14    5.30    4.58
  -1   4 -14   56.84   10.05
  -1   4 -14   72.01   13.61
   1  -4  14   78.82   17.12
   1  -4  14   40.90   11.06
   1  -4  14   62.26   12.34
  -2   4 -14   18.94    6.29
  -2   4 -14   24.21    8.05
   2  -4  14   23.80    9.21
   2  -4  14   18.24    7.34
  -3   4 -14  185.81   20.85
  -3   4 -14  180.51   18.94
  -3   4 -14  169.23   33.44
   3  -4  14  159.11   20.07
   3  -4  14  175.99   24.40
  -4   4 -14   18.14    7.56
  -4   4 -14   12.80    5.07
  -4   4 -14    9.20    5.16
   4  -4  14   18.63    7.35
   4  -4  14   -0.75    8.40
   5  -4  14   31.59    8.26
   5  -4  14   22.47   17.55
  -5  -3  14   -0.76    6.64
  -5  -3  14    4.42   10.21
  -5  -3  14   -6.28    5.71
   4   3 -14   56.31    8.14
   4   3 -14   60.73    8.33
   4   3 -14   42.41    5.94
  -4  -3  14   42.90   10.39
  -4  -3  14   59.59   13.95
  -4  -3  14   39.32   10.91
  -4  -3  14   56.99   13.50
   3   3 -14   -7.98   13.34
   3   3 -14    6.99    3.16
   3   3 -14   -2.10    6.14
  -3  -3  14    6.85    7.10
  -3  -3  14    4.31    5.57
  -3  -3  14   -2.17    6.34
  -3  -3  14   -5.46    4.75
   2   3 -14   -1.66    4.38
   2   3 -14   -0.85    5.70
   2   3 -14    4.35    3.59
  -2  -3  14    9.77    8.74
  -2  -3  14   -1.34    5.49
  -2  -3  14    1.17    4.61
  -2  -3  14   -2.62    7.86
   1   3 -14  153.17   14.99
   1   3 -14  128.98   21.45
   1   3 -14  128.22   14.44
  -1  -3  14  125.85   17.61
  -1  -3  14  118.95   19.89
  -1  -3  14  129.43   21.48
  -1  -3  14  122.84   16.67
   0   3 -14  154.88   17.60
   0   3 -14  183.35   20.04
   0   3 -14  149.28   16.99
   0  -3  14  154.93   19.33
   0  -3  14  204.46   23.85
   0  -3  14  169.80   20.10
   0  -3  14  176.18   22.37
  -1   3 -14  228.51   20.23
   1  -3  14  162.24   21.16
   1  -3  14  178.08   22.05
   1  -3  14  219.31   26.15
  -2   3 -14   91.39   11.82
  -2   3 -14   98.65   10.88
  -2   3 -14   97.78   14.51
   2  -3  14   80.89   14.67
   2  -3  14   83.68   16.13
  -3   3 -14    7.24   13.27
  -3   3 -14   -0.27    3.60
  -3   3 -14    3.85    6.06
  -3   3 -14    5.52    4.66
   3  -3  14   -5.96    6.25
   3  -3  14   -8.64    4.77
  -4   3 -14   91.37   10.92
  -4   3 -14   98.40   15.08
  -4   3 -14   64.61   11.15
   4  -3  14   54.24   14.07
   4  -3  14   63.75   11.72
  -5   3 -14   79.45   19.09
   5  -3  14   37.99   13.41
   5  -3  14   38.46    9.12
  -6  -2  14    5.20    6.45
  -6  -2  14    3.81    6.15
  -6  -2  14    7.42    7.61
   5   2 -14   10.90    7.52
  -5  -2  14    7.66    7.03
  -5  -2  14   27.04    8.15
  -5  -2  14    4.79    6.05
   4   2 -14  112.38   13.35
   4   2 -14  133.88   18.12
  -4  -2  14  121.53   16.21
  -4  -2  14  154.51   21.08
  -4  -2  14  142.32   19.34
  -4  -2  14   97.08   15.68
   3   2 -14   70.53   11.55
   3   2 -14   81.38    9.25
   3   2 -14   71.83    6.89
   3   2 -14   97.28   12.93
  -3  -2  14   66.48   13.57
  -3  -2  14   53.03   13.12
  -3  -2  14   69.58   13.11
  -3  -2  14   97.14   17.30
   2   2 -14  377.20   31.66
   2   2 -14  438.90   36.24
  -2  -2  14  342.18   36.52
  -2  -2  14  417.69   41.43
  -2  -2  14  440.99   39.38
  -2  -2  14  327.29   35.69
   1   2 -14   12.90    5.43
  -1  -2  14   15.34    8.06
  -1  -2  14   15.19    7.77
  -1  -2  14   27.54    7.89
  -1  -2  14   24.45    8.47
   0   2 -14  307.08   29.97
   0   2 -14  308.68   26.26
   0  -2  14  303.66   32.57
   0  -2  14  314.49   30.44
   0  -2  14  271.93   32.01
   0  -2  14  328.27   30.88
  -1   2 -14  111.26   13.74
  -1   2 -14  131.40   17.14
  -1   2 -14  117.11   12.58
   1  -2  14  147.57   19.91
   1  -2  14  131.96   16.24
  -2   2 -14   16.63    7.43
  -2   2 -14   48.41   14.15
  -2   2 -14   21.43    6.20
  -2   2 -14   27.30    5.66
   2  -2  14   16.24    7.02
   2  -2  14   15.80    7.06
  -3   2 -14  111.54   24.69
  -3   2 -14  135.73   14.86
  -3   2 -14  185.98   20.18
   3  -2  14  128.73   16.90
   3  -2  14  157.16   21.25
  -4   2 -14    2.91    3.86
  -4   2 -14    5.80    6.92
   4  -2  14   -9.61    5.09
   4  -2  14    3.15    8.22
  -5   2 -14    3.91    5.57
  -5   2 -14    5.54    7.99
  -5   2 -14  -11.37    6.60
   5  -2  14   -1.86    6.53
   5  -2  14    8.08   13.06
  -6  -1  14  131.49   17.89
  -6  -1  14  130.41   18.52
  -6  -1  14  149.68   18.05
  -6  -1  14  151.32   18.54
   5   1 -14   36.38    9.85
  -5  -1  14   55.16   12.06
  -5  -1  14   45.04   11.02
  -5  -1  14   66.67   13.90
   4   1 -14  255.69   23.37
  -4  -1  14  295.00   29.06
  -4  -1  14  234.44   31.12
  -4  -1  14  276.37   26.94
  -4  -1  14  244.17   27.23
   3   1 -14  127.41   15.45
   3   1 -14   95.28   14.36
   3   1 -14  109.63   11.54
  -3  -1  14   98.80   17.59
  -3  -1  14  100.34   14.34
  -3  -1  14  120.09   17.49
  -3  -1  14  128.65   16.40
   2   1 -14   19.46    3.17
   2   1 -14   39.11    6.61
   2   1 -14   32.86    8.20
  -2  -1  14   28.02    9.25
  -2  -1  14   29.91    9.09
  -2  -1  14   24.57    7.72
  -2  -1  14   37.90   13.72
   1   1 -14  225.75   19.79
   1   1 -14  245.96   30.24
   1   1 -14  268.37   22.13
  -1  -1  14  234.50   26.00
  -1  -1  14  187.60   23.05
  -1  -1  14  275.62   27.72
   0   1 -14   11.99    3.55
   0   1 -14   13.93    6.06
   0  -1  14   22.92    8.95
   0  -1  14   11.11    6.87
   0  -1  14   16.68    7.66
  -1   1 -14   38.82    6.72
  -1   1 -14   51.03    9.62
   1  -1  14   42.22    9.35
   1  -1  14   44.94   11.43
  -2   1 -14    5.87   11.92
  -2   1 -14    0.41    3.41
  -2   1 -14    4.76    6.15
  -2   1 -14    6.24    3.48
   2  -1  14    3.47    6.20
   2  -1  14    2.66    5.09
  -3   1 -14   68.97    8.73
  -3   1 -14   79.47   14.53
  -3   1 -14   41.35    9.60
  -3   1 -14   26.69   15.63
   3  -1  14   49.80   12.14
   3  -1  14   59.64   10.90
  -4   1 -14   10.03    5.24
  -4   1 -14    2.00    4.61
  -4   1 -14   17.08    9.36
   4  -1  14    9.77    6.15
   4  -1  14    7.96    9.28
  -7   0  14   84.12   13.56
  -7   0  14   94.17   14.42
  -7   0  14   75.85   16.52
   6   0 -14   25.61    7.76
  -6   0  14   38.46   10.90
  -6   0  14   27.13    8.84
  -6   0  14   46.24    8.94
   5   0 -14   19.54    7.48
  -5   0  14   29.31   13.87
  -5   0  14   28.87    8.26
  -5   0  14   33.99    8.11
  -5   0  14   25.21    6.67
   4   0 -14   61.88   12.16
   4   0 -14   40.30    7.00
  -4   0  14   35.29    9.76
  -4   0  14   56.46   11.25
  -4   0  14   58.67   10.55
  -4   0  14   26.39    7.67
   3   0 -14   11.04    6.06
   3   0 -14   12.82    3.37
   3   0 -14  -13.67    5.96
   3   0 -14    9.44    9.52
  -3   0  14   12.69    6.34
  -3   0  14    3.45    4.55
  -3   0  14    0.58    3.66
  -3   0  14    5.10    4.58
   2   0 -14   73.31    7.40
   2   0 -14   63.51    6.29
   2   0 -14   78.09   12.01
   2   0 -14   68.97    9.16
  -2   0  14   46.72   14.71
  -2   0  14   72.44   10.53
  -2   0  14   86.30   14.79
  -2   0  14   89.64   14.72
   1   0 -14    8.32    5.74
   1   0 -14    3.15    2.24
   1   0 -14    0.66    3.25
  -1   0  14   10.96    8.27
  -1   0  14    9.66    5.77
  -1   0  14    1.73    5.01
   0   0 -14   51.43   10.18
   0   0 -14   46.96    6.26
   0   0 -14   50.20    8.80
   0   0  14   46.61   10.43
   0   0  14   42.18    9.55
   0   0  14   65.83   13.14
  -1   0 -14   48.24   10.69
  -1   0 -14   27.78    6.78
  -1   0 -14   49.40    6.82
   1   0  14   54.78   12.12
   1   0  14   61.26   11.87
  -2   0 -14   59.03   10.06
  -2   0 -14   72.09   14.04
   2   0  14   62.67   12.93
   2   0  14   48.45   10.86
  -3   0 -14    4.68    6.60
  -3   0 -14   12.59   12.55
  -3   0 -14    2.46    4.44
  -3   0 -14    3.98    3.96
   3   0  14    8.25    7.46
   3   0  14   -1.42    4.90
  -4   0 -14   -9.38    8.28
  -4   0 -14   -5.47    4.15
   4   0  14    1.54    6.67
   4   0  14   18.45    8.84
  -7   1  14   -1.90    5.49
  -7   1  14   -3.51    2.98
  -7   1  14    1.61    6.51
  -7   1  14    3.01    5.39
   6  -1 -14   33.86    8.44
  -6   1  14   52.37    9.65
  -6   1  14   56.03    9.63
  -6   1  14   53.48    9.56
  -6   1  14   54.92   10.36
   5  -1 -14   21.51    7.11
   5  -1 -14   24.77    7.57
  -5   1  14   26.48    7.29
  -5   1  14   26.17    6.38
  -5   1  14   28.50    7.82
   4  -1 -14   37.54    7.94
   4  -1 -14   17.82   12.02
   4  -1 -14   21.46    6.39
   4  -1 -14   15.99    6.76
  -4   1  14   16.66    5.38
  -4   1  14   29.65    9.78
  -4   1  14   23.67    7.34
  -4   1  14   47.24    9.54
   2  -1 -14   54.75    5.20
   2  -1 -14   48.90   10.07
   2  -1 -14   50.58    8.45
   2  -1 -14   28.08    8.01
  -2   1  14   39.73    9.75
  -2   1  14   49.27   10.61
   1  -1 -14    1.48    3.29
   1  -1 -14   13.06    6.50
  -1   1  14    5.30    4.94
  -1   1  14    6.26    4.98
   0  -1 -14    6.20    6.63
   0  -1 -14    5.91    4.33
   0  -1 -14    3.48    2.85
   0   1  14    5.01    5.28
   0   1  14    3.76    8.72
   0   1  14    4.37    5.12
  -1  -1 -14    9.73    3.79
  -1  -1 -14    9.69    6.20
  -1  -1 -14    3.02    4.40
   1   1  14   20.19    8.09
   1   1  14    7.26    6.23
  -2  -1 -14  101.66   13.77
  -2  -1 -14  153.30   19.53
  -2  -1 -14  159.88   16.41
   2   1  14  135.35   18.92
   2   1  14  128.11   16.36
  -3  -1 -14   33.39    7.63
  -3  -1 -14   41.77    9.03
  -3  -1 -14   47.24   13.32
   3   1  14   34.56   10.60
   3   1  14   34.14    9.51
  -7   2  14    8.69    6.50
  -7   2  14   20.90   10.97
  -7   2  14   12.45    4.56
  -7   2  14   12.50    5.81
   6  -2 -14   -3.93    5.15
   6  -2 -14    3.96    4.57
  -6   2  14   -1.45    3.03
  -6   2  14    0.94    4.11
  -6   2  14    3.07    5.01
  -6   2  14    5.06    6.31
   5  -2 -14   23.20    6.70
   5  -2 -14   27.11    7.43
  -5   2  14   18.92    9.14
  -5   2  14   21.56    7.59
  -5   2  14   20.87    6.12
  -5   2  14   19.47    5.19
   4  -2 -14    4.31    5.59
   4  -2 -14   10.98    5.36
   4  -2 -14   10.12    4.03
   4  -2 -14    8.01    5.99
  -4   2  14    8.92    6.27
  -4   2  14   15.16    6.15
   3  -2 -14   37.68    8.39
  -3   2  14   53.42   10.42
  -3   2  14   70.27   11.30
   2  -2 -14    2.01    3.71
   2  -2 -14   -2.50    5.47
   2  -2 -14    0.99    2.38
   2  -2 -14    3.46    5.10
  -2   2  14   15.69    8.09
  -2   2  14    3.02    6.22
  -2   2  14    5.67    5.67
   0  -2 -14  184.17   16.54
   0  -2 -14  163.77   18.24
   0  -2 -14  194.77   22.80
   0   2  14  159.63   20.59
   0   2  14  174.30   20.22
  -1  -2 -14   12.95   11.70
  -1  -2 -14    9.90    4.96
  -1  -2 -14   -3.05    3.48
   1   2  14    3.14    5.54
   1   2  14    3.46    5.09
  -2  -2 -14   34.55   11.34
  -2  -2 -14   26.43    6.85
  -2  -2 -14   32.27    8.19
   2   2  14   18.41    7.76
   2   2  14   48.25   10.70
  -3  -2 -14    1.38    5.75
  -3  -2 -14   13.97    9.41
  -3  -2 -14    3.25    5.76
   3   2  14   21.07    8.83
   3   2  14    5.48    8.79
  -7   3  14    3.88    6.03
  -7   3  14    2.96    3.43
  -6   3  14    0.50    3.29
  -6   3  14   -1.23    7.02
   5  -3 -14    9.30    3.18
   5  -3 -14    4.63    4.15
   5  -3 -14    5.03    6.25
  -5   3  14    7.16    5.80
  -5   3  14   10.78    4.95
  -5   3  14   15.28    6.02
   4  -3 -14    0.53    3.58
   4  -3 -14   -1.45    5.50
   4  -3 -14    0.05    3.83
  -4   3  14   -3.53    3.56
  -4   3  14   -0.16    5.81
  -4   3  14    4.01    4.73
   3  -3 -14  182.55   20.31
   3  -3 -14  141.19   16.46
   3  -3 -14  153.70   16.10
   3  -3 -14  154.57   13.70
  -3   3  14  142.32   18.07
  -3   3  14  169.47   19.23
  -3   3  14  188.04   19.59
   2  -3 -14   56.51   13.67
   2  -3 -14   47.36   17.05
   2  -3 -14   50.88    7.03
   2  -3 -14   48.93   10.03
  -2   3  14   50.11   11.45
  -2   3  14   29.38    8.47
  -2   3  14   56.12   11.58
   1  -3 -14  153.51   19.38
   1  -3 -14  127.07   12.81
   1  -3 -14  155.31   16.08
  -1   3  14  128.57   19.14
  -1   3  14   95.71   15.98
  -1   3  14  111.77   15.73
   0  -3 -14    9.92    5.27
   0  -3 -14    0.11    6.21
   0  -3 -14    3.98    3.69
   0   3  14    7.57    4.95
   0   3  14    1.77    6.15
  -1  -3 -14   13.60    8.96
  -1  -3 -14    5.86    5.30
  -1  -3 -14    1.02    3.94
   1   3  14  -10.76    6.59
   1   3  14    9.75    6.99
  -2  -3 -14   29.23   10.88
  -2  -3 -14   21.30    7.81
  -2  -3 -14   19.76    7.14
   2   3  14   19.31    9.31
   2   3  14   29.18   10.76
  -7   4  14    8.55    7.34
  -7   4  14    9.52    5.73
   6  -4 -14    9.53    7.85
  -6   4  14    8.19    5.35
  -6   4  14   11.72    6.14
  -6   4  14    9.71    6.12
   5  -4 -14   75.52   10.24
   5  -4 -14   81.48   11.90
  -5   4  14   79.74   12.06
  -5   4  14  105.89   13.09
  -5   4  14   86.96   14.27
   4  -4 -14    4.94    6.71
   4  -4 -14    1.43   14.96
   4  -4 -14    3.54    4.88
   4  -4 -14    7.01    3.19
  -4   4  14    5.81    4.84
  -4   4  14   11.34    7.46
  -4   4  14    3.31    5.18
   3  -4 -14   18.99    6.53
   3  -4 -14   30.13    6.13
   3  -4 -14   20.86    6.35
   3  -4 -14   44.25   10.60
  -3   4  14   25.52    8.44
  -3   4  14   30.71    8.16
  -3   4  14   34.58    9.11
   2  -4 -14    8.00    9.47
   2  -4 -14   12.01    7.24
   2  -4 -14    5.56    5.57
   2  -4 -14   15.20    4.96
  -2   4  14    8.07    9.87
  -2   4  14    8.69    6.36
   1  -4 -14   -9.19    6.08
   1  -4 -14   -1.29    3.52
   1  -4 -14    5.37    5.41
  -1   4  14    1.92    6.04
  -1   4  14    8.98    6.03
   0  -4 -14   75.13   10.65
   0  -4 -14   74.31   19.62
   0  -4 -14   56.39   11.23
   0   4  14   56.54   12.94
   0   4  14   71.75   13.85
  -1  -4 -14    7.49    8.54
  -1  -4 -14    4.74    5.78
  -1  -4 -14    8.03    6.00
   1   4  14    2.70    7.16
  -7   5  14   40.36    8.14
  -7   5  14   10.37    5.44
  -6   5  14   14.91    6.10
   5  -5 -14    2.48    9.61
   5  -5 -14   -2.30    5.16
  -5   5  14    5.75    5.64
   4  -5 -14   -4.07    5.07
   4  -5 -14   -2.26    6.77
  -4   5  14   11.73    7.73
  -4   5  14   -3.70    4.68
  -4   5  14    0.52    4.64
   3  -5 -14    5.19    3.41
   3  -5 -14    2.66    5.28
   3  -5 -14    7.70    6.15
   3  -5 -14   12.98   12.51
   3  -5 -14    8.68    5.43
  -3   5  14    9.59    6.22
  -3   5  14   -1.91    8.55
  -3   5  14    4.99    5.92
   2  -5 -14   23.67    7.70
   2  -5 -14   26.86    7.01
   2  -5 -14   15.11    9.20
   2  -5 -14   22.74    5.89
   2  -5 -14   17.26   11.35
  -2   5  14   15.32    8.31
  -2   5  14   27.69    9.02
   1  -5 -14    2.27    6.04
   1  -5 -14    6.32    5.44
   1  -5 -14   -7.82    7.49
   1  -5 -14    5.26    4.70
  -1   5  14    8.09    7.78
  -1   5  14   -2.53    6.15
   0  -5 -14   50.00   13.99
   0  -5 -14   54.24   11.76
   0  -5 -14   33.44    8.41
   0  -5 -14   53.02   10.17
   0   5  14   45.12   12.56
   0   5  14   39.38   11.71
  -6   6  14   23.04    7.07
  -6   6  14   -0.26    5.26
   5  -6 -14   -8.88    6.54
  -5   6  14    3.69    5.57
  -5   6  14   -2.15    5.92
   4  -6 -14   17.63    7.73
   4  -6 -14   34.16    9.69
   4  -6 -14   26.01   12.44
  -4   6  14   18.82    8.09
  -4   6  14   17.03    7.77
   3  -6 -14   -7.11    6.18
   3  -6 -14   13.77   10.49
   3  -6 -14    3.87    3.65
   3  -6 -14  -16.60    6.65
  -3   6  14   -1.28    6.21
   2  -6 -14    7.08   11.53
   2  -6 -14   20.45    8.96
   2  -6 -14   18.37    9.25
   2  -6 -14   12.37    5.57
  -2   6  14   16.13    7.41
  -2   6  14   14.52    9.97
   0   7 -15   60.35   19.15
   0  -7  15   76.67   17.66
   0  -7  15  133.92   28.28
   0  -7  15   75.42   15.68
  -1   7 -15   40.40   13.08
  -1   7 -15   54.26   12.00
   1  -7  15   27.86   12.59
   1  -7  15   16.67    9.63
   1  -7  15   37.46   17.88
  -2   7 -15   12.27    8.11
  -2   7 -15   -5.20    6.35
   2  -7  15    0.93    7.44
   2  -7  15   16.20   15.36
   2  -7  15  -13.46   10.59
   3  -7  15  101.54   29.78
   3  -7  15   84.63   20.34
   2   6 -15   15.08    7.77
   2   6 -15    2.19   11.75
  -2  -6  15   22.02   10.18
  -2  -6  15    2.56    8.53
   1   6 -15  129.71   16.69
   1   6 -15  105.31   19.28
  -1  -6  15  147.48   30.29
   0   6 -15   38.98   11.27
   0   6 -15   24.68    8.27
   0  -6  15    8.39    6.91
   0  -6  15   11.58   10.69
   0  -6  15   45.13   16.26
  -1   6 -15  148.85   18.17
  -1   6 -15  227.48   32.61
   1  -6  15  117.12   19.68
   1  -6  15  145.28   21.25
  -2   6 -15    9.24    6.80
  -2   6 -15   17.26    8.78
   2  -6  15   19.11    9.52
   2  -6  15   12.97    7.96
   2  -6  15   26.14   24.31
  -3   6 -15    3.44    5.95
  -3   6 -15    8.88    8.11
   3  -6  15   20.18   12.47
   3  -6  15   19.45    9.11
  -4   6 -15    0.69    6.13
  -4   6 -15   -0.92    9.28
   4  -6  15   -1.67   13.05
   4  -6  15   20.25    9.24
   3   5 -15   -2.95   12.05
   3   5 -15   11.66    9.10
  -3  -5  15   -0.46   13.86
  -3  -5  15   13.21   19.91
  -3  -5  15    6.47    8.43
   2   5 -15   91.35   13.74
   2   5 -15  144.14   27.12
  -2  -5  15  114.79   23.12
  -2  -5  15  137.70   21.04
  -2  -5  15  121.10   17.82
   1   5 -15   -2.26    5.51
   1   5 -15   14.26    9.45
  -1  -5  15    2.83    5.98
  -1  -5  15   18.64   10.24
  -1  -5  15   19.41   13.26
  -1  -5  15   30.12    9.49
   0   5 -15   55.23   10.46
   0   5 -15   47.09   11.22
   0  -5  15   44.91   10.54
   0  -5  15   71.42   17.35
   0  -5  15   46.61   12.32
  -1   5 -15   16.94    8.62
  -1   5 -15   13.21    6.59
   1  -5  15   16.88    9.11
   1  -5  15   16.99   12.89
   1  -5  15    0.34    5.67
  -2   5 -15    9.95    7.37
  -2   5 -15    6.01    5.38
   2  -5  15   10.07   10.05
   2  -5  15   25.85    8.83
   2  -5  15   13.58    7.16
  -3   5 -15   14.30    6.48
  -3   5 -15   19.34    8.45
   3  -5  15   -6.16   10.59
   3  -5  15   28.03    9.61
  -4   5 -15    2.28    7.04
  -4   5 -15   -4.74    5.61
   4  -5  15    1.25   11.02
   4  -5  15    6.15    8.32
   4   4 -15   99.54   11.95
  -4  -4  15  125.81   17.94
  -4  -4  15  119.42   21.45
  -4  -4  15   95.68   17.76
   3   4 -15    7.93    7.74
  -3  -4  15    3.60    7.61
  -3  -4  15    0.27    6.41
  -3  -4  15   -5.11    7.21
   2   4 -15    8.84    7.44
   2   4 -15   -0.79    7.29
   2   4 -15   -1.68    4.24
  -2  -4  15   -3.95    9.40
  -2  -4  15   -7.32    4.85
  -2  -4  15    0.04    8.14
  -2  -4  15   13.07    7.56
   1   4 -15    6.72    4.55
   1   4 -15    2.27    7.17
   1   4 -15   21.37    7.60
  -1  -4  15    2.43    4.74
  -1  -4  15    0.38    8.60
  -1  -4  15    8.56   11.17
  -1  -4  15   20.35    8.42
   0   4 -15  141.24   16.84
   0   4 -15  158.32   20.10
   0  -4  15  135.13   23.17
   0  -4  15  151.75   19.12
   0  -4  15  165.79   20.25
  -1   4 -15    1.70    5.01
  -1   4 -15   15.09    5.99
   1  -4  15    1.43    5.52
   1  -4  15    9.63    8.43
   1  -4  15   15.94    7.70
  -2   4 -15    1.77    4.88
  -2   4 -15   -1.10    5.45
   2  -4  15   -7.09    5.82
   2  -4  15   19.75    8.96
  -3   4 -15   38.01    8.97
  -3   4 -15   40.89    8.47
  -3   4 -15   48.87   11.95
   3  -4  15   55.93   11.84
   3  -4  15   34.50   12.15
  -4   4 -15   93.59   15.76
  -4   4 -15   96.41   13.01
   4  -4  15   86.35   14.87
   4  -4  15   66.21   17.11
  -5  -3  15    1.17    6.41
  -5  -3  15   -3.52    7.79
  -5  -3  15   -1.83    7.13
   4   3 -15   31.61    5.56
   4   3 -15   22.23   10.28
  -4  -3  15    7.49   10.10
  -4  -3  15   19.46    8.82
  -4  -3  15   20.82    9.26
   3   3 -15   42.23    5.81
   3   3 -15   45.39   11.27
   3   3 -15   62.28    8.58
  -3  -3  15   40.98   10.89
  -3  -3  15   22.22   11.17
  -3  -3  15   33.37   12.07
  -3  -3  15   22.41    8.95
   2   3 -15   41.72   12.12
   2   3 -15   54.91   11.29
  -2  -3  15   32.72    9.70
  -2  -3  15   38.44   12.27
  -2  -3  15   43.13   12.95
  -2  -3  15   47.95   12.41
   1   3 -15   26.57    7.12
   1   3 -15   30.53    6.86
   1   3 -15    7.91    7.29
  -1  -3  15   15.97   10.54
  -1  -3  15   24.53    9.70
  -1  -3  15   31.89    9.80
  -1  -3  15   14.65    6.86
   0   3 -15  112.33   15.36
   0   3 -15   99.72   12.53
   0   3 -15  106.75   15.51
   0  -3  15   82.73   13.54
   0  -3  15  136.05   16.67
   0  -3  15   88.05   19.23
   0  -3  15   84.80   19.85
  -1   3 -15    7.12    4.25
  -1   3 -15   -0.86    5.33
   1  -3  15    9.54    7.25
   1  -3  15    3.83    6.60
  -2   3 -15  199.52   19.60
   2  -3  15  170.04   24.80
   2  -3  15  171.65   21.42
  -3   3 -15   49.35   11.28
  -3   3 -15   27.71    6.92
  -3   3 -15   35.85    8.54
   3  -3  15   23.53    8.40
   3  -3  15   28.72   10.29
  -4   3 -15   16.16    5.68
  -4   3 -15   31.26   10.41
   4  -3  15   22.08    8.24
   4  -3  15    7.76    9.59
  -6  -2  15   -0.82    7.85
  -6  -2  15    9.31    8.08
  -6  -2  15   14.84    8.23
  -5  -2  15   37.14   11.05
  -5  -2  15   33.18    9.59
  -5  -2  15   24.66    8.77
   4   2 -15    4.63    3.57
   4   2 -15   11.03    6.20
  -4  -2  15   -1.60    6.26
  -4  -2  15   -6.40    8.00
  -4  -2  15    3.43    6.28
  -4  -2  15   -8.01    5.01
   3   2 -15   17.17    5.18
   3   2 -15   38.37    8.42
  -3  -2  15   14.25    6.18
  -3  -2  15   12.87    8.34
  -3  -2  15   28.55    9.09
   2   2 -15   56.92    8.01
   2   2 -15   67.16    6.87
   2   2 -15   67.61   10.07
   2   2 -15   95.41   14.95
  -2  -2  15   61.87   13.12
  -2  -2  15   52.08   13.53
  -2  -2  15   64.85   14.93
   1   2 -15  323.51   27.06
  -1  -2  15  213.64   27.50
  -1  -2  15  292.36   43.16
  -1  -2  15  259.94   28.86
  -1  -2  15  340.55   31.77
   0   2 -15  181.27   21.01
   0   2 -15  150.49   17.60
   0   2 -15  161.64   15.20
   0  -2  15  164.55   23.96
   0  -2  15  159.93   19.83
   0  -2  15  161.40   22.69
  -1   2 -15  124.76   13.27
  -1   2 -15  163.87   19.33
   1  -2  15  122.82   17.41
   1  -2  15  130.18   20.05
  -2   2 -15   16.39    7.73
   2  -2  15    8.71    7.79
   2  -2  15    3.02    6.59
  -3   2 -15   53.44   11.79
  -3   2 -15   37.38    7.33
   3  -2  15   32.43    9.39
   3  -2  15   20.08   10.25
  -4   2 -15   69.37   15.75
  -4   2 -15   88.26   16.53
   4  -2  15   29.98    9.15
   4  -2  15   55.75   13.63
  -6  -1  15    1.90    5.66
  -6  -1  15    3.05    6.55
  -6  -1  15   -2.87    5.97
   5   1 -15   74.71   13.05
  -5  -1  15   47.84   11.20
  -5  -1  15   34.75    9.90
  -5  -1  15   79.32   14.70
  -5  -1  15   49.64   13.14
   4   1 -15    1.05    3.49
   4   1 -15   -2.94    5.64
  -4  -1  15   -1.19    7.10
  -4  -1  15    1.88    5.55
  -4  -1  15    7.04    7.00
  -4  -1  15    1.78    4.87
   3   1 -15  120.32   13.03
   3   1 -15  154.65   18.38
  -3  -1  15  144.15   17.54
  -3  -1  15  132.32   16.06
  -3  -1  15  113.84   18.72
  -3  -1  15  111.42   18.89
   2   1 -15   28.34    8.47
   2   1 -15   18.60    2.91
  -2  -1  15   19.65    6.45
  -2  -1  15   11.40    7.30
  -2  -1  15    8.77    9.08
  -2  -1  15   29.01    8.47
   0   1 -15  312.65   26.72
   0   1 -15  385.43   32.75
   0   1 -15  278.08   28.52
   0  -1  15  324.87   33.71
   0  -1  15  308.24   31.09
   0  -1  15  285.54   38.57
  -1   1 -15   31.83    5.77
  -1   1 -15   36.58    8.87
  -1   1 -15   32.27    8.69
   1  -1  15   36.86   10.44
   1  -1  15   38.21    9.48
  -2   1 -15  147.28   16.80
  -2   1 -15  171.32   20.58
   2  -1  15  117.11   17.25
   2  -1  15  139.60   21.21
  -3   1 -15    6.73    5.62
  -3   1 -15    8.09    4.68
  -3   1 -15    9.83    7.83
   3  -1  15   10.07    8.52
   3  -1  15   10.27    6.66
  -4   1 -15   -3.61    4.88
  -4   1 -15   -3.21    4.84
   4  -1  15   -6.37    6.31
   4  -1  15   11.02   10.33
  -6   0  15   62.31   13.60
  -6   0  15   62.25   12.41
  -6   0  15   66.81   13.66
  -6   0  15   60.63   11.17
   5   0 -15   41.94    9.65
  -5   0  15   36.04    9.39
  -5   0  15   31.11    8.14
  -5   0  15   27.09    7.56
  -5   0  15   26.13    8.92
   4   0 -15   43.08    9.35
   4   0 -15   57.78   15.33
   4   0 -15   50.44    7.40
  -4   0  15   58.19   12.23
  -4   0  15   63.52   12.50
  -4   0  15   35.82    8.65
  -4   0  15   55.32   10.89
   3   0 -15   36.24    6.75
   3   0 -15   33.25    8.67
  -3   0  15   34.98    9.68
  -3   0  15   27.95    7.45
  -3   0  15   23.38   13.39
  -3   0  15   35.70    9.51
   2   0 -15   60.50    6.16
   2   0 -15   67.04    9.63
   2   0 -15   79.09    7.53
   2   0 -15   80.48   13.09
  -2   0  15   72.00   14.05
  -2   0  15   61.12   12.86
  -2   0  15   59.54   11.92
   1   0 -15  131.20   14.76
   1   0 -15  112.99   12.30
   1   0 -15  131.16   17.91
  -1   0  15  141.09   16.96
  -1   0  15  164.72   27.24
  -1   0  15  163.29   21.84
   0   0 -15   74.35    9.96
   0   0 -15   59.92    7.62
   0   0  15   60.06   12.62
   0   0  15   47.51   11.15
  -1   0 -15   -0.88    3.48
  -1   0 -15   10.46    7.06
  -1   0 -15    6.93    3.49
   1   0  15    6.50    5.89
   1   0  15    7.41    5.99
  -2   0 -15   -2.55    3.65
  -2   0 -15    2.97    7.11
  -2   0 -15    0.62    4.93
   2   0  15    1.06    6.27
   2   0  15   -3.95    5.63
  -3   0 -15   -0.99    7.39
  -3   0 -15    4.83    4.62
   3   0  15    5.99    6.16
   3   0  15   -4.64    7.43
  -7   1  15    6.20    6.88
  -7   1  15    0.99    5.81
  -7   1  15   10.31    4.74
  -7   1  15    2.85    9.71
  -6   1  15   -5.64    5.40
  -6   1  15    5.84    6.18
  -6   1  15   -2.15    5.03
  -6   1  15    4.02    4.48
   5  -1 -15   95.19   14.40
   5  -1 -15   53.67   11.72
  -5   1  15   82.70   12.16
  -5   1  15   66.50   13.05
  -5   1  15   77.43   12.88
  -5   1  15   67.88   11.17
   4  -1 -15    2.69    6.12
   4  -1 -15    1.99    6.23
   4  -1 -15   -4.11    6.31
   4  -1 -15   -2.29    3.45
  -4   1  15    3.80    3.95
  -4   1  15    1.81    4.85
  -4   1  15    3.78    8.22
  -4   1  15    2.51    5.62
   3  -1 -15   74.23   10.68
   3  -1 -15   96.74   15.83
   3  -1 -15  100.03   15.32
  -3   1  15  117.97   18.27
  -3   1  15  101.03   15.95
  -3   1  15   82.08   13.85
   2  -1 -15    2.63    3.77
   2  -1 -15    1.23    6.76
   2  -1 -15    3.90    2.16
  -2   1  15    5.03    5.23
  -2   1  15   14.97    6.37
  -2   1  15    7.27    7.81
   1  -1 -15    5.61    4.13
   1  -1 -15   -1.51    2.37
   1  -1 -15   10.87    6.78
  -1   1  15    7.00    5.46
  -1   1  15    1.67    8.12
  -1   1  15    2.14    6.33
   0  -1 -15   12.52    7.81
   0  -1 -15   16.01    5.76
   0  -1 -15   12.59    3.92
   0   1  15   13.75    6.89
   0   1  15   11.14    6.05
  -1  -1 -15   11.45    4.36
  -1  -1 -15   -4.71    7.32
  -1  -1 -15    7.79    5.30
   1   1  15    8.25    7.53
   1   1  15    5.88    5.72
  -2  -1 -15   38.28   10.75
  -2  -1 -15   23.51    6.40
  -2  -1 -15   35.77    8.64
   2   1  15   56.39   12.76
   2   1  15   18.47    7.88
  -3  -1 -15    3.91    6.12
  -3  -1 -15   15.35    5.58
  -3  -1 -15    9.71   10.45
   3   1  15   15.40   10.83
   3   1  15   -1.41    7.27
  -7   2  15    0.78    9.33
  -7   2  15    4.86    4.31
  -7   2  15   10.44    6.37
  -7   2  15    6.99    5.77
  -6   2  15   24.03    6.24
  -6   2  15   27.86    7.03
  -6   2  15   24.06    8.69
  -6   2  15   31.23    7.57
   5  -2 -15   23.69    8.04
   5  -2 -15   18.38    6.20
  -5   2  15    9.24    8.96
  -5   2  15    4.11    5.66
  -5   2  15   14.27    5.41
   4  -2 -15   -1.37    3.59
   4  -2 -15    6.01    6.77
   4  -2 -15    0.07    5.11
  -4   2  15    4.75    4.13
  -4   2  15   -0.82    5.07
  -4   2  15   -2.43    7.21
   3  -2 -15   -4.20    6.52
   3  -2 -15   -3.22    5.49
   3  -2 -15    4.24    4.00
  -3   2  15   -6.06    4.89
  -3   2  15    5.47    4.45
  -3   2  15    9.50    7.09
   2  -2 -15   16.99    5.92
   2  -2 -15   19.74    9.81
  -2   2  15   31.21    8.55
  -2   2  15   40.37   10.01
  -2   2  15   20.55    8.71
   1  -2 -15   -4.29    4.03
   1  -2 -15   -3.86    2.57
  -1   2  15   -1.07    5.02
  -1   2  15    8.50    9.36
  -1   2  15    6.84    5.15
   0  -2 -15  145.82   16.93
   0  -2 -15  156.16   21.22
   0  -2 -15  152.77   14.66
   0   2  15  127.66   17.72
  -1  -2 -15   26.74   10.22
  -1  -2 -15   14.51    5.91
  -1  -2 -15    7.81    4.60
   1   2  15    8.31    6.13
   1   2  15   12.21    7.83
  -2  -2 -15   30.57    9.42
  -2  -2 -15   52.07   13.39
  -2  -2 -15   30.03    7.50
   2   2  15   40.10   11.33
   2   2  15   30.89   10.68
  -7   3  15    7.38    4.21
  -7   3  15   -0.30    5.61
  -6   3  15    3.86    4.20
  -6   3  15  -10.53    8.46
  -6   3  15   -4.31    5.13
   5  -3 -15   23.49   10.96
   5  -3 -15    7.54    4.22
   5  -3 -15   13.46    4.41
  -5   3  15    9.35    6.54
  -5   3  15    8.30    6.54
  -5   3  15   11.67    5.88
   4  -3 -15    8.63   10.07
   4  -3 -15   37.17    7.22
   4  -3 -15   24.92    6.04
   4  -3 -15   20.34    8.81
  -4   3  15   33.04    8.32
  -4   3  15   29.56    8.51
  -4   3  15   24.45    8.85
   3  -3 -15   41.79   10.33
   3  -3 -15   43.77    8.09
   3  -3 -15   35.30    8.58
  -3   3  15   38.87   10.41
  -3   3  15   65.15   12.03
  -3   3  15   39.66    9.65
   2  -3 -15  123.59   17.02
   2  -3 -15  187.53   21.76
   2  -3 -15  158.96   16.29
  -2   3  15  151.36   19.47
  -2   3  15  133.77   17.64
  -2   3  15   84.57   28.02
   1  -3 -15   11.11    5.70
   1  -3 -15    6.29    3.83
   1  -3 -15    5.07    7.42
  -1   3  15    8.05    5.72
  -1   3  15    4.01    5.86
   0  -3 -15   77.45   12.33
   0  -3 -15   69.08   15.69
   0  -3 -15   74.02   10.49
   0   3  15   60.62   12.24
   0   3  15   61.75   12.84
  -1  -3 -15    0.37    4.60
  -1  -3 -15   -0.60    8.87
   1   3  15   12.84    8.66
   1   3  15   -2.24    6.96
  -7   4  15   21.55    6.77
  -7   4  15   18.79    5.80
  -6   4  15   11.30    5.78
   5  -4 -15   64.48   15.28
  -5   4  15  104.10   13.43
  -5   4  15   69.32   12.40
   4  -4 -15   22.69    6.31
   4  -4 -15   22.42    9.75
  -4   4  15   31.63   10.93
  -4   4  15   23.74    8.12
  -4   4  15   21.70    7.92
   3  -4 -15   20.40    6.41
   3  -4 -15   17.24    8.51
   3  -4 -15   12.43    7.10
  -3   4  15   28.56    8.04
  -3   4  15   31.79    9.07
   2  -4 -15   21.49    8.72
   2  -4 -15    0.46    7.61
   2  -4 -15   -3.42    5.02
   2  -4 -15   15.99    5.06
  -2   4  15    7.34    7.15
  -2   4  15    4.03    9.76
  -2   4  15   -6.21    5.35
   1  -4 -15   -3.81    5.24
   1  -4 -15    1.42    4.30
   1  -4 -15   -2.52    7.51
  -1   4  15    6.69    6.59
  -1   4  15  -16.28    5.74
   0  -4 -15   33.30    7.09
   0  -4 -15   41.47   11.70
   0   4  15   11.73    9.18
   0   4  15   10.02   11.20
  -6   5  15    8.34    5.67
  -6   5  15   -2.92    4.71
   5  -5 -15    4.97    6.21
  -5   5  15   13.80   13.05
  -5   5  15   18.37    6.90
   4  -5 -15   -3.42    8.31
  -4   5  15   -7.29    5.34
  -4   5  15   -4.15    5.53
   3  -5 -15    5.28    7.16
   3  -5 -15    7.83    7.18
   3  -5 -15    9.38    9.53
   3  -5 -15    6.21    5.70
  -3   5  15   14.82    7.65
  -3   5  15    7.24    7.32
   2  -5 -15   -7.42    9.04
   2  -5 -15   -1.85    6.28
   2  -5 -15   -1.66    5.75
   2  -5 -15    5.40    4.73
  -2   5  15    8.55    8.35
  -2   5  15    3.16    7.72
   1  -5 -15    3.58    9.91
   1  -5 -15    1.78    5.32
   1  -5 -15   -5.49    4.91
  -1   5  15    0.03    7.69
  -1   5  15    6.00    7.49
   4  -6 -15  -13.66    6.68
  -4   6  15   -4.95    6.71
  -4   6  15   -0.31    5.91
   1   6 -16   28.55   13.70
   1   6 -16   48.17   10.12
  -1  -6  16   33.50   12.33
  -1  -6  16    9.65    8.65
  -1  -6  16   25.40   17.85
   0   6 -16  135.75   17.91
   0   6 -16  150.93   22.31
   0  -6  16  104.28   24.22
   0  -6  16  109.08   20.98
   0  -6  16  108.54   17.79
  -1   6 -16   38.39   16.13
  -1   6 -16   31.28   10.69
   1  -6  16    6.52    8.14
   1  -6  16   21.47   14.43
   1  -6  16    8.50   12.55
  -2   6 -16  147.63   20.26
   2  -6  16  198.50   30.02
   2  -6  16  205.60   27.33
   2  -6  16  154.66   22.13
  -3  -5  16    8.43   10.30
   2   5 -16   75.86   12.28
   2   5 -16   79.57   15.72
  -2  -5  16   65.71   18.52
   1   5 -16  210.85   23.64
   1   5 -16  273.08   29.00
  -1  -5  16  214.48   27.06
  -1  -5  16  267.46   36.52
   0   5 -16   32.44    9.03
   0   5 -16   48.81   12.64
   0  -5  16   71.73   19.40
   0  -5  16   50.90   13.57
   0  -5  16   39.73   11.17
  -1   5 -16   86.42   14.30
  -1   5 -16  139.18   21.50
   1  -5  16   85.84   19.98
   1  -5  16  129.57   18.53
   1  -5  16   87.11   17.34
  -2   5 -16   23.13    8.86
   2  -5  16   25.13   12.95
   2  -5  16    9.35   10.31
  -3   5 -16   -5.31    6.94
  -3   5 -16   -2.98    5.73
   3  -5  16    1.97    8.32
   3  -5  16   16.79   11.19
   4   4 -16   -0.05    5.18
  -4  -4  16   17.90   10.98
   3   4 -16  193.22   25.36
  -3  -4  16  174.11   23.29
  -3  -4  16  216.93   32.14
  -3  -4  16  169.53   23.80
   2   4 -16   56.52    9.84
   2   4 -16   66.09   17.44
  -2  -4  16   32.82   10.20
  -2  -4  16   51.52   15.83
  -2  -4  16   48.51   13.05
   1   4 -16   33.53    8.40
   1   4 -16   51.40   11.67
  -1  -4  16   30.56    9.13
  -1  -4  16   36.10   12.43
  -1  -4  16   40.55   13.71
  -1  -4  16   32.97   14.03
   0   4 -16  134.25   16.71
   0   4 -16  153.17   20.62
   0  -4  16  141.68   19.23
   0  -4  16  153.32   20.55
   0  -4  16  184.30   25.21
  -1   4 -16   36.09    9.81
  -1   4 -16   32.98    7.99
   1  -4  16   15.72    9.61
   1  -4  16   18.71   12.20
   1  -4  16   28.04    8.99
  -2   4 -16   67.06   12.70
  -2   4 -16   61.80   11.53
   2  -4  16   73.62   14.82
   2  -4  16   64.49   16.65
  -3   4 -16    6.71    9.83
  -3   4 -16   12.89    5.55
  -3   4 -16    5.78    7.59
   3  -4  16    9.12    9.56
   3  -4  16    2.06    7.54
   4   3 -16   79.09    9.68
  -4  -3  16   84.80   15.84
  -4  -3  16   49.48   12.73
   3   3 -16   42.16   10.58
   3   3 -16   27.73    6.05
  -3  -3  16   20.96    9.46
  -3  -3  16    7.11    5.97
  -3  -3  16   23.03   10.23
   2   3 -16   57.38   12.61
   2   3 -16   49.96    8.03
  -2  -3  16   30.64   10.79
  -2  -3  16   50.74   14.59
  -2  -3  16   48.69   14.63
  -2  -3  16   34.58   10.00
   1   3 -16  110.96   17.85
  -1  -3  16  141.33   23.56
  -1  -3  16   97.72   17.36
  -1  -3  16   74.43   15.21
  -1  -3  16  135.36   22.94
   0   3 -16   58.27   10.06
   0   3 -16   56.02   11.44
   0  -3  16   50.95   13.82
   0  -3  16   55.97   13.06
   0  -3  16   51.86   11.44
  -1   3 -16   -1.15    6.35
  -1   3 -16   15.45    5.48
  -1   3 -16    3.46    3.94
   1  -3  16    4.63    7.15
  -2   3 -16   10.16    7.41
  -2   3 -16   13.43    6.16
  -2   3 -16    5.73    4.34
   2  -3  16   15.05    8.36
   2  -3  16    4.76    8.74
  -3   3 -16   41.44    8.16
  -3   3 -16   36.73    9.84
   3  -3  16   32.93   13.45
   3  -3  16   38.02   10.62
  -5  -2  16   13.39    8.72
  -5  -2  16    9.64    9.18
  -5  -2  16   16.31    8.22
   4   2 -16   -4.29    3.98
   4   2 -16   -9.10    6.74
  -4  -2  16   -3.64    7.09
  -4  -2  16   11.57    6.12
  -4  -2  16    3.14    7.44
   3   2 -16   50.95    7.51
   3   2 -16   42.87   11.25
  -3  -2  16   58.59   14.30
  -3  -2  16   29.43    8.96
  -3  -2  16   47.15   12.25
  -3  -2  16   42.09   12.35
   2   2 -16   17.09    5.02
   2   2 -16   27.00    6.19
   2   2 -16    1.15    7.70
   2   2 -16   14.50    2.94
  -2  -2  16   -0.57   10.11
  -2  -2  16   20.45    9.63
  -2  -2  16   15.96    8.09
  -2  -2  16    4.78    6.45
   1   2 -16    1.21    2.50
   1   2 -16   -1.31    3.76
   1   2 -16   -5.55    6.37
  -1  -2  16    3.28    7.13
  -1  -2  16    0.87    6.32
  -1  -2  16    0.94    4.90
  -1  -2  16   17.86    9.99
   0   2 -16   46.35    9.50
   0   2 -16   48.91    7.22
   0   2 -16   97.28   15.54
   0   2 -16   78.00   11.58
   0  -2  16   58.29   14.27
   0  -2  16   43.88   12.02
  -1   2 -16   22.82    8.57
  -1   2 -16   29.74    5.94
  -1   2 -16   30.28    7.63
   1  -2  16   45.31   11.09
   1  -2  16   18.08    8.83
  -2   2 -16    3.64    7.80
  -2   2 -16   15.67    6.04
  -2   2 -16   -3.41    3.50
   2  -2  16    5.70    8.10
   2  -2  16    8.99    6.87
  -3   2 -16   20.81    5.55
  -3   2 -16   17.37    8.90
   3  -2  16    9.81    7.12
   3  -2  16    3.65    9.08
  -6  -1  16    8.20    8.14
  -6  -1  16    9.86    6.74
  -6  -1  16    5.78    7.18
  -5  -1  16    0.96    8.32
  -5  -1  16   10.47    6.61
   4   1 -16    4.72    9.74
   4   1 -16   10.65    8.57
   4   1 -16    0.11    3.96
  -4  -1  16    3.41    6.33
  -4  -1  16    2.26    6.65
  -4  -1  16    9.51    5.72
  -4  -1  16   10.87    9.41
   2   1 -16   22.72    3.47
   2   1 -16   35.26    9.51
   2   1 -16   22.71    8.51
  -2  -1  16   37.88   11.91
  -2  -1  16   26.68    9.16
  -2  -1  16   27.25   10.58
  -2  -1  16   21.41    8.88
   1   1 -16  -12.38   10.34
   1   1 -16   29.31    7.65
  -1  -1  16    9.60    6.23
  -1  -1  16   15.46    9.97
  -1  -1  16   20.18    8.42
   0   1 -16   18.21    6.18
   0   1 -16   20.06    8.00
   0   1 -16   16.66    4.41
   0  -1  16   15.25    7.80
   0  -1  16   40.06   13.87
  -1   1 -16   11.36    7.50
  -1   1 -16    8.39    3.82
  -1   1 -16   21.06    6.36
   1  -1  16    1.48    5.95
   1  -1  16    9.50    6.95
  -2   1 -16   34.54   11.36
  -2   1 -16   25.61    6.28
  -2   1 -16   47.51    9.08
   2  -1  16   20.12    7.97
   2  -1  16   31.70   10.80
  -3   1 -16   42.17    8.63
  -3   1 -16   31.32    7.62
   3  -1  16   21.87   10.75
   3  -1  16   25.46    9.45
  -6   0  16   -6.05    5.77
  -6   0  16    6.37    5.78
  -6   0  16    1.55    7.01
   5   0 -16   -1.69    9.38
  -5   0  16   17.16    6.85
  -5   0  16   -2.25    5.50
  -5   0  16   -8.06    8.53
  -5   0  16    0.48    5.39
   4   0 -16   -3.89    3.72
   4   0 -16   -0.22    7.45
  -4   0  16   -3.02    8.03
  -4   0  16    2.70    6.29
  -4   0  16    2.53    4.86
  -4   0  16    5.78    5.84
   3   0 -16   12.43    4.71
   3   0 -16    8.87    8.05
  -3   0  16   -6.72    5.06
  -3   0  16    1.31    5.80
  -3   0  16    2.59    4.36
  -3   0  16   12.02    8.82
   2   0 -16   66.51   10.12
   2   0 -16   52.33   12.13
   2   0 -16   55.38    6.71
   2   0 -16   41.95    5.08
  -2   0  16   46.80   11.25
  -2   0  16   58.63   12.03
  -2   0  16   46.24   13.41
   1   0 -16   -2.80    3.74
   1   0 -16    5.69    6.87
  -1   0  16   16.59   10.82
  -1   0  16    1.04    5.38
  -1   0  16    4.24    6.47
   0   0 -16  109.99   16.75
   0   0 -16   79.53    9.82
   0   0 -16   79.69   12.36
   0   0  16  113.32   16.83
   0   0  16   80.30   14.88
  -1   0 -16   18.85    6.39
  -1   0 -16   24.59    6.17
  -1   0 -16    2.12   11.76
   1   0  16    4.40    7.85
   1   0  16   22.60    8.04
  -2   0 -16  -10.60    7.08
  -2   0 -16   -1.67    4.11
  -2   0 -16    8.38    5.47
   2   0  16    9.36    7.87
   2   0  16   -4.65    6.22
  -3   0 -16   -1.47    6.01
  -3   0 -16   14.62    8.86
  -3   0 -16   15.27    5.93
   3   0  16    7.54    7.65
   3   0  16   24.02    9.56
  -6   1  16    7.04    5.19
  -6   1  16   -4.51    6.52
  -6   1  16    5.14    5.43
   5  -1 -16   52.39   11.62
  -5   1  16   49.29    9.37
  -5   1  16   77.25   13.41
  -5   1  16   47.58   13.28
  -5   1  16   79.84   13.32
   4  -1 -16   42.40    7.20
   4  -1 -16   33.06   11.41
   4  -1 -16   48.35   13.84
  -4   1  16   65.73   12.53
  -4   1  16   39.03   12.81
  -4   1  16   26.11    9.30
   3  -1 -16   79.98    9.80
  -3   1  16   54.25   12.06
  -3   1  16   39.93   11.26
   2  -1 -16   83.81   12.71
   2  -1 -16  122.99    9.90
   2  -1 -16  142.31   20.49
  -2   1  16   74.74   15.90
  -2   1  16  113.91   15.90
   1  -1 -16    7.44    3.13
   1  -1 -16    2.12    4.79
   1  -1 -16    1.02    8.61
  -1   1  16    7.76    6.45
  -1   1  16   14.33   10.96
  -1   1  16    2.48    6.41
   0  -1 -16   41.95   10.97
   0  -1 -16   10.26    4.27
   0  -1 -16   19.71    6.22
   0   1  16   13.44    7.37
   0   1  16    6.33    6.83
  -1  -1 -16    1.27    6.42
  -1  -1 -16    7.98    5.73
  -1  -1 -16   -0.10    5.95
   1   1  16   -6.60    6.09
   1   1  16    5.66    9.42
  -2  -1 -16    9.97    5.98
  -2  -1 -16    5.52    4.92
  -2  -1 -16   21.83   11.04
   2   1  16   -1.17    6.50
   2   1  16    2.73    8.04
  -6   2  16    6.92    5.19
  -6   2  16    6.58    6.74
   5  -2 -16   -4.32    9.24
  -5   2  16   -5.45    3.84
  -5   2  16   -3.79   11.46
  -5   2  16   -7.62    5.32
   4  -2 -16   33.97   12.00
   4  -2 -16   17.86    9.05
   4  -2 -16   34.22    6.48
   4  -2 -16   19.78    7.93
  -4   2  16   30.26    9.11
  -4   2  16   22.20    7.83
  -4   2  16   32.81   10.94
   3  -2 -16   10.19    9.06
   3  -2 -16   11.75    8.72
   3  -2 -16   39.94    7.39
  -3   2  16   30.10    8.43
  -3   2  16   26.37    8.73
  -3   2  16   42.30   10.24
   2  -2 -16    2.03    3.19
   2  -2 -16   -6.04    6.84
   2  -2 -16    5.74    4.38
  -2   2  16    3.12    5.78
  -2   2  16   -0.10    6.59
  -2   2  16  -20.99   15.37
   1  -2 -16   -3.29    3.18
   1  -2 -16    1.82    6.73
   1  -2 -16  -12.36    4.37
  -1   2  16   -2.50    4.97
  -1   2  16    7.27    6.43
   0  -2 -16    2.85    4.90
   0  -2 -16   12.00    4.19
   0  -2 -16  -16.18    7.55
   0   2  16    3.85    6.48
   0   2  16   -6.61    5.38
  -1  -2 -16   68.72   10.18
  -1  -2 -16   58.83   13.84
   1   2  16   88.00   24.54
   1   2  16   94.54   17.32
  -6   3  16   -5.60    6.20
  -6   3  16   12.75    5.83
   5  -3 -16    7.49    8.09
  -5   3  16    7.06    4.99
  -5   3  16   -0.89    6.15
   4  -3 -16   -6.58    4.37
   4  -3 -16   -5.12    6.59
  -4   3  16   -8.48    4.88
  -4   3  16    6.43    6.16
   3  -3 -16   20.28    9.03
   3  -3 -16   16.10    6.48
   3  -3 -16    6.33    7.94
  -3   3  16   31.43    9.82
  -3   3  16   27.99    9.37
  -3   3  16   25.02   17.29
   2  -3 -16   39.85    8.86
   2  -3 -16   38.52   11.21
  -2   3  16   58.98   12.12
  -2   3  16   52.34   15.27
   1  -3 -16  132.95   20.53
   1  -3 -16  128.56   16.07
   1  -3 -16  101.00   12.72
  -1   3  16  121.66   17.37
  -1   3  16  124.50   18.56
   0  -3 -16  111.69   18.56
   0  -3 -16   91.01   13.37
   0   3  16   63.55   17.03
   0   3  16  120.81   19.34
  -6   4  16   17.82    7.10
  -6   4  16   12.51    6.25
   5  -4 -16   34.83    7.61
  -5   4  16   14.34    8.29
  -5   4  16   20.09    7.81
   4  -4 -16  111.37   15.19
   4  -4 -16  120.98   20.73
  -4   4  16  166.17   19.47
  -4   4  16  153.49   18.74
   3  -4 -16   37.99   12.28
   3  -4 -16   50.00    8.19
   3  -4 -16   39.55    8.47
  -3   4  16   27.67   10.10
  -3   4  16   46.41   11.39
   2  -4 -16   67.56   14.98
   2  -4 -16   74.18   10.77
   2  -4 -16   69.32   12.43
  -2   4  16   85.51   16.58
   1  -4 -16   -7.08    9.38
   1  -4 -16   -2.41    7.00
   1  -4 -16    2.86    5.22
  -1   4  16   -2.41    7.30
  -1   4  16    2.98    8.65
   5  -5 -16    6.11    7.58
  -5   5  16   12.43    7.52
   4  -5 -16   14.05    7.28
  -4   5  16   10.55    7.96
  -4   5  16    0.68    6.49
   3  -5 -16   59.81   13.70
   3  -5 -16   20.57   12.86
   3  -5 -16   46.73    9.70
  -3   5  16   20.13   10.03
   1   5 -17   39.49   12.94
   1   5 -17   52.08   10.34
  -1  -5  17   13.91   12.93
  -1  -5  17   39.91   17.65
  -1  -5  17   30.74    9.87
   0   5 -17  112.71   16.41
   0   5 -17  145.65   22.46
   0  -5  17  129.11   19.97
   0  -5  17   98.79   20.80
   0  -5  17  132.35   25.19
  -1   5 -17   51.69   12.53
  -1   5 -17   60.59   13.11
   1  -5  17   45.08   11.44
   1  -5  17   81.37   18.96
   1  -5  17   19.95   12.37
  -2   5 -17   96.09   18.02
  -2   5 -17   88.14   14.40
   2  -5  17   63.20   15.72
   3   4 -17   18.06    6.20
  -3  -4  17   26.15   10.66
  -3  -4  17   25.04   11.61
  -2  -4  17  115.21   22.32
  -2  -4  17   94.80   17.69
   1   4 -17   10.02    9.10
   1   4 -17   21.12    6.99
  -1  -4  17   22.60   11.76
  -1  -4  17   20.02    8.38
  -1  -4  17   23.16   11.21
   0   4 -17  174.11   21.85
   0   4 -17  118.69   16.49
   0  -4  17  104.05   22.02
   0  -4  17  172.35   26.73
   0  -4  17  184.15   21.17
  -1   4 -17   32.93    8.61
  -1   4 -17   52.38   13.14
   1  -4  17   15.66   12.32
   1  -4  17   61.25   14.88
  -2   4 -17   21.78    9.76
  -2   4 -17   10.44    5.92
  -2   4 -17   12.29    6.82
   2  -4  17    9.60   10.55
   4   3 -17   73.01   10.37
  -4  -3  17   79.84   17.77
  -4  -3  17   45.06   12.37
   3   3 -17   -0.68    9.76
  -3  -3  17   19.18    7.81
  -3  -3  17   14.40    9.64
  -3  -3  17   17.10   10.88
   2   3 -17    9.93    9.49
   2   3 -17   14.11    5.70
  -2  -3  17    6.12    9.27
  -2  -3  17    4.65    7.12
  -2  -3  17    1.85    9.61
   1   3 -17   12.30    4.18
   1   3 -17   15.05    8.40
  -1  -3  17    7.78    9.85
  -1  -3  17    4.87    5.73
  -1  -3  17   -7.48    8.41
   0   3 -17   30.17   10.11
   0   3 -17   14.31    4.91
   0  -3  17   10.30    8.42
   0  -3  17   21.71    8.26
   0  -3  17   14.47    9.20
  -1   3 -17   37.74   11.28
   1  -3  17   22.33   10.26
   1  -3  17   40.54   12.41
  -2   3 -17    1.36    8.74
  -2   3 -17    7.87    4.62
   2  -3  17   10.18   11.38
   2  -3  17   -1.59    8.23
  -3   3 -17   30.39   11.05
   3  -3  17   32.71   13.96
   4   2 -17    0.84    4.74
  -4  -2  17    9.69    9.12
  -4  -2  17    8.88    9.21
  -4  -2  17    4.32    6.23
   3   2 -17   -9.89    4.76
   3   2 -17    6.32    9.37
  -3  -2  17    7.44    6.46
  -3  -2  17   -4.29    7.03
  -3  -2  17   11.16    9.56
   2   2 -17   34.54    7.23
   2   2 -17   61.39   13.35
   2   2 -17   31.12    4.55
   2   2 -17   35.16    7.22
  -2  -2  17   11.42   15.00
  -2  -2  17   42.42   13.10
  -2  -2  17   35.52   11.60
  -2  -2  17   23.70    8.44
   1   2 -17   11.85    6.30
   1   2 -17   22.55    8.85
   1   2 -17   20.91    4.16
   1   2 -17   22.11   10.07
  -1  -2  17   25.57   10.54
  -1  -2  17   15.46    9.37
  -1  -2  17   13.13    7.46
  -1  -2  17    3.55   14.21
   0   2 -17   61.07   14.32
   0   2 -17   41.84    9.10
   0   2 -17   30.87    5.67
   0  -2  17   34.84   10.91
   0  -2  17   29.92   10.59
  -1   2 -17   18.43    8.67
  -1   2 -17   16.08    6.76
  -1   2 -17    8.29    4.42
   1  -2  17    3.46    8.28
   1  -2  17   14.48   10.04
  -2   2 -17    3.52    7.59
  -2   2 -17    0.28    3.82
  -2   2 -17    0.35    8.10
   2  -2  17    9.98   13.18
   2  -2  17   12.03    8.52
  -5  -1  17   24.57    8.63
  -5  -1  17   17.07    8.39
  -5  -1  17   22.59    8.26
   4   1 -17   37.11    6.94
   4   1 -17   30.50   11.85
  -4  -1  17   34.36    9.98
  -4  -1  17   52.63   12.84
  -4  -1  17   30.16    8.86
   3   1 -17    2.56    9.14
   3   1 -17    2.96    4.51
  -3  -1  17   -0.14    5.59
  -3  -1  17   -7.49    6.10
  -3  -1  17    1.90    6.63
   2   1 -17   39.59    7.94
   2   1 -17   52.37    7.02
   2   1 -17   45.11    4.99
   2   1 -17   41.56   11.83
  -2  -1  17   51.57   12.58
  -2  -1  17   48.15   12.36
  -2  -1  17   51.40   15.75
  -2  -1  17   42.48   10.13
   1   1 -17    6.64    8.01
   1   1 -17   19.63    8.53
   1   1 -17    9.87    5.34
   1   1 -17   19.71    4.31
  -1  -1  17   14.22    8.77
  -1  -1  17   34.49   10.84
   0   1 -17    2.05    5.21
   0   1 -17    6.13    6.76
   0   1 -17    5.02    3.63
   0  -1  17    6.84    7.15
   0  -1  17   29.95   10.20
  -1   1 -17  135.54   16.26
  -1   1 -17  121.94   14.84
  -1   1 -17  113.87   19.75
   1  -1  17  136.14   22.19
   1  -1  17  125.75   18.36
  -2   1 -17    1.20    8.46
  -2   1 -17   -1.40    4.60
  -2   1 -17   -7.32    5.01
   2  -1  17    0.57   11.33
   2  -1  17    4.45    7.57
  -5   0  17   38.82    9.99
  -5   0  17   21.68    8.32
  -5   0  17   37.48   10.34
   4   0 -17   15.86    9.43
   4   0 -17   13.85    5.17
  -4   0  17   15.47    7.47
  -4   0  17   -9.28    6.98
   3   0 -17  102.90   17.61
   3   0 -17   80.29   12.30
  -3   0  17   76.41   20.33
  -3   0  17   84.66   16.31
  -3   0  17   80.45   14.87
   2   0 -17   21.09    9.71
   2   0 -17   24.39    7.35
  -2   0  17   26.84    9.59
  -2   0  17   25.58    9.84
  -2   0  17   24.38   13.86
   1   0 -17  224.71   26.77
   1   0 -17  212.44   20.78
   1   0 -17  192.19   17.63
  -1   0  17  171.83   23.04
  -1   0  17  209.29   26.45
   0   0 -17   56.44   10.51
   0   0 -17   83.21   15.09
   0   0 -17   59.65    8.37
   0   0  17   50.94   13.36
   0   0  17   48.60   12.42
  -1   0 -17   95.76   11.42
  -1   0 -17   67.21   14.11
   1   0  17   61.62   14.26
   1   0  17   60.94   13.66
  -2   0 -17   -3.00    4.70
  -2   0 -17    0.95    8.57
  -2   0 -17   -6.69    5.46
   2   0  17   -0.46    8.62
  -5   1  17   20.79    7.65
  -5   1  17    5.10    5.57
  -5   1  17    8.10    7.28
   4  -1 -17  125.38   19.14
   4  -1 -17   92.36   12.04
  -4   1  17  103.60   17.08
   3  -1 -17   -4.16    8.60
  -3   1  17   18.19    6.92
  -3   1  17    9.30    6.53
   2  -1 -17   92.07   12.60
   2  -1 -17   93.91   17.59
   2  -1 -17   97.70   13.08
   2  -1 -17  103.84    9.29
  -2   1  17  119.02   29.01
  -2   1  17  114.19   18.04
  -2   1  17   71.88   15.28
   1  -1 -17    9.00    5.57
   1  -1 -17    9.99    8.47
   1  -1 -17    3.67    3.24
  -1   1  17   -1.31    6.27
  -1   1  17    1.20    7.38
   0  -1 -17   -0.56   11.75
   0  -1 -17   -2.65    3.34
   0  -1 -17   -3.45    5.68
   0   1  17   -5.02    6.32
   0   1  17   12.17    7.05
  -1  -1 -17   17.51   10.44
  -1  -1 -17   41.84    9.85
  -1  -1 -17   37.77    8.05
   1   1  17   41.00   11.02
   1   1  17   20.42   10.69
  -5   2  17   36.89    8.97
  -5   2  17   31.21    9.40
   4  -2 -17    7.81    5.66
   4  -2 -17    5.40   10.39
  -4   2  17    7.17    6.60
  -4   2  17   30.55    9.18
   3  -2 -17   -7.58    8.82
   3  -2 -17    5.85    5.34
  -3   2  17    8.82    6.21
  -3   2  17    3.70    6.91
   2  -2 -17   43.37    6.06
   2  -2 -17   20.84   10.60
   2  -2 -17   48.86    9.21
  -2   2  17   34.85    9.74
  -2   2  17   40.36   10.16
   1  -2 -17    3.91    6.08
   1  -2 -17   -1.48    8.93
   1  -2 -17    5.98    4.19
  -1   2  17    7.57    7.46
  -1   2  17    5.81    6.83
   0  -2 -17   33.94   12.72
   0  -2 -17   17.80    5.72
   0   2  17   36.74   10.95
   0   2  17   27.60    9.42
  -5   3  17   -6.52    6.25
  -5   3  17   -9.32    4.18
   4  -3 -17   54.17    8.91
   4  -3 -17   21.67   12.03
  -4   3  17   63.17   12.50
   3  -3 -17   10.07   12.54
   3  -3 -17   20.61    6.46
  -3   3  17   -7.70    6.49
  -3   3  17   11.49    6.53
   2  -3 -17   10.61   10.37
   2  -3 -17   -3.78    5.55
  -2   3  17   -3.56    6.06
   1  -3 -17    4.39    6.82
   1  -3 -17   10.90    9.48
   1  -3 -17    8.29    4.96
  -1   3  17    2.29    7.25
  -1   3  17  -12.97    6.99
   4  -4 -17   -2.32    6.47
  -4   4  17   10.37    7.61
  -4   4  17    5.03    8.68
   3  -4 -17   14.44   12.57
   3  -4 -17   24.59    7.42
  -3   4  17   16.79    9.00
  -3   4  17   21.49   14.50
   2  -4 -17  -10.66   10.55
   1   4 -18    7.97   11.28
  -1  -4  18   -3.14    9.10
  -1  -4  18   12.42   11.39
  -1  -4  18    3.25    8.17
   0  -4  18    8.38    8.72
   0  -4  18   18.07   12.42
   0  -4  18   14.25   10.62
  -1   4 -18    2.34    5.29
  -1   4 -18   -3.35    6.41
  -1   4 -18   -0.81   10.08
   1  -4  18    1.37    9.58
   1  -4  18   -3.50   10.32
   3   3 -18    0.36    5.07
  -3  -3  18   -1.43    7.16
  -3  -3  18   14.28   10.95
  -3  -3  18   -7.27   10.79
   2   3 -18   23.01   11.99
   2   3 -18   26.48    7.24
  -2  -3  18   13.91   12.37
  -2  -3  18   22.70   10.84
   1   3 -18    0.60    9.66
   1   3 -18    1.58    3.84
   1   3 -18    7.47    6.53
  -1  -3  18    7.19   10.46
  -1  -3  18    1.95    6.02
  -1  -3  18   31.57   15.60
   0   3 -18   65.45   12.96
   0   3 -18   89.95   18.24
   0   3 -18   98.33   10.73
   0  -3  18   80.88   17.48
   0  -3  18   80.52   17.63
   1  -3  18   45.16   12.84
   3   2 -18    7.32    5.16
   3   2 -18    5.20   13.25
  -3  -2  18    4.45   14.65
  -3  -2  18    7.19    6.92
   2   2 -18   36.50    4.96
   2   2 -18   42.94   13.94
   2   2 -18   37.13    7.93
  -2  -2  18   29.49    8.96
  -2  -2  18   28.29   12.73
  -2  -2  18   39.44   16.40
   1   2 -18   29.59   11.67
   1   2 -18   54.77    9.98
   1   2 -18   31.42    5.52
  -1  -2  18   27.49   12.43
   0   2 -18    9.31   10.13
   0   2 -18   11.91    4.50
   0   2 -18   20.15    7.71
   0  -2  18   16.19   10.56
  -1   2 -18   37.17    7.60
  -1   2 -18   59.23   11.96
  -1   2 -18   58.54   13.78
   1  -2  18   26.74   13.20
   1  -2  18   29.81   11.47
   4   1 -18    2.95    5.66
  -4  -1  18   18.61    9.09
  -4  -1  18    0.53    7.23
  -4  -1  18    7.21    6.71
   3   1 -18   17.20    6.04
   3   1 -18   15.85   10.74
  -3  -1  18    5.45    6.45
  -3  -1  18   16.47    8.85
  -3  -1  18   23.26    9.30
   2   1 -18    2.81    5.25
   2   1 -18   -6.31    8.79
  -2  -1  18    7.04    7.39
  -2  -1  18    3.67    7.99
   1   1 -18  109.77   13.40
   1   1 -18   96.93   16.56
   1   1 -18   73.93    9.49
  -1  -1  18   85.39   16.94
  -1  -1  18   86.36   17.40
   0   1 -18    1.02   11.17
   0   1 -18    2.84    4.10
   0   1 -18    2.85    5.54
   0  -1  18   -8.16    8.31
  -1   1 -18   56.04   14.90
  -1   1 -18   31.70    9.19
  -1   1 -18   44.07    8.82
   1  -1  18   28.01   11.85
   4   0 -18   -1.98    5.08
  -4   0  18    4.17    7.52
  -4   0  18   -3.22    5.26
  -4   0  18  -11.31    6.26
   3   0 -18   74.62   11.06
   3   0 -18   63.56   15.62
  -3   0  18   66.39   15.60
  -3   0  18   58.76   14.59
   2   0 -18    9.93    6.37
   2   0 -18   12.08   11.72
  -2   0  18    1.08    7.70
  -2   0  18   27.18    9.83
   1   0 -18    7.53    3.58
   1   0 -18   12.41    6.20
   1   0 -18    9.37    8.81
  -1   0  18   -0.47    8.27
   0   0 -18  191.50   22.74
   0   0 -18  177.65   29.07
   0   0 -18  167.74   16.41
   0   0  18  158.80   22.52
   0   0  18  136.87   23.99
  -1   0 -18   90.01   17.71
  -1   0 -18   75.78   13.88
   1   0  18   72.31   16.15
   1   0  18   49.26   14.31
   4  -1 -18    8.93    6.11
  -4   1  18    0.43    7.57
  -4   1  18   18.00    8.78
   3  -1 -18  138.20   16.85
   3  -1 -18  141.76   23.84
  -3   1  18  177.37   22.78
  -3   1  18  188.18   23.48
   2  -1 -18    0.35    9.54
   2  -1 -18    6.02    6.33
  -2   1  18   19.25    8.34
   1  -1 -18  237.64   20.80
   1  -1 -18  231.57   28.99
   1  -1 -18  232.27   24.30
  -1   1  18  231.81   27.58
  -1   1  18  248.01   29.06
   0  -1 -18    1.62    6.84
   0  -1 -18   16.46    4.85
   0  -1 -18   12.64    8.61
   0   1  18   18.46    8.91
   0   1  18   19.55    8.58
   4  -2 -18   43.04    8.42
  -4   2  18   30.52   10.18
   3  -2 -18   82.62   12.43
   3  -2 -18   57.87   21.61
  -3   2  18  125.77   25.98
   2  -2 -18   45.75   13.86
   2  -2 -18   49.59   10.73
  -2   2  18   51.93   12.56
  -2   2  18   44.50   12.76
   1  -2 -18    2.21    4.92
   1  -2 -18    1.96    9.92
  -1   2  18    3.29    7.67
  -1   2  18    8.11    8.06
   3  -3 -18  115.60   23.70
  -2  -2  19   -1.09    8.58
   1   2 -19  195.27   20.58
   1   2 -19  182.71   29.31
   1   2 -19  181.65   17.23
  -1  -2  19  187.77   28.16
  -1  -2  19  164.27   24.13
   2   1 -19    6.02    6.21
   2   1 -19   -7.83   11.94
  -2  -1  19    0.26    9.52
   1   1 -19   -2.21    3.89
   1   1 -19    5.43   10.51
   1   1 -19   -0.66    5.86
  -1  -1  19   -3.04    8.47
  -1  -1  19   -2.71    8.70
  -3   0  19    6.93    9.50
   2   0 -19    9.59    7.09
   2   0 -19   20.67   14.17
  -2   0  19   19.19   10.39
   1   0 -19   21.06   13.58
   1   0 -19   11.50    9.73
  -1   0  19   -3.93    8.54
  -1   0  19   17.30   10.63
   0   0   0    0.00    0.00


 _exptl_absorpt_process_details
)
 SADABS 2016/2: Krause, L., Herbst-Irmer, R., Sheldrick G.M. & Stalke D.,
 J. Appl. Cryst. 48 (2015) 3-10
)
 _exptl_absorpt_correction_type   multi-scan
 _exptl_absorpt_correction_T_max  0.2627
 _exptl_absorpt_correction_T_min  0.1970
 _exptl_special_details
)
 The following wavelength and cell were deduced by SADABS from the
 direction cosines etc. They are given here for emergency use only:
 CELL 0.71058    7.352    8.097   14.381   94.431   99.671  115.084
)

_computing_structure_solution     'SHELXT 2014/5 (Sheldrick, 2014)'
;
_shelx_hkl_checksum              11714
_olex2_submission_special_instructions 'No special instructions were received'
loop_
_space_group_symop_operation_xyz
'x, y, z'
'-x, -y, -z'
loop_
_atom_site_label
_atom_site_type_symbol
_atom_site_fract_x
_atom_site_fract_y
_atom_site_fract_z
_atom_site_U_iso_or_equiv
_atom_site_adp_type
_atom_site_occupancy
_atom_site_site_symmetry_order
_atom_site_calc_flag
_atom_site_refinement_flags_posn
_atom_site_refinement_flags_adp
_atom_site_refinement_flags_occupancy
_atom_site_disorder_assembly
_atom_site_disorder_group
S2 S 0.83661(19) 0.87684(17) 0.66535(9) 0.0240(4) Uani 1 1 d . . . . .
Si1 Si 0.6191(2) 0.25713(18) 0.89978(9) 0.0224(5) Uani 1 1 d . . . . .
S3 S 0.76199(19) 0.65495(17) 0.83970(9) 0.0243(4) Uani 1 1 d . . . . .
S1 S 0.82384(19) 0.78538(17) 0.44566(9) 0.0264(4) Uani 1 1 d . . . . .
C9 C 0.7428(7) 0.5238(7) 0.6655(3) 0.0210(11) Uani 1 1 d . . . . .
C5 C 0.7032(7) 0.2606(7) 0.4600(4) 0.0228(11) Uani 1 1 d . . . . .
H5 H 0.679948 0.184720 0.508095 0.027 Uiso 1 1 calc R . . . .
C4 C 0.6999(8) 0.1890(7) 0.3674(4) 0.0277(12) Uani 1 1 d . . . . .
H4 H 0.675784 0.063757 0.352995 0.033 Uiso 1 1 calc R . . . .
C10 C 0.7799(7) 0.6855(7) 0.7233(4) 0.0228(11) Uani 1 1 d . . . . .
C3 C 0.7316(8) 0.2988(7) 0.2958(4) 0.0275(12) Uani 1 1 d . . . . .
H3 H 0.727506 0.246499 0.233445 0.033 Uiso 1 1 calc R . . . .
C7 C 0.7591(7) 0.5554(7) 0.5689(4) 0.0236(11) Uani 1 1 d . . . . .
C6 C 0.7414(7) 0.4467(7) 0.4806(3) 0.0214(11) Uani 1 1 d . . . . .
C8 C 0.8042(7) 0.7358(7) 0.5598(4) 0.0241(11) Uani 1 1 d . . . . .
C2 C 0.7687(7) 0.4821(7) 0.3139(4) 0.0274(12) Uani 1 1 d . . . . .
H2 H 0.790693 0.556298 0.265080 0.033 Uiso 1 1 calc R . . . .
C15 C 0.3325(8) 0.1349(8) 0.8708(4) 0.0325(13) Uani 1 1 d . . . . .
H15A H 0.286543 0.037641 0.909979 0.049 Uiso 1 1 calc GR . . . .
H15B H 0.282524 0.079509 0.802939 0.049 Uiso 1 1 calc GR . . . .
H15C H 0.278058 0.223630 0.884459 0.049 Uiso 1 1 calc GR . . . .
C11 C 0.6981(7) 0.3741(7) 0.7182(4) 0.0236(11) Uani 1 1 d . . . . .
H11 H 0.669400 0.252884 0.690041 0.028 Uiso 1 1 calc R . . . .
C13 C 0.7121(9) 0.3894(8) 1.0248(4) 0.0316(13) Uani 1 1 d . . . . .
H13A H 0.680056 0.495368 1.026916 0.047 Uiso 1 1 calc GR . . . .
H13B H 0.860818 0.433472 1.044720 0.047 Uiso 1 1 calc GR . . . .
H13C H 0.643965 0.308509 1.068063 0.047 Uiso 1 1 calc GR . . . .
C14 C 0.7296(10) 0.0902(8) 0.8838(4) 0.0371(14) Uani 1 1 d . . . . .
H14A H 0.687856 0.000923 0.927515 0.056 Uiso 1 1 calc GR . . . .
H14B H 0.879675 0.157500 0.897947 0.056 Uiso 1 1 calc GR . . . .
H14C H 0.679356 0.024454 0.817645 0.056 Uiso 1 1 calc GR . . . .
C1 C 0.7729(7) 0.5547(7) 0.4057(4) 0.0226(11) Uani 1 1 d . . . . .
C12 C 0.6998(7) 0.4190(7) 0.8129(4) 0.0243(11) Uani 1 1 d . . . . .
loop_
_atom_site_aniso_label
_atom_site_aniso_U_11
_atom_site_aniso_U_22
_atom_site_aniso_U_33
_atom_site_aniso_U_23
_atom_site_aniso_U_13
_atom_site_aniso_U_12
S2 0.0346(8) 0.0175(7) 0.0184(7) 0.0046(5) 0.0058(5) 0.0100(6)
Si1 0.0324(8) 0.0188(8) 0.0143(8) 0.0049(6) 0.0067(6) 0.0089(6)
S3 0.0357(8) 0.0191(7) 0.0159(7) 0.0037(5) 0.0065(5) 0.0098(6)
S1 0.0371(8) 0.0230(8) 0.0179(7) 0.0080(5) 0.0046(5) 0.0120(6)
C9 0.023(2) 0.018(2) 0.020(3) 0.005(2) 0.0040(19) 0.0061(19)
C5 0.024(2) 0.020(3) 0.020(3) 0.003(2) 0.0039(19) 0.006(2)
C4 0.031(3) 0.028(3) 0.022(3) 0.004(2) 0.004(2) 0.012(2)
C10 0.027(2) 0.016(2) 0.021(3) 0.001(2) 0.0039(19) 0.007(2)
C3 0.033(3) 0.029(3) 0.018(3) 0.000(2) 0.002(2) 0.013(2)
C7 0.023(2) 0.026(3) 0.018(3) 0.005(2) 0.0031(19) 0.008(2)
C6 0.022(2) 0.026(3) 0.015(2) 0.008(2) 0.0051(18) 0.009(2)
C8 0.029(3) 0.020(3) 0.022(3) 0.002(2) 0.006(2) 0.010(2)
C2 0.032(3) 0.028(3) 0.019(3) 0.006(2) 0.001(2) 0.011(2)
C15 0.036(3) 0.027(3) 0.025(3) 0.003(2) 0.007(2) 0.006(2)
C11 0.029(3) 0.018(2) 0.021(3) 0.004(2) 0.006(2) 0.007(2)
C13 0.042(3) 0.030(3) 0.019(3) 0.004(2) 0.006(2) 0.012(2)
C14 0.058(4) 0.033(3) 0.029(3) 0.011(3) 0.016(3) 0.026(3)
C1 0.025(2) 0.024(3) 0.017(3) 0.005(2) 0.0028(19) 0.010(2)
C12 0.030(3) 0.018(2) 0.022(3) 0.005(2) 0.005(2) 0.007(2)
loop_
_atom_type_symbol
_atom_type_description
_atom_type_scat_dispersion_real
_atom_type_scat_dispersion_imag
_atom_type_scat_source
C C 0.0033 0.0016 'International Tables Vol C Tables 4.2.6.8 and 6.1.1.4'
H H 0.0000 0.0000 'International Tables Vol C Tables 4.2.6.8 and 6.1.1.4'
S S 0.1246 0.1234 'International Tables Vol C Tables 4.2.6.8 and 6.1.1.4'
Si Si 0.0817 0.0704 'International Tables Vol C Tables 4.2.6.8 and 6.1.1.4'
loop_
_geom_angle_atom_site_label_1
_geom_angle_atom_site_label_2
_geom_angle_atom_site_label_3
_geom_angle
_geom_angle_site_symmetry_1
_geom_angle_site_symmetry_3
_geom_angle_publ_flag
C8 S2 C10 88.9(2) . . ?
C15 Si1 C13 109.2(2) . . ?
C14 Si1 C15 110.9(3) . . ?
C14 Si1 C13 111.5(3) . . ?
C12 Si1 C15 107.9(2) . . ?
C12 Si1 C13 110.1(2) . . ?
C12 Si1 C14 107.1(3) . . ?
C10 S3 C12 91.9(2) . . ?
C8 S1 C1 90.0(2) . . ?
C10 C9 C7 110.6(5) . . ?
C10 C9 C11 111.0(5) . . ?
C11 C9 C7 138.4(5) . . ?
C4 C5 H5 120.6 . . ?
C4 C5 C6 118.8(5) . . ?
C6 C5 H5 120.6 . . ?
C5 C4 H4 119.5 . . ?
C3 C4 C5 121.1(5) . . ?
C3 C4 H4 119.5 . . ?
S3 C10 S2 133.1(3) . . ?
C9 C10 S2 114.5(4) . . ?
C9 C10 S3 112.4(4) . . ?
C4 C3 H3 119.4 . . ?
C2 C3 C4 121.3(5) . . ?
C2 C3 H3 119.4 . . ?
C6 C7 C9 136.2(5) . . ?
C8 C7 C9 111.5(5) . . ?
C8 C7 C6 112.2(4) . . ?
C5 C6 C7 130.3(5) . . ?
C5 C6 C1 118.5(4) . . ?
C1 C6 C7 111.2(5) . . ?
S1 C8 S2 130.9(3) . . ?
C7 C8 S2 114.5(4) . . ?
C7 C8 S1 114.6(4) . . ?
C3 C2 H2 121.0 . . ?
C3 C2 C1 118.1(5) . . ?
C1 C2 H2 121.0 . . ?
Si1 C15 H15A 109.5 . . ?
Si1 C15 H15B 109.5 . . ?
Si1 C15 H15C 109.5 . . ?
H15A C15 H15B 109.5 . . ?
H15A C15 H15C 109.5 . . ?
H15B C15 H15C 109.5 . . ?
C9 C11 H11 122.6 . . ?
C12 C11 C9 114.9(4) . . ?
C12 C11 H11 122.6 . . ?
Si1 C13 H13A 109.5 . . ?
Si1 C13 H13B 109.5 . . ?
Si1 C13 H13C 109.5 . . ?
H13A C13 H13B 109.5 . . ?
H13A C13 H13C 109.5 . . ?
H13B C13 H13C 109.5 . . ?
Si1 C14 H14A 109.5 . . ?
Si1 C14 H14B 109.5 . . ?
Si1 C14 H14C 109.5 . . ?
H14A C14 H14B 109.5 . . ?
H14A C14 H14C 109.5 . . ?
H14B C14 H14C 109.5 . . ?
C6 C1 S1 112.0(4) . . ?
C2 C1 S1 125.8(4) . . ?
C2 C1 C6 122.2(5) . . ?
S3 C12 Si1 122.6(3) . . ?
C11 C12 Si1 127.3(4) . . ?
C11 C12 S3 109.8(4) . . ?
loop_
_geom_bond_atom_site_label_1
_geom_bond_atom_site_label_2
_geom_bond_distance
_geom_bond_site_symmetry_2
_geom_bond_publ_flag
S2 C10 1.744(5) . ?
S2 C8 1.742(5) . ?
Si1 C15 1.869(6) . ?
Si1 C13 1.872(6) . ?
Si1 C14 1.866(6) . ?
Si1 C12 1.866(5) . ?
S3 C10 1.730(5) . ?
S3 C12 1.757(5) . ?
S1 C8 1.735(5) . ?
S1 C1 1.765(5) . ?
C9 C10 1.387(7) . ?
C9 C7 1.448(7) . ?
C9 C11 1.428(7) . ?
C5 H5 0.9500 . ?
C5 C4 1.402(7) . ?
C5 C6 1.405(7) . ?
C4 H4 0.9500 . ?
C4 C3 1.398(7) . ?
C3 H3 0.9500 . ?
C3 C2 1.383(8) . ?
C7 C6 1.440(7) . ?
C7 C8 1.376(7) . ?
C6 C1 1.428(7) . ?
C2 H2 0.9500 . ?
C2 C1 1.392(7) . ?
C15 H15A 0.9800 . ?
C15 H15B 0.9800 . ?
C15 H15C 0.9800 . ?
C11 H11 0.9500 . ?
C11 C12 1.378(7) . ?
C13 H13A 0.9800 . ?
C13 H13B 0.9800 . ?
C13 H13C 0.9800 . ?
C14 H14A 0.9800 . ?
C14 H14B 0.9800 . ?
C14 H14C 0.9800 . ?
loop_
_geom_torsion_atom_site_label_1
_geom_torsion_atom_site_label_2
_geom_torsion_atom_site_label_3
_geom_torsion_atom_site_label_4
_geom_torsion
_geom_torsion_site_symmetry_1
_geom_torsion_site_symmetry_2
_geom_torsion_site_symmetry_3
_geom_torsion_site_symmetry_4
_geom_torsion_publ_flag
C9 C7 C6 C5 -1.5(9) . . . . ?
C9 C7 C6 C1 179.7(5) . . . . ?
C9 C7 C8 S2 1.8(5) . . . . ?
C9 C7 C8 S1 -179.3(3) . . . . ?
C9 C11 C12 Si1 172.1(4) . . . . ?
C9 C11 C12 S3 -0.8(6) . . . . ?
C5 C4 C3 C2 0.5(8) . . . . ?
C5 C6 C1 S1 -178.8(3) . . . . ?
C5 C6 C1 C2 -0.6(7) . . . . ?
C4 C5 C6 C7 -177.9(5) . . . . ?
C4 C5 C6 C1 0.8(7) . . . . ?
C4 C3 C2 C1 -0.3(8) . . . . ?
C10 S2 C8 S1 179.6(4) . . . . ?
C10 S2 C8 C7 -1.8(4) . . . . ?
C10 S3 C12 Si1 -172.5(3) . . . . ?
C10 S3 C12 C11 0.9(4) . . . . ?
C10 C9 C7 C6 178.8(5) . . . . ?
C10 C9 C7 C8 -0.8(6) . . . . ?
C10 C9 C11 C12 0.3(6) . . . . ?
C3 C2 C1 S1 178.2(4) . . . . ?
C3 C2 C1 C6 0.3(7) . . . . ?
C7 C9 C10 S2 -0.6(5) . . . . ?
C7 C9 C10 S3 179.9(3) . . . . ?
C7 C9 C11 C12 -179.1(5) . . . . ?
C7 C6 C1 S1 0.2(5) . . . . ?
C7 C6 C1 C2 178.3(4) . . . . ?
C6 C5 C4 C3 -0.7(7) . . . . ?
C6 C7 C8 S2 -177.9(3) . . . . ?
C6 C7 C8 S1 1.0(6) . . . . ?
C8 S2 C10 S3 -179.3(4) . . . . ?
C8 S2 C10 C9 1.3(4) . . . . ?
C8 S1 C1 C6 0.3(4) . . . . ?
C8 S1 C1 C2 -177.8(4) . . . . ?
C8 C7 C6 C5 178.0(5) . . . . ?
C8 C7 C6 C1 -0.7(6) . . . . ?
C15 Si1 C12 S3 96.9(3) . . . . ?
C15 Si1 C12 C11 -75.2(5) . . . . ?
C11 C9 C10 S2 179.9(3) . . . . ?
C11 C9 C10 S3 0.4(5) . . . . ?
C11 C9 C7 C6 -1.9(10) . . . . ?
C11 C9 C7 C8 178.6(5) . . . . ?
C13 Si1 C12 S3 -22.2(4) . . . . ?
C13 Si1 C12 C11 165.7(5) . . . . ?
C14 Si1 C12 S3 -143.6(3) . . . . ?
C14 Si1 C12 C11 44.3(5) . . . . ?
C1 S1 C8 S2 177.9(4) . . . . ?
C1 S1 C8 C7 -0.8(4) . . . . ?
C12 S3 C10 S2 179.9(4) . . . . ?
C12 S3 C10 C9 -0.7(4) . . . . ?
