#------------------------------------------------------------------------------
#$Date: 2024-02-04 13:32:48 +0200 (Sun, 04 Feb 2024) $
#$Revision: 289423 $
#$URL: file:///home/coder/svn-repositories/cod/cif/1/57/04/1570489.cif $
#------------------------------------------------------------------------------
#
# This file is available in the Crystallography Open Database (COD),
# http://www.crystallography.net/
#
# All data on this site have been placed in the public domain by the
# contributors.
#
data_1570489
loop_
_publ_author_name
'Zhang, Rong'
'Lan, Jiajing'
'Wang, Fei'
'Chen, Shumei'
'Zhang, Jian'
_publ_section_title
;
 Aggregate assembly of ferrocene functionalized indium-oxo clusters.
;
_journal_issue                   2
_journal_name_full               'Chemical science'
_journal_page_first              726
_journal_page_last               735
_journal_paper_doi               10.1039/d3sc05824g
_journal_volume                  15
_journal_year                    2024
_chemical_formula_moiety         'C73 H51 Cl3 Fe6 In7 O28, C22 H15 P'
_chemical_formula_sum            'C95 H66 Cl3 Fe6 In7 O28 P'
_chemical_formula_weight         2931.63
_space_group_crystal_system      trigonal
_space_group_IT_number           148
_space_group_name_Hall           '-R 3'
_space_group_name_H-M_alt        'R -3 :H'
_atom_sites_solution_hydrogens   geom
_atom_sites_solution_primary     dual
_audit_creation_date             2023-07-07
_audit_creation_method
;
Olex2 1.5
(compiled 2023.03.06 svn.rbb2c1857 for OlexSys, GUI svn.r6748)
;
_audit_update_record
;
2023-07-14 deposited with the CCDC.	2023-11-23 downloaded from the CCDC.
;
_cell_angle_alpha                90
_cell_angle_beta                 90
_cell_angle_gamma                120
_cell_formula_units_Z            6
_cell_length_a                   16.15060(10)
_cell_length_b                   16.15060(10)
_cell_length_c                   65.6859(3)
_cell_measurement_reflns_used    28412
_cell_measurement_temperature    293(2)
_cell_measurement_theta_max      60.5200
_cell_measurement_theta_min      2.7960
_cell_volume                     14838.16(15)
_computing_cell_refinement       'CrysAlisPro 1.171.41.93a (Rigaku OD, 2020)'
_computing_data_collection       'CrysAlisPro 1.171.41.93a (Rigaku OD, 2020)'
_computing_data_reduction        'CrysAlisPro 1.171.41.93a (Rigaku OD, 2020)'
_computing_molecular_graphics    'Olex2 1.5 (Dolomanov et al., 2009)'
_computing_publication_material  'Olex2 1.5 (Dolomanov et al., 2009)'
_computing_structure_refinement  'SHELXL 2017/1 (Sheldrick, 2015)'
_computing_structure_solution    'SHELXT 2014/5 (Sheldrick, 2014)'
_diffrn_ambient_temperature      293(2)
_diffrn_detector                 'Hybrid Pixel Array Detector'
_diffrn_detector_area_resol_mean 10.0000
_diffrn_detector_type            HyPix
_diffrn_measured_fraction_theta_full 0.996
_diffrn_measured_fraction_theta_max 0.986
_diffrn_measurement_details
;
List of Runs (angles in degrees, time in seconds):

  # Type    Start    End  Width  t~exp~   \w     \q     \k     \f   Frames
#--------------------------------------------------------------------------
  1  \w      1.00  85.36   0.38    0.70    --   73.53 -52.00 -88.00  222
  2  \w     69.00 104.34   0.38    0.70    --   73.53  52.00  56.00   93
  3  \w    115.00 145.78   0.38    0.70    --   73.53  52.00  56.00   81
  4  \w     99.00 139.28   0.38    0.70    --   73.53 125.00 -90.00  106
  5  \w      3.00  28.08   0.38    0.14    --   -0.62  52.00  56.00   66
  6  \w    -66.00 -30.66   0.38    0.70    --  -74.78  52.00  56.00   93
  7  \w    -12.00  72.36   0.38    0.14    --   -0.62  38.00-120.00  222
  8  \w    -70.00 -17.94   0.38    0.70    --  -74.78  38.00-120.00  137
  9  \w    -46.00   0.36   0.38    0.70    --  -74.78  19.00-120.00  122
 10  \w   -127.00 -60.12   0.38    0.70    --  -74.78 -52.00 -88.00  176
 11  \w   -138.00-112.92   0.38    0.70    --  -74.78 -99.00-150.00   66
 12  \w   -147.00 -81.26   0.38    0.70    --  -74.78-125.00   0.00  173
 13  \w   -143.00 -88.28   0.38    0.70    --  -74.78 -99.00  30.00  144
 14  \w   -148.00 -88.34   0.38    0.70    --  -74.78 -99.00 -30.00  157
 15  \w   -144.00 -93.84   0.38    0.70    --  -74.78 -99.00 -90.00  132
 16  \w    -72.00 -39.70   0.38    0.14    --   -0.62 -52.00 -88.00   85
 17  \w    -24.00  13.24   0.38    0.14    --   -0.62 -52.00 -88.00   98
;
_diffrn_measurement_device       'four-circle diffractometer'
_diffrn_measurement_device_type  'ROD, Synergy Custom system, HyPix'
_diffrn_measurement_method       '\w scans'
_diffrn_orient_matrix_type
'CrysAlisPro convention (1999,Acta A55,543-557)'
_diffrn_orient_matrix_UB_11      -0.0470974000
_diffrn_orient_matrix_UB_12      0.0058873000
_diffrn_orient_matrix_UB_13      0.0161951000
_diffrn_orient_matrix_UB_21      -0.0318160000
_diffrn_orient_matrix_UB_22      -0.0922521000
_diffrn_orient_matrix_UB_23      0.0042015000
_diffrn_orient_matrix_UB_31      0.0770859000
_diffrn_orient_matrix_UB_32      0.0251191000
_diffrn_orient_matrix_UB_33      0.0116415000
_diffrn_radiation_monochromator  mirror
_diffrn_radiation_probe          x-ray
_diffrn_radiation_type           'Ga K\a'
_diffrn_radiation_wavelength     1.3405
_diffrn_reflns_av_R_equivalents  0.0339
_diffrn_reflns_av_unetI/netI     0.0176
_diffrn_reflns_Laue_measured_fraction_full 0.996
_diffrn_reflns_Laue_measured_fraction_max 0.986
_diffrn_reflns_limit_h_max       20
_diffrn_reflns_limit_h_min       -14
_diffrn_reflns_limit_k_max       20
_diffrn_reflns_limit_k_min       -20
_diffrn_reflns_limit_l_max       85
_diffrn_reflns_limit_l_min       -85
_diffrn_reflns_number            41444
_diffrn_reflns_point_group_measured_fraction_full 0.996
_diffrn_reflns_point_group_measured_fraction_max 0.986
_diffrn_reflns_theta_full        53.543
_diffrn_reflns_theta_max         60.670
_diffrn_reflns_theta_min         2.808
_diffrn_source                   'micro-focus metaljet'
_exptl_absorpt_coefficient_mu    14.146
_exptl_absorpt_correction_T_max  1.00000
_exptl_absorpt_correction_T_min  0.67513
_exptl_absorpt_correction_type   multi-scan
_exptl_absorpt_process_details
;
CrysAlisPro 1.171.41.93a (Rigaku Oxford Diffraction, 2020)
Empirical absorption correction using spherical harmonics,
implemented in SCALE3 ABSPACK scaling algorithm.
;
_exptl_crystal_colour            'clear yellowish black'
_exptl_crystal_colour_lustre     clear
_exptl_crystal_colour_modifier   yellowish
_exptl_crystal_colour_primary    black
_exptl_crystal_density_diffrn    1.968
_exptl_crystal_description       trapezoid
_exptl_crystal_F_000             8550
_exptl_crystal_size_max          0.11
_exptl_crystal_size_mid          0.11
_exptl_crystal_size_min          0.11
_refine_diff_density_max         3.452
_refine_diff_density_min         -1.891
_refine_diff_density_rms         0.097
_refine_ls_extinction_method     none
_refine_ls_goodness_of_fit_ref   1.062
_refine_ls_hydrogen_treatment    constr
_refine_ls_matrix_type           full
_refine_ls_number_parameters     409
_refine_ls_number_reflns         7492
_refine_ls_number_restraints     0
_refine_ls_restrained_S_all      1.062
_refine_ls_R_factor_all          0.0259
_refine_ls_R_factor_gt           0.0241
_refine_ls_shift/su_max          0.009
_refine_ls_shift/su_mean         0.000
_refine_ls_structure_factor_coef Fsqd
_refine_ls_weighting_details
'w=1/[\s^2^(Fo^2^)+(0.0366P)^2^+67.1517P] where P=(Fo^2^+2Fc^2^)/3'
_refine_ls_weighting_scheme      calc
_refine_ls_wR_factor_gt          0.0693
_refine_ls_wR_factor_ref         0.0701
_reflns_Friedel_coverage         0.000
_reflns_number_gt                7040
_reflns_number_total             7492
_reflns_threshold_expression     'I > 2\s(I)'
_cod_data_source_file            d3sc05824g2.cif
_cod_data_source_block           hy_CCDC2
_cod_depositor_comments
'Adding full bibliography for 1570485--1570493.cif.'
_cod_original_cell_volume        14838.2(2)
_cod_original_sg_symbol_H-M      'R -3'
_cod_database_code               1570489
_shelx_shelxl_version_number     2017/1
_chemical_oxdiff_formula         'In Fe C O H N'
_shelx_space_group_comment
;
The symmetry employed for this shelxl refinement is uniquely defined
by the following loop, which should always be used as a source of
symmetry information in preference to the above space-group names.
They are only intended as comments.
;
_shelx_estimated_absorpt_t_max   0.305
_shelx_estimated_absorpt_t_min   0.305
_olex2_refinement_description
;
1. Fixed Uiso
 At 1.2 times of:
  All C(H) groups
 At 1.5 times of:
  All C(H,H,H) groups
2. Others
 Fixed Sof: H2A(0.333333) H2B(0.333333) H2C(0.333333)
3.a Aromatic/amide H refined with riding coordinates:
 C11(H11), C12(H12), C13(H13), C14(H14), C15(H15), C16(H16), C17(H17),
 C18(H18), C19(H19), C20(H20), C21(H21), C22(H22), C23(H23), C24(H24), C25(H25),
  C26(H26), C31(H31), C30(H30), C28(H28), C29(H29), C27(H27)
3.b Fitted hexagon refined as free rotating group:
 C31(C30,C1,C28,C29,C27)
3.c Idealised Me refined as rotating group:
 C2(H2A,H2B,H2C)
;
_smtbx_masks_void_probe_radius   1.2
_smtbx_masks_void_truncation_radius 1.2
_shelx_res_file
;
TITL hy_a.res in R-3
    hy.res
    created by SHELXL-2017/1 at 21:24:03 on 07-Jul-2023
REM Old TITL hy_a.res in R-3
REM SHELXT solution in R-3
REM R1 0.079, Rweak 0.005, Alpha 0.070, Orientation as input
REM Formula found by SHELXT: C156 N29 O56 Fe12 In14 P2 Cl6
CELL 1.3405 16.1506 16.1506 65.6859 90 90 120
ZERR 6 0.0001 0.0001 0.0003 0 0 0
LATT 3
SYMM -Y,+X-Y,+Z
SYMM +Y-X,-X,+Z
SFAC C H Cl Fe In O P
DISP C 0.0147 0.007 57.608
DISP Cl 0.3292 0.5397 4076.816
DISP Fe -0.2758 2.5767 18844.2355
DISP H -0 0 0.6481
DISP In 0.1337 3.9104 30156.1191
DISP O 0.0412 0.025 193.4765
DISP P 0.2594 0.3349 2518.2931
UNIT 570 396 18 36 42 168 6
EQIV $1 1-Y,+X-Y,+Z
EQIV $2 1+Y-X,1-X,+Z

L.S. 40
PLAN  99
SIZE 0.11 0.11 0.11
CONF
FREE In2 In1_$1
FREE In2 In1
FREE In2 In1_$2
FREE Fe1 C20
BOND $H
list 4
MORE -1
ABIN
fmap 2
acta
OMIT -1 2 0
OMIT 1 1 9
OMIT -1 3 11
OMIT -1 1 7
OMIT -1 2 6
OMIT 0 2 13
OMIT 0 1 5
OMIT -4 3 8
OMIT 0 1 8
OMIT -1 1 13
OMIT 0 2 7
OMIT 2 3 23
OMIT -3 3 6
OMIT -1 3 8
OMIT -6 8 10
OMIT -2 2 2
OMIT -5 6 10
OMIT -2 3 1
OMIT -1 2 9
REM <olex2.extras>
REM <HklSrc "%.\\hy.hkl">
REM </olex2.extras>

WGHT    0.036600   67.151703
FVAR       0.06234
IN1   5    0.537063    0.316538    0.569867    11.00000    0.02260    0.02346 =
         0.01901   -0.00045   -0.00141    0.01146
IN2   5    0.666667    0.333333    0.609912    10.33333    0.02163    0.02163 =
         0.01622    0.00000    0.00000    0.01081
IN3   5    0.648682    0.552005    0.596957    11.00000    0.02780    0.02422 =
         0.02039   -0.00180   -0.00146    0.01449
FE1   4    0.339727    0.325589    0.644002    11.00000    0.02335    0.03666 =
         0.02576   -0.00755    0.00132    0.01419
FE2   4    0.592162    0.645044    0.527411    11.00000    0.04419    0.03669 =
         0.03398    0.00725   -0.00574    0.02403
CL1   3    0.622962    0.679349    0.606883    11.00000    0.09408    0.05910 =
         0.05513   -0.01589   -0.01135    0.05732
O1    6    0.427027    0.298438    0.590466    11.00000    0.03280    0.03689 =
         0.02772    0.00220    0.00699    0.01875
O2    6    0.514786    0.410588    0.550970    11.00000    0.04420    0.03464 =
         0.02882    0.00323   -0.00195    0.02492
O3    6    0.563077    0.334630    0.629477    11.00000    0.03032    0.03897 =
         0.03065   -0.00098    0.00629    0.01988
O11   6    0.380848    0.168926    0.610242    11.00000    0.03790    0.03774 =
         0.02720    0.00106    0.00680    0.02299
O5    6    0.726917    0.630292    0.569381    11.00000    0.04192    0.03648 =
         0.02431    0.00451    0.00224    0.01703
O6    6    0.522642    0.502591    0.577205    11.00000    0.03211    0.04277 =
         0.02765   -0.00054   -0.00319    0.01981
O7    6    0.754287    0.543217    0.546833    11.00000    0.04225    0.03464 =
         0.02929    0.00502   -0.00260    0.02235
O8    6    0.584949    0.481903    0.625005    11.00000    0.04642    0.03313 =
         0.02900    0.00132    0.01266    0.01513
O9    6    0.653974    0.428038    0.587574    11.00000    0.02251    0.02087 =
         0.01789   -0.00081   -0.00116    0.01090
O10   6    0.666667    0.333333    0.552727    10.33333    0.02646    0.02646 =
         0.01545    0.00000    0.00000    0.01323
C2    1    0.666667    0.333333    0.530892    10.33333    0.04225    0.04225 =
         0.02120    0.00000    0.00000    0.02112
PART -1
AFIX 137
H2A   2    0.721393    0.330791    0.526020    10.33333   -1.50000
H2B   2    0.669209    0.390602    0.526020    10.33333   -1.50000
H2C   2    0.609398    0.278607    0.526020    10.33333   -1.50000
AFIX   0
PART 0
C3    1    0.313148    0.264750    0.615892    11.00000    0.02380    0.03702 =
         0.02537   -0.00623   -0.00164    0.01601
C34   1    0.510582    0.480417    0.558737    11.00000    0.02351    0.03043 =
         0.02902    0.00264   -0.00140    0.01292
C5    1    0.734667    0.607304    0.551554    11.00000    0.02595    0.02826 =
         0.02913    0.00570   -0.00162    0.01233
C6    1    0.547669    0.402210    0.633618    11.00000    0.02124    0.03405 =
         0.02000   -0.00520   -0.00232    0.01168
C7    1    0.489131    0.538894    0.544765    11.00000    0.03509    0.03645 =
         0.03593    0.00374   -0.00422    0.02157
C8    1    0.480538    0.386244    0.650200    11.00000    0.02426    0.03446 =
         0.02137   -0.00442    0.00000    0.01217
C9    1    0.722325    0.661242    0.534823    11.00000    0.03652    0.03309 =
         0.02861    0.00655   -0.00135    0.01756
C10   1    0.379111    0.242311    0.604697    11.00000    0.02294    0.03109 =
         0.02094   -0.00553   -0.00236    0.01235
C11   1    0.311692    0.352017    0.615200    11.00000    0.04442    0.04997 =
         0.03484   -0.00392   -0.00432    0.03275
AFIX  43
H11   2    0.351195    0.405385    0.607366    11.00000   -1.20000
AFIX   0
C12   1    0.241930    0.202092    0.630004    11.00000    0.02397    0.04016 =
         0.03471   -0.00966    0.00333    0.00850
AFIX  43
H12   2    0.228361    0.140836    0.633572    11.00000   -1.20000
AFIX   0
C13   1    0.427811    0.300424    0.661907    11.00000    0.03311    0.04913 =
         0.02508    0.00400   -0.00021    0.01750
AFIX  43
H13   2    0.434454    0.246494    0.661360    11.00000   -1.20000
AFIX   0
C14   1    0.497170    0.628851    0.549758    11.00000    0.05358    0.04756 =
         0.05266    0.00204    0.00110    0.03525
AFIX  43
H14   2    0.512505    0.658524    0.562428    11.00000   -1.20000
AFIX   0
C15   1    0.195695    0.251234    0.637565    11.00000    0.02444    0.06741 =
         0.04236   -0.01956    0.00104    0.01912
AFIX  43
H15   2    0.145418    0.226829    0.646829    11.00000   -1.20000
AFIX   0
C16   1    0.465495    0.520543    0.523720    11.00000    0.04004    0.04888 =
         0.03683    0.00384   -0.01075    0.02020
AFIX  43
H16   2    0.456685    0.467370    0.516429    11.00000   -1.20000
AFIX   0
C17   1    0.447558    0.450015    0.655642    11.00000    0.03074    0.03977 =
         0.04234   -0.01612   -0.00217    0.01596
AFIX  43
H17   2    0.469211    0.510884    0.650369    11.00000   -1.20000
AFIX   0
C18   1    0.238445    0.342537    0.628745    11.00000    0.04658    0.07125 =
         0.04727   -0.01850   -0.00806    0.04419
AFIX  43
H18   2    0.221823    0.389004    0.631300    11.00000   -1.20000
AFIX   0
C19   1    0.701549    0.633209    0.513976    11.00000    0.04912    0.04813 =
         0.02712    0.00780    0.00434    0.02329
AFIX  43
H19   2    0.697688    0.579071    0.508060    11.00000   -1.20000
AFIX   0
C20   1    0.363766    0.313174    0.674450    11.00000    0.03308    0.07027 =
         0.02460   -0.00249    0.00467    0.01243
AFIX  43
H20   2    0.321011    0.268814    0.683704    11.00000   -1.20000
AFIX   0
C21   1    0.722379    0.749062    0.537390    11.00000    0.04947    0.03348 =
         0.05059    0.00269   -0.00828    0.02261
AFIX  43
H21   2    0.733638    0.783309    0.549440    11.00000   -1.20000
AFIX   0
C22   1    0.687891    0.703440    0.503971    11.00000    0.05946    0.06701 =
         0.03615    0.02421   -0.00130    0.02812
AFIX  43
H22   2    0.672185    0.702478    0.490318    11.00000   -1.20000
AFIX   0
C23   1    0.375509    0.403541    0.670606    11.00000    0.03357    0.07194 =
         0.04072   -0.03077   -0.00112    0.02253
AFIX  43
H23   2    0.341557    0.429061    0.676852    11.00000   -1.20000
AFIX   0
C24   1    0.477411    0.664177    0.531801    11.00000    0.06078    0.05909 =
         0.07766    0.01949    0.00154    0.04392
AFIX  43
H24   2    0.477292    0.721502    0.530626    11.00000   -1.20000
AFIX   0
C25   1    0.457952    0.597981    0.516007    11.00000    0.05170    0.07134 =
         0.05594    0.01957   -0.01367    0.03457
AFIX  43
H25   2    0.442627    0.604298    0.502665    11.00000   -1.20000
AFIX   0
C26   1    0.701980    0.774299    0.518056    11.00000    0.05873    0.04109 =
         0.07113    0.02401   -0.00620    0.02182
AFIX  43
H26   2    0.698565    0.828943    0.515237    11.00000   -1.20000
AFIX  66

C31   1    0.175503    0.283619    0.577246    11.00000    0.09733    0.07958 =
         0.12339   -0.01980   -0.06414    0.03443
AFIX  43
H31   2    0.181696    0.339744    0.582605    11.00000   -1.20000
AFIX  65
C30   1    0.103405    0.195530    0.584202    11.00000    0.08990    0.07929 =
         0.08651   -0.02720   -0.03254    0.04320
AFIX  43
H30   2    0.061360    0.192717    0.594215    11.00000   -1.20000
AFIX  65
C1    1    0.094148    0.111644    0.576193    11.00000    0.06776    0.07097 =
         0.08116   -0.01066   -0.01021    0.03661
C28   1    0.156989    0.115847    0.561227    11.00000    0.10228    0.08495 =
         0.15340    0.02937    0.04820    0.06332
AFIX  43
H28   2    0.150795    0.059721    0.555868    11.00000   -1.20000
AFIX  65
C29   1    0.229087    0.203936    0.554271    11.00000    0.09077    0.11542 =
         0.18608    0.05981    0.04744    0.07164
AFIX  43
H29   2    0.271131    0.206747    0.544258    11.00000   -1.20000
AFIX  65
C27   1    0.238345    0.287822    0.562280    11.00000    0.06213    0.09433 =
         0.16547    0.02604   -0.02619    0.03708
AFIX  43
H27   2    0.286583    0.346759    0.557626    11.00000   -1.20000
AFIX   0
P1    7    0.000000    0.000000    0.584690    10.33333    0.06906
C32   1    0.000000    0.000000    0.645525    10.33333    0.15954    0.15954 =
         0.06294    0.00000    0.00000    0.07977
C35   1   -0.040385   -0.032129    0.619206    11.00000    0.06152    0.15615 =
         0.40033   -0.12810   -0.00369    0.03997
HKLF 4




REM  hy_a.res in R-3
REM R1 =  0.0241 for    7040 Fo > 4sig(Fo)  and  0.0259 for all    7492 data
REM    409 parameters refined using      0 restraints

END

WGHT      0.0366     67.2183

REM Highest difference peak  3.452,  deepest hole -1.891,  1-sigma level  0.097
Q1    1   0.0000  0.0000  0.5000  10.16667  0.05    3.45
Q2    1   0.0709  0.0511  0.5109  11.00000  0.05    0.68
Q3    1   0.6599  0.2781  0.5590  11.00000  0.05    0.56
Q4    1   0.5137  0.3745  0.5591  11.00000  0.05    0.53
Q5    1   0.1832  0.2255  0.5689  11.00000  0.05    0.52
Q6    1   0.3545  0.3681  0.6369  11.00000  0.05    0.52
Q7    1   0.5766  0.6031  0.5200  11.00000  0.05    0.52
Q8    1   0.6535  0.2961  0.6151  11.00000  0.05    0.47
Q9    1   0.5785  0.3138  0.6203  11.00000  0.05    0.44
Q10   1   0.7554  0.5185  0.5579  11.00000  0.05    0.42
Q11   1   0.5613  0.3630  0.5638  11.00000  0.05    0.41
Q12   1   0.7029  0.4439  0.5792  11.00000  0.05    0.41
Q13   1   0.6538  0.6467  0.5996  11.00000  0.05    0.41
Q14   1   0.4525  0.2873  0.5817  11.00000  0.05    0.39
Q15   1   0.6832  0.3110  0.6063  11.00000  0.05    0.39
Q16   1   0.3354  0.2466  0.6095  11.00000  0.05    0.38
Q17   1   0.7020  0.3193  0.5528  11.00000  0.05    0.38
Q18   1   0.5906  0.3846  0.5827  11.00000  0.05    0.37
Q19   1   0.7030  0.6373  0.5257  11.00000  0.05    0.37
Q20   1   0.3333  0.6667  0.5939  10.33333  0.05    0.36
Q21   1   0.6432  0.4542  0.5955  11.00000  0.05    0.35
Q22   1   0.5113  0.3884  0.6443  11.00000  0.05    0.35
Q23   1   0.5479  0.4793  0.6215  11.00000  0.05    0.34
Q24   1   0.5567  0.2872  0.5629  11.00000  0.05    0.34
Q25   1   0.6970  0.6267  0.6080  11.00000  0.05    0.33
Q26   1   0.6492  0.3884  0.5975  11.00000  0.05    0.32
Q27   1   0.5769  0.4687  0.6149  11.00000  0.05    0.32
Q28   1   0.5792  0.3449  0.5779  11.00000  0.05    0.31
Q29   1   0.5652  0.4196  0.5534  11.00000  0.05    0.31
Q30   1   0.7135  0.6774  0.5088  11.00000  0.05    0.31
Q31   1   0.7220  0.6302  0.5427  11.00000  0.05    0.31
Q32   1   0.2370  0.5019  0.6394  11.00000  0.05    0.31
Q33   1   0.4419  0.5375  0.6134  11.00000  0.05    0.31
Q34   1   0.6040  0.5262  0.5897  11.00000  0.05    0.30
Q35   1   0.3145  0.3149  0.6338  11.00000  0.05    0.30
Q36   1   0.2728  0.3762  0.5626  11.00000  0.05    0.30
Q37   1   0.4590  0.5180  0.5359  11.00000  0.05    0.30
Q38   1   0.6435  0.6190  0.5914  11.00000  0.05    0.29
Q39   1   0.4568  0.3440  0.6544  11.00000  0.05    0.29
Q40   1   0.2357  0.2583  0.5501  11.00000  0.05    0.29
Q41   1   0.6667  0.3333  0.6430  10.33333  0.05    0.29
Q42   1   0.7218  0.5100  0.5996  11.00000  0.05    0.29
Q43   1   0.3333  0.6667  0.6667  10.16667  0.05    0.29
Q44   1   0.6039  0.5683  0.6044  11.00000  0.05    0.29
Q45   1   0.2207  0.4729  0.6301  11.00000  0.05    0.29
Q46   1   0.3582  0.3520  0.6673  11.00000  0.05    0.28
Q47   1   0.7068  0.5830  0.6030  11.00000  0.05    0.28
Q48   1   0.6673  0.5262  0.5889  11.00000  0.05    0.28
Q49   1   0.3789  0.1184  0.5968  11.00000  0.05    0.28
Q50   1   0.6900  0.4345  0.5923  11.00000  0.05    0.27
Q51   1   0.5927  0.3744  0.6272  11.00000  0.05    0.27
Q52   1   0.3906  0.5487  0.6495  11.00000  0.05    0.27
Q53   1   0.3770  0.6285  0.6692  11.00000  0.05    0.27
Q54   1   0.4781  0.5680  0.5482  11.00000  0.05    0.27
Q55   1   0.6939  0.4868  0.5863  11.00000  0.05    0.27
Q56   1   0.8002  0.5607  0.5523  11.00000  0.05    0.27
Q57   1   0.5192  0.4033  0.5412  11.00000  0.05    0.27
Q58   1   0.3109  0.3403  0.6505  11.00000  0.05    0.26
Q59   1   0.2983  0.5935  0.6772  11.00000  0.05    0.26
Q60   1   0.6734  0.5976  0.5885  11.00000  0.05    0.26
Q61   1   0.4696  0.5882  0.6086  11.00000  0.05    0.26
Q62   1   0.4482  0.3896  0.6455  11.00000  0.05    0.26
Q63   1   0.4559  0.5440  0.6028  11.00000  0.05    0.26
Q64   1   0.3982  0.4090  0.6552  11.00000  0.05    0.26
Q65   1   0.6989  0.6789  0.5359  11.00000  0.05    0.26
Q66   1   0.5985  0.4676  0.5876  11.00000  0.05    0.25
Q67   1   0.3814  0.5981  0.6641  11.00000  0.05    0.25
Q68   1   0.4944  0.2975  0.5609  11.00000  0.05    0.25
Q69   1   0.2901  0.2397  0.6223  11.00000  0.05    0.25
Q70   1   0.2661  0.5121  0.6530  11.00000  0.05    0.25
Q71   1   0.4999  0.5147  0.5509  11.00000  0.05    0.24
Q72   1   0.5338  0.5090  0.5690  11.00000  0.05    0.24
Q73   1   0.0260  0.0654  0.5775  11.00000  0.05    0.24
Q74   1   0.7264  0.3722  0.5294  11.00000  0.05    0.24
Q75   1   0.6655  0.6879  0.5329  11.00000  0.05    0.24
Q76   1   0.4627  0.3202  0.5727  11.00000  0.05    0.24
Q77   1   0.5606  0.2570  0.6103  11.00000  0.05    0.24
Q78   1   0.5796  0.5194  0.6358  11.00000  0.05    0.24
Q79   1   0.2138  0.2930  0.6303  11.00000  0.05    0.24
Q80   1   0.4095  0.3486  0.5821  11.00000  0.05    0.23
Q81   1   0.6290  0.5391  0.6146  11.00000  0.05    0.23
Q82   1   0.3464  0.5133  0.6997  11.00000  0.05    0.23
Q83   1   0.3016  0.5233  0.6258  11.00000  0.05    0.23
Q84   1   0.3199  0.5596  0.6612  11.00000  0.05    0.23
Q85   1   0.3490  0.5559  0.6586  11.00000  0.05    0.23
Q86   1   0.3164  0.5247  0.5970  11.00000  0.05    0.22
Q87   1   0.6051  0.3779  0.6101  11.00000  0.05    0.22
Q88   1   0.3189  0.5202  0.6408  11.00000  0.05    0.22
Q89   1   0.1507  0.1067  0.5799  11.00000  0.05    0.22
Q90   1   0.3910  0.5400  0.6030  11.00000  0.05    0.22
Q91   1   0.3322  0.4539  0.6726  11.00000  0.05    0.22
Q92   1   0.4567  0.2447  0.5690  11.00000  0.05    0.22
Q93   1   0.7042  0.5873  0.5735  11.00000  0.05    0.22
Q94   1   0.2627  0.5476  0.6338  11.00000  0.05    0.22
Q95   1   0.7260  0.5714  0.5873  11.00000  0.05    0.22
Q96   1   0.6277  0.3989  0.5716  11.00000  0.05    0.22
Q97   1   0.5124  0.6444  0.5229  11.00000  0.05    0.22
Q98   1   0.4796  0.4246  0.6531  11.00000  0.05    0.22
Q99   1   0.3151  0.3071  0.6167  11.00000  0.05    0.22
;
_shelx_res_checksum              13913
_shelx_fab_file
;
0 0 9 -67.5432 0.2358
0 0 12 21.6539 16.9741
0 0 15 42.4630 9.1515
0 0 18 -5.7799 -7.8700
0 0 21 -27.2871 15.4067
0 0 24 -3.3983 35.7464
0 0 27 17.8791 -14.9462
0 0 30 -0.4751 -32.8796
0 0 33 -9.8596 3.8268
0 0 36 -10.6975 2.9635
0 0 39 9.6821 -28.5491
0 0 42 4.5159 -15.4204
0 0 45 -2.6979 17.7181
0 0 48 -4.6541 -5.2440
0 0 51 5.0326 -10.4710
0 0 54 3.6617 15.7095
0 0 57 0.4861 10.0843
0 0 60 -3.6818 1.4078
0 0 63 1.3151 17.2195
0 0 66 2.2654 21.4090
0 0 69 0.3556 -18.6014
0 0 72 -4.2595 -16.4539
0 0 75 4.1119 12.9861
0 0 78 2.6035 3.5757
0 0 81 -0.0108 -17.9405
0 0 84 -2.2769 -12.6107
0 1 -85 0.1390 2.3111
0 1 -82 -1.6440 17.0328
0 1 -79 1.2446 1.7689
0 1 -76 1.5448 -14.5152
0 1 -73 -1.1684 4.2235
0 1 -70 -2.7361 20.5695
0 1 -67 4.1896 -0.5699
0 1 -64 1.3949 -20.0404
0 1 -61 -1.2724 -3.1057
0 1 -58 -2.2763 -6.6901
0 1 -55 1.8147 -14.0842
0 1 -52 2.6840 3.5666
0 1 -49 0.0033 8.6155
0 1 -46 -6.1496 -11.7703
0 1 -43 3.8630 -4.6364
0 1 -40 4.9300 26.5040
0 1 -37 0.2749 7.8749
0 1 -34 -14.9032 -9.8227
0 1 -31 -2.6022 18.1996
0 1 -28 9.2229 23.3585
0 1 -25 7.9693 -12.2894
0 1 -22 -26.0192 -22.6590
0 1 -19 -23.0667 3.2873
0 1 -16 29.1920 -4.8658
0 1 -13 34.6405 -15.7053
0 1 -10 -36.7643 -0.2257
0 1 -7 -74.9123 -3.9172
0 1 -4 33.1691 -28.3174
0 1 -1 144.7380 -14.8980
0 1 5 -16.7098 21.3803
0 1 8 -73.6924 -1.2798
0 1 11 -16.8279 7.2098
0 1 14 43.5110 15.4092
0 1 17 10.6649 -2.2203
0 1 20 -27.3012 7.2213
0 1 23 -10.2475 24.2283
0 1 26 10.5470 0.8736
0 1 29 7.5641 -29.7722
0 1 32 -14.1829 -4.4684
0 1 35 -8.9699 11.3164
0 1 38 -0.4847 -19.7253
0 1 41 9.5312 -19.5450
0 1 44 -2.4722 7.3482
0 1 47 -3.6991 5.7449
0 1 50 0.7661 -10.9204
0 1 53 4.8136 5.4793
0 1 56 0.4107 14.6552
0 1 59 -0.7899 -0.7066
0 1 62 -1.9244 11.2151
0 1 65 3.1357 16.4882
0 1 68 -0.2796 -6.0705
0 1 71 -2.4712 -18.6376
0 1 74 -1.0585 6.2820
0 1 77 3.3190 12.8462
0 1 80 -0.1587 -12.7418
0 1 83 0.3228 -13.4032
0 2 -83 1.3141 4.9476
0 2 -80 -0.3559 5.0528
0 2 -77 0.3336 -4.9613
0 2 -74 -1.1860 -4.0283
0 2 -71 -2.3188 10.2542
0 2 -68 2.3742 8.7002
0 2 -65 1.5596 -3.1116
0 2 -62 -1.4620 -5.4441
0 2 -59 -2.1936 -3.0147
0 2 -56 -0.7626 -3.5175
0 2 -53 0.5270 0.2543
0 2 -50 -1.1703 4.0890
0 2 -47 -2.9130 -10.8794
0 2 -44 -2.2189 -12.9998
0 2 -41 5.0899 9.1970
0 2 -38 1.0279 14.0916
0 2 -35 -4.2376 -2.2820
0 2 -32 -12.1526 -4.5484
0 2 -29 0.5138 10.1456
0 2 -26 3.5844 7.4343
0 2 -23 -18.2769 1.0252
0 2 -20 -32.7766 2.0721
0 2 -17 9.6592 -5.0412
0 2 -14 40.6752 -10.1418
0 2 -11 -12.5045 0.6637
0 2 -8 -58.5788 4.1589
0 2 -5 -11.1385 -14.8598
0 2 -2 104.0551 -19.0479
0 2 1 127.2687 3.1501
0 2 4 49.2978 13.6738
0 2 7 -56.1594 2.0545
0 2 10 -43.5550 -1.9500
0 2 13 15.7385 4.1078
0 2 16 26.8784 7.6787
0 2 19 -13.7203 8.4627
0 2 22 -18.7097 11.3923
0 2 25 2.6719 0.6346
0 2 28 -0.9616 -11.8585
0 2 31 -9.7249 -0.5915
0 2 34 -12.5486 5.8239
0 2 37 -0.5571 -8.2221
0 2 40 3.7850 -18.6144
0 2 43 1.5895 -2.2881
0 2 46 -4.7784 7.3375
0 2 49 0.6413 -0.8038
0 2 52 3.4360 -0.7538
0 2 55 1.7611 0.5334
0 2 58 -1.8644 2.5895
0 2 61 -1.8706 7.8563
0 2 64 -2.2292 11.6884
0 2 67 0.7327 0.3434
0 2 70 -0.7211 -11.0114
0 2 73 -0.5292 0.4497
0 2 76 0.0057 6.4887
0 2 79 -0.6028 -1.5271
0 2 82 1.1333 -10.3439
0 3 -84 2.3107 -1.8945
0 3 -81 -0.3571 2.3381
0 3 -78 -0.6248 -2.1525
0 3 -75 -1.4020 -0.4666
0 3 -72 -0.2223 -0.1198
0 3 -69 0.0941 7.9851
0 3 -66 3.1597 10.1654
0 3 -63 -1.6181 1.1725
0 3 -60 -0.3686 -2.9932
0 3 -57 -2.0567 -0.2626
0 3 -54 -1.1944 5.6627
0 3 -51 -2.8536 -3.5632
0 3 -48 -3.2543 -10.4416
0 3 -45 -1.6888 -10.9499
0 3 -42 1.0443 -4.2983
0 3 -39 1.0165 5.6233
0 3 -36 -1.0024 0.7817
0 3 -33 -6.8700 -3.8711
0 3 -30 -3.6980 -5.1715
0 3 -27 0.1489 10.1396
0 3 -24 -11.6703 20.1422
0 3 -21 -30.0190 8.5451
0 3 -18 -8.5677 -4.4322
0 3 -15 23.5168 -6.2958
0 3 -12 10.9025 4.8937
0 3 -9 -27.8881 3.0309
0 3 -6 -15.0627 -6.9084
0 3 -3 44.2898 -11.8335
0 3 0 92.0553 -9.7760
0 3 3 61.1928 -2.7870
0 3 6 -9.5618 2.6072
0 3 9 -46.7940 -2.3808
0 3 12 -9.6462 -3.6229
0 3 15 22.3330 6.1168
0 3 18 8.2173 16.6706
0 3 21 -9.4477 7.1718
0 3 24 -7.9031 -5.5604
0 3 27 -4.1875 1.3920
0 3 30 -11.8581 4.8957
0 3 33 -9.7377 3.8066
0 3 36 -3.4431 -6.6064
0 3 39 2.2197 -10.0651
0 3 42 2.1180 -8.7448
0 3 45 -3.2921 -1.9427
0 3 48 -1.4354 6.1845
0 3 51 3.2054 -2.6098
0 3 54 1.7963 -6.2529
0 3 57 -0.7122 0.5543
0 3 60 -2.3589 10.2941
0 3 63 -2.8818 7.7061
0 3 66 -2.8597 -1.6997
0 3 69 -0.2344 0.8749
0 3 72 1.0399 -0.8441
0 3 75 -0.9369 3.7934
0 3 78 -1.4525 -1.6216
0 3 81 -0.0969 -5.1472
0 3 84 2.5578 -3.1302
0 4 -82 1.2281 -1.2360
0 4 -79 -1.5076 0.0128
0 4 -76 0.4114 -0.0161
0 4 -73 0.7693 4.7578
0 4 -70 2.0707 4.2758
0 4 -67 -0.0628 8.6414
0 4 -64 1.5783 2.3605
0 4 -61 -0.7909 -4.7190
0 4 -58 0.4585 4.2766
0 4 -55 -1.2071 6.1270
0 4 -52 -1.5335 -5.2761
0 4 -49 -4.6797 -15.0963
0 4 -46 -2.1804 -6.8158
0 4 -43 -1.1732 0.0368
0 4 -40 0.9304 -2.7571
0 4 -37 -3.4846 0.6061
0 4 -34 2.0957 -2.6301
0 4 -31 -2.8005 -1.3510
0 4 -28 1.6527 7.6667
0 4 -25 -13.2722 18.4179
0 4 -22 -12.5446 9.3473
0 4 -19 -10.8999 -5.5951
0 4 -16 7.9540 2.1702
0 4 -13 8.3143 6.6030
0 4 -10 1.7718 -2.8522
0 4 -7 -2.1428 -11.2541
0 4 -4 13.8161 -6.4272
0 4 -1 38.9242 -5.2230
0 4 2 32.0546 -7.9483
0 4 5 5.2855 -2.8420
0 4 8 -24.1373 -1.1842
0 4 11 -11.4308 -4.3889
0 4 14 5.7133 9.0267
0 4 17 19.5493 17.7202
0 4 20 1.8910 4.1608
0 4 23 -3.2785 -5.9502
0 4 26 -7.6822 3.9502
0 4 29 -5.2702 12.3005
0 4 32 -7.8131 -1.7909
0 4 35 -4.2610 -7.7183
0 4 38 0.1761 -8.0722
0 4 41 0.5329 -8.4753
0 4 44 -0.5085 -2.3613
0 4 47 -2.6607 2.0545
0 4 50 1.1964 -2.3694
0 4 53 1.6993 -9.7479
0 4 56 -0.1559 2.7905
0 4 59 -0.3586 12.8427
0 4 62 -1.2973 2.9542
0 4 65 -3.4627 -1.0218
0 4 68 -3.2007 1.8376
0 4 71 -0.8140 6.6576
0 4 74 0.9680 1.7383
0 4 77 -1.0581 -0.5650
0 4 80 0.0386 -7.0567
0 4 83 0.8967 -6.7995
0 5 -80 -0.3680 -1.3153
0 5 -77 -0.2209 -0.6663
0 5 -74 3.6843 4.1010
0 5 -71 1.9443 8.7158
0 5 -68 -0.1055 4.6529
0 5 -65 -0.9481 -2.4680
0 5 -62 1.0855 -5.1043
0 5 -59 1.6457 4.2641
0 5 -56 1.7192 6.1833
0 5 -53 0.3014 -8.4215
0 5 -50 -3.2499 -14.9385
0 5 -47 -4.1022 -4.2212
0 5 -44 0.3087 4.0300
0 5 -41 -2.8115 2.1416
0 5 -38 -1.9740 -3.2909
0 5 -35 -4.5868 -2.8909
0 5 -32 6.2493 2.1127
0 5 -29 -3.7162 14.3850
0 5 -26 0.1676 15.0750
0 5 -23 -6.9751 -0.4340
0 5 -20 7.1335 -7.2444
0 5 -17 -5.9430 3.6638
0 5 -14 -0.8919 8.4282
0 5 -11 2.0432 -6.7257
0 5 -8 12.2407 -16.3213
0 5 -5 13.5021 -8.8519
0 5 -2 12.4302 -0.6322
0 5 1 6.6191 -0.6367
0 5 4 -18.1644 -2.4270
0 5 7 -11.2898 -5.4520
0 5 10 -9.3150 -0.5411
0 5 13 12.8989 15.4001
0 5 16 8.9924 18.4055
0 5 19 14.2235 -0.0697
0 5 22 -5.2696 -8.2591
0 5 25 -2.8858 5.9569
0 5 28 -3.6854 10.7894
0 5 31 -0.1178 -1.3642
0 5 34 -1.8033 -11.8742
0 5 37 -1.3336 -12.8352
0 5 40 -1.6345 -6.3846
0 5 43 -1.8328 1.9896
0 5 46 0.0699 4.0807
0 5 49 0.6668 -7.4972
0 5 52 -0.6331 -8.7990
0 5 55 -2.1651 6.6999
0 5 58 -0.6040 13.7504
0 5 61 0.4466 5.2586
0 5 64 -0.2940 -3.2394
0 5 67 -2.0935 0.9377
0 5 70 -1.1188 2.1333
0 5 73 -0.3448 1.7160
0 5 76 0.4000 0.5647
0 5 79 -1.8887 -5.3172
0 6 -78 1.6835 -1.3880
0 6 -75 2.2223 4.0077
0 6 -72 2.7522 9.2246
0 6 -69 0.5407 3.5168
0 6 -66 -1.1801 -5.7908
0 6 -63 -1.6168 -3.9856
0 6 -60 -0.2774 4.9345
0 6 -57 2.7867 3.3027
0 6 -54 1.6039 -8.7439
0 6 -51 -0.1321 -11.4028
0 6 -48 -2.4879 -4.8467
0 6 -45 -1.1504 2.1639
0 6 -42 -0.2971 3.0259
0 6 -39 -4.5483 0.1129
0 6 -36 -0.3297 -2.0860
0 6 -33 -0.9570 4.6206
0 6 -30 1.3620 15.5978
0 6 -27 -6.2025 10.0128
0 6 -24 5.1329 -4.7379
0 6 -21 3.4850 -4.8628
0 6 -18 5.7775 5.7590
0 6 -15 -6.4464 4.4006
0 6 -12 3.5033 -9.1239
0 6 -9 4.2006 -14.8006
0 6 -6 8.9903 -10.0991
0 6 -3 8.3562 -0.4731
0 6 0 -0.6258 5.5052
0 6 3 -13.1385 -1.4246
0 6 6 -22.8987 -8.3057
0 6 9 -1.7509 1.0066
0 6 12 2.9993 18.6532
0 6 15 13.9421 16.4971
0 6 18 3.2745 -2.5262
0 6 21 4.1569 -5.8526
0 6 24 -5.8380 3.5874
0 6 27 -1.8549 6.9694
0 6 30 -0.6186 0.4674
0 6 33 2.2025 -10.0748
0 6 36 1.6973 -14.1733
0 6 39 -2.2932 -7.9475
0 6 42 -3.7257 4.8986
0 6 45 -1.1338 2.2910
0 6 48 2.4137 -7.6960
0 6 51 -0.4763 -3.2132
0 6 54 -3.8487 8.5217
0 6 57 -0.5001 9.8419
0 6 60 1.5033 2.2575
0 6 63 -1.9368 -0.9742
0 6 66 -1.0320 1.4592
0 6 69 -1.6637 2.1075
0 6 72 -0.0334 2.0172
0 6 75 0.3789 -1.9401
0 6 78 0.7784 -3.1986
0 7 -76 0.7428 4.5498
0 7 -73 -2.9888 8.0540
0 7 -70 0.1765 -0.0871
0 7 -67 2.1633 -6.3329
0 7 -64 -0.7942 2.0975
0 7 -61 0.4721 8.0785
0 7 -58 1.9004 -0.7838
0 7 -55 1.4708 -9.6667
0 7 -52 -1.5947 -6.7833
0 7 -49 -1.9696 -2.3227
0 7 -46 -0.6408 -1.1525
0 7 -43 1.3639 0.2958
0 7 -40 1.1901 -3.6989
0 7 -37 -1.1735 -4.6109
0 7 -34 -0.5469 8.6045
0 7 -31 -2.0424 14.7637
0 7 -28 -1.1324 3.5032
0 7 -25 3.0570 -6.5029
0 7 -22 4.1505 4.0471
0 7 -19 -1.3265 11.9779
0 7 -16 -1.0779 0.9750
0 7 -13 1.5891 -9.8970
0 7 -10 2.0965 -12.0010
0 7 -7 -0.6105 -7.9140
0 7 -4 4.1759 0.2048
0 7 -1 5.6702 4.2212
0 7 2 -1.4223 -5.7425
0 7 5 -9.2644 -12.6786
0 7 8 -11.0422 5.3294
0 7 11 -0.7205 19.1745
0 7 14 0.7995 8.4515
0 7 17 2.9644 -3.7207
0 7 20 1.0929 0.4051
0 7 23 2.7342 6.4552
0 7 26 -1.7194 4.1076
0 7 29 -2.7123 -0.3337
0 7 32 1.2434 -7.6852
0 7 35 0.9000 -12.9078
0 7 38 0.1824 -3.1101
0 7 41 -4.6139 5.3686
0 7 44 -1.3939 -3.9711
0 7 47 2.0331 -10.6814
0 7 50 2.0850 1.2364
0 7 53 -3.9319 11.0739
0 7 56 -1.2466 5.6379
0 7 59 1.6292 0.0496
0 7 62 -2.5862 2.2333
0 7 65 -5.1556 1.2076
0 7 68 -0.2237 5.0315
0 7 71 -1.8079 0.6614
0 7 74 0.6632 -5.0285
0 7 77 0.3130 -5.4837
0 8 -74 -4.9281 7.3534
0 8 -71 -3.7650 0.6976
0 8 -68 1.0912 -5.1298
0 8 -65 1.2259 4.7561
0 8 -62 0.0708 9.7363
0 8 -59 5.3474 -2.8357
0 8 -56 2.6686 -10.0517
0 8 -53 -0.3727 -4.0870
0 8 -50 -2.1955 -0.2916
0 8 -47 -2.3920 -1.5327
0 8 -44 0.9525 -1.8798
0 8 -41 4.2365 -7.6584
0 8 -38 2.1850 -7.7145
0 8 -35 0.0680 8.7708
0 8 -32 0.1310 15.8717
0 8 -29 3.3030 -1.7452
0 8 -26 -0.2591 -7.3656
0 8 -23 0.9880 8.0873
0 8 -20 -6.8085 15.1124
0 8 -17 -0.8060 2.8313
0 8 -14 2.7133 -7.7712
0 8 -11 4.7618 -9.3612
0 8 -8 -4.7029 -7.0029
0 8 -5 -2.2273 1.9515
0 8 -2 1.3471 3.6673
0 8 1 3.0675 -11.8620
0 8 4 1.8843 -15.5346
0 8 7 -2.0012 6.1955
0 8 10 -2.7331 17.9911
0 8 13 -1.6428 1.9009
0 8 16 -1.5679 -5.4089
0 8 19 -3.0045 4.6833
0 8 22 0.3574 10.1592
0 8 25 0.3250 6.1738
0 8 28 -0.3286 1.1162
0 8 31 -0.0793 -7.9509
0 8 34 4.0490 -10.9333
0 8 37 -0.3367 1.3930
0 8 40 -0.5230 5.1576
0 8 43 -3.3193 -8.6332
0 8 46 0.2834 -13.3566
0 8 49 -1.4218 2.6985
0 8 52 -2.3852 11.1050
0 8 55 -3.0361 1.9433
0 8 58 2.1120 0.0179
0 8 61 -0.5556 0.3530
0 8 64 -4.6708 2.7693
0 8 67 -4.0098 5.5417
0 8 70 -1.5276 6.6610
0 8 73 -3.5229 -4.7404
0 8 76 0.3778 -7.7182
0 9 -72 -2.2692 -0.5963
0 9 -69 3.3293 -0.9116
0 9 -66 0.4080 6.0260
0 9 -63 0.6264 6.3124
0 9 -60 2.7773 -2.6306
0 9 -57 5.7267 -7.8583
0 9 -54 -0.0748 -3.5145
0 9 -51 -1.0425 0.0347
0 9 -48 -2.2006 -0.0478
0 9 -45 -0.4904 -3.3423
0 9 -42 3.1975 -8.6715
0 9 -39 3.8630 -4.9660
0 9 -36 -1.1633 9.5435
0 9 -33 3.1324 10.8621
0 9 -30 4.4768 -3.1408
0 9 -27 4.3362 -3.8115
0 9 -24 -5.0450 9.7747
0 9 -21 -2.7484 11.0181
0 9 -18 -6.3388 1.8049
0 9 -15 2.9428 -4.9102
0 9 -12 -0.5459 -8.0163
0 9 -9 -2.7417 -5.9075
0 9 -6 -4.8046 2.8583
0 9 -3 2.4372 0.6024
0 9 0 2.5593 -14.1093
0 9 3 1.2997 -12.1038
0 9 6 -0.7036 8.1875
0 9 9 -4.9164 12.8203
0 9 12 -0.9217 -0.2632
0 9 15 1.6836 -2.8070
0 9 18 0.1037 6.3276
0 9 21 -3.0202 8.4173
0 9 24 1.3346 7.3033
0 9 27 0.7183 2.1422
0 9 30 1.0228 -8.1082
0 9 33 1.0591 -7.8762
0 9 36 0.8627 3.1176
0 9 39 -2.7354 2.4600
0 9 42 0.7027 -11.4411
0 9 45 -1.6570 -10.9150
0 9 48 -2.4729 3.9301
0 9 51 -2.1827 6.2476
0 9 54 -0.8339 0.9801
0 9 57 -1.9799 -1.0677
0 9 60 -1.0502 3.9849
0 9 63 -4.3204 3.5653
0 9 66 -5.0088 5.5469
0 9 69 -2.2183 4.5682
0 9 72 -0.1359 -4.9368
0 10 -70 2.8712 2.5495
0 10 -67 4.3243 6.4305
0 10 -64 -1.1851 3.0204
0 10 -61 1.4795 -5.1993
0 10 -58 3.1266 -4.4045
0 10 -55 0.8904 -2.2354
0 10 -52 -3.3253 0.0842
0 10 -49 -1.3781 1.0630
0 10 -46 -0.2566 -5.8570
0 10 -43 2.0649 -10.5363
0 10 -40 0.7089 0.8298
0 10 -37 -0.0123 14.7385
0 10 -34 -1.5207 7.4907
0 10 -31 6.1910 -5.8161
0 10 -28 2.1166 0.3223
0 10 -25 -0.4670 11.4728
0 10 -22 -7.1665 7.8622
0 10 -19 -1.9068 -1.2885
0 10 -16 -0.8998 -6.3646
0 10 -13 2.8816 -9.7772
0 10 -10 -5.0239 -3.8206
0 10 -7 -6.4857 4.0880
0 10 -4 -1.5788 -3.5739
0 10 -1 2.5589 -15.5124
0 10 2 1.8713 -5.0092
0 10 5 -2.8485 12.7410
0 10 8 -5.2962 8.5752
0 10 11 -2.2816 -2.4047
0 10 14 6.0709 1.2751
0 10 17 1.9774 7.8707
0 10 20 -4.1928 7.2994
0 10 23 -3.4816 4.7874
0 10 26 3.2038 -1.6307
0 10 29 1.8769 -9.3330
0 10 32 2.3619 -4.4898
0 10 35 -1.3016 5.4567
0 10 38 -3.3965 -2.1052
0 10 41 -0.0567 -13.5596
0 10 44 0.3306 -5.9938
0 10 47 -5.5554 5.6452
0 10 50 -4.3069 6.8859
0 10 53 1.3335 -1.0421
0 10 56 0.0164 -1.3133
0 10 59 -0.3391 1.5542
0 10 62 0.2361 5.0210
0 10 65 -4.2703 6.1427
0 10 68 -3.8070 0.0489
0 10 71 -1.5475 -2.7038
0 11 -65 -1.0530 2.2535
0 11 -62 -3.6494 -2.2807
0 11 -59 -0.5017 -4.2474
0 11 -56 1.8554 -1.6754
0 11 -53 -2.9549 1.2955
0 11 -50 -2.6714 0.5663
0 11 -47 -1.0097 -7.2191
0 11 -44 0.1129 -11.4733
0 11 -41 -0.0298 2.9721
0 11 -38 -1.2326 14.2578
0 11 -35 -0.2138 5.7437
0 11 -32 -1.1678 -4.5088
0 11 -29 2.9674 1.6416
0 11 -26 -2.5506 10.5068
0 11 -23 -4.2089 7.4671
0 11 -20 -5.9841 0.4108
0 11 -17 2.0211 -7.6006
0 11 -14 3.9531 -10.1288
0 11 -11 -0.0940 -1.6087
0 11 -8 -8.4329 4.1956
0 11 -5 -6.9778 -7.5069
0 11 -2 1.9137 -15.2564
0 11 1 4.6515 -1.2057
0 11 4 0.1086 12.1091
0 11 7 -6.8652 5.7356
0 11 10 -3.4193 -2.0195
0 11 13 4.4901 2.1526
0 11 16 5.2957 8.3258
0 11 19 -4.9759 9.3436
0 11 22 -5.3616 4.7875
0 11 25 0.0840 -5.8997
0 11 28 5.1261 -10.7713
0 11 31 1.0693 -0.5196
0 11 34 -1.3642 5.3358
0 11 37 -5.0877 -6.1704
0 11 40 -1.2737 -13.4934
0 11 43 3.9906 -4.4812
0 11 46 -3.7194 6.6228
0 11 49 -4.6370 4.9681
0 11 52 0.1348 1.4000
0 11 55 2.6343 -0.8587
0 11 58 -0.1021 0.9516
0 11 61 0.6970 7.8072
0 11 64 0.6116 5.2205
0 11 67 -2.7695 0.4272
0 12 -63 -5.9036 2.5186
0 12 -60 -3.7341 0.0653
0 12 -57 -2.0544 -2.4947
0 12 -54 1.4701 0.1821
0 12 -51 -2.9303 -1.1465
0 12 -48 0.2825 -10.5447
0 12 -45 -1.0737 -7.5903
0 12 -42 -0.5956 4.9932
0 12 -39 -1.2978 8.9691
0 12 -36 -1.3151 -0.7337
0 12 -33 -2.0998 -2.7361
0 12 -30 -0.1783 4.3424
0 12 -27 1.2590 8.1260
0 12 -24 -4.9668 7.2822
0 12 -21 -6.2059 1.1657
0 12 -18 -1.5673 -6.4631
0 12 -15 4.3906 -6.6714
0 12 -12 3.4549 3.1060
0 12 -9 -3.9007 2.0897
0 12 -6 -7.3338 -11.3977
0 12 -3 -0.5457 -11.8332
0 12 0 5.9396 2.2326
0 12 3 1.4353 7.0817
0 12 6 -5.9121 0.6463
0 12 9 -4.3470 -1.5646
0 12 12 4.5004 2.2921
0 12 15 8.1074 6.0689
0 12 18 -0.0606 9.8939
0 12 21 -8.4370 5.3145
0 12 24 -2.2134 -6.9658
0 12 27 2.8047 -7.1998
0 12 30 1.7004 4.7609
0 12 33 -2.5052 3.9259
0 12 36 -3.6570 -9.0315
0 12 39 0.1931 -12.8219
0 12 42 4.6187 -1.2267
0 12 45 4.2612 4.0374
0 12 48 -4.7771 2.3860
0 12 51 -0.2890 -0.2802
0 12 54 1.2484 -1.2175
0 12 57 -1.0300 4.2850
0 12 60 -0.8849 7.0400
0 12 63 1.3410 6.9093
0 13 -58 -1.3527 -1.7767
0 13 -55 0.3219 0.9624
0 13 -52 2.5608 -1.9230
0 13 -49 -0.8250 -9.6427
0 13 -46 1.2159 -6.2947
0 13 -43 -1.3492 6.1189
0 13 -40 -0.2017 3.7627
0 13 -37 -1.2249 -4.9811
0 13 -34 -2.8547 -3.1162
0 13 -31 -1.7769 4.8650
0 13 -28 2.9374 7.9652
0 13 -25 -1.8821 6.4826
0 13 -22 -4.3474 0.2697
0 13 -19 -1.9743 -6.7534
0 13 -16 2.8155 -1.0251
0 13 -13 0.7429 7.3805
0 13 -10 -0.9845 -0.9878
0 13 -7 -5.9126 -14.0109
0 13 -4 -1.3391 -8.2969
0 13 -1 5.7057 5.3299
0 13 2 4.2957 4.1247
0 13 5 -2.5239 -4.1831
0 13 8 -4.6215 -3.8748
0 13 11 2.2354 1.7514
0 13 14 7.4110 7.9416
0 13 17 3.6951 10.3960
0 13 20 -5.9136 2.1161
0 13 23 -4.4799 -7.3938
0 13 26 2.7616 -1.9706
0 13 29 2.3562 9.5767
0 13 32 -2.1433 3.5132
0 13 35 0.4862 -11.0890
0 13 38 0.4412 -10.2322
0 13 41 5.3475 -1.6260
0 13 44 2.6607 3.8427
0 13 47 -1.6160 1.1849
0 13 50 -2.8204 -2.5622
0 13 53 2.8634 -2.4600
0 13 56 0.0352 2.3442
0 13 59 -3.8273 9.8722
0 14 -53 2.4216 -3.2652
0 14 -50 0.4148 -7.1980
0 14 -47 -0.0197 -1.9718
0 14 -44 -0.5854 5.6002
0 14 -41 -0.1710 1.4102
0 14 -38 1.3181 -3.3981
0 14 -35 -1.4899 -1.5154
0 14 -32 -2.6766 3.8859
0 14 -29 0.5943 6.6185
0 14 -26 1.9158 6.2722
0 14 -23 -3.2638 -1.2798
0 14 -20 1.1963 -6.1701
0 14 -17 -0.2019 2.5128
0 14 -14 -0.0467 7.2679
0 14 -11 -3.2781 -4.7420
0 14 -8 -0.3119 -14.5552
0 14 -5 -1.5438 -5.5553
0 14 -2 3.9419 4.6430
0 14 1 4.3728 2.7981
0 14 4 -1.1819 -2.0022
0 14 7 -3.7525 -4.3746
0 14 10 -0.5860 0.4811
0 14 13 5.1383 10.3511
0 14 16 4.6000 11.7188
0 14 19 -0.0583 -0.5821
0 14 22 -3.7698 -8.5510
0 14 25 0.7158 1.5824
0 14 28 0.0122 7.6756
0 14 31 -0.6641 0.3987
0 14 34 -0.1482 -8.4057
0 14 37 5.6497 -5.1381
0 14 40 4.0012 0.2737
0 14 43 3.6552 0.6252
0 14 46 -3.3426 -0.6711
0 14 49 -5.5312 -2.3112
0 14 52 -0.3311 -2.3455
0 15 -48 -0.8548 2.5344
0 15 -45 -0.3792 3.5768
0 15 -42 -2.7508 -0.3774
0 15 -39 0.2368 -3.1459
0 15 -36 0.2790 3.1805
0 15 -33 -1.1472 5.4505
0 15 -30 0.7217 8.7132
0 15 -27 1.0288 4.9269
0 15 -24 0.5933 -3.2807
0 15 -21 -1.6606 -3.8450
0 15 -18 2.0298 4.1613
0 15 -15 -2.2710 4.3741
0 15 -12 0.8653 -8.9906
0 15 -9 0.2248 -11.8760
0 15 -6 1.1567 -2.3913
0 15 -3 -1.2472 2.3504
0 15 0 1.3803 0.1661
0 15 3 1.3037 -1.7004
0 15 6 -0.4604 -1.3875
0 15 9 2.0370 0.9994
0 15 12 0.2021 11.1207
0 15 15 -0.9650 10.8243
0 15 18 -1.5746 -2.2890
0 15 21 -0.5580 -4.5571
0 15 24 -0.8379 4.0471
0 15 27 1.6823 3.7220
0 15 30 -0.4101 -7.4041
0 15 33 0.8436 -8.0079
0 15 36 3.1329 -1.6808
0 15 39 3.9128 3.7328
0 15 42 0.7635 1.5183
0 15 45 -3.6824 -1.1492
0 15 48 -4.4254 -4.0854
0 16 -40 -2.2052 1.1202
0 16 -37 -0.4177 2.6809
0 16 -34 0.0338 6.8231
0 16 -31 -0.3518 8.2746
0 16 -28 1.4111 5.4278
0 16 -25 0.6079 -3.6378
0 16 -22 2.3494 -1.1480
0 16 -19 -1.4157 7.7015
0 16 -16 0.5501 1.2271
0 16 -13 -0.6377 -10.2966
0 16 -10 4.0524 -10.2341
0 16 -7 3.4054 -0.2701
0 16 -4 1.9163 2.8488
0 16 -1 -0.8126 -1.1556
0 16 2 -2.7838 -3.4764
0 16 5 -0.7472 -4.0363
0 16 8 -0.3205 3.4318
0 16 11 1.3455 11.7110
0 16 14 -3.3976 8.0894
0 16 17 -0.6150 -4.0383
0 16 20 -0.5305 -2.4281
0 16 23 -0.5245 5.8275
0 16 26 0.4133 -0.0556
0 16 29 0.4257 -10.0084
0 16 32 -0.9312 -7.3924
0 16 35 0.3550 -0.1783
0 16 38 2.6544 2.5555
0 17 -29 -1.1008 4.5506
0 17 -26 1.9477 -1.9984
0 17 -23 2.0949 0.2379
0 17 -20 2.5240 7.4233
0 17 -17 -0.5185 4.2193
0 17 -14 2.6766 -6.8606
0 17 -11 1.2802 -7.5764
0 17 -8 3.1465 -1.9327
0 17 -5 3.2401 2.2225
0 17 -2 0.2968 2.5013
0 17 1 -1.6041 -3.0435
0 17 4 -1.9347 -6.7860
0 17 7 1.1907 -0.5700
0 17 10 -2.3400 8.5605
0 17 13 -1.5299 4.4899
0 17 16 -2.7382 -4.7145
0 17 19 -0.8865 -0.9533
0 17 22 -1.6706 5.5187
0 17 25 2.1747 -0.7512
0 17 28 3.0051 -7.3697
0 18 -12 1.0895 -1.8220
0 18 -9 0.4575 -1.8412
0 18 -6 2.7907 0.9477
0 18 -3 2.5194 2.2281
0 18 0 -1.2022 -1.3299
0 18 3 -0.9045 -6.1772
0 18 6 -0.8169 -2.9305
0 18 9 -1.2189 4.5455
0 18 12 -1.5244 2.0636
1 1 -84 0.4711 5.3831
1 1 -81 -0.0483 8.9201
1 1 -78 0.7375 -3.4136
1 1 -75 0.8921 -8.7905
1 1 -72 -2.0348 8.6047
1 1 -69 0.9565 11.1865
1 1 -66 2.2599 -6.4107
1 1 -63 -1.1955 -11.3238
1 1 -60 -3.4737 -5.2505
1 1 -57 -1.0662 -4.8596
1 1 -54 -0.1301 -3.3098
1 1 -51 2.5844 5.9652
1 1 -48 -3.2117 -1.8195
1 1 -45 -1.3168 -10.6017
1 1 -42 2.7923 8.6816
1 1 -39 6.0345 19.9023
1 1 -36 -5.3452 2.5843
1 1 -33 -9.3865 -4.3824
1 1 -30 -8.4198 11.1594
1 1 -27 5.2081 7.7163
1 1 -24 -7.7163 -10.5095
1 1 -21 -27.7946 -8.4800
1 1 -18 -5.7541 -3.8886
1 1 -15 40.1088 -9.6405
1 1 -12 10.3099 -5.7472
1 1 -9 -67.4597 3.9583
1 1 -6 -38.7585 -7.9685
1 1 -3 76.2700 -18.5728
1 1 0 147.2009 3.2456
1 1 3 68.7171 23.3799
1 1 6 -30.5191 9.3730
1 1 9 -58.2286 -4.2826
1 1 12 11.5925 6.0884
1 1 15 33.4360 8.3454
1 1 18 -4.2382 0.5451
1 1 21 -29.2059 5.3734
1 1 24 -6.2711 4.9508
1 1 27 10.8435 -14.7168
1 1 30 -6.8566 -11.2501
1 1 33 -10.7000 9.1155
1 1 36 -6.9034 -0.7561
1 1 39 6.2769 -19.4071
1 1 42 1.9827 -4.3052
1 1 45 -3.1694 14.2841
1 1 48 -3.2543 1.9895
1 1 51 3.0430 -3.6479
1 1 54 2.4646 5.7414
1 1 57 -0.2606 2.9819
1 1 60 -2.2165 1.7955
1 1 63 -1.0082 9.4745
1 1 66 0.5685 3.6423
1 1 69 0.1035 -12.9480
1 1 72 -1.8746 -6.4035
1 1 75 0.4999 9.5672
1 1 78 0.4190 1.8793
1 1 81 0.2005 -10.0632
1 1 84 1.4329 -5.8901
1 2 -82 0.0359 4.8119
1 2 -79 -0.7076 2.4253
1 2 -76 0.1448 -4.5202
1 2 -73 -2.4990 -1.1768
1 2 -70 0.5051 2.0793
1 2 -67 1.6563 2.5988
1 2 -64 0.6092 1.4552
1 2 -61 -2.2878 -4.9171
1 2 -58 -1.5850 -3.8977
1 2 -55 -2.5058 1.8280
1 2 -52 -2.8225 4.8183
1 2 -49 -1.8395 -4.1043
1 2 -46 -2.8546 -8.6347
1 2 -43 1.9793 1.6363
1 2 -40 3.6386 8.8550
1 2 -37 0.6655 6.2958
1 2 -34 -5.5798 -1.9151
1 2 -31 -10.6261 -3.6122
1 2 -28 -4.5591 -0.7271
1 2 -25 -4.0841 6.0377
1 2 -22 -24.8438 7.3423
1 2 -19 -16.8286 -5.8149
1 2 -16 22.9063 -11.2581
1 2 -13 24.2892 -2.4032
1 2 -10 -39.4120 6.0198
1 2 -7 -47.3406 -0.7621
1 2 -4 37.3428 -7.7705
1 2 -1 102.3394 -1.9030
1 2 2 86.1748 7.4507
1 2 5 4.2944 6.9591
1 2 8 -32.3332 0.2843
1 2 11 -19.8576 -4.1660
1 2 14 23.2804 0.6959
1 2 17 8.7963 7.1388
1 2 20 -16.3248 6.9732
1 2 23 -12.4542 -3.8935
1 2 26 1.1996 -13.2915
1 2 29 -2.1904 -2.1511
1 2 32 -13.1019 6.8032
1 2 35 -5.5335 1.2804
1 2 38 0.6697 -9.2321
1 2 41 2.4559 -4.3271
1 2 44 -2.0406 5.7915
1 2 47 -3.8910 5.6419
1 2 50 2.6254 3.6048
1 2 53 2.9492 -1.9441
1 2 56 0.7441 -3.4590
1 2 59 -0.8090 3.4623
1 2 62 -2.0304 7.7597
1 2 65 -2.1906 0.3081
1 2 68 -0.9733 -9.1430
1 2 71 0.1368 -3.4264
1 2 74 -0.4325 1.8699
1 2 77 -2.4412 2.9697
1 2 80 0.5545 -2.7680
1 2 83 2.5779 -2.6188
1 3 -83 0.1198 1.7416
1 3 -80 -1.2270 0.4870
1 3 -77 -0.8628 1.9171
1 3 -74 0.4484 0.1505
1 3 -71 -0.3665 -0.0858
1 3 -68 2.6198 0.6307
1 3 -65 -0.5337 5.5492
1 3 -62 0.5842 -0.2474
1 3 -59 -1.1271 -6.1085
1 3 -56 -2.7968 4.9877
1 3 -53 -3.9318 5.3402
1 3 -50 -2.9756 -5.1907
1 3 -47 -3.1904 -9.0408
1 3 -44 0.1011 -0.2636
1 3 -41 -0.2829 2.8260
1 3 -38 2.4606 -1.0781
1 3 -35 -2.8854 3.6437
1 3 -32 -0.7147 -1.7996
1 3 -29 -4.7897 -6.0224
1 3 -26 -4.2347 4.5346
1 3 -23 -18.4218 13.1877
1 3 -20 -18.2772 1.2627
1 3 -17 9.2795 -9.8511
1 3 -14 18.4919 2.9704
1 3 -11 -6.9884 5.9148
1 3 -8 -28.3214 -3.7320
1 3 -5 10.5286 -4.1649
1 3 -2 53.9161 0.7076
1 3 1 50.9013 -2.9277
1 3 4 15.4068 -2.1308
1 3 7 -12.1264 3.3846
1 3 10 -8.4399 -1.0999
1 3 13 5.3189 -6.1958
1 3 16 11.1886 6.3111
1 3 19 1.2675 10.2659
1 3 22 -8.3020 -4.5031
1 3 25 -3.0276 -7.8531
1 3 28 -4.7811 3.2308
1 3 31 -6.3976 8.0934
1 3 34 -5.5266 -3.4472
1 3 37 -0.2763 -3.8358
1 3 40 1.9790 -2.0663
1 3 43 -2.5785 -3.5627
1 3 46 -1.7854 2.0372
1 3 49 -0.6860 5.5351
1 3 52 4.0932 -0.8909
1 3 55 2.0000 -7.7790
1 3 58 1.0962 2.7105
1 3 61 -0.0564 8.4357
1 3 64 -3.6795 -1.8975
1 3 67 -3.7365 -2.2174
1 3 70 -1.0193 1.4773
1 3 73 0.5008 2.1143
1 3 76 -1.0338 -2.2257
1 3 79 -1.1988 -1.7723
1 3 82 3.5213 -2.7198
1 4 -81 -1.6235 2.7611
1 4 -78 -1.1562 0.1244
1 4 -75 0.1259 2.6531
1 4 -72 2.8684 0.8649
1 4 -69 1.0727 2.0340
1 4 -66 -0.4207 1.5278
1 4 -63 0.3115 -1.2375
1 4 -60 2.3487 -2.7414
1 4 -57 -0.2812 4.0230
1 4 -54 -2.9518 4.0138
1 4 -51 -3.7109 -8.4345
1 4 -48 -2.5925 -7.7597
1 4 -45 -2.7539 2.4385
1 4 -42 2.1916 2.8702
1 4 -39 -4.2577 -2.9061
1 4 -36 0.3133 -1.9469
1 4 -33 -2.7687 2.2559
1 4 -30 5.8399 0.0490
1 4 -27 -4.3371 6.0999
1 4 -24 -5.2446 8.3599
1 4 -21 -6.6267 -1.7823
1 4 -18 5.8667 -5.0648
1 4 -15 4.2892 5.1990
1 4 -12 -2.8995 5.8353
1 4 -9 -7.2130 -9.1342
1 4 -6 7.6178 -7.7911
1 4 -3 29.2527 2.7148
1 4 0 21.6207 -1.3488
1 4 3 -4.2874 -5.8753
1 4 6 -17.7456 0.0855
1 4 9 3.1961 -0.0412
1 4 12 5.0150 -0.8221
1 4 15 9.7679 8.5551
1 4 18 2.5419 9.0074
1 4 21 7.3175 -4.6369
1 4 24 -3.6244 -4.6315
1 4 27 -1.0277 8.6172
1 4 30 -4.4678 5.3887
1 4 33 -2.6349 -5.6358
1 4 36 0.9501 -6.1050
1 4 39 -0.6578 -1.5374
1 4 42 -0.7263 -3.3545
1 4 45 -2.2868 -1.3168
1 4 48 0.5752 2.3944
1 4 51 0.9320 -4.0866
1 4 54 1.6702 -4.9153
1 4 57 2.6196 5.5323
1 4 60 0.8170 7.6239
1 4 63 -0.8929 -1.0567
1 4 66 -4.4903 -1.8937
1 4 69 -2.9416 5.6002
1 4 72 0.6477 2.2822
1 4 75 1.4545 -1.8058
1 4 78 -0.3679 -2.5396
1 4 81 0.3025 -3.8649
1 5 -79 -0.9404 -0.4230
1 5 -76 1.6066 1.0804
1 5 -73 1.9934 4.5914
1 5 -70 2.0136 5.7434
1 5 -67 -0.8422 1.3547
1 5 -64 -2.4450 -6.2423
1 5 -61 2.3796 -3.7807
1 5 -58 2.5480 4.3736
1 5 -55 0.2963 2.1067
1 5 -52 -2.3793 -8.0862
1 5 -49 -3.3241 -7.1112
1 5 -46 -0.4815 1.6289
1 5 -43 -1.8971 2.5076
1 5 -40 -1.3071 -0.8377
1 5 -37 -7.2949 -0.4896
1 5 -34 2.1697 1.3913
1 5 -31 2.5587 5.2414
1 5 -28 3.4109 9.4313
1 5 -25 -4.5136 4.7044
1 5 -22 5.4806 -7.0762
1 5 -19 3.5130 -4.4186
1 5 -16 3.9577 5.8672
1 5 -13 -5.8680 3.0244
1 5 -10 2.9761 -9.8210
1 5 -7 3.9102 -10.9171
1 5 -4 18.3563 -0.9348
1 5 -1 12.3120 1.8163
1 5 2 -14.1012 0.2503
1 5 5 -23.2587 -0.3126
1 5 8 -8.2237 -2.2393
1 5 11 19.1868 2.7323
1 5 14 2.5166 12.0868
1 5 17 4.6466 8.0234
1 5 20 -2.8343 -5.8409
1 5 23 6.4473 -3.3425
1 5 26 -0.8663 6.7516
1 5 29 -0.0494 3.6763
1 5 32 0.2015 -5.5717
1 5 35 2.3100 -8.0055
1 5 38 2.3221 -4.7168
1 5 41 -3.6324 -1.4782
1 5 44 -2.1809 2.2550
1 5 47 -0.2375 -0.0340
1 5 50 -1.9150 -5.3310
1 5 53 -0.8978 -1.3212
1 5 56 0.3060 7.4131
1 5 59 4.6625 6.3872
1 5 62 1.6236 -2.0623
1 5 65 -0.8098 -2.4890
1 5 68 -3.1350 2.7971
1 5 71 -2.0916 2.7794
1 5 74 1.1435 0.1883
1 5 77 0.2588 -0.7674
1 6 -77 1.7263 -0.4224
1 6 -74 1.7110 4.0435
1 6 -71 0.3195 4.6553
1 6 -68 0.4420 1.0348
1 6 -65 -2.7938 -3.4115
1 6 -62 -3.8690 -0.7014
1 6 -59 2.8867 2.2185
1 6 -56 2.9735 -1.6924
1 6 -53 -0.1566 -6.6029
1 6 -50 -0.9395 -4.4656
1 6 -47 -1.9077 0.1857
1 6 -44 0.6265 1.2328
1 6 -41 -2.0437 0.4684
1 6 -38 -3.3505 0.2149
1 6 -35 -2.8338 1.2445
1 6 -32 1.4064 5.7832
1 6 -29 -0.8936 7.2048
1 6 -26 -0.7313 1.4620
1 6 -23 4.7015 -3.7956
1 6 -20 7.4179 -0.0400
1 6 -17 -1.7445 3.7437
1 6 -14 3.2312 -2.9925
1 6 -11 -2.1013 -7.7811
1 6 -8 2.2236 -6.6156
1 6 -5 2.5357 -2.5279
1 6 -2 14.2223 1.6390
1 6 1 -1.2145 1.6669
1 6 4 -18.1885 -1.6048
1 6 7 -9.5063 -2.1306
1 6 10 3.5616 5.9923
1 6 13 12.1508 11.0980
1 6 16 -5.2778 3.2034
1 6 19 -1.6429 -3.1011
1 6 22 -0.7825 -0.7127
1 6 25 4.1091 2.7701
1 6 28 -1.5880 0.4459
1 6 31 -1.8300 -3.2564
1 6 34 5.0178 -6.3840
1 6 37 3.3929 -6.8369
1 6 40 -0.4955 -0.0025
1 6 43 -3.9774 3.1217
1 6 46 -1.4915 -2.0945
1 6 49 0.6814 -3.5294
1 6 52 -3.5853 3.1941
1 6 55 -1.5019 6.3593
1 6 58 0.7039 2.8162
1 6 61 1.5966 -0.0342
1 6 64 -1.2782 0.0595
1 6 67 -0.8940 0.9324
1 6 70 1.1004 1.8464
1 6 73 0.6686 -1.9354
1 6 76 1.2663 -3.3791
1 7 -75 -0.6584 4.4376
1 7 -72 -2.0287 3.2305
1 7 -69 2.4637 -3.1868
1 7 -66 1.4672 -1.9172
1 7 -63 -3.0154 4.5934
1 7 -60 -1.6201 2.7613
1 7 -57 1.3686 -5.5045
1 7 -54 0.2320 -4.9339
1 7 -51 -0.5576 -0.8742
1 7 -48 1.5131 -0.9515
1 7 -45 -0.7771 -0.7526
1 7 -42 1.2024 0.0952
1 7 -39 -0.1614 -2.7651
1 7 -36 -2.8409 0.4918
1 7 -33 1.4548 8.4897
1 7 -30 0.3179 5.8094
1 7 -27 0.6939 -4.9873
1 7 -24 -1.5370 -2.3117
1 7 -21 -0.5672 7.2014
1 7 -18 -4.3474 4.5382
1 7 -15 1.8454 -5.4431
1 7 -12 8.6550 -7.2222
1 7 -9 -1.5954 -3.3235
1 7 -6 -2.7471 -1.6205
1 7 -3 3.7520 2.5949
1 7 0 5.8148 1.7898
1 7 3 -3.6437 -6.5041
1 7 6 -6.3396 -2.8578
1 7 9 1.2769 9.7646
1 7 12 3.3665 8.6296
1 7 15 0.4854 -3.7108
1 7 18 -5.2488 -2.8427
1 7 21 -1.2934 4.6543
1 7 24 2.5547 2.4263
1 7 27 -2.2708 -1.4510
1 7 30 -3.9066 -2.0386
1 7 33 -0.2480 -5.1598
1 7 36 5.6658 -4.9377
1 7 39 2.6128 2.9103
1 7 42 -1.0511 2.5883
1 7 45 -2.0577 -5.9910
1 7 48 -1.1377 -3.6329
1 7 51 -1.8025 6.8548
1 7 54 -3.9848 5.8296
1 7 57 -0.4456 -0.6546
1 7 60 0.9119 0.7551
1 7 63 -2.8928 0.4826
1 7 66 -1.9469 0.2931
1 7 69 -0.6847 2.1163
1 7 72 0.5619 0.1325
1 8 -73 -3.3050 3.7217
1 8 -70 0.4085 -3.4193
1 8 -67 4.5754 -2.3002
1 8 -64 0.2749 4.1766
1 8 -61 0.3385 2.0305
1 8 -58 1.4140 -5.2098
1 8 -55 -0.5473 -3.9792
1 8 -52 -0.1287 0.6841
1 8 -49 0.0848 -0.1840
1 8 -46 -0.2933 -0.1549
1 8 -43 0.6338 -0.3692
1 8 -40 3.1176 -4.0675
1 8 -37 1.2288 -1.3846
1 8 -34 -2.4397 7.9829
1 8 -31 5.4732 4.6024
1 8 -28 1.6377 -5.6464
1 8 -25 -0.2711 -2.3803
1 8 -22 -6.2097 7.5245
1 8 -19 -3.6784 4.7526
1 8 -16 -1.9472 -2.6355
1 8 -13 5.5250 -4.2801
1 8 -10 -1.7828 -3.3377
1 8 -7 -6.1370 -1.4648
1 8 -4 -1.0303 2.9806
1 8 -1 6.6316 0.8175
1 8 2 2.4756 -8.5769
1 8 5 0.7622 -4.5619
1 8 8 0.3275 8.8805
1 8 11 -0.7261 6.8735
1 8 14 -0.1666 -3.3447
1 8 17 -4.2084 -2.0829
1 8 20 -1.8848 4.8621
1 8 23 -0.7080 3.0017
1 8 26 2.6653 0.7793
1 8 29 -1.3974 -0.6156
1 8 32 -0.7172 -4.8437
1 8 35 1.9680 -3.1869
1 8 38 1.0840 2.9204
1 8 41 -0.3604 0.7105
1 8 44 -2.0705 -6.8813
1 8 47 -1.8297 -2.5886
1 8 50 -1.7003 6.0029
1 8 53 -2.0994 3.2105
1 8 56 -0.1173 -1.4818
1 8 59 -0.3601 0.4098
1 8 62 -1.9021 2.5590
1 8 65 -4.9030 1.4043
1 8 68 -2.4274 3.6490
1 8 71 -2.1103 0.8489
1 9 -71 2.4704 -2.1755
1 9 -68 2.9867 1.5703
1 9 -65 2.0903 3.6814
1 9 -62 0.4412 -0.9890
1 9 -59 2.3896 -4.1906
1 9 -56 0.3942 -1.6600
1 9 -53 -1.4733 -0.3458
1 9 -50 -0.6155 -0.0373
1 9 -47 -0.0889 0.7529
1 9 -44 -1.0393 -2.1289
1 9 -41 3.1315 -4.4752
1 9 -38 1.2916 2.3939
1 9 -35 0.9365 7.8059
1 9 -32 0.9813 1.0170
1 9 -29 7.6402 -3.7878
1 9 -26 -1.4354 2.4881
1 9 -23 -3.9392 5.0273
1 9 -20 -6.0918 0.5384
1 9 -17 0.2588 -1.7602
1 9 -14 0.1664 -2.3451
1 9 -11 -0.7929 -4.7568
1 9 -8 -8.0692 -1.1365
1 9 -5 -1.1832 2.6102
1 9 -2 3.1885 -2.7179
1 9 1 3.1925 -6.6330
1 9 4 -1.1726 0.6233
1 9 7 -3.1843 6.6854
1 9 10 -0.3551 1.1461
1 9 13 1.4254 -1.3279
1 9 16 5.0239 3.2469
1 9 19 -3.5280 3.4089
1 9 22 -3.2484 1.7739
1 9 25 -2.1845 1.9861
1 9 28 1.3352 -1.2252
1 9 31 0.8117 -4.9772
1 9 34 0.8180 -0.6849
1 9 37 0.7830 2.8089
1 9 40 -1.7768 -3.9765
1 9 43 0.2164 -6.5862
1 9 46 -1.8420 0.5841
1 9 49 -4.2243 4.4006
1 9 52 -2.4478 1.4906
1 9 55 -1.3764 -0.8391
1 9 58 0.2914 1.0948
1 9 61 -0.6583 1.5749
1 9 64 -0.5559 2.3977
1 9 67 -2.3142 2.2671
1 9 70 -2.4870 -1.0084
1 10 -69 4.5614 1.0900
1 10 -66 1.1262 4.8641
1 10 -63 -1.1425 -1.6704
1 10 -60 0.4418 -2.5580
1 10 -57 0.5303 -0.9146
1 10 -54 -1.3608 -0.3021
1 10 -51 -2.1469 0.1328
1 10 -48 -0.5855 0.5511
1 10 -45 0.3497 -4.2596
1 10 -42 -1.5468 -5.3287
1 10 -39 2.3550 5.6639
1 10 -36 -0.4800 9.3381
1 10 -33 1.7121 -0.9195
1 10 -30 1.3823 -3.6706
1 10 -27 3.6137 5.0992
1 10 -24 -4.3098 5.5661
1 10 -21 -3.2666 -1.0185
1 10 -18 -2.4185 -1.7132
1 10 -15 3.4408 -4.0627
1 10 -12 -1.2111 -6.0575
1 10 -9 -6.0687 0.2018
1 10 -6 -7.2812 2.8335
1 10 -3 1.2908 -6.7045
1 10 0 5.8643 -7.1798
1 10 3 1.6604 5.9147
1 10 6 -3.3609 7.8112
1 10 9 -6.8383 -1.4964
1 10 12 2.9422 -1.0773
1 10 15 4.8924 5.3153
1 10 18 2.2489 3.6741
1 10 21 -6.1856 1.4393
1 10 24 -2.2577 1.5857
1 10 27 0.8475 -3.9568
1 10 30 1.7130 -6.0047
1 10 33 0.4517 2.1322
1 10 36 -1.6932 2.7092
1 10 39 -3.0175 -6.8377
1 10 42 -1.3866 -6.9296
1 10 45 -0.7915 2.5816
1 10 48 -3.4438 4.3424
1 10 51 -2.1725 0.2930
1 10 54 1.7041 0.1045
1 10 57 1.1535 -0.1581
1 10 60 0.3755 0.9341
1 10 63 -1.0584 4.9768
1 10 66 -1.3668 4.2802
1 11 -64 -2.7511 2.6260
1 11 -61 -3.0423 0.4479
1 11 -58 1.7264 -0.3651
1 11 -55 -0.6492 -2.8103
1 11 -52 -1.2028 0.1517
1 11 -49 -2.3930 -0.8326
1 11 -46 -0.3504 -6.7027
1 11 -43 -0.5978 -3.3612
1 11 -40 -0.3091 5.4619
1 11 -37 2.0779 7.0286
1 11 -34 -1.8120 -1.2531
1 11 -31 -0.8986 -1.2962
1 11 -28 0.2328 4.4120
1 11 -25 0.5100 3.9504
1 11 -22 -4.6498 1.4517
1 11 -19 -2.3960 -0.4319
1 11 -16 0.8258 -4.8063
1 11 -13 4.4166 -6.3254
1 11 -10 -2.0124 1.1782
1 11 -7 -7.6186 1.6601
1 11 -4 -3.2255 -7.7044
1 11 -1 5.2236 -5.7343
1 11 2 6.9897 5.5492
1 11 5 -4.0509 5.4765
1 11 8 -6.4174 -0.8142
1 11 11 -1.4629 1.1212
1 11 14 9.0530 4.4214
1 11 17 4.9186 2.5459
1 11 20 -2.4861 3.2032
1 11 23 -3.9446 0.9924
1 11 26 0.5904 -6.5241
1 11 29 -0.0676 -5.8965
1 11 32 -2.4609 3.2633
1 11 35 -2.5507 1.5964
1 11 38 -0.8748 -7.0359
1 11 41 0.7920 -5.3550
1 11 44 1.0247 2.5760
1 11 47 -2.3298 2.5838
1 11 50 -3.2792 0.4327
1 11 53 0.0113 1.5748
1 11 56 1.6283 1.0583
1 11 59 1.7598 1.2600
1 11 62 0.9714 3.6733
1 11 65 0.3279 3.4751
1 12 -59 -3.0197 -0.3800
1 12 -56 2.6665 -4.1079
1 12 -53 0.9820 -1.2709
1 12 -50 1.3458 -1.1444
1 12 -47 -1.5689 -5.1028
1 12 -44 -0.5543 -1.5558
1 12 -41 -1.0063 6.0639
1 12 -38 1.1784 0.3867
1 12 -35 -0.7916 -3.2134
1 12 -32 -2.4033 0.7249
1 12 -29 0.3174 4.4968
1 12 -26 0.7683 2.2732
1 12 -23 -4.2960 0.7591
1 12 -20 -3.6586 -0.3998
1 12 -17 0.3560 -3.9801
1 12 -14 4.5043 -1.3341
1 12 -11 2.0100 3.1274
1 12 -8 -4.6684 -2.0871
1 12 -5 -7.3215 -7.9331
1 12 -2 2.9168 -1.8017
1 12 1 6.7221 5.8240
1 12 4 2.1682 1.0922
1 12 7 -5.3992 -3.1891
1 12 10 -0.3965 1.3664
1 12 13 7.0441 3.2056
1 12 16 7.6202 2.5336
1 12 19 -0.4420 3.9453
1 12 22 -4.4294 0.7851
1 12 25 2.1409 -6.0093
1 12 28 2.0686 -2.1120
1 12 31 -2.3540 4.2441
1 12 34 -3.9646 -0.6905
1 12 37 0.8193 -7.8170
1 12 40 3.1465 -2.3566
1 12 43 3.5107 2.2695
1 12 46 -1.2692 1.2198
1 12 49 -2.9099 -1.3742
1 12 52 -2.5238 -0.2706
1 12 55 0.0835 1.4454
1 12 58 0.1791 3.9327
1 12 61 1.1229 5.2223
1 13 -54 3.9855 -2.8881
1 13 -51 1.6933 -2.7129
1 13 -48 0.3563 -3.8132
1 13 -45 -1.2371 1.8765
1 13 -42 -0.6870 5.3944
1 13 -39 -0.0867 0.6717
1 13 -36 -0.1095 -3.7167
1 13 -33 -3.1747 0.5907
1 13 -30 1.6580 2.8142
1 13 -27 2.3209 2.3052
1 13 -24 -1.4476 1.2157
1 13 -21 -5.1540 -2.8112
1 13 -18 1.0255 -4.3746
1 13 -15 -0.3171 2.4087
1 13 -12 1.1321 4.3421
1 13 -9 -2.9976 -4.2491
1 13 -6 -2.5183 -7.6982
1 13 -3 -0.7489 0.9651
1 13 0 5.7940 4.9375
1 13 3 1.7528 -0.0755
1 13 6 -2.9062 -3.0618
1 13 9 -1.8677 -0.7944
1 13 12 5.2375 2.6157
1 13 15 8.7356 4.8818
1 13 18 2.3630 3.8747
1 13 21 -1.7766 -1.9090
1 13 24 -0.5607 -4.9553
1 13 27 4.4425 1.9937
1 13 30 -0.8565 4.7270
1 13 33 -0.8955 -2.7317
1 13 36 -0.3737 -6.6850
1 13 39 4.4962 -1.1688
1 13 42 2.8644 3.5059
1 13 45 1.4578 0.3748
1 13 48 -3.6186 -0.5952
1 13 51 -1.3543 -2.4396
1 13 54 -1.9649 -0.6711
1 14 -49 1.1905 0.6613
1 14 -46 0.0388 4.4059
1 14 -43 -0.5596 3.8186
1 14 -40 -0.7195 0.6255
1 14 -37 -0.6924 -0.6080
1 14 -34 -2.9818 2.0504
1 14 -31 -1.5717 2.0694
1 14 -28 4.5927 2.7748
1 14 -25 0.2362 1.5242
1 14 -22 -1.2334 -2.8542
1 14 -19 -1.4895 -2.5623
1 14 -16 0.6929 2.3859
1 14 -13 -4.1466 1.8382
1 14 -10 -0.0715 -6.7498
1 14 -7 -1.0108 -5.6093
1 14 -4 0.4389 2.2772
1 14 -1 -0.3292 2.8083
1 14 2 1.1340 0.1219
1 14 5 -1.1524 -0.5417
1 14 8 -0.4256 -0.5761
1 14 11 4.4000 0.8483
1 14 14 3.8513 6.0157
1 14 17 1.6449 4.1623
1 14 20 -2.4268 -3.2752
1 14 23 -0.4863 -1.6477
1 14 26 -0.1225 3.3302
1 14 29 3.0689 2.5499
1 14 32 1.6332 -4.9094
1 14 35 4.1368 -4.6130
1 14 38 1.7541 -0.1695
1 14 41 2.9616 2.2664
1 14 44 -1.5513 0.3186
1 14 47 -4.1132 -0.8256
1 14 50 -3.7705 0.0300
1 15 -41 -0.7241 0.9220
1 15 -38 0.5184 4.2962
1 15 -35 -1.0072 3.3894
1 15 -32 -1.4890 4.5825
1 15 -29 0.3587 3.3278
1 15 -26 1.8965 -0.1449
1 15 -23 -0.9248 -2.9582
1 15 -20 1.2059 1.1584
1 15 -17 -1.4597 4.9127
1 15 -14 -1.6613 -2.1129
1 15 -11 -1.9081 -7.2781
1 15 -8 2.3127 -3.8461
1 15 -5 0.7020 1.7015
1 15 -2 -0.1849 0.7569
1 15 1 -0.8824 -2.0312
1 15 4 -1.7517 0.3312
1 15 7 0.1838 0.7457
1 15 10 0.5610 3.9869
1 15 13 1.3774 6.2601
1 15 16 -3.7500 1.4892
1 15 19 -0.2424 -3.5373
1 15 22 -0.8883 1.2428
1 15 25 0.5639 4.7596
1 15 28 -0.2481 -2.5731
1 15 31 2.5390 -6.2868
1 15 34 2.2783 -3.6214
1 15 37 1.8326 0.9591
1 15 40 -0.1227 1.5470
1 15 43 -1.3855 1.2145
1 16 -33 -1.0100 2.7081
1 16 -30 0.2531 5.6566
1 16 -27 -0.0513 1.1112
1 16 -24 1.4748 -3.0762
1 16 -21 0.7776 3.2823
1 16 -18 0.1207 5.9666
1 16 -15 -1.4997 -1.5945
1 16 -12 1.9643 -7.1258
1 16 -9 2.1589 -1.9980
1 16 -6 1.7015 1.6317
1 16 -3 -0.7148 0.2134
1 16 0 -3.2169 -0.6748
1 16 3 -2.1031 -2.5010
1 16 6 -1.1190 -1.0505
1 16 9 2.8973 4.7751
1 16 12 -1.7949 7.6656
1 16 15 -0.9777 -0.6967
1 16 18 -4.6061 -5.3575
1 16 21 -0.4368 1.7393
1 16 24 -1.4247 4.3843
1 16 27 1.3031 -3.2909
1 16 30 -0.0232 -5.0579
1 16 33 0.3393 -1.3464
1 17 -22 1.8521 1.5234
1 17 -19 1.0013 6.3457
1 17 -16 0.4408 1.6692
1 17 -13 1.2735 -3.4787
1 17 -10 2.2248 -2.1264
1 17 -7 0.5300 0.7392
1 17 -4 0.5932 1.7088
1 17 -1 -0.7436 1.2937
1 17 2 -2.1065 -1.8235
1 17 5 0.3638 -4.0636
1 17 8 -2.4208 0.9500
1 17 11 -2.2051 6.1018
1 17 14 -3.4857 0.6567
1 17 17 1.7711 -3.6058
1 17 20 -1.1443 -0.2034
2 1 -83 1.3742 4.2832
2 1 -80 -0.2775 5.5497
2 1 -77 -0.2916 -2.6765
2 1 -74 0.2518 0.2894
2 1 -71 -0.3437 1.2070
2 1 -68 1.0028 0.2137
2 1 -65 -1.7307 -6.2273
2 1 -62 -3.5931 -8.0743
2 1 -59 -2.3944 -7.2138
2 1 -56 -2.4677 1.3299
2 1 -53 1.3408 7.3720
2 1 -50 0.2387 -0.9817
2 1 -47 -2.1811 -4.5950
2 1 -44 -0.5220 2.2406
2 1 -41 4.7511 13.9260
2 1 -38 2.1785 11.7926
2 1 -35 -4.6194 1.5383
2 1 -32 -12.5463 -2.2842
2 1 -29 -11.8528 -5.2396
2 1 -26 -5.6888 -0.3562
2 1 -23 -10.6297 -1.7065
2 1 -20 -15.7622 -8.7654
2 1 -17 18.4804 -13.1990
2 1 -14 26.7224 -5.2266
2 1 -11 -29.5874 4.7040
2 1 -8 -61.6901 1.3256
2 1 -5 10.3943 -3.1219
2 1 -2 100.5436 2.4088
2 1 1 91.9996 13.8808
2 1 4 27.3053 14.8442
2 1 7 -32.3903 1.8178
2 1 10 -15.9746 -4.4724
2 1 13 17.2427 1.4069
2 1 16 21.2766 3.4027
2 1 19 -19.4978 0.3702
2 1 22 -24.7983 -10.3925
2 1 25 -2.4925 -17.0450
2 1 28 0.6412 -8.7977
2 1 31 -7.9934 7.4927
2 1 34 -8.2400 7.6811
2 1 37 1.6770 -8.5204
2 1 40 2.4396 -5.2513
2 1 43 -0.3876 8.8362
2 1 46 -3.7044 13.3397
2 1 49 -2.2640 6.8277
2 1 52 2.3136 0.9104
2 1 55 -0.3189 -2.1007
2 1 58 -0.3503 -3.4878
2 1 61 -2.7186 4.0355
2 1 64 -0.5271 -0.4812
2 1 67 0.2256 -8.7052
2 1 70 0.8907 -6.6156
2 1 73 -0.9775 0.0484
2 1 76 -0.8014 2.0149
2 1 79 -1.5863 -3.3981
2 1 82 2.1397 -1.7618
2 2 -81 -1.5126 4.4558
2 2 -78 -1.4472 -0.5786
2 2 -75 -1.4986 -0.3765
2 2 -72 -0.0687 -0.1103
2 2 -69 0.6951 -3.7754
2 2 -66 1.4779 0.8501
2 2 -63 -0.7552 0.0822
2 2 -60 -0.2925 -7.8670
2 2 -57 -4.4674 -5.9555
2 2 -54 -4.9133 7.5208
2 2 -51 -1.7497 6.0887
2 2 -48 -2.3336 -3.6556
2 2 -45 -1.4018 0.7469
2 2 -42 3.3626 6.2053
2 2 -39 1.2933 3.7218
2 2 -36 1.1352 3.5436
2 2 -33 -5.7226 4.1950
2 2 -30 -7.2726 -5.2232
2 2 -27 -6.4349 -9.6001
2 2 -24 -11.4987 2.8020
2 2 -21 -16.0118 0.7696
2 2 -18 1.2437 -11.9689
2 2 -15 29.7619 -7.9968
2 2 -12 -9.3896 5.6091
2 2 -9 -39.8602 4.0995
2 2 -6 -11.4732 -0.7415
2 2 -3 56.4949 5.4685
2 2 0 59.3061 8.8398
2 2 3 22.9737 4.8505
2 2 6 1.1524 4.2274
2 2 9 -3.3419 1.8541
2 2 12 10.0286 -4.8348
2 2 15 6.1158 -4.0790
2 2 18 -3.4374 3.2513
2 2 21 -15.2961 -1.4341
2 2 24 -4.5953 -17.5235
2 2 27 0.8682 -12.4031
2 2 30 -4.8777 4.9007
2 2 33 -5.9831 6.8418
2 2 36 -1.6508 0.1430
2 2 39 1.1290 1.9054
2 2 42 1.0414 4.9977
2 2 45 -3.9708 2.2284
2 2 48 -1.1973 6.5159
2 2 51 -0.1407 8.8646
2 2 54 3.6851 -2.4821
2 2 57 0.8365 -6.0695
2 2 60 2.1706 1.3294
2 2 63 -1.4673 -0.1589
2 2 66 -2.9778 -9.0970
2 2 69 -1.7343 -4.1823
2 2 72 -0.0222 1.9795
2 2 75 -1.6302 -0.6087
2 2 78 -1.2606 -0.4766
2 2 81 2.1743 -1.0405
2 3 -82 -2.0110 3.2938
2 3 -79 -1.0540 2.6704
2 3 -76 -0.6968 -0.2381
2 3 -73 -0.1359 0.4238
2 3 -70 1.2717 -4.4971
2 3 -67 -1.2626 -1.4163
2 3 -64 -0.4340 3.3392
2 3 -61 2.4049 -0.8712
2 3 -58 -0.1662 -4.8068
2 3 -55 -5.3151 1.3147
2 3 -52 -2.6618 4.4426
2 3 -49 -3.4077 -1.1005
2 3 -46 -2.3033 1.2809
2 3 -43 -0.7166 4.0765
2 3 -40 3.6727 -1.1638
2 3 -37 -1.8161 -2.9839
2 3 -34 0.8970 3.1447
2 3 -31 -3.1718 0.7208
2 3 -28 0.0169 -7.3530
2 3 -25 -6.1916 -1.0162
2 3 -22 -11.3548 3.8640
2 3 -19 3.9077 -3.2194
2 3 -16 16.2860 -3.7354
2 3 -13 5.9929 4.5010
2 3 -10 -25.9904 2.5170
2 3 -7 -5.6161 -3.3103
2 3 -4 22.7787 3.8979
2 3 -1 30.3203 5.9084
2 3 2 -1.5096 -2.3088
2 3 5 -4.8090 -0.8159
2 3 8 11.0730 4.5146
2 3 11 19.4100 -1.9398
2 3 14 3.3304 -7.2264
2 3 17 -6.3586 0.4662
2 3 20 -4.9195 3.5818
2 3 23 0.1326 -4.4251
2 3 26 -0.2033 -4.2872
2 3 29 -0.7909 2.3758
2 3 32 -0.5391 -0.1245
2 3 35 0.3921 -1.2951
2 3 38 1.2370 4.9000
2 3 41 -2.0904 4.8000
2 3 44 -0.3345 -3.7723
2 3 47 -2.0689 -0.0479
2 3 50 1.4857 5.9922
2 3 53 0.9362 -0.2444
2 3 56 3.1005 -4.7576
2 3 59 3.2355 1.2759
2 3 62 0.6025 1.3469
2 3 65 -2.6034 -4.3776
2 3 68 -3.9716 0.0967
2 3 71 0.4257 2.1752
2 3 74 0.4899 -1.9599
2 3 77 -0.5253 -1.3910
2 3 80 0.5597 0.6990
2 4 -80 -1.6139 1.3732
2 4 -77 0.1748 -1.2981
2 4 -74 1.2222 -1.5864
2 4 -71 2.9762 -0.0872
2 4 -68 0.2474 1.4087
2 4 -65 -2.3437 1.6817
2 4 -62 0.3199 -2.1265
2 4 -59 2.8620 -0.1995
2 4 -56 -2.5532 1.4821
2 4 -53 -3.3767 -0.8663
2 4 -50 -1.1197 -1.5882
2 4 -47 -3.1851 1.8954
2 4 -44 0.4956 3.4663
2 4 -41 -1.3059 -2.9969
2 4 -38 -1.6479 -3.6311
2 4 -35 -3.8678 0.0556
2 4 -32 4.2355 0.8598
2 4 -29 4.1240 1.4201
2 4 -26 0.7100 0.9263
2 4 -23 -4.4115 -0.6336
2 4 -20 3.4207 -4.8227
2 4 -17 10.9352 1.2234
2 4 -14 4.6593 6.2201
2 4 -11 -9.0541 0.3744
2 4 -8 -2.4115 -4.3409
2 4 -5 16.8595 -0.2162
2 4 -2 16.4390 2.3131
2 4 1 -10.5735 -2.4378
2 4 4 -30.2646 -1.3746
2 4 7 -1.8231 2.6536
2 4 10 20.5877 -1.9701
2 4 13 19.2291 -1.7688
2 4 16 -7.5481 1.7437
2 4 19 -1.5534 -0.0601
2 4 22 0.9737 -1.4001
2 4 25 3.8819 3.0808
2 4 28 -2.4349 4.7568
2 4 31 -0.7784 -2.2187
2 4 34 5.3568 -3.2301
2 4 37 3.4205 2.8719
2 4 40 0.3947 1.4726
2 4 43 -2.6752 -1.9093
2 4 46 0.2487 -1.7077
2 4 49 -0.8759 0.2187
2 4 52 -1.7747 -2.0666
2 4 55 2.2455 -0.7186
2 4 58 3.1133 3.3667
2 4 61 4.1374 -0.2057
2 4 64 -1.4545 -2.6465
2 4 67 -2.0354 1.0478
2 4 70 -2.5400 3.0494
2 4 73 1.9781 -0.9232
2 4 76 0.5668 0.3551
2 4 79 0.4124 2.6883
2 5 -78 1.3733 0.6565
2 5 -75 1.7245 -1.9805
2 5 -72 1.4452 -0.6024
2 5 -69 2.4014 2.1581
2 5 -66 -1.6874 1.4400
2 5 -63 -2.9231 -3.7099
2 5 -60 -0.0171 -0.6949
2 5 -57 1.8672 4.2030
2 5 -54 -2.0793 -0.6613
2 5 -51 -1.9112 -3.5280
2 5 -48 -1.0078 0.6711
2 5 -45 -1.2752 1.0457
2 5 -42 0.3266 -0.8895
2 5 -39 -3.5536 0.6212
2 5 -36 -4.6116 2.3153
2 5 -33 1.8288 -1.8500
2 5 -30 3.8935 -1.2558
2 5 -27 -0.3752 4.3096
2 5 -24 -0.7157 -0.3881
2 5 -21 3.5603 -4.2052
2 5 -18 8.7013 -0.7517
2 5 -15 3.3069 3.3159
2 5 -12 3.5743 -1.1068
2 5 -9 -8.3390 -2.5757
2 5 -6 7.6918 0.6994
2 5 -3 12.6218 -0.6739
2 5 0 3.4791 -1.4037
2 5 3 -23.8120 2.7092
2 5 6 -19.8302 1.9015
2 5 9 10.2544 -2.7882
2 5 12 12.6708 -1.2251
2 5 15 4.2491 4.4174
2 5 18 -10.6571 -0.0599
2 5 21 3.2850 -2.5987
2 5 24 5.6311 1.2707
2 5 27 2.4420 1.5003
2 5 30 -3.5527 -1.3886
2 5 33 0.9689 -0.4738
2 5 36 7.9927 0.7730
2 5 39 0.4026 -1.1762
2 5 42 -2.4149 -0.7869
2 5 45 -2.1463 2.3031
2 5 48 -2.6456 -0.1708
2 5 51 -0.7753 -2.5693
2 5 54 -0.8446 0.2415
2 5 57 5.1802 1.6976
2 5 60 2.3462 -0.1813
2 5 63 1.4081 -1.4113
2 5 66 -3.4780 0.4532
2 5 69 -1.5832 1.3378
2 5 72 0.1463 -0.6761
2 5 75 2.2104 0.7145
2 5 78 -0.3724 2.5821
2 6 -76 3.3503 0.1509
2 6 -73 -0.7003 -0.0700
2 6 -70 -0.3971 0.7426
2 6 -67 1.4665 0.1715
2 6 -64 -2.9924 -0.8399
2 6 -61 -2.9525 -1.0998
2 6 -58 1.5718 0.2519
2 6 -55 0.0292 -0.4439
2 6 -52 -1.3885 0.1005
2 6 -49 -0.8784 0.9012
2 6 -46 -0.8766 -0.9404
2 6 -43 -0.4556 -1.0739
2 6 -40 -1.8092 2.8093
2 6 -37 -3.5667 3.0298
2 6 -34 -2.9356 -0.2485
2 6 -31 4.7797 -1.1573
2 6 -28 -0.9613 -0.0680
2 6 -25 -1.2826 -0.4225
2 6 -22 0.7442 -0.7837
2 6 -19 -2.3634 0.5018
2 6 -16 2.9621 -2.7958
2 6 -13 4.0082 -3.7510
2 6 -10 4.0198 0.9754
2 6 -7 -8.3369 2.9702
2 6 -4 10.7978 -1.0311
2 6 -1 8.4522 -0.5451
2 6 2 -5.1774 3.3486
2 6 5 -15.8352 2.2635
2 6 8 -2.9425 -0.0822
2 6 11 9.2317 1.1641
2 6 14 2.6825 -0.0091
2 6 17 -3.4857 -1.9641
2 6 20 -5.5448 -0.1747
2 6 23 4.2591 0.2153
2 6 26 3.6361 -4.3659
2 6 29 -5.0450 -2.7404
2 6 32 -2.5342 1.8840
2 6 35 4.8023 0.8521
2 6 38 6.2442 -1.7815
2 6 41 0.2885 0.9849
2 6 44 -2.8055 2.8222
2 6 47 -3.4403 0.4186
2 6 50 -4.6236 1.1038
2 6 53 -0.9536 2.2960
2 6 56 -1.1853 -0.6219
2 6 59 3.5791 -0.9234
2 6 62 1.7549 1.0310
2 6 65 0.3446 -0.2238
2 6 68 -0.3817 -2.9857
2 6 71 0.0970 -1.2218
2 6 74 -1.4417 -0.9249
2 6 77 -3.0349 1.4897
2 7 -74 -0.0170 1.5293
2 7 -71 -1.3490 -0.8094
2 7 -68 1.9383 -4.2956
2 7 -65 0.6934 -0.6735
2 7 -62 -2.6474 0.9591
2 7 -59 -2.0387 -0.5247
2 7 -56 0.1759 -2.0341
2 7 -53 -0.9884 1.0408
2 7 -50 1.9816 1.6287
2 7 -47 -0.8365 -1.2223
2 7 -44 -2.5214 1.1735
2 7 -41 1.0307 3.9074
2 7 -38 -0.7487 1.0327
2 7 -35 -0.9094 -1.0507
2 7 -32 0.0083 0.9072
2 7 -29 3.4779 -1.0423
2 7 -26 -3.6264 -4.3008
2 7 -23 -4.2176 -0.6888
2 7 -20 -3.8723 2.4956
2 7 -17 -2.4937 -2.6434
2 7 -14 7.4930 -4.3588
2 7 -11 1.4769 1.8572
2 7 -8 -7.2213 2.8335
2 7 -5 -3.8392 -0.0115
2 7 -2 10.5037 2.3890
2 7 1 4.5445 4.2378
2 7 4 -4.1047 -1.2855
2 7 7 -2.4134 -1.2236
2 7 10 2.7590 3.3889
2 7 13 1.4557 -0.7211
2 7 16 -0.5006 -4.4097
2 7 19 -4.4138 0.0273
2 7 22 -0.1275 0.9987
2 7 25 0.7855 -4.7515
2 7 28 -1.7223 -3.0205
2 7 31 -4.5205 2.7604
2 7 34 1.3459 0.5732
2 7 37 6.6609 -1.2310
2 7 40 2.1392 2.5005
2 7 43 -0.4697 2.5065
2 7 46 -4.9940 -0.6210
2 7 49 -3.1902 1.3853
2 7 52 -2.2233 2.8362
2 7 55 -0.5300 -1.1537
2 7 58 -0.0431 -2.4150
2 7 61 0.2468 2.2749
2 7 64 -1.0962 0.4334
2 7 67 -1.2851 -1.7553
2 7 70 0.1387 -0.1589
2 7 73 -0.9206 0.2695
2 7 76 -2.2811 -1.3029
2 8 -72 -0.3308 0.2331
2 8 -69 0.9409 -2.6678
2 8 -66 2.2691 -3.2457
2 8 -63 1.6345 -0.7009
2 8 -60 0.8023 -2.2244
2 8 -57 -1.2951 0.8908
2 8 -54 -0.8724 1.5852
2 8 -51 0.3312 0.1020
2 8 -48 0.0081 -0.3186
2 8 -45 -2.7160 2.2633
2 8 -42 -0.6929 3.3551
2 8 -39 4.2443 -0.7829
2 8 -36 -0.3795 -1.7030
2 8 -33 0.3119 0.4200
2 8 -30 3.1932 -0.0205
2 8 -27 2.8702 -1.9650
2 8 -24 -4.3951 -1.8861
2 8 -21 -6.0282 -1.1493
2 8 -18 -2.5472 -0.6274
2 8 -15 2.1508 0.4033
2 8 -12 -0.0140 1.9590
2 8 -9 -7.7138 -0.3716
2 8 -6 -6.0155 -1.8177
2 8 -3 7.6193 2.6756
2 8 0 6.9119 4.3405
2 8 3 0.8353 0.3901
2 8 6 -2.4328 -2.1882
2 8 9 -2.0554 0.1296
2 8 12 1.1343 0.3019
2 8 15 -0.1974 -1.0962
2 8 18 3.3197 -0.4858
2 8 21 -2.9924 -2.1420
2 8 24 -0.0800 -2.5328
2 8 27 -1.3353 0.4889
2 8 30 -2.8468 2.6165
2 8 33 -0.5613 -0.2845
2 8 36 1.0267 -1.3579
2 8 39 3.7632 0.8428
2 8 42 -1.3556 2.0478
2 8 45 0.6209 1.7674
2 8 48 -3.2127 0.8049
2 8 51 -3.5496 0.1223
2 8 54 -1.4922 -1.7778
2 8 57 -0.9638 -0.4345
2 8 60 -0.3403 0.6659
2 8 63 -0.5957 0.2570
2 8 66 -0.0671 -0.5940
2 8 69 -1.2859 -0.5807
2 8 72 -2.4241 0.7422
2 9 -70 2.9319 0.0826
2 9 -67 0.9495 1.4756
2 9 -64 1.6413 -1.3059
2 9 -61 0.8376 -3.2251
2 9 -58 -0.1750 0.2233
2 9 -55 -0.5951 2.0526
2 9 -52 -0.2607 -1.0786
2 9 -49 0.6039 -0.2610
2 9 -46 -2.2612 3.3144
2 9 -43 -1.0819 0.7353
2 9 -40 1.3467 -1.4533
2 9 -37 4.3734 0.4197
2 9 -34 -0.3481 0.4289
2 9 -31 1.1284 -1.5649
2 9 -28 2.4720 0.5394
2 9 -25 0.1627 0.2936
2 9 -22 -4.2235 -4.2003
2 9 -19 -1.1873 -2.1323
2 9 -16 2.2781 3.9055
2 9 -13 2.3521 1.8082
2 9 -10 -8.4551 -1.9215
2 9 -7 -7.6344 -0.7378
2 9 -4 -1.1736 1.2392
2 9 -1 7.1186 0.8716
2 9 2 4.7596 1.5488
2 9 5 0.8179 1.2270
2 9 8 -1.1652 -3.0639
2 9 11 -3.1625 -2.4329
2 9 14 3.8018 2.8894
2 9 17 0.2736 1.9366
2 9 20 -0.6463 -3.4180
2 9 23 -5.4217 -2.2829
2 9 26 -0.1647 2.2207
2 9 29 1.0897 0.4670
2 9 32 -0.6362 -0.5038
2 9 35 1.8592 1.1997
2 9 38 -1.6438 -0.1401
2 9 41 -1.8880 -1.0613
2 9 44 -0.7293 1.5741
2 9 47 -0.0434 2.3281
2 9 50 -4.0494 -2.0211
2 9 53 -3.3591 -0.5197
2 9 56 1.7340 1.0378
2 9 59 0.5451 -1.5740
2 9 62 0.4374 -1.9530
2 9 65 1.0823 0.2186
2 9 68 -0.9334 2.0151
2 10 -65 -0.6411 0.7273
2 10 -62 0.2617 1.6565
2 10 -59 -0.8993 0.7706
2 10 -56 0.2711 0.3432
2 10 -53 0.1927 -2.4625
2 10 -50 -0.6914 0.9590
2 10 -47 0.1324 1.4165
2 10 -44 -2.4295 -1.7619
2 10 -41 -0.2124 -2.0553
2 10 -38 2.1171 1.3567
2 10 -35 3.0054 1.6396
2 10 -32 -0.7837 -1.1925
2 10 -29 0.5870 0.5849
2 10 -26 1.6189 0.6345
2 10 -23 0.0863 -3.2800
2 10 -20 -3.7344 -0.5601
2 10 -17 0.9438 3.4298
2 10 -14 2.5470 -0.8262
2 10 -11 2.1364 -3.6438
2 10 -8 -7.2399 1.6736
2 10 -5 -4.4473 1.8275
2 10 -2 1.8960 -2.1534
2 10 1 7.4796 0.2523
2 10 4 5.5994 3.1100
2 10 7 -4.1490 -0.9184
2 10 10 -2.4311 -1.7325
2 10 13 0.7114 2.0982
2 10 16 6.0829 0.1072
2 10 19 -0.3935 -3.2972
2 10 22 -2.7878 0.9745
2 10 25 -0.5143 2.5022
2 10 28 0.5916 -2.2868
2 10 31 -1.6856 -3.2051
2 10 34 -2.7867 1.5962
2 10 37 -2.0312 1.2128
2 10 40 -3.2094 -1.4416
2 10 43 -1.1375 1.5773
2 10 46 4.0763 0.8005
2 10 49 -0.7031 -1.6109
2 10 52 -2.8090 -0.1253
2 10 55 -1.3820 2.8276
2 10 58 0.9774 -0.4466
2 10 61 -0.3763 -3.0358
2 10 64 0.7325 1.6972
2 10 67 2.9662 0.0889
2 11 -60 -0.5004 5.3472
2 11 -57 -0.8692 -4.1854
2 11 -54 1.3867 -4.1275
2 11 -51 0.7129 0.8267
2 11 -48 0.7871 2.3882
2 11 -45 0.2729 -1.6732
2 11 -42 -0.9014 -1.1159
2 11 -39 -0.1675 1.3924
2 11 -36 0.4573 -1.4225
2 11 -33 -1.6770 0.4968
2 11 -30 -0.4917 1.5271
2 11 -27 2.4528 -1.1111
2 11 -24 2.6331 -3.3528
2 11 -21 -1.0150 0.7446
2 11 -18 -3.5820 2.8702
2 11 -15 1.9473 -2.8042
2 11 -12 4.2418 -3.3351
2 11 -9 1.5435 2.5602
2 11 -6 -6.4752 2.3408
2 11 -3 -3.1006 -1.2839
2 11 0 6.4414 0.2076
2 11 3 6.2631 1.1262
2 11 6 0.9570 -0.9159
2 11 9 -3.7176 1.6784
2 11 12 4.3495 3.3796
2 11 15 6.7927 -3.2267
2 11 18 2.5729 -4.8601
2 11 21 -1.9504 1.4621
2 11 24 -1.5613 2.6135
2 11 27 3.3108 -3.0626
2 11 30 -1.5282 -2.0333
2 11 33 -2.9556 0.6562
2 11 36 -0.8997 0.2307
2 11 39 -2.0059 -0.0845
2 11 42 -1.5891 1.2765
2 11 45 -0.2960 0.2412
2 11 48 2.2346 -1.1750
2 11 51 -1.6209 1.2113
2 11 54 -0.7156 2.4183
2 11 57 2.2761 -0.6445
2 11 60 0.8084 -0.7498
2 11 63 -0.7700 -0.3137
2 12 -58 0.9299 -0.4988
2 12 -55 2.6120 -5.9138
2 12 -52 3.6546 0.1945
2 12 -49 0.0516 1.5281
2 12 -46 -0.0494 -1.2385
2 12 -43 -0.3486 1.1731
2 12 -40 1.2928 0.8295
2 12 -37 -0.9359 -0.8025
2 12 -34 -2.1095 -0.6851
2 12 -31 -2.9819 2.4511
2 12 -28 2.4473 -2.4512
2 12 -25 1.7504 -3.0266
2 12 -22 1.3977 0.6119
2 12 -19 -0.3084 0.3011
2 12 -16 0.2622 -2.4750
2 12 -13 0.7901 -0.5034
2 12 -10 0.4571 2.0569
2 12 -7 -3.4719 0.5690
2 12 -4 -2.7120 0.1569
2 12 -1 3.0860 2.6788
2 12 2 7.6181 0.4067
2 12 5 0.3877 -1.8712
2 12 8 -2.3429 1.0959
2 12 11 1.6077 2.4581
2 12 14 7.6109 -2.4798
2 12 17 6.9902 -3.0642
2 12 20 0.8732 1.0235
2 12 23 1.5974 -0.4422
2 12 26 1.0952 -2.5253
2 12 29 1.5975 0.5258
2 12 32 -2.5082 1.5703
2 12 35 0.5465 -1.5483
2 12 38 1.2293 0.2342
2 12 41 -0.4516 1.3393
2 12 44 -0.5217 -0.1485
2 12 47 0.0342 -0.7705
2 12 50 -1.8630 2.4888
2 12 53 -0.8833 0.2518
2 12 56 0.4581 0.8388
2 12 59 2.5984 1.5396
2 13 -53 2.8776 -1.0456
2 13 -50 0.7384 1.1398
2 13 -47 -1.2518 2.2055
2 13 -44 0.4224 2.7061
2 13 -41 0.6768 2.7285
2 13 -38 1.7697 -0.6911
2 13 -35 -3.2426 0.4087
2 13 -32 -2.4997 -0.1429
2 13 -29 -0.2083 -2.1097
2 13 -26 2.0711 -1.4657
2 13 -23 -1.4293 1.6743
2 13 -20 1.7509 -2.2838
2 13 -17 1.4936 -3.4371
2 13 -14 0.0154 1.6208
2 13 -11 -3.0361 2.9318
2 13 -8 -0.9478 -0.6352
2 13 -5 -1.6942 0.4905
2 13 -2 0.1715 2.2034
2 13 1 0.7831 -0.0037
2 13 4 1.0854 0.0305
2 13 7 -1.1892 2.7384
2 13 10 2.6960 -0.4124
2 13 13 7.4299 -3.4667
2 13 16 5.0400 -0.7440
2 13 19 2.7560 1.3353
2 13 22 -0.2747 -2.7323
2 13 25 -0.3463 -2.1555
2 13 28 -1.3868 2.3602
2 13 31 2.8593 2.8509
2 13 34 4.1566 -0.8699
2 13 37 3.8175 0.4641
2 13 40 0.1290 1.5994
2 13 43 1.3815 -1.3614
2 13 46 -1.7355 0.1552
2 13 49 -2.8250 1.5242
2 13 52 -4.5204 0.9930
2 14 -45 -1.9171 2.3526
2 14 -42 -1.0325 2.3130
2 14 -39 0.7991 2.9252
2 14 -36 0.4398 2.8920
2 14 -33 -3.3181 0.4216
2 14 -30 0.3631 -1.7261
2 14 -27 0.3535 -0.6528
2 14 -24 -0.9608 1.4837
2 14 -21 -0.3335 -0.0942
2 14 -18 1.7785 -2.4007
2 14 -15 -1.2311 0.1334
2 14 -12 -2.7101 0.8683
2 14 -9 -1.6316 0.1269
2 14 -6 1.5964 1.7302
2 14 -3 -0.0262 1.4052
2 14 0 -0.9903 -1.4935
2 14 3 -1.4332 -0.3920
2 14 6 -2.0893 3.0244
2 14 9 0.8228 0.0625
2 14 12 3.2937 -2.6937
2 14 15 2.8334 0.6802
2 14 18 -0.0672 1.8836
2 14 21 2.9541 -1.0347
2 14 24 -1.0498 -1.7540
2 14 27 -3.9943 0.8092
2 14 30 0.1290 -0.3047
2 14 33 6.1080 -0.0650
2 14 36 3.5167 0.7091
2 14 39 0.1540 2.4625
2 14 42 -0.4252 0.1661
2 14 45 1.4769 -0.2771
2 15 -37 0.9970 3.1665
2 15 -34 -1.6591 0.0947
2 15 -31 -1.6673 -0.9820
2 15 -28 0.0821 0.5044
2 15 -25 -1.2955 -0.2307
2 15 -22 0.5987 1.3742
2 15 -19 1.6525 3.0269
2 15 -16 -1.4961 0.6686
2 15 -13 -1.1660 -1.9255
2 15 -10 0.3314 -0.7133
2 15 -7 0.2356 1.2360
2 15 -4 -0.0357 -0.1402
2 15 -1 -0.8858 -1.2981
2 15 2 -1.9081 1.3648
2 15 5 -1.4893 1.6959
2 15 8 -1.6041 0.0125
2 15 11 2.0520 -0.4392
2 15 14 -1.6188 0.7243
2 15 17 -0.7293 -0.2296
2 15 20 -0.3488 0.6667
2 15 23 2.0231 1.4585
2 15 26 -3.3314 -0.5774
2 15 29 -2.3266 -2.7286
2 15 32 1.5151 -1.6253
2 15 35 1.9968 0.4232
2 15 38 -0.3203 0.3369
2 16 -29 0.8629 0.6740
2 16 -26 -1.4848 -1.4889
2 16 -23 0.0209 -1.1095
2 16 -20 1.6006 3.7911
2 16 -17 0.2718 3.5070
2 16 -14 0.1619 -0.9280
2 16 -11 2.4373 -0.8540
2 16 -8 -0.8749 1.0827
2 16 -5 -3.8865 -0.8981
2 16 -2 -1.5166 -1.4674
2 16 1 0.4274 2.6429
2 16 4 0.8934 1.9137
2 16 7 1.4125 -1.8317
2 16 10 -2.9223 -0.0324
2 16 13 -2.1318 1.4024
2 16 16 -4.2769 -0.6492
2 16 19 0.8413 -0.1409
2 16 22 0.2273 2.7170
2 16 25 3.0580 -0.6440
2 16 28 -0.2588 -2.7401
2 17 -6 -3.2372 0.2644
2 17 -3 -4.5399 0.1067
2 17 0 -1.3352 1.4841
2 17 3 1.3108 3.0909
2 17 6 1.9801 -0.7257
3 1 -82 0.2869 6.8816
3 1 -79 -1.8037 3.1955
3 1 -76 -1.1928 -1.3853
3 1 -73 -0.9610 -3.2383
3 1 -70 0.0410 -2.8681
3 1 -67 -1.6878 -4.1679
3 1 -64 -1.5726 1.5378
3 1 -61 -1.2386 -7.8466
3 1 -58 -2.5997 -10.4364
3 1 -55 -2.6170 2.5082
3 1 -52 0.8888 8.2916
3 1 -49 -0.9064 1.8956
3 1 -46 -2.2681 -1.7479
3 1 -43 1.5588 8.9883
3 1 -40 3.2978 9.9091
3 1 -37 -1.6591 5.7769
3 1 -34 -5.7790 5.6791
3 1 -31 -10.7630 -4.9266
3 1 -28 -9.5222 -9.9635
3 1 -25 -5.6080 -3.6494
3 1 -22 -9.9785 2.5088
3 1 -19 7.7519 -11.5656
3 1 -16 20.8918 -16.7756
3 1 -13 5.4005 -0.9805
3 1 -10 -43.1387 5.2958
3 1 -7 -21.5257 2.0836
3 1 -4 31.4147 4.4571
3 1 -1 59.9439 11.1520
3 1 2 30.0384 11.4547
3 1 5 4.4614 8.0555
3 1 8 2.5152 5.1968
3 1 11 9.2457 -1.4170
3 1 14 15.6720 -6.9592
3 1 17 -5.9090 0.4385
3 1 20 -17.2701 -1.4274
3 1 23 -18.8392 -15.0008
3 1 26 -0.8610 -20.5548
3 1 29 -1.8234 -4.1313
3 1 32 -0.6581 8.0589
3 1 35 -1.7781 -0.0612
3 1 38 0.2678 1.1686
3 1 41 -0.1750 4.8425
3 1 44 -0.6558 7.7256
3 1 47 -4.6094 9.3087
3 1 50 -1.2421 11.0006
3 1 53 -1.1438 3.4143
3 1 56 1.1813 -9.2726
3 1 59 -1.6262 -0.5014
3 1 62 1.5421 2.4632
3 1 65 -0.3027 -7.2843
3 1 68 1.4148 -9.9754
3 1 71 0.1205 -5.0352
3 1 74 0.1602 -0.7769
3 1 77 -2.2535 -2.1237
3 1 80 0.0060 2.4945
3 1 83 2.4975 -0.3847
3 2 -80 -2.5600 6.1409
3 2 -77 -1.1798 -0.2470
3 2 -74 -1.1518 -1.6055
3 2 -71 0.7001 -3.9140
3 2 -68 0.7982 -6.1738
3 2 -65 -1.1641 -0.3349
3 2 -62 1.8201 2.7444
3 2 -59 -2.1685 -6.9485
3 2 -56 -5.8607 -6.8539
3 2 -53 -3.8454 5.8074
3 2 -50 -0.1932 7.9852
3 2 -47 -3.6395 0.5272
3 2 -44 0.6817 1.0699
3 2 -41 2.8714 5.2141
3 2 -38 2.3771 3.4712
3 2 -35 -0.6448 3.6900
3 2 -32 -3.3750 3.6823
3 2 -29 -5.3424 -8.0923
3 2 -26 -6.9566 -11.7207
3 2 -23 -10.0175 -0.3510
3 2 -20 -3.7404 1.9616
3 2 -17 27.1637 -8.0464
3 2 -14 10.4563 -7.4025
3 2 -11 -15.7803 3.4586
3 2 -8 -28.3923 4.5768
3 2 -5 19.7617 2.7658
3 2 -2 18.3718 6.8997
3 2 1 6.8174 6.2163
3 2 4 -7.6808 2.3506
3 2 7 15.2337 5.6582
3 2 10 25.0741 5.0652
3 2 13 10.2513 -6.3210
3 2 16 -3.1988 -10.6054
3 2 19 -12.4927 0.8846
3 2 22 -2.1310 0.5526
3 2 25 -6.6544 -11.6307
3 2 28 -1.4813 -8.8928
3 2 31 -1.5947 1.2024
3 2 34 2.7198 3.4628
3 2 37 -0.0959 3.0957
3 2 40 0.2574 6.6704
3 2 43 -1.0124 1.9379
3 2 46 -1.6234 -1.6741
3 2 49 -2.0233 9.0623
3 2 52 3.2159 9.7455
3 2 55 1.3247 -3.8933
3 2 58 2.8110 -7.7405
3 2 61 -0.0373 0.8820
3 2 64 -1.5995 -0.0988
3 2 67 -3.0985 -5.4819
3 2 70 -0.8405 -2.1537
3 2 73 2.4756 -4.0452
3 2 76 0.6955 -1.2325
3 2 79 1.4672 1.6182
3 2 82 3.5951 0.1360
3 3 -81 -2.0337 5.4688
3 3 -78 -1.6256 1.3232
3 3 -75 -0.8539 -2.2779
3 3 -72 -1.0361 -2.7936
3 3 -69 1.0557 -3.5720
3 3 -66 -1.1392 -1.6691
3 3 -63 1.7826 3.2952
3 3 -60 4.2392 1.2851
3 3 -57 -3.1543 -3.0203
3 3 -54 -4.7545 -2.0121
3 3 -51 -2.9518 4.8848
3 3 -48 -2.9447 5.5881
3 3 -45 -2.3610 0.0304
3 3 -42 2.7464 -0.9950
3 3 -39 0.8343 -2.8424
3 3 -36 -1.1374 -1.8623
3 3 -33 -0.5741 1.2191
3 3 -30 2.3182 0.3487
3 3 -27 4.1082 -4.0814
3 3 -24 -5.0158 -5.6992
3 3 -21 -2.7027 1.3502
3 3 -18 12.3951 2.1341
3 3 -15 17.4502 -0.1661
3 3 -12 -14.0917 0.7869
3 3 -9 -10.9772 2.5932
3 3 -6 6.6212 2.4675
3 3 -3 20.2396 1.0279
3 3 0 -13.9444 0.2545
3 3 3 -21.9355 -1.0058
3 3 6 -8.1223 -0.0979
3 3 9 25.1652 3.2411
3 3 12 21.0144 -2.0596
3 3 15 -2.7321 -7.3622
3 3 18 -8.9459 -3.5249
3 3 21 0.1710 3.4499
3 3 24 5.3937 4.2895
3 3 27 -3.6994 -1.9075
3 3 30 -0.8598 -2.4317
3 3 33 2.6233 -0.5609
3 3 36 3.7099 3.2961
3 3 39 -0.4665 5.9642
3 3 42 -0.9853 0.2133
3 3 45 -0.5154 -3.0696
3 3 48 -0.2053 -1.1132
3 3 51 -0.4347 4.2924
3 3 54 1.2446 0.4841
3 3 57 3.6147 -4.0340
3 3 60 3.5596 -0.8227
3 3 63 1.1647 -0.2638
3 3 66 -3.1588 1.4183
3 3 69 -1.6807 -0.0860
3 3 72 -1.9008 -2.5218
3 3 75 1.4282 -2.1283
3 3 78 -0.3635 3.1664
3 3 81 3.4554 1.5778
3 4 -79 0.9815 0.1363
3 4 -76 1.3652 0.5567
3 4 -73 1.0981 -2.5648
3 4 -70 0.4994 -0.0382
3 4 -67 0.4457 1.2346
3 4 -64 -2.6481 -1.0916
3 4 -61 0.8929 -0.5873
3 4 -58 1.2220 2.6103
3 4 -55 -1.2282 2.1946
3 4 -52 -2.3829 -0.5124
3 4 -49 -2.4886 2.3628
3 4 -46 -3.1764 2.0706
3 4 -43 1.1340 -3.1297
3 4 -40 -0.1596 -2.1669
3 4 -37 -1.8651 -0.9547
3 4 -34 -2.1952 -2.2506
3 4 -31 4.5032 -2.7380
3 4 -28 3.6479 -0.0329
3 4 -25 -0.4383 0.7654
3 4 -22 -2.3747 -3.9695
3 4 -19 9.0491 0.8425
3 4 -16 15.3935 4.8463
3 4 -13 -0.1367 2.9575
3 4 -10 -11.1093 1.3699
3 4 -7 -0.9400 2.0383
3 4 -4 13.9075 0.4679
3 4 -1 0.6151 -3.2139
3 4 2 -23.6863 -0.9209
3 4 5 -22.5374 1.8788
3 4 8 3.8743 -3.8218
3 4 11 21.8846 -4.7632
3 4 14 6.2666 -1.8005
3 4 17 -7.2965 -0.3897
3 4 20 -4.2879 -0.5509
3 4 23 5.8927 2.7183
3 4 26 3.1928 4.9274
3 4 29 -3.0293 0.1240
3 4 32 1.2915 0.4316
3 4 35 5.9175 4.1948
3 4 38 3.1618 1.3456
3 4 41 -2.8348 -1.6110
3 4 44 -2.0729 -1.3013
3 4 47 -1.2699 0.7520
3 4 50 -2.9552 -2.3002
3 4 53 0.5203 -2.2999
3 4 56 2.7165 -0.2202
3 4 59 5.9824 -1.5669
3 4 62 0.6786 -1.3669
3 4 65 0.0507 0.6480
3 4 68 -3.0841 2.4182
3 4 71 0.0648 0.3123
3 4 74 -1.6078 0.2044
3 4 77 0.6156 4.0541
3 5 -77 4.5073 -0.4418
3 5 -74 2.1093 -0.3761
3 5 -71 -0.6329 -2.0040
3 5 -68 0.6487 3.1969
3 5 -65 -1.1424 0.8909
3 5 -62 -4.0247 -2.8809
3 5 -59 0.4224 0.1815
3 5 -56 1.7818 3.3252
3 5 -53 -0.7135 1.7890
3 5 -50 -4.2184 1.0284
3 5 -47 -1.7307 0.5321
3 5 -44 -1.9224 -2.0492
3 5 -41 2.3894 -0.9887
3 5 -38 -4.5305 3.3391
3 5 -35 -2.2482 -0.4114
3 5 -32 0.1181 -5.9080
3 5 -29 4.2827 -2.4346
3 5 -26 -2.0349 2.5967
3 5 -23 -2.3166 1.0734
3 5 -20 3.5767 -2.5263
3 5 -17 5.4283 0.0433
3 5 -14 8.4059 0.5478
3 5 -11 -7.0841 1.6638
3 5 -8 -4.9077 4.3206
3 5 -5 1.7156 1.2644
3 5 -2 16.9810 -3.6869
3 5 1 -7.0802 0.0971
3 5 4 -18.5864 4.8980
3 5 7 -12.8851 -0.2172
3 5 10 6.9147 -6.8201
3 5 13 7.9309 -2.5076
3 5 16 -0.9579 0.9582
3 5 19 -3.2616 0.1112
3 5 22 1.7300 -0.8069
3 5 25 6.9533 -1.1550
3 5 28 -1.6993 -1.6460
3 5 31 -5.9215 2.2918
3 5 34 1.9654 5.6175
3 5 37 4.5653 1.9271
3 5 40 1.1200 -3.1817
3 5 43 -1.1018 0.6049
3 5 46 -2.6721 3.5442
3 5 49 -3.9782 -0.2296
3 5 52 -2.6312 -2.6712
3 5 55 2.1683 -1.9688
3 5 58 1.1998 -1.5874
3 5 61 3.3774 -0.1289
3 5 64 -0.9847 0.4516
3 5 67 0.9093 -0.1234
3 5 70 0.1288 -2.1099
3 5 73 0.3332 1.2104
3 5 76 -3.5884 2.7055
3 6 -75 4.3316 0.9476
3 6 -72 -0.5010 0.5411
3 6 -69 -0.8423 -0.1555
3 6 -66 1.1094 -0.3169
3 6 -63 -3.6929 -0.8523
3 6 -60 -2.8051 -1.7972
3 6 -57 0.6548 0.0133
3 6 -54 0.4245 1.6198
3 6 -51 -1.3042 2.9840
3 6 -48 -3.5030 0.6146
3 6 -45 -1.7561 -2.4111
3 6 -42 -2.0071 1.6613
3 6 -39 1.8409 4.8384
3 6 -36 -3.7968 1.4450
3 6 -33 1.3171 -2.9845
3 6 -30 1.9177 -2.6424
3 6 -27 -2.2424 -1.0170
3 6 -24 -6.2497 -0.7146
3 6 -21 -5.5734 -0.1870
3 6 -18 2.5601 -2.1079
3 6 -15 4.1262 -3.6164
3 6 -12 7.0810 0.5479
3 6 -9 -10.9251 5.5517
3 6 -6 -3.1488 1.5996
3 6 -3 5.4673 -1.9063
3 6 0 10.3573 1.9299
3 6 3 -9.5829 5.3351
3 6 6 -5.9923 1.1708
3 6 9 -1.0559 -1.9958
3 6 12 5.5737 -1.8246
3 6 15 0.1726 -2.5670
3 6 18 -2.7936 -0.8952
3 6 21 -2.5978 0.6695
3 6 24 3.0465 -3.9422
3 6 27 2.2432 -5.7455
3 6 30 -5.3239 0.1785
3 6 33 -1.6638 4.9732
3 6 36 3.4078 1.5788
3 6 39 4.0330 -0.6648
3 6 42 0.6790 2.1244
3 6 45 -2.7584 2.9612
3 6 48 -6.8905 1.6174
3 6 51 -2.8662 1.0257
3 6 54 -0.1030 -0.9119
3 6 57 1.3708 -2.7617
3 6 60 1.4320 -1.2653
3 6 63 1.9424 1.4751
3 6 66 -1.4567 -2.8344
3 6 69 0.1988 -2.4342
3 6 72 -0.9554 0.6254
3 6 75 -2.9399 3.1017
3 7 -73 1.3574 1.4913
3 7 -70 0.1922 -0.7767
3 7 -67 -0.0185 -0.7421
3 7 -64 0.0263 -2.1775
3 7 -61 -2.7191 0.5055
3 7 -58 -1.1741 -1.4258
3 7 -55 0.0686 0.8916
3 7 -52 1.5389 1.4663
3 7 -49 -0.1176 0.6369
3 7 -46 -4.5540 0.6013
3 7 -43 -2.6650 3.0935
3 7 -40 0.6751 3.8968
3 7 -37 2.1582 -1.9408
3 7 -34 -0.8270 -3.2166
3 7 -31 1.8277 0.8093
3 7 -28 2.0000 0.3847
3 7 -25 -5.3286 -3.0613
3 7 -22 -6.4222 -2.8722
3 7 -19 -5.3927 -1.4908
3 7 -16 4.8547 -1.6538
3 7 -13 1.5249 1.3778
3 7 -10 -4.7542 3.9949
3 7 -7 -9.6694 0.3024
3 7 -4 5.1521 -1.7679
3 7 -1 8.1471 4.4707
3 7 2 1.5339 4.6627
3 7 5 -6.1957 -1.1489
3 7 8 -0.2374 -1.9847
3 7 11 0.4307 0.8262
3 7 14 4.1304 -0.4973
3 7 17 -0.3420 -2.5829
3 7 20 -0.5936 -1.3042
3 7 23 -1.9417 -3.2445
3 7 26 0.2145 -3.4249
3 7 29 -1.1228 1.2478
3 7 32 -3.9181 2.7568
3 7 35 2.1630 -0.9339
3 7 38 0.7616 -0.6140
3 7 41 3.5207 2.8871
3 7 44 -0.2731 3.6673
3 7 47 -1.0530 0.8181
3 7 50 -3.6616 -0.3596
3 7 53 -1.7826 0.2428
3 7 56 -2.6329 -1.2782
3 7 59 -2.1653 0.5896
3 7 62 -0.0869 0.2336
3 7 65 1.7725 -1.8444
3 7 68 0.9145 -2.6229
3 7 71 0.1072 -0.2734
3 7 74 -2.4595 1.9540
3 8 -71 0.5964 0.4365
3 8 -68 2.9351 -1.3414
3 8 -65 2.8204 -0.4902
3 8 -62 2.2264 -2.7975
3 8 -59 -2.2580 1.3522
3 8 -56 -3.2111 1.9342
3 8 -53 0.7848 0.9743
3 8 -50 1.2233 -1.8713
3 8 -47 -0.6193 0.7917
3 8 -44 -2.7145 5.1521
3 8 -41 0.4956 2.0407
3 8 -38 3.0524 -3.2300
3 8 -35 0.6394 -4.4041
3 8 -32 0.6762 -0.3360
3 8 -29 2.0517 2.1326
3 8 -26 2.4706 -0.6405
3 8 -23 -5.9177 -4.3954
3 8 -20 -5.4801 -3.9337
3 8 -17 0.3780 1.1521
3 8 -14 4.3173 4.9093
3 8 -11 -3.9478 2.8624
3 8 -8 -8.3896 -1.7610
3 8 -5 -0.1536 -1.3412
3 8 -2 5.5772 4.0278
3 8 1 3.4372 5.0363
3 8 4 -0.2193 -0.8991
3 8 7 -2.2202 -4.1833
3 8 10 0.5684 -2.4953
3 8 13 0.9181 0.6142
3 8 16 4.9619 0.8692
3 8 19 -1.2695 -2.8476
3 8 22 -3.5965 -4.5079
3 8 25 -3.7267 -0.5589
3 8 28 -0.3239 4.4709
3 8 31 1.6204 2.1994
3 8 34 -0.0686 -0.8973
3 8 37 2.5337 -0.9413
3 8 40 -3.5039 1.7924
3 8 43 0.6910 3.7271
3 8 46 0.7114 1.7124
3 8 49 -0.6218 -1.9975
3 8 52 -3.1121 -3.3721
3 8 55 -0.7354 0.7722
3 8 58 -0.9516 0.8204
3 8 61 -1.9489 -1.9612
3 8 64 0.3622 -2.6989
3 8 67 1.8875 -1.5893
3 8 70 -2.1395 2.0261
3 9 -66 3.7544 0.7592
3 9 -63 2.8240 -1.1451
3 9 -60 0.3362 0.1545
3 9 -57 -1.1410 2.2005
3 9 -54 -0.5499 1.1883
3 9 -51 1.5634 -0.9536
3 9 -48 -0.8092 1.0366
3 9 -45 0.4311 2.5977
3 9 -42 0.0627 0.2551
3 9 -39 1.6077 -3.5708
3 9 -36 2.2171 -2.6834
3 9 -33 -2.1106 -0.8116
3 9 -30 0.0951 0.0064
3 9 -27 3.1062 -0.0564
3 9 -24 3.9545 -2.7685
3 9 -21 -1.5419 -3.1190
3 9 -18 -2.5231 2.4236
3 9 -15 2.7791 5.4649
3 9 -12 -1.4657 1.6647
3 9 -9 -4.0694 -1.6528
3 9 -6 -5.1595 0.4163
3 9 -3 2.6520 2.3310
3 9 0 6.1987 1.7618
3 9 3 7.6181 -0.6411
3 9 6 2.0206 -2.5797
3 9 9 -5.1968 -3.0491
3 9 12 -1.7154 -0.5808
3 9 15 1.5718 1.2964
3 9 18 2.3079 -2.0179
3 9 21 -3.7033 -4.0805
3 9 24 -3.6207 0.7828
3 9 27 1.5337 3.8144
3 9 30 1.2681 1.5665
3 9 33 1.3242 -0.3986
3 9 36 -0.7981 1.2711
3 9 39 -4.2975 1.3750
3 9 42 -5.0256 0.7536
3 9 45 1.8014 1.8170
3 9 48 2.9333 -2.0017
3 9 51 -2.6212 -2.1627
3 9 54 -0.2588 0.5097
3 9 57 1.3607 0.8562
3 9 60 -1.4186 -3.1269
3 9 63 -0.9661 -4.7754
3 9 66 2.0245 0.7657
3 10 -64 4.0613 1.8133
3 10 -61 0.3898 2.8878
3 10 -58 -1.0856 2.8218
3 10 -55 0.2852 -3.9285
3 10 -52 -0.4303 -0.2706
3 10 -49 0.5616 2.3022
3 10 -46 0.8080 1.9403
3 10 -43 1.9155 -1.2138
3 10 -40 1.5886 -2.8020
3 10 -37 0.8770 -1.6113
3 10 -34 -0.0990 -0.1984
3 10 -31 -3.9798 0.8189
3 10 -28 0.5156 -1.2916
3 10 -25 4.6258 -3.4209
3 10 -22 3.9486 -1.4123
3 10 -19 0.3303 3.5052
3 10 -16 -1.6901 3.1663
3 10 -13 4.7527 -1.9219
3 10 -10 0.5947 -1.1393
3 10 -7 -1.8698 3.1605
3 10 -4 -6.8322 3.3144
3 10 -1 2.9380 -0.0384
3 10 2 11.3476 -1.5226
3 10 5 7.3439 -1.8777
3 10 8 -1.7949 -0.2439
3 10 11 -2.9872 1.1238
3 10 14 2.8442 -1.2985
3 10 17 3.8137 -4.6315
3 10 20 -2.5330 -1.9938
3 10 23 -3.1103 2.8380
3 10 26 -1.2911 2.5457
3 10 29 2.0172 -2.1880
3 10 32 -1.3881 -1.5733
3 10 35 0.4610 2.3155
3 10 38 -0.2911 3.9438
3 10 41 -5.4407 2.2181
3 10 44 0.6248 -1.6047
3 10 47 1.0658 -2.1184
3 10 50 -0.4977 -1.3398
3 10 53 -3.6171 2.2292
3 10 56 1.9404 1.2692
3 10 59 2.2309 -3.1390
3 10 62 -0.3485 -3.3720
3 11 -56 1.5887 -1.8037
3 11 -53 3.1028 -3.3659
3 11 -50 1.3782 4.2007
3 11 -47 -0.4453 2.0441
3 11 -44 0.3770 -1.1881
3 11 -41 -0.1871 -1.3233
3 11 -38 1.0680 -2.3753
3 11 -35 -1.3852 0.4434
3 11 -32 -0.7988 1.2334
3 11 -29 -1.3687 -0.3323
3 11 -26 3.2943 -4.4759
3 11 -23 4.3437 -1.4835
3 11 -20 2.1517 3.1063
3 11 -17 0.1976 1.4335
3 11 -14 -0.0519 -2.7382
3 11 -11 4.4114 -1.5185
3 11 -8 -0.6515 3.0196
3 11 -5 -4.5920 3.4821
3 11 -2 -2.6695 1.0959
3 11 1 9.3352 -1.0185
3 11 4 9.8341 -2.0214
3 11 7 0.3273 1.0594
3 11 10 -2.4036 3.1706
3 11 13 2.5473 -0.9227
3 11 16 3.7477 -6.0268
3 11 19 4.1241 -2.8432
3 11 22 -1.0771 2.4189
3 11 25 1.9723 1.1914
3 11 28 -0.4473 -1.3253
3 11 31 -0.7481 -2.1251
3 11 34 -0.6024 0.6341
3 11 37 0.3686 3.0458
3 11 40 -1.1210 3.1593
3 11 43 -2.5755 -0.5349
3 11 46 3.4958 -2.0067
3 11 49 -0.4615 0.6092
3 11 52 -2.0956 1.5318
3 11 55 -0.0726 -0.8122
3 11 58 2.0773 -0.2646
3 12 -54 3.7450 -2.0294
3 12 -51 2.6303 -0.1353
3 12 -48 -0.0910 1.4664
3 12 -45 -2.0501 1.2660
3 12 -42 1.5370 1.3341
3 12 -39 -0.0872 0.7426
3 12 -36 -0.1001 -0.7858
3 12 -33 -4.0298 1.3432
3 12 -30 -0.8791 -2.9085
3 12 -27 0.7616 -3.0027
3 12 -24 3.1870 -0.1175
3 12 -21 3.0410 1.8776
3 12 -18 2.6232 -1.6775
3 12 -15 0.5646 -2.2295
3 12 -12 -1.7014 0.9017
3 12 -9 -0.8014 2.0010
3 12 -6 -1.0043 2.2984
3 12 -3 -0.7610 2.3588
3 12 0 2.3259 -0.2596
3 12 3 5.1879 -1.1747
3 12 6 0.5893 0.9856
3 12 9 -0.7908 2.6170
3 12 12 2.5853 -2.8275
3 12 15 5.3664 -3.4189
3 12 18 4.5455 -0.2257
3 12 21 5.4817 0.2669
3 12 24 -0.0196 -2.3719
3 12 27 -2.8689 -1.4728
3 12 30 -2.0492 0.5764
3 12 33 2.7575 0.7117
3 12 36 4.4076 2.4732
3 12 39 -0.2271 2.3427
3 12 42 -0.0650 -0.0797
3 12 45 2.7413 -1.0497
3 12 48 -0.3068 2.8815
3 12 51 -3.8835 0.7566
3 12 54 -2.6457 -1.3891
3 13 -49 -0.4657 -0.2262
3 13 -46 -1.1747 -0.7402
3 13 -43 -2.5210 1.9813
3 13 -40 1.7424 1.4371
3 13 -37 -0.3092 2.0460
3 13 -34 -1.9469 1.0620
3 13 -31 -3.6791 -2.2811
3 13 -28 -0.2302 -4.6071
3 13 -25 -0.0298 1.5444
3 13 -22 0.8035 2.1483
3 13 -19 3.0903 -2.3709
3 13 -16 2.4644 -2.1033
3 13 -13 -1.4096 2.6027
3 13 -10 -4.2577 3.0602
3 13 -7 -0.9623 0.7680
3 13 -4 1.0738 1.3107
3 13 -1 -0.0777 0.3021
3 13 2 0.5240 -0.9894
3 13 5 1.5226 2.8659
3 13 8 0.1549 1.1914
3 13 11 2.5351 -5.2463
3 13 14 1.0339 -5.9390
3 13 17 -0.0774 2.4511
3 13 20 4.4275 2.5704
3 13 23 3.3360 -1.8026
3 13 26 -3.4171 -1.2764
3 13 29 -4.7381 1.1084
3 13 32 5.7927 0.2815
3 13 35 5.9215 1.6178
3 13 38 -0.1431 1.6952
3 13 41 -1.8613 0.1504
3 13 44 2.9508 0.8102
3 13 47 3.2998 2.5337
3 14 -41 -1.0731 4.3830
3 14 -38 2.6910 3.4751
3 14 -35 -1.5789 1.6844
3 14 -32 -3.2943 -2.0329
3 14 -29 -1.7104 -3.9879
3 14 -26 -1.2496 -0.2605
3 14 -23 -0.1868 2.2258
3 14 -20 0.7719 -0.0278
3 14 -17 1.2627 -1.4730
3 14 -14 -0.9784 1.5920
3 14 -11 -0.5653 3.3120
3 14 -8 -0.4962 2.5548
3 14 -5 1.4553 -0.1604
3 14 -2 -0.5697 -1.9886
3 14 1 -2.3713 -0.6980
3 14 4 -2.4844 2.3301
3 14 7 -0.2484 2.1669
3 14 10 2.7283 -3.5539
3 14 13 3.8664 -4.9736
3 14 16 -1.1907 -0.0841
3 14 19 -0.6918 1.6364
3 14 22 2.0498 -0.1515
3 14 25 -5.4733 -0.1556
3 14 28 -5.8681 1.1135
3 14 31 1.1140 0.5603
3 14 34 7.7943 0.0945
3 14 37 0.2935 1.2663
3 14 40 -2.9357 -0.0929
3 15 -33 -2.7381 -0.1492
3 15 -30 -1.1528 -0.8045
3 15 -27 -0.1615 -1.4469
3 15 -24 -0.6333 0.4783
3 15 -21 2.6988 0.3514
3 15 -18 0.1002 1.1958
3 15 -15 -0.8556 -0.0560
3 15 -12 0.1782 0.7210
3 15 -9 0.4234 2.4013
3 15 -6 -2.2482 0.1164
3 15 -3 -0.6446 -2.9916
3 15 0 0.8814 -0.1103
3 15 3 -0.0528 4.6365
3 15 6 -1.5620 1.0492
3 15 9 -0.2964 -3.9431
3 15 12 0.6476 -2.2858
3 15 15 0.3642 -0.1080
3 15 18 -0.6775 1.2604
3 15 21 0.7388 -0.6145
3 15 24 -2.0001 0.6031
3 15 27 -4.7432 0.5019
3 15 30 -0.9801 0.6742
3 16 -16 0.8209 1.6062
3 16 -13 1.5200 -0.4896
3 16 -10 0.0715 -0.0973
3 16 -7 -4.9263 0.9857
3 16 -4 -4.2284 -3.4870
3 16 -1 0.5258 -1.3867
3 16 2 3.5297 4.9587
3 16 5 1.1946 4.4359
3 16 8 -1.3507 -2.4744
3 16 11 -2.5956 -3.0285
3 16 14 -1.0192 1.6100
3 16 17 2.6856 0.7882
4 1 -81 -2.3641 10.6136
4 1 -78 -1.9882 4.1417
4 1 -75 -0.9807 -1.7054
4 1 -72 -0.1893 -1.8970
4 1 -69 -0.8020 -5.6135
4 1 -66 -0.8725 -2.0093
4 1 -63 -0.6556 -0.0109
4 1 -60 0.4524 -6.2608
4 1 -57 -4.4676 -12.7628
4 1 -54 -1.8576 0.6483
4 1 -51 -0.1133 12.5598
4 1 -48 -1.0953 3.0069
4 1 -45 -1.6274 -3.7688
4 1 -42 0.8496 2.9994
4 1 -39 -0.1486 10.6810
4 1 -36 -2.1512 10.0544
4 1 -33 -2.5353 6.0673
4 1 -30 -4.5214 -3.9579
4 1 -27 -3.1165 -13.2888
4 1 -24 -10.3792 -2.8968
4 1 -21 1.4278 5.5741
4 1 -18 14.5442 -7.3026
4 1 -15 22.8975 -18.2624
4 1 -12 -14.9194 -6.7500
4 1 -9 -16.4264 7.1919
4 1 -6 -11.3551 5.1267
4 1 -3 18.3010 2.7058
4 1 0 4.5284 4.8100
4 1 3 6.6980 5.6511
4 1 6 8.0521 9.5332
4 1 9 17.9059 11.8085
4 1 12 12.5186 -0.3405
4 1 15 -6.5813 -10.4973
4 1 18 -1.2480 -3.1000
4 1 21 -9.4218 5.3501
4 1 24 -0.6591 -8.1511
4 1 27 -9.6914 -18.0635
4 1 30 3.6404 -6.4454
4 1 33 -0.4420 2.7673
4 1 36 0.6310 3.9219
4 1 39 -2.6798 1.3503
4 1 42 0.1446 1.2070
4 1 45 -2.6245 -0.1531
4 1 48 -4.1513 8.5433
4 1 51 -0.9914 15.7345
4 1 54 3.2449 1.6942
4 1 57 0.7396 -9.3507
4 1 60 1.8920 -1.4754
4 1 63 -0.0612 4.8815
4 1 66 -0.3927 -1.3940
4 1 69 -1.4060 -8.3829
4 1 72 1.6856 -7.1269
4 1 75 1.6697 -5.2828
4 1 78 -0.2145 2.0269
4 1 81 1.9334 1.0160
4 2 -79 -0.8426 4.4758
4 2 -76 -1.5526 -1.9431
4 2 -73 -1.0110 -0.9157
4 2 -70 -0.2645 -0.9614
4 2 -67 -0.8670 -3.8148
4 2 -64 -0.0202 -0.4865
4 2 -61 1.4150 2.2440
4 2 -58 -0.3849 -5.5740
4 2 -55 -5.8554 -8.5275
4 2 -52 -0.6481 4.4320
4 2 -49 -1.8001 10.4848
4 2 -46 -1.2351 -0.8799
4 2 -43 1.5854 -4.5997
4 2 -40 0.8058 3.6257
4 2 -37 0.0381 5.0959
4 2 -34 -3.0558 2.1001
4 2 -31 -1.2908 1.9568
4 2 -28 -0.9103 -4.0663
4 2 -25 -2.1488 -8.3994
4 2 -22 -6.2540 0.2463
4 2 -19 17.0851 6.6260
4 2 -16 20.4539 -5.8194
4 2 -13 1.8779 -12.1223
4 2 -10 -27.3073 1.7173
4 2 -7 0.2907 8.3324
4 2 -4 -0.7743 0.6457
4 2 -1 -0.4588 -1.4277
4 2 2 -20.8563 1.9708
4 2 5 0.6756 2.6416
4 2 8 15.9059 5.1827
4 2 11 19.6580 6.8139
4 2 14 4.3253 -4.6115
4 2 17 -12.5094 -10.1456
4 2 20 3.7212 2.5779
4 2 23 -1.8716 7.0146
4 2 26 0.0233 -4.8830
4 2 29 -7.6025 -11.2193
4 2 32 3.7025 -0.6980
4 2 35 1.6470 4.5071
4 2 38 -0.8616 1.9333
4 2 41 0.1780 0.5536
4 2 44 -1.7097 -2.1130
4 2 47 -1.0485 -0.8097
4 2 50 -0.2078 6.8406
4 2 53 1.5277 8.1509
4 2 56 1.4677 -3.1990
4 2 59 0.2112 -7.1510
4 2 62 0.7132 1.9734
4 2 65 -0.4374 4.0475
4 2 68 -1.0549 0.4804
4 2 71 1.4186 -5.7722
4 2 74 1.3766 -4.3689
4 2 77 1.2506 0.5147
4 2 80 -0.2014 0.3180
4 3 -77 1.3600 -2.3661
4 3 -74 -1.5693 -0.1315
4 3 -71 0.5068 0.9806
4 3 -68 0.9570 1.0476
4 3 -65 0.6334 -0.9903
4 3 -62 1.2950 0.3078
4 3 -59 1.2593 2.8929
4 3 -56 -1.6251 -1.9580
4 3 -53 -3.3759 -2.0188
4 3 -50 -2.9869 3.7982
4 3 -47 -1.9370 3.1635
4 3 -44 0.2183 -3.3619
4 3 -41 2.8040 -3.4005
4 3 -38 -1.1065 -0.2563
4 3 -35 -0.0366 -2.4589
4 3 -32 -0.9409 -1.2520
4 3 -29 5.3387 2.8349
4 3 -26 0.5660 -1.3326
4 3 -23 -5.8548 -4.5534
4 3 -20 3.6246 1.6848
4 3 -17 21.6822 6.6685
4 3 -14 5.8484 0.0312
4 3 -11 -12.3777 -1.9706
4 3 -8 -10.1826 3.9854
4 3 -5 8.9130 0.7568
4 3 -2 -5.3950 -3.7943
4 3 1 -17.0635 -0.2769
4 3 4 -22.4812 0.5528
4 3 7 -0.2115 -2.6547
4 3 10 17.9466 -2.4064
4 3 13 11.6379 1.1903
4 3 16 -1.9455 -2.3562
4 3 19 -7.6814 -3.4899
4 3 22 5.8600 4.9518
4 3 25 0.2218 5.3240
4 3 28 -1.3609 -0.8231
4 3 31 -2.4228 -2.3995
4 3 34 2.6383 3.3290
4 3 37 2.2504 2.8275
4 3 40 -2.7569 -1.7837
4 3 43 -1.1984 0.3316
4 3 46 -2.1503 -1.4086
4 3 49 0.2007 -3.0426
4 3 52 -0.7221 -0.5633
4 3 55 2.2657 1.4737
4 3 58 3.3434 -0.9235
4 3 61 1.6191 -2.9481
4 3 64 -1.9898 0.8882
4 3 67 -1.3149 2.0780
4 3 70 -2.9265 -0.0577
4 3 73 0.4477 -0.2962
4 3 76 -0.2218 2.9910
4 3 79 2.2707 2.1439
4 4 -78 1.5283 -2.0553
4 4 -75 4.0083 -1.5464
4 4 -72 -0.8476 0.5401
4 4 -69 0.5829 1.0441
4 4 -66 0.5057 3.6537
4 4 -63 -1.9768 -0.4191
4 4 -60 -1.2460 0.3473
4 4 -57 3.8342 3.8504
4 4 -54 0.6075 1.3811
4 4 -51 -3.0616 -0.5098
4 4 -48 -6.3396 0.1662
4 4 -45 1.3506 -0.3252
4 4 -42 0.2404 -1.7070
4 4 -39 2.4331 -2.0858
4 4 -36 -4.0703 -2.2620
4 4 -33 -0.9627 -4.9190
4 4 -30 2.3302 -2.0824
4 4 -27 3.0451 3.4148
4 4 -24 -4.1336 1.7551
4 4 -21 -0.0420 -1.6719
4 4 -18 13.7430 1.5810
4 4 -15 8.9039 5.5682
4 4 -12 -6.4663 3.3320
4 4 -9 -13.4541 1.4617
4 4 -6 0.8769 0.8119
4 4 -3 6.7052 -3.1790
4 4 0 -0.4810 -2.9647
4 4 3 -21.1708 1.3002
4 4 6 -14.6404 -1.6540
4 4 9 0.9069 -6.8828
4 4 12 14.1853 -3.8510
4 4 15 2.3460 3.1480
4 4 18 -2.8965 1.4247
4 4 21 -3.2353 -1.4910
4 4 24 3.4310 1.8627
4 4 27 2.5708 3.1365
4 4 30 -2.1136 2.3145
4 4 33 -0.3413 3.5437
4 4 36 0.6683 2.0857
4 4 39 -1.8075 -2.6817
4 4 42 -3.6185 -2.3003
4 4 45 -0.4714 2.9872
4 4 48 -1.0714 -0.7693
4 4 51 -1.5460 -5.5140
4 4 54 -0.1917 -2.6950
4 4 57 2.3731 0.6706
4 4 60 0.4429 -0.3522
4 4 63 -0.1756 -0.8318
4 4 66 -1.3000 0.1274
4 4 69 1.4004 1.1513
4 4 72 -1.8323 1.1050
4 4 75 -1.4268 4.0749
4 4 78 -2.6655 1.3188
4 5 -76 3.7973 0.1102
4 5 -73 1.6721 -1.1128
4 5 -70 -0.2354 -0.4584
4 5 -67 2.4722 2.0901
4 5 -64 -0.1890 3.0501
4 5 -61 -4.3887 -0.3518
4 5 -58 -0.1126 0.3825
4 5 -55 3.4748 1.8319
4 5 -52 -4.1781 1.4219
4 5 -49 -3.9182 -0.3175
4 5 -46 -3.9658 -1.0842
4 5 -43 3.4539 -1.1765
4 5 -40 -1.3422 0.6643
4 5 -37 0.0739 0.6176
4 5 -34 -3.1099 -0.9689
4 5 -31 3.7074 -3.3463
4 5 -28 2.7776 -0.3526
4 5 -25 -7.1039 3.2005
4 5 -22 -6.9258 1.4565
4 5 -19 0.7584 -1.6860
4 5 -16 8.9061 -0.8865
4 5 -13 -0.0981 1.7279
4 5 -10 -3.5678 2.3507
4 5 -7 -8.0443 1.7776
4 5 -4 8.9575 -0.9911
4 5 -1 3.3877 -2.3015
4 5 2 -4.7556 0.4909
4 5 5 -21.4395 1.8899
4 5 8 -1.7448 -1.7729
4 5 11 4.1155 -3.9565
4 5 14 10.0987 -0.7347
4 5 17 0.4232 1.9609
4 5 20 -2.9715 0.7099
4 5 23 -0.9842 -1.0800
4 5 26 0.5132 -1.5864
4 5 29 -0.2787 0.4316
4 5 32 -4.1395 2.3298
4 5 35 1.1388 2.9791
4 5 38 -0.4969 -0.2419
4 5 41 -1.0002 -1.7879
4 5 44 -0.0031 0.7901
4 5 47 -3.6106 1.1552
4 5 50 -3.0239 -1.4923
4 5 53 -0.6457 -2.1487
4 5 56 0.4826 -0.9480
4 5 59 0.4532 0.5796
4 5 62 -0.3843 0.2891
4 5 65 0.1612 -0.1769
4 5 68 -0.5290 -2.6241
4 5 71 0.3258 -0.2019
4 5 74 -3.0414 2.0449
4 6 -74 1.8113 0.0608
4 6 -71 -0.6823 -0.5687
4 6 -68 0.8655 -1.8862
4 6 -65 0.0182 1.5272
4 6 -62 -1.9959 1.2490
4 6 -59 -1.5662 0.2801
4 6 -56 1.0111 -1.5194
4 6 -53 0.3045 -0.0047
4 6 -50 -4.1520 1.5071
4 6 -47 -2.0633 -0.0408
4 6 -44 -2.0537 0.2116
4 6 -41 2.0820 0.9314
4 6 -38 -1.0731 1.3799
4 6 -35 -0.9580 -0.0145
4 6 -32 0.8374 0.1043
4 6 -29 3.2721 -0.0870
4 6 -26 -1.8109 -0.3749
4 6 -23 -10.3079 0.1939
4 6 -20 -3.4152 0.0904
4 6 -17 0.2014 -1.4077
4 6 -14 3.2357 -1.9602
4 6 -11 -7.2237 0.3812
4 6 -8 -3.9992 0.9585
4 6 -5 -0.3921 0.2211
4 6 -2 12.9246 -0.4824
4 6 1 -1.5841 0.6229
4 6 4 -5.6278 0.7132
4 6 7 -10.8094 0.9017
4 6 10 3.7442 1.7723
4 6 13 2.0138 0.1310
4 6 16 4.0461 -1.0504
4 6 19 -0.8249 -0.4205
4 6 22 -1.1221 -0.1366
4 6 25 2.3750 -1.3922
4 6 28 -1.5657 -1.8506
4 6 31 0.0345 -0.7135
4 6 34 -2.8200 -0.0646
4 6 37 -0.2738 0.5624
4 6 40 -1.7132 0.7492
4 6 43 1.4168 0.0065
4 6 46 -1.0852 0.2395
4 6 49 -2.5898 0.4314
4 6 52 0.5381 0.9485
4 6 55 -0.5110 0.2256
4 6 58 -2.6053 -1.0488
4 6 61 -1.3944 0.5977
4 6 64 -0.6018 0.3083
4 6 67 0.8363 0.0372
4 6 70 -0.1548 -1.1540
4 6 73 -1.4158 -0.9184
4 7 -72 -0.0502 0.4562
4 7 -69 -0.1093 0.7346
4 7 -66 0.8463 -1.5028
4 7 -63 0.5867 1.0882
4 7 -60 0.1453 -0.7064
4 7 -57 -0.4662 0.7699
4 7 -54 -0.2414 -1.0515
4 7 -51 0.4536 -0.4159
4 7 -48 -2.5263 -0.2432
4 7 -45 -1.6887 1.2328
4 7 -42 1.2666 2.1900
4 7 -39 2.0268 -0.7210
4 7 -36 0.9722 -1.8920
4 7 -33 -1.4794 0.3302
4 7 -30 1.8949 2.2294
4 7 -27 0.4399 0.8821
4 7 -24 -3.5450 -1.9834
4 7 -21 -7.8751 -1.8217
4 7 -18 -0.0484 -0.6465
4 7 -15 0.9154 0.6680
4 7 -12 -2.1898 0.5904
4 7 -9 -9.0351 -0.4995
4 7 -6 0.7673 -1.3228
4 7 -3 4.4337 1.1561
4 7 0 6.0742 2.0306
4 7 3 -4.4614 0.0916
4 7 6 -2.6534 -1.0759
4 7 9 -2.7911 0.6165
4 7 12 4.4303 1.3145
4 7 15 2.5813 0.2799
4 7 18 1.1063 -0.6130
4 7 21 -2.0930 -1.6324
4 7 24 -3.5608 -0.5406
4 7 27 -0.4833 1.1648
4 7 30 -0.6522 0.0230
4 7 33 4.0884 -2.2633
4 7 36 -0.5748 -0.5364
4 7 39 0.9563 0.8113
4 7 42 -0.5996 1.0229
4 7 45 1.7770 0.2441
4 7 48 -2.6592 -0.4213
4 7 51 -2.5416 -0.4527
4 7 54 -2.3148 0.8737
4 7 57 -1.2230 2.1315
4 7 60 -1.5338 -0.2480
4 7 63 1.1371 -2.3087
4 7 66 2.5255 -0.9937
4 7 69 0.7892 0.2966
4 8 -67 1.5486 1.6082
4 8 -64 1.9566 -0.9687
4 8 -61 0.0496 -0.5201
4 8 -58 -2.1639 0.1008
4 8 -55 1.1624 2.7629
4 8 -52 2.1800 0.1065
4 8 -49 1.2875 -0.8514
4 8 -46 -0.8653 0.1081
4 8 -43 0.6053 2.0159
4 8 -40 3.2669 -0.7855
4 8 -37 0.5744 -3.3642
4 8 -34 0.5073 -1.4134
4 8 -31 -3.0606 0.3163
4 8 -28 1.4870 0.3553
4 8 -25 0.5633 0.1971
4 8 -22 -2.0382 -1.3401
4 8 -19 -1.6507 -0.8220
4 8 -16 2.3869 1.8646
4 8 -13 0.4022 3.6236
4 8 -10 -5.6530 0.6815
4 8 -7 -5.7565 -1.9230
4 8 -4 0.6686 0.2856
4 8 -1 3.9807 2.0138
4 8 2 6.8758 0.0415
4 8 5 2.3227 -1.4557
4 8 8 -1.8749 -1.6888
4 8 11 -2.8032 -2.0927
4 8 14 0.6619 -0.6645
4 8 17 1.1543 1.6274
4 8 20 -2.8806 -0.5267
4 8 23 -4.2875 -1.4976
4 8 26 -2.4662 2.0721
4 8 29 3.3508 2.6669
4 8 32 3.0076 0.2218
4 8 35 2.7848 -0.1599
4 8 38 -2.8796 0.8353
4 8 41 -2.2742 -0.0838
4 8 44 0.3136 0.1382
4 8 47 2.6411 0.3365
4 8 50 -2.2799 -2.3898
4 8 53 -2.2781 -1.5686
4 8 56 -0.6292 1.2141
4 8 59 -1.2494 0.6854
4 8 62 -2.8913 -2.9321
4 8 65 2.7264 -2.8201
4 8 68 3.4253 2.1334
4 9 -65 4.1284 -0.6031
4 9 -62 2.1076 -0.0643
4 9 -59 -0.9007 1.2537
4 9 -56 -0.4189 1.8203
4 9 -53 2.0596 1.3887
4 9 -50 -0.1848 0.4832
4 9 -47 0.6803 -0.3783
4 9 -44 2.1207 -0.4554
4 9 -41 2.2178 -0.2628
4 9 -38 2.6524 -1.5075
4 9 -35 -1.6608 -1.0116
4 9 -32 -1.3349 -0.8690
4 9 -29 -1.9625 -1.7686
4 9 -26 3.0525 -0.3990
4 9 -23 2.6702 1.2732
4 9 -20 -0.4843 1.2989
4 9 -17 0.5022 1.2799
4 9 -14 0.2136 1.4895
4 9 -11 2.7587 1.1386
4 9 -8 -2.1700 0.3685
4 9 -5 -4.1682 0.3085
4 9 -2 -2.0249 0.6346
4 9 1 9.5621 -1.3140
4 9 4 10.3891 -1.2057
4 9 7 1.0267 -0.1341
4 9 10 -5.8296 -1.2599
4 9 13 -0.5043 -2.3766
4 9 16 0.8612 -0.8813
4 9 19 0.1126 0.7641
4 9 22 -7.2469 0.4943
4 9 25 -2.3231 1.1727
4 9 28 1.3456 1.4715
4 9 31 3.0210 0.1760
4 9 34 0.7672 0.9749
4 9 37 -0.7842 2.1456
4 9 40 -2.3170 0.8045
4 9 43 -0.9630 0.0317
4 9 46 3.5127 -0.8161
4 9 49 -1.3759 -0.2811
4 9 52 -2.6732 -1.7997
4 9 55 -0.5871 -0.5983
4 9 58 0.7123 -0.7951
4 9 61 -1.4103 -3.0967
4 9 64 -0.0091 -3.6266
4 10 -60 -1.9444 3.5351
4 10 -57 -0.6861 1.2782
4 10 -54 1.6015 0.1098
4 10 -51 1.9530 0.6527
4 10 -48 1.5803 2.0484
4 10 -45 1.3129 -0.5581
4 10 -42 1.7229 -1.6657
4 10 -39 0.1456 -0.8062
4 10 -36 -0.1167 -0.1366
4 10 -33 -3.1038 0.6458
4 10 -30 -0.5429 -0.5110
4 10 -27 1.0947 -1.2851
4 10 -24 4.1190 -0.4745
4 10 -21 3.9035 1.5192
4 10 -18 0.6804 2.3160
4 10 -15 0.5931 0.1609
4 10 -12 0.4941 -0.8823
4 10 -9 3.7718 0.3704
4 10 -6 -5.7155 1.4752
4 10 -3 -5.7895 0.1672
4 10 0 4.9641 -1.2953
4 10 3 16.9113 -1.5246
4 10 6 5.6260 0.0670
4 10 9 -2.3369 0.9859
4 10 12 -4.4315 -0.5197
4 10 15 1.5142 -1.5663
4 10 18 -2.3509 -0.8782
4 10 21 -1.7698 1.4209
4 10 24 -4.4153 2.2265
4 10 27 4.2072 0.0231
4 10 30 2.2795 -1.2250
4 10 33 0.4299 -0.8144
4 10 36 -0.2148 1.6465
4 10 39 -2.7006 2.1251
4 10 42 0.0441 0.0830
4 10 45 0.6340 -1.1517
4 10 48 2.3765 -1.1283
4 10 51 -2.9803 1.0291
4 10 54 0.1560 -0.9325
4 10 57 0.5114 -1.1679
4 10 60 0.2462 -1.3252
4 11 -55 0.8354 0.4679
4 11 -52 1.9398 -0.5850
4 11 -49 0.1594 -1.2501
4 11 -46 0.1484 0.8321
4 11 -43 -1.3028 -0.1166
4 11 -40 1.7520 -0.5059
4 11 -37 -0.0196 0.4919
4 11 -34 -1.0704 0.4904
4 11 -31 -2.0972 0.8242
4 11 -28 0.9926 -0.4651
4 11 -25 1.9099 0.1440
4 11 -22 2.3366 -0.3932
4 11 -19 2.5677 0.2608
4 11 -16 1.4156 0.5091
4 11 -13 0.6079 -0.8316
4 11 -10 0.0470 -0.6682
4 11 -7 0.3782 0.1079
4 11 -4 -5.5622 0.7175
4 11 -1 0.7367 -0.0059
4 11 2 7.4637 -0.9249
4 11 5 7.8536 0.7978
4 11 8 -1.5539 0.7851
4 11 11 1.0622 0.6118
4 11 14 -0.0959 -0.8484
4 11 17 2.0880 -0.1238
4 11 20 -0.3286 -0.4083
4 11 23 0.0412 0.3148
4 11 26 -2.3125 1.0789
4 11 29 0.6928 -0.6641
4 11 32 1.8505 -1.0428
4 11 35 2.4011 -0.9029
4 11 38 0.8266 0.7045
4 11 41 -2.0099 0.3170
4 11 44 3.7044 0.3089
4 11 47 2.5590 0.2474
4 11 50 -0.7295 0.2174
4 11 53 -2.7945 -1.1020
4 11 56 -0.6163 -1.2216
4 12 -50 2.5479 -1.4497
4 12 -47 -1.5042 -1.5671
4 12 -44 -1.1797 1.7833
4 12 -41 -2.2283 0.2447
4 12 -38 1.2149 -0.5518
4 12 -35 -2.4785 1.0866
4 12 -32 -3.8720 -0.5659
4 12 -29 -0.7450 -0.2129
4 12 -26 2.6227 0.6311
4 12 -23 1.7955 1.1388
4 12 -20 0.4684 -2.0878
4 12 -17 2.0608 -1.2264
4 12 -14 0.4739 1.6680
4 12 -11 -2.9122 0.8294
4 12 -8 -1.7493 -0.3061
4 12 -5 1.9821 -0.0655
4 12 -2 -0.5970 0.5559
4 12 1 1.2125 -0.0550
4 12 4 0.4552 -0.5635
4 12 7 1.6682 1.8386
4 12 10 1.2789 -1.4288
4 12 13 2.7000 -1.2878
4 12 16 -0.5112 0.3491
4 12 19 1.2777 0.8148
4 12 22 2.9070 -2.0517
4 12 25 -4.8477 -0.7038
4 12 28 -4.9447 1.2828
4 12 31 1.0127 0.7291
4 12 34 10.0573 1.1119
4 12 37 3.0396 -0.3748
4 12 40 -2.3770 -1.8259
4 12 43 -0.0429 -0.4864
4 12 46 4.0408 2.2338
4 12 49 0.0066 0.0654
4 13 -45 -2.5946 -1.0308
4 13 -42 -0.8437 1.7329
4 13 -39 0.8451 1.1628
4 13 -36 0.9866 1.5790
4 13 -33 -5.9017 0.4898
4 13 -30 -5.7786 -2.8200
4 13 -27 -0.0190 -0.5517
4 13 -24 1.1040 1.5479
4 13 -21 0.9122 -0.2381
4 13 -18 0.8090 -1.5324
4 13 -15 1.3215 0.4478
4 13 -12 -2.8425 2.3341
4 13 -9 -2.9723 0.8358
4 13 -6 1.9680 0.3764
4 13 -3 4.3219 0.4837
4 13 0 -0.8913 -0.4069
4 13 3 -1.6679 -0.5497
4 13 6 -2.7340 -0.7323
4 13 9 0.5376 -0.6754
4 13 12 2.3348 -3.0700
4 13 15 -0.1169 -0.2443
4 13 18 1.8149 1.3517
4 13 21 2.6297 -0.7198
4 13 24 -0.3235 -0.8485
4 13 27 -13.1440 0.1303
4 13 30 -2.6519 -0.0095
4 13 33 5.6604 1.9084
4 13 36 8.6007 2.2759
4 13 39 -2.0781 -0.4790
4 13 42 -0.8568 -0.8826
4 13 45 4.6781 1.5966
4 14 -37 1.9355 0.5923
4 14 -34 -2.8837 0.8256
4 14 -31 -5.4479 -1.3889
4 14 -28 -2.1906 -1.5077
4 14 -25 0.2512 0.0058
4 14 -22 -0.0677 0.5894
4 14 -19 0.8589 -0.7612
4 14 -16 -0.0377 0.5050
4 14 -13 0.0638 0.3732
4 14 -10 -1.3810 1.4022
4 14 -7 -0.0501 1.2828
4 14 -4 0.7869 -1.3601
4 14 -1 1.4208 -1.5252
4 14 2 0.1616 0.4886
4 14 5 -0.3789 1.0086
4 14 8 -0.1930 -1.5982
4 14 11 1.6016 -2.4649
4 14 14 1.2468 -0.1134
4 14 17 -2.1337 -0.4908
4 14 20 1.9534 -0.9694
4 14 23 -2.6652 -1.0054
4 14 26 -5.7912 1.8584
4 14 29 -7.7202 0.0468
4 14 32 3.5402 0.1044
4 14 35 3.6724 2.1226
4 15 -23 -0.2455 -0.9651
4 15 -20 0.8969 0.1048
4 15 -17 0.6910 -0.3058
4 15 -14 0.1731 -1.0217
4 15 -11 0.1660 -1.1109
4 15 -8 -1.8082 1.1967
4 15 -5 -1.7716 0.2587
4 15 -2 1.2781 -4.2070
4 15 1 3.4386 0.3900
4 15 4 1.9964 4.0039
4 15 7 -1.7402 -0.8797
4 15 10 -0.3119 -3.2447
4 15 13 0.0108 0.2662
4 15 16 2.4356 4.4772
4 15 19 1.5465 -1.1956
4 15 22 0.3021 -2.5629
5 1 -80 -1.9951 6.4888
5 1 -77 -0.5132 1.0451
5 1 -74 -0.5571 -3.3925
5 1 -71 -0.9429 -0.6222
5 1 -68 0.2165 -1.5576
5 1 -65 -1.8939 -0.6851
5 1 -62 0.9417 1.5802
5 1 -59 -0.4704 -5.1614
5 1 -56 -2.6637 -12.6497
5 1 -53 -4.1580 -3.8263
5 1 -50 0.9206 10.7314
5 1 -47 0.4765 4.3021
5 1 -44 -0.1871 -7.6097
5 1 -41 -1.0448 0.9886
5 1 -38 -2.1858 11.8448
5 1 -35 -0.3178 11.2800
5 1 -32 -1.6385 3.6666
5 1 -29 0.5943 -2.6401
5 1 -26 -6.1558 -8.0423
5 1 -23 -3.7231 -1.2811
5 1 -20 4.8576 8.6351
5 1 -17 23.5212 -4.1934
5 1 -14 5.2306 -21.3133
5 1 -11 -4.2786 -11.3646
5 1 -8 -19.3933 8.3175
5 1 -5 -5.3276 6.2381
5 1 -2 -13.5671 -4.4574
5 1 1 -1.0239 -1.4860
5 1 4 -0.3596 5.7265
5 1 7 12.9558 11.1908
5 1 10 13.9985 12.6929
5 1 13 -1.1667 2.5479
5 1 16 -1.4128 -9.2213
5 1 19 -4.5965 -2.4310
5 1 22 9.6194 9.8878
5 1 25 -6.7957 -0.9636
5 1 28 -0.0913 -17.5808
5 1 31 -3.3169 -11.8755
5 1 34 3.1050 2.2068
5 1 37 -3.0127 2.8654
5 1 40 -2.3427 -1.3641
5 1 43 -0.0900 -2.1033
5 1 46 -3.3599 -0.0164
5 1 49 -1.0498 6.4331
5 1 52 1.3684 12.6441
5 1 55 2.6064 3.4816
5 1 58 0.4109 -6.5530
5 1 61 -0.5898 -1.6905
5 1 64 -0.2137 7.1186
5 1 67 -1.3223 1.5824
5 1 70 0.5515 -8.2102
5 1 73 3.5559 -9.2001
5 1 76 2.9005 -0.7951
5 1 79 0.1833 2.8240
5 2 -78 -1.2831 -1.4571
5 2 -75 -1.4077 -2.1261
5 2 -72 -2.7145 0.3775
5 2 -69 0.4322 1.0636
5 2 -66 0.4957 -2.4804
5 2 -63 0.1670 -0.4107
5 2 -60 2.9201 2.8943
5 2 -57 -0.8398 -1.8775
5 2 -54 -3.0431 -8.3936
5 2 -51 -3.1595 0.1211
5 2 -48 1.0659 6.7937
5 2 -45 1.3084 -1.2299
5 2 -42 -0.3795 -4.8058
5 2 -39 -1.5224 3.2287
5 2 -36 -2.3050 4.3957
5 2 -33 -0.0709 1.1121
5 2 -30 1.5575 2.2285
5 2 -27 2.4072 0.7924
5 2 -24 -5.5192 -5.7622
5 2 -21 1.4570 -0.7232
5 2 -18 15.6754 7.1243
5 2 -15 13.2187 -4.0644
5 2 -12 -12.0370 -11.9624
5 2 -9 -10.1406 0.1558
5 2 -6 -6.6103 7.3208
5 2 -3 -0.2263 -1.6327
5 2 0 -15.6350 -4.2050
5 2 3 -10.6373 2.3099
5 2 6 -6.4799 1.7992
5 2 9 9.1425 3.0723
5 2 12 13.8258 7.5784
5 2 15 0.7563 0.2701
5 2 18 0.9293 -7.8819
5 2 21 -3.4663 -0.4727
5 2 24 4.6207 8.7051
5 2 27 -6.6199 -1.7036
5 2 30 -1.2512 -9.5384
5 2 33 -0.1316 -2.0838
5 2 36 1.0112 1.8337
5 2 39 0.4283 -1.6931
5 2 42 -4.1356 -0.2765
5 2 45 -0.7197 2.0603
5 2 48 -2.7941 -1.3998
5 2 51 1.7249 0.5718
5 2 54 0.3397 5.9330
5 2 57 1.3330 0.7995
5 2 60 0.9442 -3.8235
5 2 63 -0.4095 0.3363
5 2 66 -0.7198 4.9859
5 2 69 -1.7579 -0.4593
5 2 72 -1.4479 -5.6268
5 2 75 1.6564 -1.6728
5 2 78 0.9391 0.9848
5 3 -76 1.0645 -2.0594
5 3 -73 -0.2945 0.1229
5 3 -70 -1.6539 0.8357
5 3 -67 1.7314 -0.7890
5 3 -64 0.0712 -1.2430
5 3 -61 0.0259 1.0882
5 3 -58 1.7781 4.6593
5 3 -55 1.6789 1.4960
5 3 -52 -4.0165 -3.4998
5 3 -49 -2.9972 -1.1321
5 3 -46 1.2857 1.1631
5 3 -43 3.2421 -0.0070
5 3 -40 -0.2964 -1.0799
5 3 -37 -0.7756 -2.1393
5 3 -34 -2.9828 -3.2821
5 3 -31 0.3797 -1.4416
5 3 -28 4.2545 3.5354
5 3 -25 -3.1248 1.1602
5 3 -22 -2.9392 -3.3414
5 3 -19 11.5766 0.9460
5 3 -16 13.5888 6.4306
5 3 -13 -5.2239 1.5298
5 3 -10 -14.9215 -1.8099
5 3 -7 -5.3313 0.5230
5 3 -4 1.9523 0.4653
5 3 -1 0.4024 -1.1343
5 3 2 -11.9321 0.2685
5 3 5 -18.5514 -1.7544
5 3 8 -4.8144 -6.2722
5 3 11 8.5879 -1.8470
5 3 14 12.4152 5.6322
5 3 17 -0.5791 1.5700
5 3 20 -0.3176 -4.3657
5 3 23 -3.1522 -0.5843
5 3 26 1.4664 5.2080
5 3 29 -1.4445 2.4004
5 3 32 -1.6369 0.7538
5 3 35 0.3345 0.8546
5 3 38 -3.0379 -2.4439
5 3 41 -3.9366 -1.8914
5 3 44 -4.9555 2.6694
5 3 47 1.5383 0.4958
5 3 50 0.7463 -5.5828
5 3 53 1.0903 -2.9224
5 3 56 1.2606 2.7687
5 3 59 0.2424 0.7174
5 3 62 -2.5061 -2.7967
5 3 65 -2.6328 -0.4832
5 3 68 -1.2099 2.0910
5 3 71 -1.0371 2.0712
5 3 74 -1.1676 1.8575
5 3 77 0.7633 1.5143
5 4 -74 1.1798 1.4019
5 4 -71 -1.7011 -0.4524
5 4 -68 -0.5051 0.2929
5 4 -65 2.2336 0.6899
5 4 -62 -0.9821 1.2667
5 4 -59 1.8913 0.3641
5 4 -56 4.3014 4.1172
5 4 -53 -0.3103 1.6984
5 4 -50 -9.9658 -2.0034
5 4 -47 -1.0151 -2.5508
5 4 -44 2.4645 0.6635
5 4 -41 3.7202 -0.2155
5 4 -38 -1.3702 -2.3577
5 4 -35 -3.3578 -2.5051
5 4 -32 -0.8604 -1.3931
5 4 -29 5.3400 -0.9139
5 4 -26 1.1428 3.4974
5 4 -23 -7.8033 2.6488
5 4 -20 2.8074 -0.8427
5 4 -17 7.4869 0.6295
5 4 -14 -1.5053 4.9114
5 4 -11 -10.3244 2.8845
5 4 -8 -5.1631 -1.6876
5 4 -5 1.5176 -1.8919
5 4 -2 10.8537 -0.3713
5 4 1 -4.1943 -0.9744
5 4 4 -14.5655 -0.7857
5 4 7 -16.9439 -2.8264
5 4 10 6.5358 -4.2787
5 4 13 6.6029 -0.9004
5 4 16 6.8019 4.0538
5 4 19 -1.9783 2.0843
5 4 22 -3.1229 -2.0580
5 4 25 -0.2960 0.0914
5 4 28 0.8260 3.7820
5 4 31 0.4126 3.2309
5 4 34 -2.9838 0.7923
5 4 37 -2.4109 -1.0539
5 4 40 -5.2854 -2.0118
5 4 43 -3.1488 -0.5153
5 4 46 0.2253 1.0214
5 4 49 -1.7558 -1.7820
5 4 52 -0.6526 -4.3161
5 4 55 -0.3617 -1.7897
5 4 58 1.1746 1.6408
5 4 61 -0.6512 1.2123
5 4 64 -0.6224 -1.0636
5 4 67 -0.4011 0.1659
5 4 70 -1.4026 0.2530
5 4 73 -3.2505 1.4198
5 4 76 -3.4505 0.4178
5 5 -72 1.1182 0.0476
5 5 -69 0.8681 -1.0965
5 5 -66 -0.0741 1.2731
5 5 -63 -2.4978 2.3393
5 5 -60 -2.2829 1.0516
5 5 -57 3.3241 -1.9748
5 5 -54 1.3257 0.6358
5 5 -51 -4.0478 -0.2907
5 5 -48 -5.8152 -0.0267
5 5 -45 2.9624 -1.0259
5 5 -42 1.9095 -0.8608
5 5 -39 1.7676 -1.4467
5 5 -36 -2.7423 1.4455
5 5 -33 -1.0987 2.1646
5 5 -30 3.5520 -0.2734
5 5 -27 -0.3678 -0.7253
5 5 -24 -8.8100 2.9779
5 5 -21 -5.0491 2.0701
5 5 -18 5.9618 -0.5425
5 5 -15 1.1359 -0.3956
5 5 -12 -4.7068 -0.1430
5 5 -9 -8.1497 -0.8886
5 5 -6 0.6386 -0.4640
5 5 -3 3.6003 -0.0044
5 5 0 7.9335 -2.4162
5 5 3 -11.4494 -3.0337
5 5 6 -5.3922 1.3900
5 5 9 -2.8501 1.8862
5 5 12 8.7993 -0.1566
5 5 15 0.5543 -0.4829
5 5 18 0.2005 1.9615
5 5 21 -1.8859 2.3762
5 5 24 -2.7662 0.8809
5 5 27 2.5025 0.4502
5 5 30 -0.5851 -1.1999
5 5 33 2.0210 -1.4990
5 5 36 -4.1632 0.6364
5 5 39 -4.7241 0.6109
5 5 42 -1.2486 -2.4269
5 5 45 -0.0794 -3.5670
5 5 48 0.0628 -0.3769
5 5 51 -1.9861 1.3211
5 5 54 0.7696 0.7491
5 5 57 -3.3107 0.0173
5 5 60 -2.4442 -0.0921
5 5 63 -0.9833 0.6494
5 5 66 1.3366 1.2214
5 5 69 1.2182 1.5239
5 5 72 -0.0956 -1.8664
5 6 -70 1.3611 -0.0953
5 6 -67 0.3852 0.5486
5 6 -64 -2.9818 1.0126
5 6 -61 -0.4118 1.1407
5 6 -58 1.1460 -1.1994
5 6 -55 1.3185 -2.7922
5 6 -52 -0.5221 -1.7288
5 6 -49 -2.2398 0.2181
5 6 -46 -1.0324 1.0350
5 6 -43 1.7875 -1.4636
5 6 -40 1.2956 -2.2944
5 6 -37 -0.3701 0.7622
5 6 -34 -0.4030 3.8890
5 6 -31 3.3862 2.4927
5 6 -28 0.9585 0.4568
5 6 -25 -6.5773 0.7989
5 6 -22 -9.0847 0.9307
5 6 -19 -1.4871 0.7754
5 6 -16 2.0609 -0.4568
5 6 -13 -3.4419 -3.0001
5 6 -10 -2.9856 -4.4208
5 6 -7 -3.3604 -0.7586
5 6 -4 7.3121 1.5211
5 6 -1 0.8240 -1.2855
5 6 2 0.2759 -3.3148
5 6 5 -9.5849 0.8547
5 6 8 1.7239 5.0402
5 6 11 1.2267 3.1143
5 6 14 3.9611 0.0523
5 6 17 0.1188 -0.8925
5 6 20 0.1289 0.3585
5 6 23 1.2749 2.6208
5 6 26 -3.8072 2.5735
5 6 29 0.6416 -2.0816
5 6 32 -0.3368 -5.5129
5 6 35 0.9549 -1.9722
5 6 38 -4.5224 1.8535
5 6 41 1.4203 -0.8340
5 6 44 3.6453 -2.7957
5 6 47 0.6102 -1.4792
5 6 50 -1.4275 1.3571
5 6 53 -2.5328 2.1920
5 6 56 -3.7354 1.9702
5 6 59 -4.2401 0.5861
5 6 62 -1.2437 -0.5651
5 6 65 2.6158 1.9448
5 6 68 3.2979 2.3147
5 6 71 -0.3198 -2.0726
5 7 -68 2.0973 2.8196
5 7 -65 -1.1950 1.3883
5 7 -62 -2.7640 -1.4082
5 7 -59 -0.1167 -0.7503
5 7 -56 -0.5122 -1.5550
5 7 -53 3.3547 -0.3625
5 7 -50 3.9416 -1.7879
5 7 -47 0.0689 0.3567
5 7 -44 1.6860 -0.2506
5 7 -41 1.0523 -0.5432
5 7 -38 0.8254 -0.6044
5 7 -35 -1.5844 1.4543
5 7 -32 0.0161 1.4912
5 7 -29 0.5681 0.5712
5 7 -26 -3.9924 0.8706
5 7 -23 -4.3916 0.9114
5 7 -20 -2.9962 -0.9494
5 7 -17 1.9117 -0.1396
5 7 -14 0.7710 -0.1722
5 7 -11 -4.4950 -1.2815
5 7 -8 -2.8920 -1.8041
5 7 -5 -3.3709 0.0841
5 7 -2 5.2064 -0.1870
5 7 1 0.3950 -1.9377
5 7 4 3.1029 -0.4128
5 7 7 -1.3618 2.7423
5 7 10 1.3487 1.4130
5 7 13 -0.2630 0.0877
5 7 16 -1.7961 1.0279
5 7 19 -1.0412 1.0658
5 7 22 -2.6788 -0.3735
5 7 25 -1.3011 0.9158
5 7 28 -0.6596 0.7262
5 7 31 5.8815 -1.9753
5 7 34 2.5089 -1.3862
5 7 37 -1.4134 0.2473
5 7 40 -3.1128 -1.2369
5 7 43 2.3461 -2.3235
5 7 46 0.7760 0.2997
5 7 49 -0.1265 0.9595
5 7 52 -2.8565 0.2861
5 7 55 -0.8532 1.4032
5 7 58 -1.6959 1.6078
5 7 61 -2.3867 -1.0639
5 7 64 -0.6900 -1.9486
5 7 67 3.9115 2.1278
5 8 -66 2.6458 2.9363
5 8 -63 0.1286 -1.1314
5 8 -60 -1.7180 -1.1287
5 8 -57 -0.1188 1.9494
5 8 -54 2.7239 1.5461
5 8 -51 4.8939 2.2353
5 8 -48 1.9964 -2.9687
5 8 -45 0.0206 -1.7508
5 8 -42 3.0929 -0.4119
5 8 -39 1.0022 1.5565
5 8 -36 -0.0046 0.5530
5 8 -33 -2.3425 -0.7101
5 8 -30 -0.7550 -1.6391
5 8 -27 -0.9941 -0.2454
5 8 -24 -3.3842 2.9927
5 8 -21 -0.4006 2.1639
5 8 -18 -0.4721 -1.9404
5 8 -15 1.0473 -1.1605
5 8 -12 0.5199 1.7826
5 8 -9 -1.1394 1.8253
5 8 -6 -2.7131 -0.9582
5 8 -3 -3.4361 -1.4985
5 8 0 5.3636 -0.7819
5 8 3 6.6527 -0.4136
5 8 6 2.2087 0.8766
5 8 9 -1.9310 -0.0379
5 8 12 -2.8730 -2.8518
5 8 15 1.2175 -0.1513
5 8 18 -2.2929 3.3066
5 8 21 -3.2500 2.2008
5 8 24 -6.7385 -1.4550
5 8 27 0.3912 -0.8149
5 8 30 4.9234 1.1541
5 8 33 3.7004 1.8603
5 8 36 -0.6797 0.4511
5 8 39 -1.9454 -1.4333
5 8 42 0.7319 -1.9700
5 8 45 2.4738 0.4909
5 8 48 -0.6514 1.1099
5 8 51 -2.8260 -0.2588
5 8 54 -2.1495 -1.8971
5 8 57 0.8590 0.7509
5 8 60 -1.4595 0.6953
5 8 63 -1.0902 -1.8287
5 9 -61 -1.5526 -0.2622
5 9 -58 -1.8810 2.7394
5 9 -55 -0.5389 3.3286
5 9 -52 2.3068 1.9602
5 9 -49 2.7457 1.6650
5 9 -46 2.5223 -2.3904
5 9 -43 2.0948 -0.8752
5 9 -40 2.4989 1.1443
5 9 -37 -1.2873 1.2961
5 9 -34 -3.3374 -0.3805
5 9 -31 -1.3723 -1.7740
5 9 -28 1.7575 -0.2891
5 9 -25 -0.1576 1.6746
5 9 -22 -0.9399 2.9847
5 9 -19 0.9034 0.1020
5 9 -16 -1.3128 -2.2515
5 9 -13 0.0184 0.4813
5 9 -10 2.8347 3.0684
5 9 -7 0.2683 0.4862
5 9 -4 -6.8469 -2.4423
5 9 -1 0.5667 -1.8756
5 9 2 10.1472 -0.1660
5 9 5 8.8601 0.5085
5 9 8 -3.1664 0.3134
5 9 11 -0.8400 -1.3032
5 9 14 -2.1352 -1.5045
5 9 17 1.2107 1.6905
5 9 20 -8.0041 2.9352
5 9 23 -7.4771 0.7043
5 9 26 -2.6338 -1.4338
5 9 29 7.5890 0.3013
5 9 32 4.8008 2.3103
5 9 35 -0.0904 0.8675
5 9 38 -0.6491 -1.0883
5 9 41 -0.7506 -0.1367
5 9 44 1.3200 -0.7361
5 9 47 -1.4018 0.0557
5 9 50 -0.9155 -0.5637
5 9 53 -0.2576 -0.8510
5 9 56 1.9931 -2.9267
5 9 59 -0.5561 0.3362
5 9 62 -1.2739 -0.9132
5 10 -56 0.5453 5.2329
5 10 -53 -1.4767 1.3155
5 10 -50 1.4361 -0.5325
5 10 -47 0.3943 -0.5020
5 10 -44 0.6011 -0.3305
5 10 -41 1.6685 -0.1013
5 10 -38 1.6767 1.2667
5 10 -35 -2.4955 0.2200
5 10 -32 -3.0413 -0.1372
5 10 -29 1.7830 1.5241
5 10 -26 2.3164 2.4848
5 10 -23 -0.7456 0.3411
5 10 -20 0.8375 -0.1661
5 10 -17 0.0059 0.0490
5 10 -14 -2.2234 0.1305
5 10 -11 -0.4863 -0.5890
5 10 -8 1.3382 -0.9435
5 10 -5 -1.4361 -1.6622
5 10 -2 -2.8608 -1.2063
5 10 1 9.2672 0.0343
5 10 4 6.1212 0.1286
5 10 7 0.2245 -0.2745
5 10 10 -5.6045 -0.3971
5 10 13 1.8326 2.1353
5 10 16 -0.8745 2.9911
5 10 19 -0.1634 1.2329
5 10 22 -7.0594 -0.2658
5 10 25 -2.9286 -0.3355
5 10 28 1.7158 0.4831
5 10 31 4.4211 0.2242
5 10 34 0.9782 -0.6698
5 10 37 1.1210 -2.3046
5 10 40 1.9263 -0.2205
5 10 43 1.0511 0.9249
5 10 46 1.2765 -1.6682
5 10 49 -1.5100 -1.1318
5 10 52 1.1942 -0.9441
5 10 55 -0.3098 -0.5860
5 10 58 -0.2009 -1.0362
5 11 -51 -1.0400 -3.0922
5 11 -48 1.8150 -1.1003
5 11 -45 -1.3720 0.5881
5 11 -42 0.3462 1.5973
5 11 -39 2.6612 -0.9645
5 11 -36 0.3337 -0.5454
5 11 -33 -4.1433 -0.6989
5 11 -30 -2.9945 1.8782
5 11 -27 1.8427 4.6476
5 11 -24 0.1534 0.4916
5 11 -21 -1.7566 -2.9296
5 11 -18 2.0823 -0.1245
5 11 -15 1.2849 1.9729
5 11 -12 -1.6587 -0.1683
5 11 -9 -3.3733 -3.3993
5 11 -6 -1.9958 -2.3862
5 11 -3 0.5539 -0.0877
5 11 0 1.3662 0.9233
5 11 3 5.5975 1.1178
5 11 6 -0.9848 -1.1261
5 11 9 0.4526 -0.7960
5 11 12 -0.8924 1.1158
5 11 15 -0.6521 4.5187
5 11 18 -1.8784 1.6105
5 11 21 -1.2805 -1.5620
5 11 24 -2.7422 -0.3796
5 11 27 -3.2737 0.7697
5 11 30 0.9433 0.2551
5 11 33 4.1838 -1.2665
5 11 36 5.3407 -1.9569
5 11 39 2.1476 -2.4600
5 11 42 1.0461 0.8962
5 11 45 1.7667 -0.1509
5 11 48 0.8333 -2.9668
5 11 51 -1.7695 -2.5309
5 12 -43 -3.9984 -0.1358
5 12 -40 0.4581 0.8954
5 12 -37 3.2664 -0.6676
5 12 -34 -2.0290 -0.7217
5 12 -31 -5.1479 -0.2097
5 12 -28 -1.3050 1.9179
5 12 -25 1.0322 1.6896
5 12 -22 -3.4821 -2.0869
5 12 -19 -2.7748 -0.6732
5 12 -16 2.5867 1.9377
5 12 -13 0.5706 0.1005
5 12 -10 -3.0611 -1.8492
5 12 -7 -1.5483 -2.1059
5 12 -4 1.6628 0.0848
5 12 -1 1.5683 1.7997
5 12 2 -2.3544 0.0390
5 12 5 -0.3824 -1.6152
5 12 8 -0.5986 -1.8963
5 12 11 1.5572 1.5865
5 12 14 -0.7183 2.1473
5 12 17 -2.7275 0.9472
5 12 20 2.4812 -1.2966
5 12 23 -1.5807 0.1637
5 12 26 -4.2277 0.7222
5 12 29 -7.9964 -1.3104
5 12 32 3.8473 -0.4465
5 12 35 6.2725 0.5187
5 12 38 3.9613 -1.7128
5 12 41 -1.3742 -1.4563
5 12 44 1.7289 1.3421
5 13 -38 1.1374 0.4629
5 13 -35 -1.0622 -0.5203
5 13 -32 -6.8427 -1.1773
5 13 -29 -2.9312 -0.7857
5 13 -26 2.1444 -0.2148
5 13 -23 -0.4670 -1.1066
5 13 -20 -3.1516 -0.0590
5 13 -17 -1.0975 1.3039
5 13 -14 -0.3144 -0.5807
5 13 -11 -2.2614 -1.7305
5 13 -8 -0.4497 0.2982
5 13 -5 2.5588 0.7587
5 13 -2 0.7776 0.3384
5 13 1 -0.6143 -0.1120
5 13 4 -1.4000 -2.2981
5 13 7 0.5786 -2.2747
5 13 10 1.9080 1.0138
5 13 13 0.5707 2.2417
5 13 16 -0.1920 -0.7591
5 13 19 -1.7443 -2.8987
5 13 22 1.8110 0.7873
5 13 25 -7.5181 2.3076
5 13 28 -6.3701 -1.5811
5 13 31 -4.0710 -2.3230
5 13 34 6.7507 1.7805
5 14 -27 1.1421 -1.9885
5 14 -24 0.7740 -1.6749
5 14 -21 -2.0671 -1.2409
5 14 -18 -0.0589 1.1300
5 14 -15 -1.0724 -0.5610
5 14 -12 -2.4196 -3.2755
5 14 -9 -0.8301 -0.4407
5 14 -6 0.8821 1.4534
5 14 -3 0.5607 -1.0320
5 14 0 1.3154 -2.1558
5 14 3 2.9920 0.1603
5 14 6 1.9999 0.3098
5 14 9 0.5877 -1.5067
5 14 12 2.0438 1.5671
5 14 15 -0.7653 0.8416
5 14 18 1.0066 -1.7132
5 14 21 -1.4532 -2.6919
5 14 24 -2.0331 2.5881
5 14 27 -5.7668 1.0533
5 15 -10 -2.1470 -2.4555
5 15 -7 -0.3534 1.9500
5 15 -4 0.0531 -1.5638
5 15 -1 0.4255 -5.6048
5 15 2 2.8262 -0.8478
5 15 5 2.1716 4.3476
6 1 -79 0.2275 3.2364
6 1 -76 1.2025 1.1852
6 1 -73 -2.7483 1.3567
6 1 -70 -1.4641 -2.8359
6 1 -67 -2.1173 -2.2718
6 1 -64 -2.6148 -3.3057
6 1 -61 0.5108 1.1435
6 1 -58 3.1488 -1.2401
6 1 -55 -3.9622 -9.6439
6 1 -52 -2.5891 -7.5110
6 1 -49 1.6089 6.5826
6 1 -46 3.7668 7.2951
6 1 -43 -2.5793 -4.2146
6 1 -40 -3.5328 -1.7926
6 1 -37 -3.2383 10.6831
6 1 -34 0.3012 9.8521
6 1 -31 2.1245 3.7864
6 1 -28 0.1874 -0.9229
6 1 -25 -1.9359 -5.7387
6 1 -22 -1.1910 -4.0873
6 1 -19 8.5547 4.2622
6 1 -16 6.7738 -0.6021
6 1 -13 0.2328 -18.2448
6 1 -10 -11.7439 -13.6724
6 1 -7 -7.8736 7.5370
6 1 -4 -7.9602 8.9463
6 1 -1 -1.1092 -2.1147
6 1 2 -4.4065 -2.7474
6 1 5 -1.3845 5.2380
6 1 8 0.1742 9.1251
6 1 11 3.6647 11.2060
6 1 14 4.8765 6.8776
6 1 17 -1.0407 -8.3335
6 1 20 4.8462 -8.4029
6 1 23 1.0594 4.9614
6 1 26 2.1100 2.9693
6 1 29 -6.6990 -12.1832
6 1 32 -0.9994 -13.2738
6 1 35 0.0183 0.2262
6 1 38 -0.0009 2.8929
6 1 41 0.3306 -0.0980
6 1 44 -2.8382 1.2598
6 1 47 -1.5776 1.0069
6 1 50 -2.1972 3.2358
6 1 53 2.4379 8.5902
6 1 56 1.3014 6.8968
6 1 59 1.6138 -4.7675
6 1 62 -0.1016 -5.3790
6 1 65 -0.6021 4.2773
6 1 68 -0.3837 3.9161
6 1 71 -1.9092 -6.2242
6 1 74 0.3742 -7.7206
6 1 77 1.1402 -0.8304
6 2 -77 1.4274 -0.9663
6 2 -74 0.1042 2.3195
6 2 -71 -1.4457 1.5934
6 2 -68 -1.3651 -3.6524
6 2 -65 -1.9021 -4.1510
6 2 -62 -1.9442 -2.9252
6 2 -59 2.2395 3.1062
6 2 -56 1.4907 0.6644
6 2 -53 -2.9962 -6.2115
6 2 -50 -0.6415 -2.9678
6 2 -47 2.2531 5.8554
6 2 -44 3.6385 4.2074
6 2 -41 -3.5633 -1.6008
6 2 -38 -1.6078 0.2192
6 2 -35 -2.6032 3.5253
6 2 -32 1.0119 2.1247
6 2 -29 1.1898 1.4824
6 2 -26 -0.6921 -0.7271
6 2 -23 -2.6989 -6.9257
6 2 -20 7.7825 -3.4766
6 2 -17 11.6200 4.7449
6 2 -14 -0.8592 0.0675
6 2 -11 -13.3000 -9.5594
6 2 -8 -11.7199 -3.3703
6 2 -5 -2.4702 7.4774
6 2 -2 0.8969 5.1615
6 2 1 -0.7670 0.3230
6 2 4 -9.4714 0.1774
6 2 7 -7.4263 -0.3729
6 2 10 1.8679 2.2244
6 2 13 8.6458 6.9107
6 2 16 5.0106 2.4443
6 2 19 -3.6558 -9.6226
6 2 22 -0.7575 -6.5699
6 2 25 -0.8708 4.2914
6 2 28 1.2997 2.1372
6 2 31 -2.4096 -5.8272
6 2 34 -0.1547 -4.1548
6 2 37 1.2572 1.2725
6 2 40 -2.7248 1.7113
6 2 43 -2.7194 2.5448
6 2 46 -4.7876 2.5460
6 2 49 1.1417 -2.1243
6 2 52 -0.3914 -0.1785
6 2 55 2.1393 5.8282
6 2 58 2.1773 3.2047
6 2 61 0.3682 -5.8686
6 2 64 -1.3896 -4.6417
6 2 67 -2.3036 2.5226
6 2 70 -2.0252 1.8663
6 2 73 -2.2149 -1.8259
6 2 76 0.4285 -1.2207
6 3 -75 2.7298 -0.5828
6 3 -72 -0.8840 2.4102
6 3 -69 -1.7340 -0.2031
6 3 -66 -1.5167 -1.5987
6 3 -63 -0.0902 -2.2421
6 3 -60 -0.9540 0.0964
6 3 -57 4.3499 2.1128
6 3 -54 1.2418 3.0857
6 3 -51 -4.2020 -1.7400
6 3 -48 -1.6696 -1.8228
6 3 -45 3.8611 2.0073
6 3 -42 2.4458 3.0156
6 3 -39 -2.9089 -1.2515
6 3 -36 -1.2781 -2.7212
6 3 -33 -3.8943 -1.1377
6 3 -30 3.8960 0.0528
6 3 -27 1.4408 0.3395
6 3 -24 -2.7078 0.6427
6 3 -21 1.2103 -2.4506
6 3 -18 10.4407 -0.9536
6 3 -15 1.5473 3.7088
6 3 -12 -9.5663 3.2328
6 3 -9 -10.2813 -2.0431
6 3 -6 -3.3608 -1.8368
6 3 -3 4.2893 3.0790
6 3 0 5.4123 3.8914
6 3 3 -8.4944 -0.5511
6 3 6 -12.4410 -2.4316
6 3 9 -2.9621 -3.3923
6 3 12 9.4691 -0.5208
6 3 15 5.9697 2.8638
6 3 18 0.9720 1.1573
6 3 21 -4.9317 -4.5391
6 3 24 -2.7961 -3.9188
6 3 27 0.8861 2.8459
6 3 30 1.4784 4.6555
6 3 33 -1.4171 0.2173
6 3 36 -2.6790 -1.3363
6 3 39 -3.3498 0.1018
6 3 42 -4.4820 1.4826
6 3 45 -0.5713 1.0947
6 3 48 1.1014 0.2510
6 3 51 -0.3094 -2.6917
6 3 54 -1.4106 -2.1656
6 3 57 -0.5052 1.3029
6 3 60 0.5096 1.2943
6 3 63 -1.4615 -2.6494
6 3 66 0.0855 -1.9197
6 3 69 -1.1146 1.7357
6 3 72 -0.5901 1.1530
6 3 75 -2.0598 0.0322
6 4 -73 2.6846 0.9122
6 4 -70 0.3194 0.6621
6 4 -67 1.4405 0.2804
6 4 -64 -0.1547 2.4462
6 4 -61 -0.7865 -0.6501
6 4 -58 -0.1701 -0.0055
6 4 -55 1.6421 -0.7057
6 4 -52 -4.5934 3.4241
6 4 -49 -4.5982 -1.4504
6 4 -46 2.6314 -1.8385
6 4 -43 5.2325 -0.0911
6 4 -40 0.9518 0.1519
6 4 -37 -2.3368 -1.0608
6 4 -34 -2.1263 0.3658
6 4 -31 1.8529 -0.3212
6 4 -28 4.0785 -1.2820
6 4 -25 -6.2159 1.0287
6 4 -22 -6.3497 3.8484
6 4 -19 3.8791 0.0529
6 4 -16 4.2200 -1.1782
6 4 -13 -2.0390 2.3871
6 4 -10 -4.0613 2.4378
6 4 -7 -3.5778 -1.8722
6 4 -4 2.3819 -1.6375
6 4 -1 3.3026 -0.2150
6 4 2 -1.1404 -0.8320
6 4 5 -10.7564 -1.4310
6 4 8 1.6103 1.1179
6 4 11 4.4594 -1.6257
6 4 14 4.9473 -2.6448
6 4 17 -1.1427 1.5389
6 4 20 -2.2065 4.0656
6 4 23 -3.1476 0.5358
6 4 26 -1.5337 -1.6463
6 4 29 3.7485 1.4068
6 4 32 0.9790 1.9019
6 4 35 -1.9941 -0.2460
6 4 38 -6.5361 0.8675
6 4 41 -5.9375 -0.3514
6 4 44 0.0730 -2.9684
6 4 47 0.5697 -1.6877
6 4 50 2.0916 1.8021
6 4 53 -0.4866 -0.6590
6 4 56 0.5648 -2.0993
6 4 59 -3.3928 0.3902
6 4 62 -1.2267 1.2386
6 4 65 -2.0460 0.0166
6 4 68 0.0937 -0.0541
6 4 71 -0.3362 -0.0317
6 4 74 1.6396 -2.1851
6 5 -71 3.2523 0.8699
6 5 -68 0.3648 0.7585
6 5 -65 -1.8266 1.7727
6 5 -62 -2.0575 2.7721
6 5 -59 1.5202 -0.8937
6 5 -56 1.3964 -1.3859
6 5 -53 -1.8251 -3.0360
6 5 -50 -1.8398 0.7473
6 5 -47 -0.2428 -0.2887
6 5 -44 3.1893 -1.4188
6 5 -41 1.8629 -3.0293
6 5 -38 -2.1083 -0.5445
6 5 -35 -1.2248 3.3110
6 5 -32 1.5884 2.3921
6 5 -29 4.9775 -0.6676
6 5 -26 -6.2825 0.3222
6 5 -23 -7.9916 2.4513
6 5 -20 -2.6362 2.5601
6 5 -17 2.4475 0.2666
6 5 -14 -0.9805 -1.6083
6 5 -11 -2.1528 -2.2874
6 5 -8 0.1602 -1.0357
6 5 -5 0.8898 0.3493
6 5 -2 6.5719 -1.6096
6 5 1 -3.2699 -5.0601
6 5 4 -2.2005 -1.6725
6 5 7 -2.1173 3.7020
6 5 10 6.1625 4.1297
6 5 13 -0.4909 -0.5000
6 5 16 -0.5425 -1.1983
6 5 19 0.2459 1.7555
6 5 22 -0.3513 3.8088
6 5 25 0.1589 2.5650
6 5 28 -2.3008 -0.6925
6 5 31 3.2944 -3.2996
6 5 34 -1.3020 -2.2071
6 5 37 -4.8986 0.7327
6 5 40 -4.4951 0.4731
6 5 43 2.0034 -3.7799
6 5 46 3.8293 -3.2073
6 5 49 -0.1539 1.1910
6 5 52 0.9501 3.1025
6 5 55 -3.6206 0.5304
6 5 58 -4.1713 -0.6634
6 5 61 -3.8279 0.2404
6 5 64 2.1954 2.1897
6 5 67 2.3317 4.2638
6 5 70 1.9972 -0.8794
6 6 -66 -1.8967 1.0436
6 6 -63 -2.0603 -0.4028
6 6 -60 -0.0176 -0.0593
6 6 -57 -0.6159 -0.1127
6 6 -54 -0.3545 -3.0526
6 6 -51 2.2509 -3.1167
6 6 -48 4.9944 -0.0682
6 6 -45 0.9639 1.2248
6 6 -42 2.2026 -2.2157
6 6 -39 -1.1965 -1.6235
6 6 -36 -3.4071 2.1010
6 6 -33 2.9954 2.9912
6 6 -30 0.7607 0.8092
6 6 -27 -2.3337 1.1932
6 6 -24 -11.8449 1.0314
6 6 -21 -1.6607 -0.5810
6 6 -18 -0.6401 -0.3321
6 6 -15 1.0261 -0.0069
6 6 -12 1.1426 -3.4271
6 6 -9 -2.3016 -3.4451
6 6 -6 1.7451 0.9184
6 6 -3 -0.4578 1.5588
6 6 0 3.5087 -2.6437
6 6 3 -4.2744 -2.3613
6 6 6 3.5587 2.1736
6 6 9 1.9238 3.1770
6 6 12 1.3770 1.2656
6 6 15 -1.8683 1.0417
6 6 18 -0.5775 0.3871
6 6 21 1.4286 0.1193
6 6 24 -2.7175 1.9161
6 6 27 -2.2020 1.4494
6 6 30 0.5289 -2.7246
6 6 33 4.9387 -3.8883
6 6 36 -1.8573 -0.5640
6 6 39 -2.3426 0.2019
6 6 42 1.0396 -1.3922
6 6 45 2.5460 -1.4544
6 6 48 -0.7018 0.1217
6 6 51 -0.7040 0.7161
6 6 54 -1.5671 1.8509
6 6 57 -2.3422 2.3024
6 6 60 -2.4238 0.0340
6 6 63 -1.0754 0.2064
6 6 66 3.0656 2.1268
6 6 69 2.1478 2.3605
6 7 -64 -3.5113 -1.2724
6 7 -61 -0.0487 -3.1375
6 7 -58 0.1886 -0.5496
6 7 -55 1.8142 1.7346
6 7 -52 6.8498 -1.7477
6 7 -49 5.6619 0.2905
6 7 -46 2.4893 -1.5649
6 7 -43 -0.3629 0.8401
6 7 -40 0.7756 0.6241
6 7 -37 -2.6713 1.3927
6 7 -34 -3.0913 0.4398
6 7 -31 2.0864 -1.0283
6 7 -28 -4.2737 -0.3645
6 7 -25 -3.7223 1.5193
6 7 -22 -4.5694 0.7877
6 7 -19 2.4179 -0.9506
6 7 -16 -2.5865 -1.8819
6 7 -13 -1.5125 -0.4197
6 7 -10 0.7717 -0.6581
6 7 -7 -3.2929 -0.5368
6 7 -4 2.7254 -0.1428
6 7 -1 1.6595 0.3651
6 7 2 5.3645 0.2963
6 7 5 -0.1176 0.9350
6 7 8 0.1190 0.4831
6 7 11 -2.1432 -0.0941
6 7 14 -2.7697 0.3375
6 7 17 1.2569 2.1466
6 7 20 0.2932 0.3320
6 7 23 -2.1765 -1.6716
6 7 26 -3.7191 -1.7679
6 7 29 1.6792 0.1639
6 7 32 4.6222 0.7570
6 7 35 -0.3216 0.0608
6 7 38 -2.1236 -2.0628
6 7 41 0.9220 -1.5115
6 7 44 1.4042 0.7364
6 7 47 0.2646 2.2195
6 7 50 -2.7657 0.5790
6 7 53 -1.1110 -0.6438
6 7 56 -0.3219 -0.2111
6 7 59 0.7711 1.6514
6 7 62 -1.9113 0.2860
6 7 65 1.1387 0.9091
6 8 -62 0.0373 -1.5388
6 8 -59 -2.0262 0.7779
6 8 -56 -0.0800 1.0642
6 8 -53 3.3763 2.7077
6 8 -50 5.4500 0.0818
6 8 -47 2.5777 0.0001
6 8 -44 1.7469 -2.2068
6 8 -41 3.2720 3.1810
6 8 -38 0.9409 3.0976
6 8 -35 -3.6525 -0.0926
6 8 -32 -4.2072 -1.2376
6 8 -29 -0.6303 -1.8373
6 8 -26 -4.9378 0.0193
6 8 -23 -2.3830 2.1226
6 8 -20 0.7554 1.1013
6 8 -17 0.8162 -2.9672
6 8 -14 -2.5796 -2.7066
6 8 -11 -0.2796 3.0188
6 8 -8 1.0960 2.4915
6 8 -5 -3.3581 -1.6783
6 8 -2 0.6896 -1.2538
6 8 1 5.3064 1.4950
6 8 4 5.1554 0.8547
6 8 7 0.4608 -0.4749
6 8 10 -3.4697 -0.8164
6 8 13 0.1253 -0.9943
6 8 16 -0.8706 0.0395
6 8 19 0.0263 2.6384
6 8 22 -7.9742 0.8977
6 8 25 -6.5628 -2.9537
6 8 28 2.8914 -2.5920
6 8 31 6.0249 2.6157
6 8 34 2.2146 2.1628
6 8 37 -0.8009 -0.5738
6 8 40 2.4342 -1.2640
6 8 43 0.7714 1.1509
6 8 46 -2.5808 -0.0432
6 8 49 -3.8873 1.1344
6 8 52 -1.9682 -0.4059
6 8 55 2.3852 -1.4978
6 8 58 3.2679 -1.1824
6 8 61 0.3382 1.8442
6 9 -57 -2.0755 4.8217
6 9 -54 1.1150 2.6306
6 9 -51 0.6114 2.8267
6 9 -48 1.5331 0.0851
6 9 -45 0.0225 -1.3148
6 9 -42 1.0806 -0.5257
6 9 -39 4.5641 2.1118
6 9 -36 -0.8646 1.1862
6 9 -33 -2.4988 -0.4646
6 9 -30 0.5129 0.9058
6 9 -27 -0.0189 -0.0971
6 9 -24 -5.0204 0.6170
6 9 -21 -4.0194 1.1929
6 9 -18 0.6807 0.2814
6 9 -15 -2.5933 -1.7935
6 9 -12 -0.8555 0.3266
6 9 -9 1.8406 1.6607
6 9 -6 0.3090 -1.3408
6 9 -3 -1.1384 -2.0855
6 9 0 2.7800 0.3712
6 9 3 7.5898 0.9519
6 9 6 -1.1100 -0.3110
6 9 9 -2.6366 -0.4049
6 9 12 -3.3399 0.2940
6 9 15 1.8290 0.2002
6 9 18 -1.9488 1.0098
6 9 21 -5.0840 1.4223
6 9 24 -7.6372 0.2703
6 9 27 2.3555 -0.7580
6 9 30 6.2332 0.8270
6 9 33 0.9629 0.8507
6 9 36 -1.5149 -2.0882
6 9 39 3.1216 -0.2622
6 9 42 3.2320 1.2593
6 9 45 -0.5249 -0.4153
6 9 48 -1.9235 -2.5243
6 9 51 -0.5511 0.8941
6 9 54 2.3546 -1.6296
6 9 57 0.0929 -1.7148
6 10 -52 -1.7487 0.7952
6 10 -49 -1.3237 -0.8981
6 10 -46 0.2094 0.4056
6 10 -43 0.2333 -0.1702
6 10 -40 2.7989 0.7687
6 10 -37 3.6314 -0.7964
6 10 -34 -2.9044 -0.8362
6 10 -31 -0.1488 1.1803
6 10 -28 2.3558 3.7439
6 10 -25 -2.6779 0.9061
6 10 -22 -5.5135 -1.3573
6 10 -19 -4.5549 -0.5362
6 10 -16 0.9102 1.5653
6 10 -13 -1.4794 0.1126
6 10 -10 0.5800 -1.2761
6 10 -7 -0.0749 -2.2762
6 10 -4 -1.0307 -1.4084
6 10 -1 1.9516 0.2230
6 10 2 1.1496 0.3014
6 10 5 0.8908 0.0620
6 10 8 -3.7510 -0.3389
6 10 11 0.6759 1.0388
6 10 14 0.3891 2.9819
6 10 17 -1.1059 1.6840
6 10 20 -4.7145 -0.7534
6 10 23 -6.0651 -0.9283
6 10 26 -1.4934 1.3785
6 10 29 4.4558 1.4871
6 10 32 1.7154 -0.2040
6 10 35 2.1194 -3.3336
6 10 38 3.0733 -2.4444
6 10 41 4.8123 0.8285
6 10 44 -0.1265 0.0434
6 10 47 -0.1560 -3.2405
6 10 50 1.4637 -1.9645
6 11 -47 -0.7729 -2.5683
6 11 -44 -1.4634 0.1346
6 11 -41 -0.1550 -0.8916
6 11 -38 2.3354 0.2949
6 11 -35 0.8595 -2.5473
6 11 -32 -3.7265 -0.6400
6 11 -29 0.0727 3.0636
6 11 -26 0.4102 2.0602
6 11 -23 -4.9972 -1.8489
6 11 -20 -5.2840 -1.0579
6 11 -17 -2.2316 1.8958
6 11 -14 3.0225 1.2396
6 11 -11 -1.2131 -2.0433
6 11 -8 -2.6550 -2.6101
6 11 -5 -1.3760 -1.5268
6 11 -2 0.9234 0.6842
6 11 1 0.9411 1.6712
6 11 4 -3.0664 -0.2599
6 11 7 -1.3133 -1.0541
6 11 10 -0.2760 0.3404
6 11 13 -0.4113 2.6840
6 11 16 -1.2436 1.9046
6 11 19 -3.1732 -0.2183
6 11 22 -0.8715 -0.3290
6 11 25 -2.4070 0.8396
6 11 28 -0.2889 0.1506
6 11 31 -0.0047 -0.6149
6 11 34 2.0131 -1.3312
6 11 37 5.0962 -3.3586
6 11 40 2.2143 -1.6962
6 11 43 0.6123 -0.7003
6 11 46 0.0814 -1.8663
6 12 -39 1.0753 0.3398
6 12 -36 1.3605 -0.7834
6 12 -33 -3.6310 -3.3962
6 12 -30 -4.8354 0.0621
6 12 -27 -0.0519 0.8669
6 12 -24 -1.7196 -2.0115
6 12 -21 -5.7168 -0.7485
6 12 -18 -2.3027 1.4631
6 12 -15 0.8961 -0.3386
6 12 -12 1.7144 -2.0856
6 12 -9 -1.7298 -0.0762
6 12 -6 -1.7086 0.4541
6 12 -3 -1.6514 -0.4432
6 12 0 -2.7377 0.7419
6 12 3 -2.5178 -0.3965
6 12 6 -0.4348 -1.6737
6 12 9 2.6344 1.2868
6 12 12 2.7214 3.7805
6 12 15 -0.4754 -0.1249
6 12 18 -0.3889 -3.6024
6 12 21 -3.1481 0.1803
6 12 24 -1.8936 2.4987
6 12 27 -5.5038 -0.3491
6 12 30 -2.2845 -2.7301
6 12 33 0.6129 0.6434
6 12 36 4.9873 0.0438
6 12 39 2.5785 -2.7580
6 13 -31 -3.5757 -0.9012
6 13 -28 0.9590 0.0479
6 13 -25 0.5358 -2.3634
6 13 -22 -3.2250 -2.1412
6 13 -19 -3.6268 1.0229
6 13 -16 -1.3616 -1.1670
6 13 -13 -2.7805 -3.4871
6 13 -10 -0.0354 -0.8293
6 13 -7 2.1696 2.6767
6 13 -4 -0.2440 0.7442
6 13 -1 -2.8813 -1.5904
6 13 2 -0.8866 -0.8135
6 13 5 0.9233 -2.0201
6 13 8 1.6449 0.5149
6 13 11 2.2256 3.5346
6 13 14 2.9286 2.4568
6 13 17 1.4611 -3.5860
6 13 20 0.8368 -3.0559
6 13 23 -3.1015 2.6085
6 13 26 -4.2829 1.1390
6 13 29 -5.3750 -2.7365
6 13 32 -1.3941 -1.0581
6 14 -17 -0.9674 -0.9368
6 14 -14 -3.7700 -3.9144
6 14 -11 -4.5070 -2.7860
6 14 -8 1.5981 1.1518
6 14 -5 2.2225 2.0994
6 14 -2 -0.9236 -2.0546
6 14 1 1.0210 -3.5585
6 14 4 3.4713 0.5043
6 14 7 1.5910 0.4751
6 14 10 2.0958 1.1158
6 14 13 2.3501 2.2781
6 14 16 2.3772 1.7476
7 1 -75 -1.0138 5.4925
7 1 -72 -1.3727 1.0139
7 1 -69 -1.2390 -3.9314
7 1 -66 -3.1617 -5.4119
7 1 -63 -4.0874 -1.5359
7 1 -60 0.2258 -1.6955
7 1 -57 -0.2798 0.6178
7 1 -54 -3.3985 -8.1109
7 1 -51 -2.1457 -8.8574
7 1 -48 5.5114 6.3374
7 1 -45 0.6287 13.1111
7 1 -42 -0.4902 1.2297
7 1 -39 -6.4649 -4.4003
7 1 -36 0.8923 6.3364
7 1 -33 1.0397 10.8817
7 1 -30 2.2440 3.2486
7 1 -27 -2.2040 -3.5475
7 1 -24 -1.6656 -8.7761
7 1 -21 1.2734 -9.1564
7 1 -18 4.5513 1.1155
7 1 -15 2.3328 3.6464
7 1 -12 -3.9329 -12.2689
7 1 -9 -9.0593 -15.3069
7 1 -6 -4.8397 5.3583
7 1 -3 -0.4449 17.1642
7 1 0 0.2549 4.5714
7 1 3 -0.9904 -2.6747
7 1 6 -4.7366 2.8428
7 1 9 0.5430 7.2349
7 1 12 4.4332 9.8004
7 1 15 5.9001 4.6706
7 1 18 -4.0271 -9.3944
7 1 21 -3.0493 -15.0222
7 1 24 1.2426 -1.1238
7 1 27 1.5883 6.3882
7 1 30 -0.4179 -8.4618
7 1 33 -0.9542 -14.0338
7 1 36 0.9971 -0.1012
7 1 39 2.1849 9.5355
7 1 42 0.4771 5.1454
7 1 45 -1.3124 1.6823
7 1 48 -3.5026 0.9014
7 1 51 0.6229 0.8656
7 1 54 0.0985 8.1389
7 1 57 4.2285 8.8753
7 1 60 2.1450 -4.6513
7 1 63 -0.5845 -11.0179
7 1 66 -0.7489 -0.8052
7 1 69 -1.4745 3.4859
7 1 72 -2.8743 -3.2124
7 1 75 -1.2765 -5.2267
7 2 -76 2.0878 -1.6800
7 2 -73 -0.1397 1.8135
7 2 -70 -2.8848 -2.5326
7 2 -67 -3.5059 -4.2624
7 2 -64 -3.9768 -3.2178
7 2 -61 0.2286 -1.0808
7 2 -58 0.5800 0.7433
7 2 -55 0.5944 0.9957
7 2 -52 -1.4679 -2.9086
7 2 -49 -2.1112 -1.7473
7 2 -46 4.7663 6.1507
7 2 -43 -0.6690 7.6748
7 2 -40 -0.7983 0.2590
7 2 -37 -5.5296 -2.4282
7 2 -34 1.9222 2.9184
7 2 -31 -0.9201 3.5512
7 2 -28 2.8015 -1.5917
7 2 -25 -0.9036 -4.9827
7 2 -22 1.5938 -6.3976
7 2 -19 5.4684 -4.3130
7 2 -16 4.1617 2.0258
7 2 -13 -5.2711 2.4472
7 2 -10 -9.0316 -5.9348
7 2 -7 -6.3961 -4.9101
7 2 -4 1.6728 7.5355
7 2 -1 4.3291 11.1136
7 2 2 0.3485 2.5147
7 2 5 -5.5387 -2.1536
7 2 8 -6.4238 1.3720
7 2 11 4.9206 2.9791
7 2 14 5.6594 3.0224
7 2 17 1.0783 -0.8110
7 2 20 -6.1667 -8.2274
7 2 23 -2.6997 -9.0522
7 2 26 2.0133 -0.1054
7 2 29 2.5881 3.6252
7 2 32 1.5645 -4.0353
7 2 35 -1.7522 -5.2681
7 2 38 -0.7828 3.6343
7 2 41 -0.9690 6.4409
7 2 44 -2.6665 3.4298
7 2 47 -0.0649 1.7596
7 2 50 -0.6319 1.3497
7 2 53 0.8026 0.4318
7 2 56 0.9075 3.2607
7 2 59 3.9992 1.5760
7 2 62 1.1858 -4.9397
7 2 65 -2.0134 -5.9080
7 2 68 -1.2612 0.3317
7 2 71 -2.6059 0.7772
7 2 74 -0.9311 -1.9176
7 3 -74 0.3742 -3.2116
7 3 -71 -0.1137 -0.0933
7 3 -68 -2.7926 -1.3097
7 3 -65 0.2359 -1.7465
7 3 -62 0.7362 0.6871
7 3 -59 0.9013 -1.2435
7 3 -56 -0.5750 1.4293
7 3 -53 -2.2201 2.7483
7 3 -50 -4.1432 2.6716
7 3 -47 -0.9901 -2.7623
7 3 -44 4.6808 0.3716
7 3 -41 -1.1728 4.1958
7 3 -38 -0.5593 0.3416
7 3 -35 -2.5582 -2.2546
7 3 -32 2.3777 -0.3371
7 3 -29 1.9613 -0.9881
7 3 -26 0.7721 -2.3695
7 3 -23 -4.1840 0.1800
7 3 -20 0.5236 0.4889
7 3 -17 4.1436 -3.2695
7 3 -14 1.2987 -0.1068
7 3 -11 -1.6096 5.3078
7 3 -8 -3.7512 1.4789
7 3 -5 -1.3048 -2.7499
7 3 -2 3.0728 2.6156
7 3 1 2.0245 3.8378
7 3 4 -3.6056 -0.1967
7 3 7 -3.1775 -1.6493
7 3 10 2.7997 0.0011
7 3 13 5.9779 -2.9014
7 3 16 0.8690 -2.0202
7 3 19 -2.9301 2.7912
7 3 22 -4.8749 -0.0209
7 3 25 -2.2812 -5.3414
7 3 28 2.0154 -0.8431
7 3 31 2.6242 4.3817
7 3 34 0.7031 1.0710
7 3 37 -3.1054 -0.8500
7 3 40 -3.0035 2.7966
7 3 43 -2.8421 0.6934
7 3 46 -0.4583 -0.5548
7 3 49 0.1421 2.2583
7 3 52 0.2462 1.5567
7 3 55 0.4135 -3.3686
7 3 58 2.5924 -0.5336
7 3 61 1.3999 2.1226
7 3 64 0.6255 -0.7366
7 3 67 -3.2376 -3.4105
7 3 70 -0.7315 -2.0191
7 3 73 -0.3955 -0.7697
7 4 -69 1.0614 1.0525
7 4 -66 -2.3289 -0.0351
7 4 -63 -0.2958 -0.2123
7 4 -60 1.6674 1.8227
7 4 -57 -0.8839 -2.1527
7 4 -54 -2.2721 1.6472
7 4 -51 -3.7872 2.5355
7 4 -48 0.9215 1.3373
7 4 -45 2.2349 -4.4726
7 4 -42 1.9695 -1.5998
7 4 -39 -1.3000 1.4958
7 4 -36 -3.0989 0.2538
7 4 -33 0.6314 -0.7218
7 4 -30 2.6274 -1.4623
7 4 -27 0.6687 -1.9090
7 4 -24 -5.7403 1.0187
7 4 -21 -2.3080 4.2055
7 4 -18 0.3334 1.5931
7 4 -15 2.0463 -3.1016
7 4 -12 1.9779 0.9538
7 4 -9 -0.0029 4.4444
7 4 -6 -0.1920 0.4726
7 4 -3 3.7134 -3.5081
7 4 0 3.6829 -1.5649
7 4 3 -0.5150 -0.9996
7 4 6 0.9162 0.2819
7 4 9 1.6356 0.4861
7 4 12 0.4597 -1.8417
7 4 15 -0.8682 -4.4035
7 4 18 -0.7086 1.0308
7 4 21 -0.1591 6.3324
7 4 24 -1.3898 2.0203
7 4 27 0.3273 -2.9014
7 4 30 0.2959 0.3289
7 4 33 0.6960 2.2759
7 4 36 -3.6119 0.9353
7 4 39 -5.3650 0.3454
7 4 42 -1.2963 -0.8520
7 4 45 1.4128 -3.0054
7 4 48 2.9658 0.5365
7 4 51 1.2354 2.9376
7 4 54 1.3753 -1.1753
7 4 57 -4.1238 -4.2552
7 4 60 -1.8327 0.0008
7 4 63 -0.8642 3.0666
7 4 66 2.7316 2.4240
7 4 69 0.6482 0.3240
7 4 72 3.1826 -3.7433
7 5 -67 0.5648 0.6207
7 5 -64 -3.0318 -1.2984
7 5 -61 2.1664 -0.4277
7 5 -58 2.9560 1.3757
7 5 -55 -4.9370 -1.9419
7 5 -52 -1.2011 -2.2498
7 5 -49 0.7896 -0.6508
7 5 -46 3.7319 0.9840
7 5 -43 0.9675 -1.6983
7 5 -40 0.3791 -1.8230
7 5 -37 -0.5988 0.3960
7 5 -34 -2.6524 0.9528
7 5 -31 4.8560 -0.0849
7 5 -28 -5.2998 -0.0323
7 5 -25 -5.2957 0.4626
7 5 -22 -5.5831 0.3500
7 5 -19 1.6212 0.9795
7 5 -16 -0.0471 1.0631
7 5 -13 2.7450 -1.2094
7 5 -10 2.8838 -1.2760
7 5 -7 -1.3816 0.4969
7 5 -4 4.2178 0.6332
7 5 -1 2.1304 -1.9507
7 5 2 1.4831 -2.1423
7 5 5 1.7196 0.1611
7 5 8 4.4207 1.4375
7 5 11 -1.1472 0.2248
7 5 14 -1.8337 -0.6232
7 5 17 1.0653 -1.1097
7 5 20 0.8356 0.4616
7 5 23 -0.2874 2.4138
7 5 26 -3.4267 2.3742
7 5 29 -1.4110 -0.2864
7 5 32 0.1046 -1.5413
7 5 35 1.0650 -1.0357
7 5 38 -2.4411 0.3028
7 5 41 0.3420 0.2971
7 5 44 1.5901 -0.5703
7 5 47 -0.5614 -0.7344
7 5 50 0.2235 -0.1035
7 5 53 0.1036 0.4024
7 5 56 -1.1859 0.0012
7 5 59 -3.5954 -0.5977
7 5 62 0.2602 -0.0752
7 5 65 1.4995 3.2614
7 5 68 3.3861 2.5130
7 6 -65 -3.3018 -2.2072
7 6 -62 -2.8553 -4.3131
7 6 -59 1.2028 -0.3702
7 6 -56 0.1420 0.8830
7 6 -53 1.5828 -1.7997
7 6 -50 8.5484 -3.3816
7 6 -47 3.1635 0.9631
7 6 -44 -0.2657 1.5792
7 6 -41 -1.6664 0.3348
7 6 -38 -2.2097 -0.4148
7 6 -35 0.5961 0.1284
7 6 -32 -0.7330 0.1622
7 6 -29 0.2744 0.1037
7 6 -26 -12.3475 0.2546
7 6 -23 -1.6856 -1.4838
7 6 -20 -0.0295 -2.6287
7 6 -17 1.8791 0.5948
7 6 -14 0.1762 1.5052
7 6 -11 0.6589 -1.2184
7 6 -8 -0.2069 -2.4961
7 6 -5 -2.0577 0.2686
7 6 -2 6.1196 2.0360
7 6 1 1.9012 1.2946
7 6 4 4.4134 0.0998
7 6 7 1.9886 -0.6078
7 6 10 -1.5250 -0.6439
7 6 13 -3.7741 1.6529
7 6 16 0.6481 1.7820
7 6 19 3.6876 -1.5540
7 6 22 0.2022 -3.1722
7 6 25 -3.3579 -0.6158
7 6 28 -1.9905 1.2825
7 6 31 0.2210 0.5844
7 6 34 0.4315 -1.2238
7 6 37 -1.5770 -1.6069
7 6 40 0.6147 -0.5481
7 6 43 2.0698 2.1208
7 6 46 -0.3884 1.7785
7 6 49 -0.7523 -0.4987
7 6 52 -1.0969 -1.0935
7 6 55 -0.8336 0.9162
7 6 58 -1.0118 0.6679
7 6 61 -1.0611 0.2017
7 6 64 0.2114 0.7632
7 7 -63 0.2139 -4.8431
7 7 -60 0.1002 -2.8403
7 7 -57 -0.4432 0.7905
7 7 -54 2.6232 -0.5070
7 7 -51 6.9207 0.6181
7 7 -48 4.9864 -0.6586
7 7 -45 0.1006 1.2269
7 7 -42 -1.3385 1.9037
7 7 -39 -0.0713 2.3042
7 7 -36 -2.0734 -0.1851
7 7 -33 0.4548 -0.9967
7 7 -30 -2.2670 0.0062
7 7 -27 -3.9981 -0.8608
7 7 -24 -7.8213 -0.9643
7 7 -21 1.2133 -0.6532
7 7 -18 -1.2569 -1.7493
7 7 -15 -1.5107 -1.2969
7 7 -12 0.7520 -0.0849
7 7 -9 1.1117 0.9487
7 7 -6 1.1807 -0.6994
7 7 -3 -0.0429 0.5106
7 7 0 3.3897 3.2249
7 7 3 1.5789 2.2522
7 7 6 1.7258 -0.9851
7 7 9 -0.9987 -0.7334
7 7 12 -2.3318 1.0095
7 7 15 1.6303 0.5596
7 7 18 3.7414 -1.5597
7 7 21 -0.6981 -2.0683
7 7 24 -5.8083 -2.8036
7 7 27 -3.9858 -1.7408
7 7 30 3.6170 0.6418
7 7 33 -0.7540 2.4484
7 7 36 0.0087 -1.1694
7 7 39 0.5721 -0.7502
7 7 42 2.2856 1.4662
7 7 45 -1.2680 2.9573
7 7 48 -2.8161 0.6910
7 7 51 -2.0257 0.5536
7 7 54 -0.5376 -0.6155
7 7 57 3.2443 -0.9041
7 7 60 1.6821 0.4240
7 8 -58 -0.9149 0.1677
7 8 -55 0.6595 -0.1292
7 8 -52 4.6286 1.1455
7 8 -49 4.9154 3.3652
7 8 -46 0.9390 -0.3335
7 8 -43 0.8855 0.3812
7 8 -40 -0.5832 1.4606
7 8 -37 0.0570 0.6449
7 8 -34 -3.6391 0.3039
7 8 -31 -0.1746 0.5675
7 8 -28 0.0946 -1.0612
7 8 -25 -3.7082 -2.8896
7 8 -22 -3.3527 0.6494
7 8 -19 -2.0693 1.5829
7 8 -16 -3.4212 -1.5385
7 8 -13 -2.9566 -1.3819
7 8 -10 1.5540 1.6817
7 8 -7 3.4748 1.6167
7 8 -4 2.2657 -0.5994
7 8 -1 1.6268 0.7366
7 8 2 1.8679 1.0289
7 8 5 1.4537 -1.0510
7 8 8 -2.7702 -0.2300
7 8 11 -2.1792 1.3500
7 8 14 -0.2801 -0.0532
7 8 17 2.4215 -2.4816
7 8 20 -0.8301 -0.7722
7 8 23 -6.6265 0.4984
7 8 26 -2.0414 -1.5857
7 8 29 4.3743 -1.0690
7 8 32 3.2260 0.8473
7 8 35 -3.0440 1.8096
7 8 38 1.0898 -0.0157
7 8 41 1.4279 1.8280
7 8 44 -1.5839 -0.6932
7 8 47 -2.4397 -0.5011
7 8 50 -0.7575 1.5125
7 8 53 1.9904 2.0692
7 8 56 3.9205 -2.4636
7 8 59 1.8280 -1.6957
7 9 -53 -3.1709 1.6230
7 9 -50 -0.5069 2.0370
7 9 -47 0.9675 -0.0017
7 9 -44 0.8057 -1.5064
7 9 -41 4.1530 -0.4896
7 9 -38 1.7986 -0.8467
7 9 -35 -0.1311 -0.0715
7 9 -32 -1.5828 2.0950
7 9 -29 1.4849 0.6798
7 9 -26 -1.2199 -1.6301
7 9 -23 -7.5965 -1.1843
7 9 -20 -4.0980 1.9645
7 9 -17 -4.4236 0.6732
7 9 -14 -0.0621 -0.2981
7 9 -11 1.2139 -0.1684
7 9 -8 3.2626 0.4594
7 9 -5 3.1824 0.8286
7 9 -2 0.2526 0.4872
7 9 1 0.3902 -0.9719
7 9 4 -1.9801 -1.5879
7 9 7 -2.5960 0.1500
7 9 10 -2.3053 1.4497
7 9 13 0.9002 -0.4823
7 9 16 2.2749 -1.1096
7 9 19 -1.5103 -1.5406
7 9 22 -4.7112 0.5543
7 9 25 -3.8860 1.6158
7 9 28 3.0129 1.2000
7 9 31 3.3318 -0.2819
7 9 34 -1.8805 -1.3033
7 9 37 3.2329 0.2883
7 9 40 3.8102 1.3431
7 9 43 1.3910 -0.1762
7 9 46 -3.1554 -3.0309
7 9 49 0.5028 -0.0163
7 9 52 2.5320 1.8050
7 10 -48 -0.1433 0.8644
7 10 -45 0.7248 -2.5247
7 10 -42 1.4504 -1.3946
7 10 -39 3.1041 -2.0186
7 10 -36 0.3833 -2.6016
7 10 -33 0.2235 -0.2727
7 10 -30 1.1375 1.7825
7 10 -27 -0.3406 0.1329
7 10 -24 -4.5727 -0.9814
7 10 -21 -8.8124 -0.4347
7 10 -18 -4.3614 0.8801
7 10 -15 -1.1668 0.7354
7 10 -12 5.0435 1.0741
7 10 -9 1.2188 -0.3878
7 10 -6 -0.6528 -0.3784
7 10 -3 0.7996 0.5509
7 10 0 -0.2950 -0.3379
7 10 3 -2.7397 -0.9363
7 10 6 -4.1672 0.6838
7 10 9 -2.3752 0.7671
7 10 12 1.1527 -0.5806
7 10 15 -0.5126 -0.8195
7 10 18 0.0549 0.4689
7 10 21 -3.4914 -0.5776
7 10 24 -0.7539 -0.0767
7 10 27 1.7949 1.4681
7 10 30 0.8210 1.2736
7 10 33 0.3652 -0.6408
7 10 36 0.2828 -1.1670
7 10 39 7.3438 -1.0439
7 10 42 0.2128 -0.8680
7 10 45 -0.2084 -2.9048
7 10 48 0.0747 -1.1471
7 11 -40 1.3438 1.4267
7 11 -37 1.6959 -1.8416
7 11 -34 0.0438 -3.6050
7 11 -31 -1.6502 -1.5609
7 11 -28 -1.6609 0.0572
7 11 -25 -3.0729 -0.4320
7 11 -22 -5.0860 0.4175
7 11 -19 -6.0151 0.5455
7 11 -16 -0.5466 -1.7056
7 11 -13 3.6807 -1.3833
7 11 -10 3.4203 1.2296
7 11 -7 -3.2702 1.2234
7 11 -4 -2.5665 -0.1650
7 11 -1 -1.1598 -0.1536
7 11 2 -3.1049 0.9290
7 11 5 -4.8108 0.4241
7 11 8 -1.2858 0.7958
7 11 11 0.4182 0.2823
7 11 14 2.7490 -0.6758
7 11 17 0.5951 -0.2114
7 11 20 0.8972 0.8750
7 11 23 -1.3113 0.8312
7 11 26 -0.2459 -1.9639
7 11 29 -1.4147 -1.4022
7 11 32 -3.4515 -0.0874
7 11 35 1.4167 0.3539
7 11 38 3.3602 -1.1188
7 11 41 3.9878 -2.6342
7 12 -32 -1.8692 -2.9892
7 12 -29 -2.5609 -1.2234
7 12 -26 -1.1052 -1.3737
7 12 -23 -2.6474 0.0980
7 12 -20 -3.0801 1.1959
7 12 -17 -1.6645 -1.2787
7 12 -14 0.3107 -4.3320
7 12 -11 0.8346 -0.0781
7 12 -8 -0.6032 2.5592
7 12 -5 -4.2776 -0.3510
7 12 -2 -3.4006 -1.2067
7 12 1 -1.8383 0.6468
7 12 4 0.7357 2.2522
7 12 7 0.8380 0.4834
7 12 10 1.1062 1.6651
7 12 13 1.0004 0.2983
7 12 16 1.6155 -2.5639
7 12 19 1.4727 -0.3378
7 12 22 -0.1561 2.2183
7 12 25 0.1339 1.7206
7 12 28 -1.3095 -3.7866
7 12 31 -2.6356 -1.9837
7 13 -21 -1.5856 0.8831
7 13 -18 -0.2876 -1.6265
7 13 -15 -2.1832 -3.4725
7 13 -12 -2.7666 -2.3151
7 13 -9 0.4806 1.3806
7 13 -6 0.1305 0.7983
7 13 -3 -4.7303 -1.8220
7 13 0 -2.9271 -0.7840
7 13 3 2.0918 -0.0516
7 13 6 3.8099 1.7882
7 13 9 3.0539 1.2351
7 13 12 2.6669 1.7573
7 13 21 0.9583 0.6019
8 1 -74 0.3452 6.7391
8 1 -71 -2.0370 -1.2130
8 1 -68 -5.0882 -8.1943
8 1 -65 -6.9747 -5.0145
8 1 -62 -3.7492 -4.1087
8 1 -59 0.2172 -0.5315
8 1 -56 -0.3691 0.4120
8 1 -53 -0.3727 -2.4780
8 1 -50 0.8171 -6.4735
8 1 -47 -2.0930 5.2633
8 1 -44 1.8182 14.3299
8 1 -41 -5.6417 4.8077
8 1 -38 -1.5909 -4.9869
8 1 -35 -0.7584 2.3851
8 1 -32 4.3947 10.1482
8 1 -29 -0.3563 2.2695
8 1 -26 1.5623 -7.1391
8 1 -23 0.2220 -9.4413
8 1 -20 0.3745 -9.2560
8 1 -17 2.4353 -1.1936
8 1 -14 1.1359 3.7863
8 1 -11 -6.3332 -6.4065
8 1 -8 -5.1029 -13.6809
8 1 -5 -1.1470 4.0244
8 1 -2 2.3756 19.2204
8 1 1 2.2987 8.5934
8 1 4 -0.5846 -4.0029
8 1 7 -2.5804 0.4830
8 1 10 -2.8757 7.6129
8 1 13 6.9719 6.7983
8 1 16 -2.2694 1.7259
8 1 19 -3.8979 -8.0920
8 1 22 -5.7384 -14.7608
8 1 25 2.0899 -4.5273
8 1 28 3.2198 5.6029
8 1 31 3.7652 -3.5906
8 1 34 0.3295 -12.4320
8 1 37 -0.4032 -0.5512
8 1 40 3.2650 10.1851
8 1 43 2.0966 6.4473
8 1 46 -2.1893 2.1920
8 1 49 -0.6668 1.4378
8 1 52 -2.1410 2.2031
8 1 55 2.4226 6.2640
8 1 58 4.1423 5.9544
8 1 61 4.5116 -4.2527
8 1 64 -0.3360 -9.7729
8 1 67 1.3188 -2.9054
8 1 70 -0.6883 2.4293
8 1 73 -3.6394 -1.6134
8 2 -72 -0.4030 1.2097
8 2 -69 -3.8492 -2.1782
8 2 -66 -6.1312 -3.7063
8 2 -63 -0.4339 -3.2130
8 2 -60 0.8558 -1.8138
8 2 -57 -0.5452 -0.3077
8 2 -54 -0.5950 1.9178
8 2 -51 -2.1766 1.5735
8 2 -48 -2.9462 -1.5172
8 2 -45 -1.2915 2.6110
8 2 -42 1.5026 7.9356
8 2 -39 -5.4717 3.1745
8 2 -36 0.8287 -3.2547
8 2 -33 -0.2334 1.2527
8 2 -30 3.2762 3.6367
8 2 -27 2.2661 -2.3726
8 2 -24 2.4833 -5.2917
8 2 -21 -1.6843 -3.0405
8 2 -18 0.4943 -4.4001
8 2 -15 3.0260 -2.4289
8 2 -12 -0.6354 2.3281
8 2 -9 -3.9719 -1.1145
8 2 -6 -1.7954 -5.1693
8 2 -3 1.4260 3.9366
8 2 0 2.9048 11.9614
8 2 3 2.4947 3.9890
8 2 6 -4.1969 -2.4948
8 2 9 -1.9328 1.2685
8 2 12 1.6940 2.5101
8 2 15 4.7789 -0.8321
8 2 18 -5.1011 -0.9230
8 2 21 -3.3510 -2.8496
8 2 24 -1.8529 -8.1987
8 2 27 1.2708 -3.8818
8 2 30 3.4364 3.6494
8 2 33 0.5806 -0.5819
8 2 36 -0.3523 -4.8854
8 2 39 -0.0475 1.7997
8 2 42 1.1008 6.7608
8 2 45 -1.1900 3.2824
8 2 48 -2.4271 1.9185
8 2 51 -0.4151 2.0617
8 2 54 -0.6614 0.4471
8 2 57 5.2545 0.2360
8 2 60 5.5484 2.7655
8 2 63 2.0074 -0.8615
8 2 66 -0.9495 -5.4867
8 2 69 -1.6403 -4.9719
8 2 72 -0.4098 -1.5398
8 3 -70 0.6912 0.8821
8 3 -67 -2.4670 0.9663
8 3 -64 -1.4700 -0.9450
8 3 -61 1.3955 -0.6294
8 3 -58 -0.2628 -0.2191
8 3 -55 -3.8372 -1.0436
8 3 -52 -2.1087 5.2591
8 3 -49 -2.8699 3.1728
8 3 -46 -0.8459 -3.6327
8 3 -43 0.0787 -2.2159
8 3 -40 -0.0984 4.2910
8 3 -37 -0.2559 1.5461
8 3 -34 0.4676 -3.4429
8 3 -31 -0.4662 -0.7902
8 3 -28 0.9185 -0.5891
8 3 -25 -0.2540 -2.2522
8 3 -22 -1.0130 1.3294
8 3 -19 -1.0929 2.4600
8 3 -16 3.9817 -3.4510
8 3 -13 5.2424 -1.8564
8 3 -10 0.2206 6.8371
8 3 -7 -2.9528 2.9479
8 3 -4 -0.4274 -4.8115
8 3 -1 5.2116 -1.2481
8 3 2 3.9489 4.1809
8 3 5 3.0351 0.3154
8 3 8 -2.8984 -1.5127
8 3 11 0.8482 -0.5875
8 3 14 0.7283 -3.2692
8 3 17 -0.1325 -2.7347
8 3 20 -4.3607 4.2049
8 3 23 -1.0132 2.5880
8 3 26 -0.0748 -5.0902
8 3 29 0.2005 -1.8689
8 3 32 0.5273 5.3397
8 3 35 -0.8276 2.3302
8 3 38 -1.2164 -1.5382
8 3 41 -1.5874 0.4034
8 3 44 -0.7564 0.6130
8 3 47 -0.4718 0.2954
8 3 50 0.9301 2.6749
8 3 53 1.1734 0.7105
8 3 56 1.4605 -3.6487
8 3 59 0.9148 -2.2596
8 3 62 1.7598 2.9848
8 3 65 -0.5530 0.7920
8 3 68 0.9446 -2.3675
8 3 71 1.4621 -2.1090
8 4 -68 0.7780 0.6423
8 4 -65 -1.2150 0.6494
8 4 -62 2.8506 -0.2832
8 4 -59 2.8408 1.5094
8 4 -56 -1.5712 -0.1175
8 4 -53 -7.2965 -0.7975
8 4 -50 0.4622 3.2740
8 4 -47 -0.1461 -0.4151
8 4 -44 -1.7057 -3.4280
8 4 -41 -0.2522 -2.4696
8 4 -38 -0.0017 0.8055
8 4 -35 2.5794 -0.6653
8 4 -32 -0.3521 -2.0671
8 4 -29 1.5034 -0.5137
8 4 -26 -3.9594 -0.6374
8 4 -23 -2.9895 0.1695
8 4 -20 -2.6043 3.3945
8 4 -17 -1.1711 1.9165
8 4 -14 6.2139 -1.4741
8 4 -11 5.2438 0.8389
8 4 -8 1.1034 4.8807
8 4 -5 1.3127 0.4402
8 4 -2 4.7190 -3.7696
8 4 1 4.7267 -2.2802
8 4 4 1.8712 -0.0110
8 4 7 1.6733 -0.9151
8 4 10 -3.6549 -0.9491
8 4 13 0.8481 -1.6439
8 4 16 2.4684 -2.7622
8 4 19 1.7131 -0.6811
8 4 22 -1.5167 4.0421
8 4 25 -0.2895 2.4842
8 4 28 -3.8560 -0.5353
8 4 31 -4.0501 0.8274
8 4 34 -1.8678 2.5354
8 4 37 0.8651 1.2073
8 4 40 0.5197 -0.1888
8 4 43 1.4904 0.0426
8 4 46 0.5047 -0.9312
8 4 49 -0.3231 -0.9855
8 4 52 1.6967 -0.6817
8 4 55 -1.2419 -1.4093
8 4 58 -1.5849 -2.2288
8 4 61 -1.5168 -0.7539
8 4 64 2.4002 2.8563
8 4 67 1.5503 2.8278
8 5 -63 -0.5293 -1.4168
8 5 -60 3.1355 -1.9737
8 5 -57 -1.6335 1.0583
8 5 -54 -4.0923 -1.3654
8 5 -51 -0.0536 -2.0722
8 5 -48 6.9082 1.1106
8 5 -45 0.0092 1.5168
8 5 -42 -2.3779 -0.0536
8 5 -39 -0.0536 -3.0326
8 5 -36 -1.9205 -1.7007
8 5 -33 2.3850 -0.6218
8 5 -30 -2.5946 0.2701
8 5 -27 -2.2335 0.5966
8 5 -24 -5.1549 -1.4193
8 5 -21 1.3120 -2.0439
8 5 -18 -1.0063 1.0571
8 5 -15 0.6055 3.2200
8 5 -12 4.9157 1.1436
8 5 -9 -0.3372 -1.3707
8 5 -6 0.6374 -0.0910
8 5 -3 3.6500 1.0752
8 5 0 5.8487 0.4906
8 5 3 4.7866 -0.6179
8 5 6 2.8695 -1.5309
8 5 9 -1.5270 -2.0104
8 5 12 -4.1523 0.0169
8 5 15 2.4868 1.3086
8 5 18 3.3368 -0.9368
8 5 21 0.1451 -2.7905
8 5 24 -1.4119 0.1542
8 5 27 -1.7175 2.4823
8 5 30 -3.1008 1.4857
8 5 33 -1.9504 0.0495
8 5 36 -0.1595 -0.4586
8 5 39 0.0316 0.4055
8 5 42 -0.0745 1.3396
8 5 45 -0.6365 1.3722
8 5 48 -0.0353 -1.7419
8 5 51 1.9519 -2.7408
8 5 54 1.6918 0.1359
8 5 57 -2.0373 0.6974
8 5 60 -2.0876 -2.0041
8 5 63 -1.6921 -1.1416
8 5 66 1.0703 3.2832
8 6 -61 2.2159 -3.7060
8 6 -58 0.6952 -1.3960
8 6 -55 -0.2240 0.4492
8 6 -52 2.2531 -1.8967
8 6 -49 5.2887 -1.4935
8 6 -46 1.5532 1.3389
8 6 -43 -2.4101 3.0050
8 6 -40 -2.1420 1.7415
8 6 -37 0.2361 -1.9025
8 6 -34 -0.2947 -1.4934
8 6 -31 0.6711 -0.3369
8 6 -28 -5.5908 0.3743
8 6 -25 -2.8106 -0.4749
8 6 -22 -0.9596 -2.4300
8 6 -19 1.4956 -1.5384
8 6 -16 -2.4158 0.9824
8 6 -13 1.1704 1.7883
8 6 -10 1.8430 -1.1144
8 6 -7 0.0179 -2.3216
8 6 -4 2.5055 0.2379
8 6 -1 2.6179 3.2170
8 6 2 3.2001 2.7084
8 6 5 2.1680 -0.6773
8 6 8 -1.1595 -2.3026
8 6 11 -2.5928 0.2442
8 6 14 1.8404 2.7841
8 6 17 6.1451 0.7168
8 6 20 3.2995 -3.2473
8 6 23 -4.0108 -3.3330
8 6 26 -3.5016 -1.5158
8 6 29 -3.4114 0.8997
8 6 32 -0.4069 0.8148
8 6 35 -2.2104 -0.1481
8 6 38 2.1595 -1.5943
8 6 41 -0.0682 1.3980
8 6 44 -0.7504 2.9543
8 6 47 -2.4588 0.6390
8 6 50 -0.9107 -1.3053
8 6 53 -0.2228 -0.0808
8 6 56 0.7503 1.2289
8 6 59 1.8866 -0.5932
8 6 62 -0.1363 0.2734
8 7 -59 -1.4358 -3.1383
8 7 -56 -2.1785 -1.4419
8 7 -53 3.9247 -0.2829
8 7 -50 3.7576 1.4799
8 7 -47 5.3290 0.6287
8 7 -44 -0.1414 0.8217
8 7 -41 -0.9854 1.8840
8 7 -38 -2.5113 0.6165
8 7 -35 -1.2355 -0.3526
8 7 -32 -0.8959 0.8444
8 7 -29 -1.4104 -0.3020
8 7 -26 -1.7744 -1.7327
8 7 -23 -0.5946 -1.7779
8 7 -20 -1.4405 -0.5264
8 7 -17 -2.7566 0.0660
8 7 -14 -2.8715 -0.7089
8 7 -11 2.0733 -0.0597
8 7 -8 2.0493 0.3668
8 7 -5 3.6032 0.4102
8 7 -2 0.5810 0.8477
8 7 1 0.6794 1.9457
8 7 4 2.0343 0.9335
8 7 7 0.3217 -1.0022
8 7 10 -2.3073 0.1800
8 7 13 -0.6215 0.8798
8 7 16 3.8207 -1.2163
8 7 19 2.9497 -2.1200
8 7 22 -1.0608 -0.1640
8 7 25 -5.8131 0.1564
8 7 28 1.1586 -2.8940
8 7 31 -0.2962 -0.8997
8 7 34 -0.1019 0.6249
8 7 37 -2.2749 1.2792
8 7 40 1.4662 0.3420
8 7 43 -3.4141 1.5502
8 7 46 -1.9943 0.3768
8 7 49 -1.4309 1.0350
8 7 52 -0.2472 2.4527
8 7 55 2.4234 -0.2370
8 7 58 3.5715 -1.5924
8 8 -54 0.2531 -0.4975
8 8 -51 1.4663 1.6583
8 8 -48 0.1078 1.4326
8 8 -45 3.8196 -0.6138
8 8 -42 0.2497 -0.9538
8 8 -39 1.1148 -1.0816
8 8 -36 -1.5636 -0.5286
8 8 -33 -1.3905 2.3976
8 8 -30 0.9056 0.7104
8 8 -27 -0.7066 -2.5216
8 8 -24 -0.8253 -1.1373
8 8 -21 -4.4603 0.7369
8 8 -18 -4.9411 1.4522
8 8 -15 -3.3688 -0.4000
8 8 -12 0.9321 -1.3161
8 8 -9 5.7889 0.3237
8 8 -6 5.1268 2.4363
8 8 -3 3.9231 2.1151
8 8 0 -2.5745 -1.0350
8 8 3 -1.1800 -2.2122
8 8 6 -1.1433 0.1291
8 8 9 -3.1637 1.1460
8 8 12 -0.4354 0.3170
8 8 15 1.3060 -2.6401
8 8 18 4.2219 -3.0828
8 8 21 -0.2125 -0.5774
8 8 24 -2.1646 2.7938
8 8 27 -1.8542 1.3035
8 8 30 1.8031 -2.1875
8 8 33 -1.8175 -0.5185
8 8 36 -0.7669 1.7002
8 8 39 1.8716 2.2252
8 8 42 -0.2718 -0.4708
8 8 45 -1.7738 -1.0291
8 8 48 -0.5187 1.1630
8 8 51 0.9825 3.4920
8 8 54 2.0328 0.9163
8 9 -49 -0.5327 0.6565
8 9 -46 2.1861 -1.9044
8 9 -43 4.5198 -1.2680
8 9 -40 1.8842 -3.1437
8 9 -37 0.3041 -2.7032
8 9 -34 -1.2425 0.1782
8 9 -31 0.5280 1.6621
8 9 -28 0.7630 -2.0528
8 9 -25 -3.5097 -1.6464
8 9 -22 -3.2763 1.1327
8 9 -19 -6.2432 0.3103
8 9 -16 -2.6611 0.9626
8 9 -13 2.6992 1.0873
8 9 -10 4.6455 0.1971
8 9 -7 3.2876 0.6388
8 9 -4 1.6811 2.6378
8 9 -1 1.1637 0.5842
8 9 2 -1.4786 -2.8799
8 9 5 -2.4708 -0.7543
8 9 8 -2.2854 1.6655
8 9 11 -3.3491 -2.0518
8 9 14 0.9385 -3.2573
8 9 17 -0.9561 -1.6553
8 9 20 2.5442 -0.1389
8 9 23 -0.1050 0.4833
8 9 26 0.9558 2.6317
8 9 29 1.1391 1.2189
8 9 32 -1.5360 -0.6225
8 9 35 0.7850 0.2919
8 9 38 1.5566 1.7894
8 9 41 3.7734 -0.3422
8 9 44 -2.5278 -1.1043
8 9 47 0.8419 0.2813
8 10 -41 2.5440 -1.4266
8 10 -38 1.7280 -2.6299
8 10 -35 1.1270 -1.7432
8 10 -32 2.0128 -1.0032
8 10 -29 -0.6694 -2.1573
8 10 -26 -3.8283 -2.2999
8 10 -23 -5.0933 1.4716
8 10 -20 -4.6559 1.1103
8 10 -17 -3.5736 -1.2338
8 10 -14 4.7547 0.6185
8 10 -11 7.4138 1.9117
8 10 -8 0.8974 0.6079
8 10 -5 -3.4575 -0.0868
8 10 -2 -0.6527 0.2033
8 10 1 -1.0361 -0.4979
8 10 4 -2.7129 0.9502
8 10 7 -3.9071 2.0069
8 10 10 0.1758 -1.0892
8 10 13 -0.8446 -3.8958
8 10 16 1.9781 -0.8494
8 10 19 0.4225 1.6325
8 10 22 2.9406 -0.5816
8 10 25 1.2078 -1.3900
8 10 28 -0.2629 0.2599
8 10 31 -1.0840 1.4108
8 10 34 -2.4992 1.3554
8 10 37 3.9323 -0.5632
8 10 40 1.7771 -1.3090
8 10 43 2.6054 -1.9157
8 11 -30 -0.3026 -2.7170
8 11 -27 -2.7015 -2.7301
8 11 -24 -2.3535 0.5056
8 11 -21 -2.3567 2.2625
8 11 -18 -3.2751 -2.2398
8 11 -15 1.7139 -2.7420
8 11 -12 6.1364 1.0651
8 11 -9 1.3712 2.7845
8 11 -6 -4.8976 -0.1569
8 11 -3 -5.1516 -2.9609
8 11 0 -1.2820 -0.4788
8 11 3 -2.3208 2.3788
8 11 6 -0.6465 3.4987
8 11 9 0.5953 0.7124
8 11 12 2.6160 -1.9312
8 11 15 2.2252 -0.7412
8 11 18 2.1731 1.3328
8 11 21 1.1345 2.1438
8 11 24 -0.1879 -2.1880
8 11 27 0.3656 -2.7890
8 11 30 -1.8089 -1.8207
8 11 33 -0.8117 1.1416
8 12 -22 -0.2195 2.2552
8 12 -19 -0.0026 -0.5756
8 12 -16 -0.8730 -4.6070
8 12 -13 1.6320 -0.9586
8 12 -10 0.7171 1.6321
8 12 -7 -2.3347 -0.3569
8 12 -4 -4.0738 -2.5137
8 12 -1 -3.9365 -2.0228
8 12 2 -0.4024 2.1291
8 12 5 0.6470 2.8098
8 12 8 1.0758 2.0119
8 12 11 2.6817 -0.0934
8 12 14 3.2939 -0.5997
8 12 17 5.6677 1.9081
8 12 20 1.4923 1.4937
8 12 23 0.7076 1.4194
9 1 -70 -1.6787 1.9167
9 1 -67 -6.5941 -4.3043
9 1 -64 -4.3321 -4.7458
9 1 -61 0.4533 -4.3079
9 1 -58 -0.9346 -1.4694
9 1 -55 0.9023 2.6518
9 1 -52 1.2387 -1.9984
9 1 -49 -5.2017 -4.8966
9 1 -46 -4.7616 -0.0955
9 1 -43 -1.3143 12.5371
9 1 -40 -1.8201 8.6283
9 1 -37 -3.6137 -3.6468
9 1 -34 3.9615 -1.1676
9 1 -31 1.1430 8.0005
9 1 -28 3.5195 4.3749
9 1 -25 2.0918 -4.3849
9 1 -22 -1.8961 -7.0985
9 1 -19 -2.0285 -7.3742
9 1 -16 4.6747 -5.0110
9 1 -13 2.5521 1.9007
9 1 -10 -4.8885 -2.2241
9 1 -7 -5.0376 -11.8198
9 1 -4 -0.5160 -2.7155
9 1 -1 1.6721 14.6789
9 1 2 3.3599 11.5106
9 1 5 -0.3321 -2.1930
9 1 8 -6.8839 -1.1261
9 1 11 0.1645 7.6408
9 1 14 0.7738 6.8810
9 1 17 -0.3304 2.2205
9 1 20 -6.5439 -4.4431
9 1 23 -0.5609 -11.8599
9 1 26 -0.6151 -7.9508
9 1 29 4.2271 3.9551
9 1 32 1.9521 1.0055
9 1 35 -1.6274 -10.7168
9 1 38 0.3807 -6.9568
9 1 41 4.5831 7.0098
9 1 44 1.8145 9.7773
9 1 47 -1.2345 2.8121
9 1 50 -4.4841 -0.1045
9 1 53 -1.8116 1.3938
9 1 56 2.0546 3.3468
9 1 59 7.9638 4.6007
9 1 62 2.3453 0.9772
9 1 65 1.8331 -5.4116
9 1 68 1.0398 -6.5384
9 1 71 -0.0422 -1.0670
9 2 -68 -1.4821 3.0951
9 2 -65 -2.5817 -1.1010
9 2 -62 2.7155 -2.3796
9 2 -59 -0.4468 -1.6259
9 2 -56 -3.6209 -0.5727
9 2 -53 -0.9494 1.5283
9 2 -50 -3.3812 1.0969
9 2 -47 -3.9013 -2.0984
9 2 -44 -0.8938 -0.6061
9 2 -41 -0.2927 7.3067
9 2 -38 -1.8626 4.0968
9 2 -35 -0.1657 -3.5120
9 2 -32 1.9194 -0.8644
9 2 -29 0.7010 4.9529
9 2 -26 4.9609 0.9843
9 2 -23 -2.0196 -3.1360
9 2 -20 -3.9391 -2.5455
9 2 -17 0.7914 -3.8740
9 2 -14 7.0684 -3.6609
9 2 -11 2.1461 2.4305
9 2 -8 -3.6511 1.0923
9 2 -5 -1.7302 -6.5544
9 2 -2 0.8927 -1.3428
9 2 1 5.0706 9.2913
9 2 4 0.6055 5.3345
9 2 7 -3.7007 -3.0606
9 2 10 -4.3980 -0.4484
9 2 13 5.4668 3.9475
9 2 16 -0.2169 1.4384
9 2 19 -3.3740 0.5154
9 2 22 -3.9619 -0.9616
9 2 25 0.8325 -6.6786
9 2 28 0.0329 -4.9788
9 2 31 0.4234 3.7674
9 2 34 -0.5645 1.4365
9 2 37 -1.4174 -6.1573
9 2 40 0.5884 -2.8177
9 2 43 0.1878 5.8306
9 2 46 -1.2745 4.3035
9 2 49 -0.8389 0.2560
9 2 52 -1.1026 1.1193
9 2 55 2.2716 0.6589
9 2 58 3.8650 0.1775
9 2 61 2.3877 2.4128
9 2 64 -0.2374 0.6860
9 2 67 0.4034 -5.7872
9 2 70 1.0472 -4.6509
9 3 -66 -0.5183 1.5889
9 3 -63 1.3271 1.5833
9 3 -60 6.5234 1.4240
9 3 -57 -0.9308 0.4021
9 3 -54 -4.3146 -0.9073
9 3 -51 -4.3111 2.0239
9 3 -48 -2.8308 2.4463
9 3 -45 -1.4110 -3.3714
9 3 -42 -1.5712 -2.5133
9 3 -39 3.0926 1.8100
9 3 -36 0.7530 0.3828
9 3 -33 -0.6685 -3.1029
9 3 -30 -0.8963 -1.1237
9 3 -27 1.5600 1.6453
9 3 -24 2.7574 -0.4338
9 3 -21 -4.6293 1.1572
9 3 -18 -1.3255 3.0369
9 3 -15 1.5347 -1.4875
9 3 -12 6.2067 -1.6965
9 3 -9 0.2402 4.1173
9 3 -6 -0.2178 2.9829
9 3 -3 5.7119 -4.2054
9 3 0 5.3142 -2.9176
9 3 3 5.1065 2.0853
9 3 6 -5.3885 0.1007
9 3 9 -3.8403 -2.4894
9 3 12 -0.6782 -0.2020
9 3 15 6.7056 -0.3837
9 3 18 -1.1063 -1.6156
9 3 21 -1.4377 1.5655
9 3 24 -0.4345 3.0058
9 3 27 -0.4830 -1.4472
9 3 30 -4.9792 -1.6148
9 3 33 -2.7283 3.5873
9 3 36 0.3434 2.0865
9 3 39 0.9714 -1.5883
9 3 42 -0.1640 -1.4308
9 3 45 -0.6837 1.2646
9 3 48 -0.5849 -0.7252
9 3 51 0.0292 -0.8311
9 3 54 1.2330 0.1651
9 3 57 0.4268 -1.5621
9 3 60 0.6570 -1.3045
9 3 63 0.0834 1.2871
9 3 66 1.8723 2.9203
9 4 -64 2.2971 -0.9185
9 4 -61 4.3564 2.9873
9 4 -58 4.1450 0.3900
9 4 -55 -6.4290 0.0184
9 4 -52 -5.0145 -0.6261
9 4 -49 -0.2034 1.0161
9 4 -46 0.3580 2.0500
9 4 -43 -1.6314 -2.4237
9 4 -40 1.1631 -3.0070
9 4 -37 4.9947 -2.0241
9 4 -34 -1.0043 -0.5222
9 4 -31 -0.9100 -0.6382
9 4 -28 -1.1087 -0.6573
9 4 -25 -0.2819 -0.7957
9 4 -22 -0.1695 -1.1729
9 4 -19 -3.8721 2.3925
9 4 -16 1.8526 4.1762
9 4 -13 3.2147 0.8568
9 4 -10 3.8996 0.2757
9 4 -7 -0.9111 2.0305
9 4 -4 3.1921 1.8537
9 4 -1 7.6842 -1.7711
9 4 2 3.9318 -2.8141
9 4 5 2.3670 -1.4825
9 4 8 -5.9219 -1.5948
9 4 11 -0.3615 -1.8511
9 4 14 3.3223 -0.4266
9 4 17 5.4729 -1.3483
9 4 20 -1.5782 -1.3620
9 4 23 -1.1394 2.2214
9 4 26 -1.6157 4.3606
9 4 29 -4.6406 1.1455
9 4 32 -4.6588 -0.9969
9 4 35 1.9862 1.9166
9 4 38 2.8423 2.2642
9 4 41 0.2871 0.4411
9 4 44 -1.6510 -1.3124
9 4 47 -2.0840 -2.3899
9 4 50 0.1972 -3.8869
9 4 53 1.3825 -0.9008
9 4 56 0.8435 2.0409
9 4 59 -1.5484 -1.8210
9 4 62 -0.8619 -2.8668
9 5 -62 2.2784 -4.1185
9 5 -59 3.8948 -1.1598
9 5 -56 -1.0469 -0.6655
9 5 -53 -2.2761 1.4176
9 5 -50 1.3563 0.0468
9 5 -47 1.3927 -0.1712
9 5 -44 -1.8980 1.8702
9 5 -41 -1.5340 -1.0923
9 5 -38 1.6917 -2.1354
9 5 -35 1.3332 -1.7279
9 5 -32 -0.3531 0.4511
9 5 -29 -0.2139 0.8281
9 5 -26 -0.2176 -0.3317
9 5 -23 1.1694 -1.4438
9 5 -20 -0.8150 -1.4345
9 5 -17 -2.5755 1.7395
9 5 -14 0.9384 3.2854
9 5 -11 1.7175 0.3815
9 5 -8 0.5076 -1.8295
9 5 -5 1.6635 -0.5360
9 5 -2 4.0422 1.8509
9 5 1 5.5580 0.6869
9 5 4 1.6976 -1.0717
9 5 7 -1.5909 -1.7195
9 5 10 -4.5954 -1.2344
9 5 13 2.4791 0.6381
9 5 16 5.5408 1.5133
9 5 19 3.3385 -0.5893
9 5 22 -0.1895 -1.8516
9 5 25 -2.1682 0.6357
9 5 28 -2.6844 1.8687
9 5 31 -5.0556 1.0284
9 5 34 -1.1303 -0.6663
9 5 37 0.4522 -0.3943
9 5 40 1.1641 0.2867
9 5 43 -1.1324 0.6862
9 5 46 -0.1372 -0.2653
9 5 49 -0.7019 -3.1756
9 5 52 0.2870 -1.2977
9 5 55 -1.1024 1.1802
9 5 58 -1.1850 1.0272
9 5 61 -0.6933 -2.9616
9 6 -57 -0.3373 -3.7758
9 6 -54 -2.4919 -0.2561
9 6 -51 2.7892 0.7038
9 6 -48 0.2917 -0.0122
9 6 -45 1.8533 -0.0243
9 6 -42 -0.0328 2.5712
9 6 -39 -0.6417 0.8879
9 6 -36 0.8321 -0.4747
9 6 -33 -1.2665 -0.9623
9 6 -30 -0.7107 0.5741
9 6 -27 -1.1948 1.6809
9 6 -24 2.1737 0.8792
9 6 -21 1.8456 -1.3540
9 6 -18 -2.7172 -1.5155
9 6 -15 -0.3031 -0.0989
9 6 -12 -0.2607 -0.2006
9 6 -9 2.1781 -0.7296
9 6 -6 -0.5380 -1.0831
9 6 -3 1.1269 -0.8776
9 6 0 -0.0395 0.7948
9 6 3 3.1538 2.2768
9 6 6 1.1705 1.4507
9 6 9 -1.4148 -0.4568
9 6 12 0.8054 0.1464
9 6 15 3.5149 1.0727
9 6 18 3.6212 0.0601
9 6 21 -0.9321 0.3455
9 6 24 -2.8454 -0.4021
9 6 27 -3.9589 -1.2492
9 6 30 0.9993 -1.6381
9 6 33 -1.6399 0.5718
9 6 36 0.9049 -0.7055
9 6 39 -2.6739 -1.4169
9 6 42 -1.3963 0.4512
9 6 45 -3.8444 0.5536
9 6 48 0.1553 0.7394
9 6 51 -1.0084 0.2608
9 6 54 0.0483 2.2277
9 6 57 1.4542 -0.8507
9 7 -52 0.3858 1.4867
9 7 -49 3.0386 -0.6716
9 7 -46 -0.3436 -1.5159
9 7 -43 1.8546 -0.5302
9 7 -40 -1.9892 0.6511
9 7 -37 -1.3809 1.5090
9 7 -34 1.1030 1.7326
9 7 -31 -0.6785 -0.4510
9 7 -28 1.3004 -0.4957
9 7 -25 0.0890 0.9330
9 7 -22 0.5926 0.8613
9 7 -19 -2.7899 -0.3509
9 7 -16 -4.6045 0.2405
9 7 -13 2.2783 -1.2859
9 7 -10 1.4161 -1.8102
9 7 -7 5.7951 1.1098
9 7 -4 0.5889 0.6795
9 7 -1 -0.2859 -1.9032
9 7 2 -0.8386 -0.9140
9 7 5 1.4518 1.8279
9 7 8 -0.9819 1.7365
9 7 11 -2.7709 0.0045
9 7 14 1.7254 0.1471
9 7 17 2.5596 -0.7569
9 7 20 4.0285 -0.5390
9 7 23 -1.0336 2.1053
9 7 26 -2.6133 0.4460
9 7 29 -1.8404 -2.4865
9 7 32 0.5659 -1.7616
9 7 35 -3.1537 1.1545
9 7 38 -0.7947 0.2847
9 7 41 -3.1127 -0.8490
9 7 44 -0.9435 0.0216
9 7 47 -0.8037 1.1693
9 7 50 0.4106 3.6426
9 7 53 -0.7095 1.6369
9 8 -47 3.2295 -2.1002
9 8 -44 2.6903 -1.4536
9 8 -41 1.8858 -1.8202
9 8 -38 -2.4171 -3.1047
9 8 -35 -2.2750 1.8332
9 8 -32 0.7099 1.5553
9 8 -29 0.8262 -1.4360
9 8 -26 1.0484 -0.2634
9 8 -23 -1.0265 0.4671
9 8 -20 -2.3413 -0.5522
9 8 -17 -3.5854 0.1699
9 8 -14 -0.4172 1.6738
9 8 -11 5.9436 -0.4924
9 8 -8 3.1577 -0.3334
9 8 -5 3.6932 2.7084
9 8 -2 -1.6132 0.7476
9 8 1 -0.7131 -2.8650
9 8 4 1.7271 -1.3816
9 8 7 0.0144 1.1305
9 8 10 -0.8315 -0.0872
9 8 13 -2.7911 -1.8728
9 8 16 1.0248 -0.8274
9 8 19 1.3730 -1.4517
9 8 22 3.0431 -0.0692
9 8 25 -1.5402 2.3095
9 8 28 -1.5859 1.4882
9 8 31 0.3580 -1.0833
9 8 34 -0.0282 0.5454
9 8 37 -0.4168 1.2125
9 8 40 -0.9800 0.5675
9 8 43 -0.6963 -0.3098
9 8 46 -0.3758 1.7918
9 8 49 0.9069 2.7998
9 9 -42 2.7416 -2.9152
9 9 -39 -0.5802 -3.4958
9 9 -36 -2.6690 -2.6084
9 9 -33 -0.1718 1.4709
9 9 -30 2.3197 -2.1632
9 9 -27 -0.5098 -2.2738
9 9 -24 -1.7225 0.3533
9 9 -21 -1.7701 -0.0382
9 9 -18 -3.0375 -0.7785
9 9 -15 0.5068 1.9055
9 9 -12 5.7400 2.3397
9 9 -9 5.5028 -0.5405
9 9 -6 0.3282 -0.1760
9 9 -3 -0.0767 1.8059
9 9 0 0.0414 0.1944
9 9 3 -0.5236 -1.4443
9 9 6 -0.9511 -0.6361
9 9 9 -3.0609 -1.6426
9 9 12 -0.0247 -2.7578
9 9 15 -1.1287 0.1287
9 9 18 3.9610 1.8810
9 9 21 4.0582 -0.7881
9 9 24 2.1167 -1.6084
9 9 27 -3.0025 -0.4477
9 9 30 -2.4509 1.6914
9 9 33 0.8862 1.6920
9 9 36 0.6501 2.2164
9 9 39 1.9350 -0.6899
9 9 42 -0.0265 0.5099
9 10 -31 0.2304 -1.5388
9 10 -28 -1.1539 -4.2306
9 10 -25 -1.5022 -0.2789
9 10 -22 -0.4768 0.8062
9 10 -19 -0.7317 -1.0720
9 10 -16 0.4359 -1.1100
9 10 -13 6.1569 1.8170
9 10 -10 4.3531 1.1832
9 10 -7 -2.4324 -1.2090
9 10 -4 -3.2922 -1.3078
9 10 -1 -0.4531 -0.5017
9 10 2 0.6345 1.4042
9 10 5 -1.8298 1.9445
9 10 8 -0.7029 -0.6333
9 10 11 0.1724 -2.5428
9 10 14 1.5462 -0.7641
9 10 17 2.1667 3.4359
9 10 20 4.9377 1.7910
9 10 23 1.9419 -1.6240
9 10 26 -1.8516 -3.5729
9 10 29 -3.2097 -1.6448
9 10 32 -0.4716 2.0070
9 10 35 2.2451 1.6680
9 11 -23 0.6739 2.2655
9 11 -20 -1.1952 -0.7792
9 11 -17 0.2738 -2.4485
9 11 -14 3.8475 -0.4269
9 11 -11 4.2473 0.8049
9 11 -8 -1.7861 -1.0340
9 11 -5 -3.7626 -3.0319
9 11 -2 -1.1499 -2.1574
9 11 1 -0.8441 0.0933
9 11 4 -0.8618 3.2598
9 11 7 -0.5826 2.2710
9 11 10 0.6587 -1.0832
9 11 13 2.7583 0.2238
9 11 16 3.2866 2.9600
9 11 19 5.1914 4.2371
9 11 22 1.9507 -0.4666
10 1 -69 -3.0792 0.9445
10 1 -66 -2.4451 0.4345
10 1 -63 1.1629 -6.9365
10 1 -60 2.8558 -3.5647
10 1 -57 -0.1957 0.7905
10 1 -54 0.6352 0.7352
10 1 -51 -1.7737 -2.0943
10 1 -48 -10.3432 -6.6718
10 1 -45 -1.4425 -0.6051
10 1 -42 2.0560 9.6577
10 1 -39 -1.1578 10.9680
10 1 -36 -0.9026 -1.7615
10 1 -33 0.5867 -4.6361
10 1 -30 3.4331 6.0201
10 1 -27 2.0869 9.1211
10 1 -24 0.5858 0.2216
10 1 -21 -7.5373 -7.3470
10 1 -18 -0.8747 -8.8991
10 1 -15 6.2069 -5.4484
10 1 -12 2.6176 0.9205
10 1 -9 -4.4001 -0.2698
10 1 -6 -4.1780 -10.0715
10 1 -3 1.1312 -7.1910
10 1 0 3.1650 9.7255
10 1 3 0.2998 13.6455
10 1 6 -7.4966 0.1937
10 1 9 -5.8817 -3.3508
10 1 12 1.5897 6.0281
10 1 15 5.7518 9.8125
10 1 18 -3.1717 3.5586
10 1 21 -3.5123 -3.6909
10 1 24 -4.6957 -10.0205
10 1 27 0.3564 -7.8106
10 1 30 0.2647 2.2750
10 1 33 0.7788 2.7683
10 1 36 -1.3506 -10.5070
10 1 39 0.6787 -11.0613
10 1 42 1.2172 4.6598
10 1 45 -0.6601 10.8514
10 1 48 -3.1629 2.5575
10 1 51 -3.9506 -1.9474
10 1 54 -0.4829 1.3620
10 1 57 4.7921 3.2844
10 1 60 1.9948 4.2482
10 1 63 -0.6897 2.5934
10 1 66 0.5527 -6.0417
10 1 69 2.5203 -6.9119
10 2 -67 -3.3871 1.8670
10 2 -64 1.1340 -0.5353
10 2 -61 1.9033 -3.7738
10 2 -58 1.7073 0.1426
10 2 -55 0.5952 0.9122
10 2 -52 -1.0231 -0.0604
10 2 -49 -2.9245 -0.4027
10 2 -46 -4.3782 -2.3824
10 2 -43 2.4409 -0.8207
10 2 -40 -1.5052 4.7643
10 2 -37 0.1920 5.7947
10 2 -34 -0.2197 -1.9266
10 2 -31 -0.5316 -2.9728
10 2 -28 5.4811 3.6654
10 2 -25 1.3099 4.0374
10 2 -22 -1.9473 -2.8304
10 2 -19 -7.1740 -3.8306
10 2 -16 2.3911 -1.9233
10 2 -13 2.8770 -2.2319
10 2 -10 -0.2225 0.0509
10 2 -7 -1.3652 1.2302
10 2 -4 1.3969 -3.4326
10 2 -1 7.4825 -2.8023
10 2 2 1.7568 5.3507
10 2 5 -3.5542 6.1421
10 2 8 -10.1192 -2.2426
10 2 11 1.2492 -1.9747
10 2 14 4.8045 4.6766
10 2 17 3.0498 3.4356
10 2 20 -4.2589 -1.7007
10 2 23 -0.4618 -2.1195
10 2 26 -1.2289 -3.2989
10 2 29 -1.9887 -3.2548
10 2 32 -3.2838 0.8807
10 2 35 -1.6181 2.1491
10 2 38 -0.2371 -5.1156
10 2 41 -0.1751 -4.0821
10 2 44 0.5931 3.5469
10 2 47 -0.7418 4.6164
10 2 50 -1.7448 -0.7098
10 2 53 -1.7004 -0.6237
10 2 56 0.6631 1.2113
10 2 59 -0.2969 0.2621
10 2 62 -1.1340 1.2662
10 2 65 1.9747 0.8635
10 3 -62 5.7436 0.5785
10 3 -59 3.8697 0.7578
10 3 -56 0.1596 -0.7359
10 3 -53 -4.8837 -0.7130
10 3 -50 -3.7454 0.8231
10 3 -47 0.2168 2.0936
10 3 -44 0.4013 -0.2570
10 3 -41 3.5705 -3.9528
10 3 -38 2.7914 -0.7416
10 3 -35 0.7299 2.0781
10 3 -32 -3.5048 -1.0908
10 3 -29 -0.1663 -0.9775
10 3 -26 5.9480 0.7874
10 3 -23 -0.9696 -0.2682
10 3 -20 -1.4452 -0.9467
10 3 -17 -4.9986 2.0165
10 3 -14 2.8239 1.0199
10 3 -11 0.0385 -2.2013
10 3 -8 0.1063 1.6898
10 3 -5 3.3901 4.6424
10 3 -2 5.8048 -0.1241
10 3 1 7.7944 -3.9288
10 3 4 -3.7641 -0.2828
10 3 7 -4.6818 1.7696
10 3 10 -4.7756 -1.4989
10 3 13 7.1273 -1.5088
10 3 16 3.5817 -0.2920
10 3 19 0.8399 -2.5788
10 3 22 -1.9118 -0.8804
10 3 25 -0.4992 4.1742
10 3 28 -3.9669 1.8524
10 3 31 -4.3664 -2.4008
10 3 34 0.1264 0.4752
10 3 37 2.9783 4.3752
10 3 40 0.4596 -0.5363
10 3 43 -1.5576 -2.6687
10 3 46 -1.0967 -0.9373
10 3 49 -1.5020 -0.9134
10 3 52 0.0483 -1.7115
10 3 55 0.7841 1.3035
10 3 58 -0.6209 1.1105
10 3 61 -2.3633 -3.1319
10 3 64 -0.5285 -0.0625
10 4 -60 3.7511 -1.5047
10 4 -57 1.7790 0.2664
10 4 -54 -1.6367 -0.1048
10 4 -51 -1.2384 1.0853
10 4 -48 -0.0267 1.1301
10 4 -45 -1.4796 1.2976
10 4 -42 0.7725 -0.9491
10 4 -39 3.8664 -4.2615
10 4 -36 3.6467 -1.4984
10 4 -33 -1.2937 1.1106
10 4 -30 -0.2296 -0.0897
10 4 -27 1.7267 -0.6628
10 4 -24 3.3037 -1.2273
10 4 -21 -1.7059 0.3662
10 4 -18 -0.8553 2.6593
10 4 -15 -1.2524 2.9803
10 4 -12 1.7231 0.6750
10 4 -9 -1.6214 -1.8882
10 4 -6 0.0228 1.0507
10 4 -3 5.2826 3.0862
10 4 0 5.2587 -0.2669
10 4 3 4.2343 -3.7683
10 4 6 -5.6899 -1.7573
10 4 9 -3.0676 0.1980
10 4 12 0.2682 -0.7113
10 4 15 5.4403 -0.1693
10 4 18 2.2454 -0.1450
10 4 21 1.3248 -1.0509
10 4 24 0.2175 1.0852
10 4 27 -3.0995 3.6148
10 4 30 -3.8956 0.9585
10 4 33 -1.1748 -1.2453
10 4 36 2.7846 1.5834
10 4 39 0.7883 2.4001
10 4 42 -0.9159 -1.1219
10 4 45 -0.8350 -3.3150
10 4 48 -0.3582 -2.4353
10 4 51 -0.6121 -2.1632
10 4 54 0.0809 1.2721
10 4 57 -0.7597 1.7680
10 4 60 -2.3430 -1.6920
10 5 -58 -1.0407 -4.3165
10 5 -55 0.5003 0.7600
10 5 -52 -0.2351 2.1786
10 5 -49 0.1608 0.6060
10 5 -46 -2.3924 -1.0972
10 5 -43 -0.7644 0.0398
10 5 -40 2.9009 0.9022
10 5 -37 0.3389 -0.7066
10 5 -34 2.7504 -0.6530
10 5 -31 0.2326 0.5615
10 5 -28 2.7555 1.7485
10 5 -25 1.8471 1.2904
10 5 -22 1.1941 0.2853
10 5 -19 -1.2921 0.0949
10 5 -16 -1.3935 0.2160
10 5 -13 2.2198 0.3612
10 5 -10 -0.5598 0.3198
10 5 -7 -0.9225 -1.4474
10 5 -4 -1.7631 -1.6404
10 5 -1 2.1485 -0.5361
10 5 2 2.3676 0.1946
10 5 5 1.0548 0.4238
10 5 8 -3.2653 0.3625
10 5 11 0.2591 0.2686
10 5 14 2.9861 0.5890
10 5 17 1.9351 1.9323
10 5 20 1.6165 1.5975
10 5 23 -0.7042 0.4940
10 5 26 -2.1577 -0.8858
10 5 29 -3.0491 0.2152
10 5 32 0.6120 0.6146
10 5 35 -0.2739 -1.0858
10 5 38 0.4967 -1.2736
10 5 41 -1.9177 -1.1098
10 5 44 -0.0616 -0.0559
10 5 47 -1.3962 -1.8877
10 5 50 -0.9922 0.0788
10 5 53 -2.1839 0.1609
10 5 56 -0.4900 2.2456
10 6 -50 0.1575 1.9376
10 6 -47 0.5557 -1.0178
10 6 -44 0.1033 -1.3021
10 6 -41 0.4454 0.7243
10 6 -38 -1.2769 2.2113
10 6 -35 -2.4715 0.8672
10 6 -32 2.7644 -0.4346
10 6 -29 0.5662 0.5246
10 6 -26 3.1485 4.1813
10 6 -23 2.9125 2.2860
10 6 -20 -0.4237 -0.3934
10 6 -17 -1.1258 -1.6853
10 6 -14 -1.8737 -1.7152
10 6 -11 3.6593 -0.8566
10 6 -8 -1.6794 0.4785
10 6 -5 -0.1754 -0.6327
10 6 -2 -3.1501 -3.4108
10 6 1 1.0440 -1.3671
10 6 4 2.8107 2.7137
10 6 7 -0.1346 2.1568
10 6 10 -0.9817 -0.4761
10 6 13 -0.0187 0.3299
10 6 16 0.8314 2.4752
10 6 19 0.0981 3.3867
10 6 22 0.4163 2.2720
10 6 25 -1.9431 -0.5435
10 6 28 -0.4606 -3.4653
10 6 31 1.6430 -1.3953
10 6 34 0.0838 0.1785
10 6 37 -5.2976 -1.6579
10 6 40 -3.0444 -1.1913
10 6 43 -3.1616 -0.8652
10 6 46 1.1041 0.7581
10 6 49 -0.6107 0.8016
10 6 52 -0.6592 2.8700
10 7 -48 -0.8994 -2.2663
10 7 -45 3.1553 -0.6719
10 7 -42 1.8296 0.1462
10 7 -39 -0.4813 0.4193
10 7 -36 -2.6654 2.1724
10 7 -33 -1.4227 0.6189
10 7 -30 1.1804 -1.7289
10 7 -27 -0.3476 0.6544
10 7 -24 1.3745 3.8255
10 7 -21 1.9842 -0.2889
10 7 -18 -1.7002 -0.8684
10 7 -15 0.6181 -0.1106
10 7 -12 1.0337 -1.3394
10 7 -9 4.9717 -0.6207
10 7 -6 -1.1504 0.8167
10 7 -3 -1.6019 -0.4147
10 7 0 -2.9546 -2.6263
10 7 3 1.9086 0.0635
10 7 6 3.2318 2.5287
10 7 9 -1.1709 0.2789
10 7 12 0.1648 -0.5983
10 7 15 0.1861 0.6104
10 7 18 1.3766 0.9727
10 7 21 0.9563 0.7251
10 7 24 -2.6120 1.6231
10 7 27 -3.1158 0.1088
10 7 30 0.4313 -1.3483
10 7 33 1.9813 -1.4427
10 7 36 -1.9275 -0.5149
10 7 39 -4.0853 -0.3866
10 7 42 -1.2249 1.2625
10 7 45 -1.3799 1.0288
10 7 48 0.0942 2.0766
10 8 -43 3.1215 -0.3682
10 8 -40 0.4502 -3.1999
10 8 -37 -3.0653 -0.4781
10 8 -34 -3.3815 2.0501
10 8 -31 1.2214 -0.5955
10 8 -28 1.0705 -1.9766
10 8 -25 -0.6528 -0.0584
10 8 -22 0.2917 -1.2601
10 8 -19 1.0636 -1.8494
10 8 -16 -1.2574 1.7430
10 8 -13 2.4290 2.2861
10 8 -10 3.0268 -0.5683
10 8 -7 3.1023 -0.7266
10 8 -4 -1.3789 0.4921
10 8 -1 -0.5660 1.1254
10 8 2 2.2330 0.0067
10 8 5 2.9589 -1.1881
10 8 8 0.0238 -1.9363
10 8 11 -3.5242 -1.3851
10 8 14 -0.8605 1.1482
10 8 17 1.1033 1.1413
10 8 20 4.4022 -0.4422
10 8 23 1.9049 -0.9996
10 8 26 -3.0402 0.7621
10 8 29 -2.2443 0.1852
10 8 32 1.0357 1.5481
10 8 35 0.3912 -0.1051
10 8 38 -2.2353 0.6106
10 8 41 -0.8005 1.3118
10 9 -35 -3.7944 0.9678
10 9 -32 -0.3314 -0.8100
10 9 -29 2.1531 -1.8875
10 9 -26 -0.7879 -1.2849
10 9 -23 0.0432 -0.7058
10 9 -20 0.8932 -2.4588
10 9 -17 1.1282 0.1815
10 9 -14 1.9036 1.4895
10 9 -11 3.7831 0.1147
10 9 -8 1.3970 -1.6545
10 9 -5 -1.0884 -1.4411
10 9 -2 -1.5151 0.9192
10 9 1 1.1048 2.4435
10 9 4 1.8419 0.2589
10 9 7 0.5067 -2.7533
10 9 10 0.0047 -2.2860
10 9 13 0.0282 1.8773
10 9 16 1.9389 2.6762
10 9 19 3.6616 0.4797
10 9 22 3.2249 -1.3840
10 9 25 -3.1841 -2.6438
10 9 28 -3.6883 -1.2561
10 9 31 -0.5626 1.3218
10 9 34 3.5550 3.9024
10 10 -24 1.2295 -0.5673
10 10 -21 1.0694 -0.2742
10 10 -18 -0.5372 -0.8533
10 10 -15 1.6032 0.8813
10 10 -12 2.4384 -0.9307
10 10 -9 -0.0190 -3.0674
10 10 -6 -1.1244 -2.6659
10 10 -3 0.5693 -1.8363
10 10 0 1.4108 0.9118
10 10 3 0.7201 2.3603
10 10 6 -1.1686 0.0498
10 10 9 0.0107 -1.2608
10 10 12 0.4004 0.6605
10 10 15 2.0397 4.4850
10 10 18 4.1637 2.7471
10 10 21 3.4392 0.6125
10 10 24 -0.3439 -2.2311
11 1 -65 0.0047 -1.4382
11 1 -62 2.6238 -6.0076
11 1 -59 -1.6357 -7.0230
11 1 -56 0.0029 1.2102
11 1 -53 2.8086 0.5195
11 1 -50 -5.4901 -2.0012
11 1 -47 -1.2964 -3.4749
11 1 -44 4.0087 -2.3156
11 1 -41 5.4836 6.9799
11 1 -38 -3.3201 10.9270
11 1 -35 -3.3314 2.9645
11 1 -32 -0.7323 -6.0576
11 1 -29 0.8241 1.6828
11 1 -26 4.9323 10.2949
11 1 -23 -4.5455 1.8332
11 1 -20 -4.3031 -9.7943
11 1 -17 0.3457 -9.1030
11 1 -14 4.4736 -3.5997
11 1 -11 -1.1588 -0.4783
11 1 -8 -6.1408 -0.2158
11 1 -5 -0.8233 -4.1705
11 1 -2 4.1686 -5.8107
11 1 1 5.5111 5.1586
11 1 4 -4.6497 13.6560
11 1 7 -8.3253 4.6783
11 1 10 -3.5655 -4.7769
11 1 13 6.2003 2.6316
11 1 16 3.2892 9.1884
11 1 19 -1.6867 2.4736
11 1 22 -6.5227 -6.3010
11 1 25 -2.4394 -7.8221
11 1 28 -1.0050 -6.5583
11 1 31 -0.0417 -0.1720
11 1 34 -1.3423 2.3430
11 1 37 -1.5375 -5.0969
11 1 40 -1.1148 -9.7093
11 1 43 -1.8225 1.0337
11 1 46 -0.0022 11.1726
11 1 49 -2.9336 5.3793
11 1 52 -0.7207 -1.2998
11 1 55 0.2646 -0.2614
11 1 58 -0.2739 2.1044
11 1 61 -5.3603 1.2357
11 1 64 -2.4858 -0.5071
11 2 -63 2.3850 -0.7060
11 2 -60 2.9473 -2.8694
11 2 -57 1.6529 -1.6440
11 2 -54 2.3539 1.1557
11 2 -51 -1.7179 -1.6338
11 2 -48 -3.6898 -0.8633
11 2 -45 4.8917 0.4465
11 2 -42 2.9099 -0.3721
11 2 -39 2.2276 3.7515
11 2 -36 -0.0542 6.4981
11 2 -33 -1.6161 0.1512
11 2 -30 0.4014 -6.7167
11 2 -27 2.1784 0.7035
11 2 -24 2.4310 4.8456
11 2 -21 -6.5589 -2.3900
11 2 -18 -1.0940 -5.1843
11 2 -15 -0.0393 -1.5363
11 2 -12 0.7466 -1.7627
11 2 -9 -2.2315 -1.4843
11 2 -6 -1.7075 3.7181
11 2 -3 6.0421 2.1252
11 2 0 4.6270 -3.5695
11 2 3 2.3736 1.7683
11 2 6 -8.8060 7.9378
11 2 9 -3.3128 1.6167
11 2 12 1.0154 -3.8896
11 2 15 5.8214 1.5436
11 2 18 1.2590 1.8617
11 2 21 0.4833 -3.8025
11 2 24 -1.8940 -3.3997
11 2 27 -2.8661 -0.8995
11 2 30 -3.2665 -3.4718
11 2 33 -2.3719 -0.7628
11 2 36 1.1356 4.1351
11 2 39 0.1653 -0.1676
11 2 42 0.4686 -5.5301
11 2 45 -0.8970 1.6050
11 2 48 -1.1302 6.5259
11 2 51 -2.8852 1.2649
11 2 54 0.0826 -1.2051
11 2 57 -0.5005 1.6687
11 2 60 -3.0380 0.4527
11 2 63 -1.4553 -2.1520
11 3 -58 0.5191 -1.8008
11 3 -55 0.7496 0.9089
11 3 -52 0.9096 0.3448
11 3 -49 0.7166 -0.0082
11 3 -46 4.0857 2.1276
11 3 -43 3.8041 0.8848
11 3 -40 2.2247 -3.4574
11 3 -37 0.8898 -0.3343
11 3 -34 -1.3431 3.2309
11 3 -31 -2.3815 0.1412
11 3 -28 3.8018 -3.9866
11 3 -25 3.5879 -1.4440
11 3 -22 1.2562 -0.2560
11 3 -19 -4.3830 -0.2184
11 3 -16 0.0997 1.7930
11 3 -13 -0.9832 1.0703
11 3 -10 -1.2521 -1.3881
11 3 -7 -1.5128 0.1920
11 3 -4 1.6868 5.5600
11 3 -1 7.1666 2.4641
11 3 2 2.2076 -4.0023
11 3 5 -0.1956 -1.2869
11 3 8 -5.8942 2.2449
11 3 11 1.2391 -0.8823
11 3 14 -0.0850 -3.0503
11 3 17 0.8930 -0.2761
11 3 20 2.6287 -0.8060
11 3 23 2.3987 -1.2641
11 3 26 -0.3387 2.3317
11 3 29 -2.5708 1.0092
11 3 32 0.2095 -2.4869
11 3 35 0.9063 0.7085
11 3 38 1.0977 5.3196
11 3 41 -1.6027 -0.0593
11 3 44 -0.2352 -3.9204
11 3 47 0.4502 0.2163
11 3 50 -0.9073 1.3168
11 3 53 -0.1496 -0.0315
11 3 56 -0.6889 1.9534
11 3 59 -2.0933 0.9823
11 4 -56 -0.1200 -1.3821
11 4 -53 2.9097 2.0595
11 4 -50 0.6073 -0.3243
11 4 -47 -2.8167 0.8135
11 4 -44 1.7511 1.4633
11 4 -41 3.1424 0.5474
11 4 -38 4.9310 -2.2617
11 4 -35 -0.6245 -1.7940
11 4 -32 0.3786 0.4405
11 4 -29 -0.0384 1.1726
11 4 -26 2.8178 -0.6210
11 4 -23 1.7414 -0.1017
11 4 -20 0.0316 1.8549
11 4 -17 -0.2221 1.3090
11 4 -14 1.9689 0.7257
11 4 -11 0.2141 0.5328
11 4 -8 -2.6373 -0.6335
11 4 -5 -1.5553 -0.8853
11 4 -2 0.3867 1.9053
11 4 1 3.0166 0.6068
11 4 4 -0.8960 -2.9690
11 4 7 -2.2645 -1.2435
11 4 10 -1.0453 0.5647
11 4 13 2.2093 0.0845
11 4 16 -0.5533 -0.4291
11 4 19 0.6415 0.8734
11 4 22 3.2729 0.4981
11 4 25 -1.5431 -0.1054
11 4 28 -1.5483 2.0117
11 4 31 0.3003 1.0793
11 4 34 2.9453 -0.3953
11 4 37 0.7485 -0.7454
11 4 40 -0.0616 1.6175
11 4 43 -0.3288 -0.9847
11 4 46 0.1221 -1.5147
11 4 49 -1.4231 -1.1420
11 4 52 -2.5863 0.0669
11 4 55 -0.5325 1.3758
11 5 -51 4.2262 2.7564
11 5 -48 -3.4015 -0.3244
11 5 -45 -3.1857 -0.4477
11 5 -42 3.3295 0.4449
11 5 -39 1.1605 2.3094
11 5 -36 1.3855 0.6071
11 5 -33 0.6853 -1.5179
11 5 -30 3.5042 0.9272
11 5 -27 0.2385 1.9787
11 5 -24 0.6839 1.6876
11 5 -21 1.2406 1.1122
11 5 -18 -1.1646 0.5077
11 5 -15 1.9937 -1.1992
11 5 -12 1.2943 0.2483
11 5 -9 0.3752 1.5044
11 5 -6 -3.7389 -1.5949
11 5 -3 -2.3464 -3.2371
11 5 0 -0.0689 -0.9098
11 5 3 1.4430 1.5561
11 5 6 -1.4464 0.6197
11 5 9 -2.7239 -0.5900
11 5 12 0.7066 -0.7057
11 5 15 -0.4987 0.8592
11 5 18 -1.8504 2.6215
11 5 21 0.1780 3.3307
11 5 24 0.0133 0.9020
11 5 27 -1.0155 -1.7688
11 5 30 2.3888 0.1896
11 5 33 2.2433 0.0795
11 5 36 -1.8113 -1.9254
11 5 39 -3.2118 -2.0738
11 5 42 -0.5074 1.3211
11 5 45 -0.4391 -0.2883
11 5 48 -0.3154 -0.2044
11 5 51 -2.8330 -0.2213
11 6 -46 -4.1442 -0.8219
11 6 -43 1.3705 -0.4078
11 6 -40 1.4346 0.4930
11 6 -37 -1.0598 2.2308
11 6 -34 0.8810 2.1781
11 6 -31 2.0959 -0.7953
11 6 -28 0.6029 1.5310
11 6 -25 -0.7110 2.4797
11 6 -22 0.9266 1.8787
11 6 -19 1.5610 -1.4128
11 6 -16 -1.8204 -2.2794
11 6 -13 2.5246 -1.3037
11 6 -10 0.8803 0.8998
11 6 -7 0.0302 1.8610
11 6 -4 -4.3684 -1.5202
11 6 -1 -2.6933 -3.1063
11 6 2 1.1935 -0.9550
11 6 5 1.4274 2.3125
11 6 8 -0.6126 2.0903
11 6 11 -1.1099 0.1964
11 6 14 1.2139 0.6979
11 6 17 -1.2430 0.8796
11 6 20 -3.0813 1.2469
11 6 23 -1.2058 0.5299
11 6 26 -2.2217 -0.3781
11 6 29 2.7583 -0.6730
11 6 32 2.4689 0.2928
11 6 35 -1.9935 -1.5169
11 6 38 -5.5519 -1.4927
11 6 41 -2.4473 0.5900
11 6 44 0.7034 0.8021
11 7 -41 2.0796 -0.7045
11 7 -38 -1.5546 -0.8722
11 7 -35 -1.4859 1.6201
11 7 -32 -0.1959 0.6989
11 7 -29 1.2738 -1.7363
11 7 -26 -1.5133 1.2874
11 7 -23 0.6100 0.7081
11 7 -20 2.1308 -0.7214
11 7 -17 0.9526 -1.2478
11 7 -14 -1.7630 -1.0476
11 7 -11 1.6446 -0.5585
11 7 -8 0.1226 -0.1049
11 7 -5 -0.9803 0.5251
11 7 -2 -3.3171 0.4295
11 7 1 0.6852 0.9198
11 7 4 4.8339 0.3076
11 7 7 1.8187 -0.3841
11 7 10 -0.9402 0.6933
11 7 13 -0.0676 0.7921
11 7 16 0.8994 0.6813
11 7 19 -1.0334 -1.2895
11 7 22 -3.4484 -0.3137
11 7 25 -1.7941 -0.4982
11 7 28 -0.6623 0.3263
11 7 31 4.4334 -0.1159
11 7 34 0.7585 -0.1650
11 7 37 -3.9327 -0.1518
11 7 40 -3.7487 2.3873
11 8 -33 -1.3070 0.6452
11 8 -30 1.2820 -2.6642
11 8 -27 0.8866 -1.8372
11 8 -24 -1.5196 -1.6272
11 8 -21 2.2321 -1.4358
11 8 -18 2.5214 0.7091
11 8 -15 0.1428 1.2194
11 8 -12 -0.9278 -0.7191
11 8 -9 0.8500 -1.3440
11 8 -6 -0.4003 -2.2280
11 8 -3 -1.4944 -0.4140
11 8 0 -0.9713 3.2096
11 8 3 3.8723 1.6414
11 8 6 3.0841 -2.7749
11 8 9 -0.2127 -1.2273
11 8 12 0.1910 3.9057
11 8 15 3.1075 2.7819
11 8 18 3.2961 -1.1381
11 8 21 -0.1180 -2.7444
11 8 24 -3.3548 -1.2850
11 8 27 -3.6566 -2.2416
11 8 30 0.4295 0.8531
11 8 33 2.4174 2.3769
11 9 -22 1.0996 -3.1900
11 9 -19 2.3949 -0.0838
11 9 -16 1.1339 1.1706
11 9 -13 -0.5925 -0.5913
11 9 -10 -1.0853 -2.0033
11 9 -7 -0.7722 -2.6125
11 9 -4 -1.0454 -2.2629
11 9 -1 0.3834 1.2473
11 9 2 1.6702 3.1646
11 9 5 3.2879 -1.2282
11 9 8 0.3123 -3.4140
11 9 11 0.7299 2.2674
11 9 14 1.7125 5.1466
11 9 17 3.1785 2.0316
11 9 20 2.6461 -0.2694
11 9 23 -2.2874 -0.5320
12 1 -61 -0.9441 -8.6608
12 1 -58 -1.4816 -4.7700
12 1 -55 2.5743 -0.2030
12 1 -52 0.2520 2.8543
12 1 -49 -2.7202 -1.4432
12 1 -46 2.6069 -2.7891
12 1 -43 10.1262 -0.7799
12 1 -40 1.3868 4.5740
12 1 -37 -0.9965 12.7458
12 1 -34 -2.9458 5.4385
12 1 -31 -2.3429 -7.7294
12 1 -28 3.4290 -5.1365
12 1 -25 1.1794 7.1824
12 1 -22 -4.1058 3.1732
12 1 -19 -4.9009 -9.8877
12 1 -16 2.9891 -9.5099
12 1 -13 3.0604 -3.3253
12 1 -10 -2.4817 -0.1737
12 1 -7 -2.9201 3.5323
12 1 -4 -0.8204 2.1730
12 1 -1 6.4762 -4.5359
12 1 2 1.9854 0.0905
12 1 5 -3.2393 13.2331
12 1 8 -5.4550 9.3809
12 1 11 1.0282 -4.9009
12 1 14 3.0182 -3.8955
12 1 17 1.8468 5.5417
12 1 20 -2.0219 1.7606
12 1 23 -4.1392 -5.8672
12 1 26 -1.0570 -7.3424
12 1 29 0.4990 -5.9582
12 1 32 -0.9382 -2.0475
12 1 35 -2.5090 4.7721
12 1 38 -0.4851 1.8652
12 1 41 -2.5220 -7.5886
12 1 44 0.6764 -1.7651
12 1 47 -0.8968 11.0133
12 1 50 0.4376 8.2280
12 1 53 -0.3945 -1.7091
12 1 56 0.1718 0.2469
12 1 59 -5.5467 2.3318
12 2 -59 -1.1497 -5.0944
12 2 -56 2.0722 -0.4235
12 2 -53 1.7319 1.1030
12 2 -50 -1.3547 -0.9301
12 2 -47 2.1636 -0.5880
12 2 -44 7.7251 2.3078
12 2 -41 4.3246 1.2965
12 2 -38 1.3466 1.9985
12 2 -35 0.9448 6.9956
12 2 -32 -3.1040 0.3788
12 2 -29 -1.6488 -8.1551
12 2 -26 3.1412 -3.2829
12 2 -23 -0.9049 3.5304
12 2 -20 -2.3809 -0.7816
12 2 -17 -1.3306 -5.9057
12 2 -14 1.9898 -2.4688
12 2 -11 -0.7697 -0.7862
12 2 -8 -2.6814 0.4604
12 2 -5 0.8515 4.4825
12 2 -2 2.7464 3.3560
12 2 1 5.5019 -2.5730
12 2 4 -2.0129 0.8434
12 2 7 -2.3372 8.9250
12 2 10 -1.8104 2.7449
12 2 13 1.2793 -6.1760
12 2 16 0.4373 -3.3522
12 2 19 2.8559 1.6089
12 2 22 2.1277 -1.4971
12 2 25 -2.7391 -3.5721
12 2 28 -0.7605 -1.7130
12 2 31 -0.5133 -3.5492
12 2 34 1.9199 -0.2744
12 2 37 0.7685 5.5321
12 2 40 0.5346 2.4072
12 2 43 -1.8587 -3.5131
12 2 46 -0.1190 2.3120
12 2 49 -0.7675 7.7463
12 2 52 0.0366 0.8355
12 2 55 1.2834 -0.9329
12 2 58 -2.4039 2.5877
12 3 -54 5.3315 1.4487
12 3 -51 3.7781 -0.3845
12 3 -48 2.1485 -2.4110
12 3 -45 0.2226 1.7888
12 3 -42 2.4842 1.7279
12 3 -39 0.2247 -0.9667
12 3 -36 2.4754 0.0436
12 3 -33 -0.3157 2.6856
12 3 -30 -0.3847 -0.2986
12 3 -27 1.7415 -4.3144
12 3 -24 1.9082 -2.8352
12 3 -21 -1.0956 0.8523
12 3 -18 -0.8318 0.9989
12 3 -15 0.7587 -0.2283
12 3 -12 1.4815 1.2271
12 3 -9 -1.8211 0.2052
12 3 -6 -0.7688 -0.4542
12 3 -3 2.0095 2.7459
12 3 0 2.7727 2.7219
12 3 3 1.6268 -2.3061
12 3 6 -4.1610 -2.8677
12 3 9 -1.9535 2.1376
12 3 12 -1.4204 0.5934
12 3 15 -2.2522 -2.2305
12 3 18 1.4476 -1.2894
12 3 21 6.2585 -0.5578
12 3 24 3.6313 -0.8725
12 3 27 -2.6421 -0.3467
12 3 30 0.7633 2.2319
12 3 33 -0.0439 -1.2776
12 3 36 1.4466 0.1426
12 3 39 0.7168 2.4091
12 3 42 1.0625 2.2304
12 3 45 1.7551 0.9156
12 3 48 -0.0439 1.9993
12 3 51 -1.4694 1.3803
12 3 54 -2.0387 -1.2168
12 4 -49 0.7352 1.7122
12 4 -46 -2.2517 0.9309
12 4 -43 -0.4970 1.3122
12 4 -40 3.7515 -0.5246
12 4 -37 -0.4527 -2.1815
12 4 -34 0.5613 -1.9901
12 4 -31 0.1992 1.1324
12 4 -28 0.9936 3.0180
12 4 -25 1.2087 -0.1461
12 4 -22 0.9608 -0.6286
12 4 -19 1.4030 1.1358
12 4 -16 1.5878 -0.1300
12 4 -13 1.5859 0.4488
12 4 -10 -0.5793 2.1035
12 4 -7 -2.9921 -0.6847
12 4 -4 -1.1183 -2.4006
12 4 -1 0.4667 1.6806
12 4 2 1.9525 2.0273
12 4 5 -1.8085 -2.0488
12 4 8 -3.9226 -3.6937
12 4 11 -0.2155 -0.3327
12 4 14 -1.5241 0.2917
12 4 17 -4.2017 -0.5330
12 4 20 0.1388 0.5173
12 4 23 2.0590 0.4486
12 4 26 0.6370 0.5888
12 4 29 1.6955 1.1738
12 4 32 4.1331 3.0716
12 4 35 0.5232 -1.6637
12 4 38 -1.1638 -1.7899
12 4 41 -0.4475 1.6267
12 4 44 0.2625 3.1203
12 4 47 0.6296 0.7517
12 4 50 -1.6048 -0.7607
12 5 -47 -5.2073 3.0057
12 5 -44 -3.7953 0.5198
12 5 -41 1.1108 0.2835
12 5 -38 1.0618 0.6709
12 5 -35 0.9835 -0.9417
12 5 -32 2.9246 -1.0544
12 5 -29 1.0471 -0.1310
12 5 -26 -2.1045 1.7344
12 5 -23 -0.7185 1.6383
12 5 -20 0.9342 1.7449
12 5 -17 2.2474 -0.0786
12 5 -14 1.3514 -1.2781
12 5 -11 1.0448 1.0462
12 5 -8 -1.0151 0.8791
12 5 -5 -2.9396 -0.9997
12 5 -2 -1.4836 -1.5471
12 5 1 0.2390 -0.0423
12 5 4 0.2148 0.0138
12 5 7 -4.6330 -0.6076
12 5 10 -2.2958 -0.8212
12 5 13 1.7681 0.0904
12 5 16 -1.6994 0.9081
12 5 19 -4.2084 0.0473
12 5 22 -2.6546 0.4632
12 5 25 0.2827 -1.0297
12 5 28 0.7929 -0.2289
12 5 31 4.0527 1.6892
12 5 34 0.2303 1.3733
12 5 37 -2.4044 -1.1116
12 5 40 -2.3101 0.1397
12 5 43 0.0361 2.0512
12 5 46 -0.2433 -0.0816
12 6 -39 0.5942 -1.0047
12 6 -36 -0.7104 1.6160
12 6 -33 2.3062 1.7653
12 6 -30 0.8569 -0.3030
12 6 -27 -1.0076 -2.2415
12 6 -24 -2.0594 -0.0680
12 6 -21 1.3903 0.4466
12 6 -18 1.5296 -0.1478
12 6 -15 0.5468 -0.8180
12 6 -12 -0.7839 -0.0586
12 6 -9 -0.9338 0.8157
12 6 -6 -2.9613 0.1569
12 6 -3 -3.4625 0.3663
12 6 0 -0.1524 -0.2011
12 6 3 3.6831 -0.6334
12 6 6 2.5643 1.0112
12 6 9 -1.8072 1.6423
12 6 12 0.5281 0.8039
12 6 15 0.7235 -1.8211
12 6 18 -5.1603 -1.1457
12 6 21 -5.4931 -1.1299
12 6 24 -2.7026 0.2663
12 6 27 2.9222 -0.6110
12 6 30 2.3579 0.0039
12 6 33 2.9103 0.3114
12 6 36 -3.1683 -0.0823
12 6 39 -3.0435 2.4980
12 7 -31 1.1438 0.2362
12 7 -28 -1.0105 -1.6025
12 7 -25 -1.9492 -1.8837
12 7 -22 -0.5685 -1.3657
12 7 -19 2.3697 -0.5520
12 7 -16 1.1779 -0.2559
12 7 -13 -0.3020 -1.0148
12 7 -10 -1.3052 -0.5374
12 7 -7 -0.9225 -0.3778
12 7 -4 -3.5147 0.1998
12 7 -1 -3.1403 2.2666
12 7 2 1.2482 1.1673
12 7 5 5.3381 -1.8877
12 7 8 2.4610 0.3823
12 7 11 0.9977 3.0624
12 7 14 3.7624 2.3190
12 7 17 0.7975 -2.4738
12 7 20 -4.5127 -1.8009
12 7 23 -4.1421 -1.3419
12 7 26 -0.7535 -1.0227
12 7 29 2.4507 -1.6598
12 7 32 1.5595 0.3669
12 8 -23 -0.9209 -1.4667
12 8 -20 1.6139 -0.7339
12 8 -17 1.6341 0.7446
12 8 -14 -0.6772 -0.9704
12 8 -11 -1.7029 -2.0518
12 8 -8 -1.3148 -1.9899
12 8 -5 -0.4769 -2.5422
12 8 -2 -3.0106 0.6291
12 8 1 -0.1409 3.8520
12 8 4 2.8660 0.7320
12 8 7 3.3826 -1.9568
12 8 10 1.1752 2.1426
12 8 13 3.1896 3.6920
12 8 16 4.6001 -0.1964
12 8 19 -0.1811 -2.7653
13 1 -57 -3.2659 -6.9517
13 1 -54 2.8291 2.0569
13 1 -51 -1.0376 2.1828
13 1 -48 -0.6800 -0.5296
13 1 -45 5.6623 -1.1126
13 1 -42 4.5753 -0.2602
13 1 -39 1.7078 3.3187
13 1 -36 -0.2118 9.7779
13 1 -33 -1.4718 7.4704
13 1 -30 -2.2161 -6.1832
13 1 -27 3.5382 -8.8092
13 1 -24 1.3940 3.7412
13 1 -21 -3.9083 3.9281
13 1 -18 -1.2258 -7.5956
13 1 -15 2.2445 -11.8190
13 1 -12 0.5000 -3.8548
13 1 -9 -1.9934 2.7685
13 1 -6 -2.8686 4.7404
13 1 -3 3.3535 2.2196
13 1 0 5.6034 -4.0688
13 1 3 2.8112 -0.7344
13 1 6 -2.4944 11.9642
13 1 9 -2.3269 11.9605
13 1 12 -0.7993 -3.8529
13 1 15 -1.1538 -8.3430
13 1 18 2.5834 1.7313
13 1 21 0.0191 3.9526
13 1 24 -0.7380 -3.7431
13 1 27 -0.0218 -7.2335
13 1 30 1.3445 -5.3939
13 1 33 -2.0931 -2.3630
13 1 36 0.2526 3.8197
13 1 39 -0.6656 3.6310
13 1 42 -0.8322 -3.7724
13 1 45 -0.5336 0.2335
13 1 48 1.0198 10.0458
13 1 51 1.2959 7.2294
13 1 54 2.3569 -1.1837
13 1 57 -1.2427 -0.0497
13 2 -52 3.7978 1.1562
13 2 -49 0.3532 -1.6170
13 2 -46 4.5842 0.5527
13 2 -43 1.7885 2.2370
13 2 -40 1.0184 -0.5699
13 2 -37 1.8579 -0.2316
13 2 -34 -0.3709 5.0881
13 2 -31 -4.1213 1.8112
13 2 -28 -1.5580 -5.1531
13 2 -25 1.8090 -3.9389
13 2 -22 0.7319 3.3353
13 2 -19 0.3693 1.1975
13 2 -16 2.4402 -5.5432
13 2 -13 0.8194 -5.3888
13 2 -10 -1.0587 -0.3121
13 2 -7 -2.4375 0.8245
13 2 -4 0.2024 1.5702
13 2 -1 4.1293 3.0608
13 2 2 2.9489 -0.1511
13 2 5 -0.4311 -0.1644
13 2 8 -1.8509 4.9427
13 2 11 -0.7160 4.5906
13 2 14 -2.5537 -3.4457
13 2 17 -0.6390 -3.7033
13 2 20 5.8851 1.8022
13 2 23 2.5528 -0.2958
13 2 26 0.0091 -3.5638
13 2 29 -0.4587 -3.3697
13 2 32 1.5273 -1.2779
13 2 35 -0.1322 -1.2888
13 2 38 1.7352 2.6710
13 2 41 -0.3935 3.2374
13 2 44 -0.4925 0.8432
13 2 47 0.7993 4.6162
13 2 50 0.1435 4.9066
13 2 53 2.0738 1.7854
13 3 -47 -0.2116 0.0538
13 3 -44 -0.6698 2.4045
13 3 -41 -2.1943 0.4316
13 3 -38 2.1217 -0.8331
13 3 -35 0.2871 -1.4208
13 3 -32 -1.5182 0.1100
13 3 -29 -1.3561 -0.0297
13 3 -26 -0.2498 -1.8479
13 3 -23 -0.2088 -2.1520
13 3 -20 1.8489 1.4581
13 3 -17 3.7860 2.7605
13 3 -14 4.0507 0.1721
13 3 -11 -0.5032 0.6915
13 3 -8 -0.8937 -0.9261
13 3 -5 -2.1046 -3.7090
13 3 -2 1.4565 -0.1336
13 3 1 2.2830 4.3657
13 3 4 -0.5548 -0.1497
13 3 7 -3.5931 -3.5837
13 3 10 -1.7107 -0.4603
13 3 13 -0.8316 2.2042
13 3 16 -3.1712 -1.2699
13 3 19 1.8879 -2.3176
13 3 22 5.6103 0.5776
13 3 25 0.1781 -0.2185
13 3 28 -0.3278 0.6341
13 3 31 0.0820 1.0437
13 3 34 1.2088 0.0634
13 3 37 1.1157 -2.7540
13 3 40 2.5603 1.4688
13 3 43 1.4153 5.5364
13 3 46 0.0768 3.5040
13 3 49 -0.8572 1.6699
13 4 -42 -1.8391 -1.9568
13 4 -39 -0.7375 -1.6915
13 4 -36 -0.5461 0.0556
13 4 -33 -0.6990 -1.5375
13 4 -30 0.8855 0.2786
13 4 -27 0.4300 1.3804
13 4 -24 -1.9043 -1.6762
13 4 -21 -0.2922 -1.8758
13 4 -18 4.0763 0.5095
13 4 -15 3.8770 2.8033
13 4 -12 1.8479 2.5105
13 4 -9 -1.3679 1.8868
13 4 -6 -0.1128 -1.3963
13 4 -3 -2.1066 -1.6296
13 4 0 1.5992 1.0986
13 4 3 0.2726 1.0118
13 4 6 -3.9198 -3.3037
13 4 9 -3.3676 -4.8597
13 4 12 -0.0061 -1.5421
13 4 15 -2.1218 1.3959
13 4 18 -5.7713 0.2294
13 4 21 -0.5779 -0.5793
13 4 24 2.3130 0.8102
13 4 27 2.3625 0.0112
13 4 30 2.1664 1.8334
13 4 33 0.5140 2.7537
13 4 36 -1.4568 -0.2723
13 4 39 -0.6225 -1.0565
13 4 42 0.6376 2.3561
13 4 45 1.7293 3.6308
13 5 -37 1.6022 -1.0948
13 5 -34 0.5375 -0.1513
13 5 -31 1.1258 -0.7754
13 5 -28 -0.8159 -0.6912
13 5 -25 -2.3286 -0.2431
13 5 -22 -2.1882 -0.6967
13 5 -19 1.9584 -0.2641
13 5 -16 3.6216 0.1508
13 5 -13 1.0341 1.2116
13 5 -10 -0.1798 0.5955
13 5 -7 -1.3461 0.4132
13 5 -4 -1.7577 1.1358
13 5 -1 -2.4508 0.2493
13 5 2 1.2089 -1.1763
13 5 5 -0.5367 -0.0848
13 5 8 -1.4328 0.9763
13 5 11 2.1790 -1.5140
13 5 14 1.9245 -2.5074
13 5 17 -5.3772 -2.6538
13 5 20 -9.3163 -1.3535
13 5 23 -2.5575 -0.0954
13 5 26 1.5632 1.1174
13 5 29 3.4890 1.2612
13 5 32 1.5570 1.8826
13 5 35 1.4821 2.0872
13 5 38 -2.1465 -0.1394
13 6 -29 0.6868 -1.1518
13 6 -26 -2.2541 -2.9052
13 6 -23 -2.5936 -2.2265
13 6 -20 -1.3519 -0.8328
13 6 -17 1.0580 0.6376
13 6 -14 0.1460 0.6227
13 6 -11 -0.9324 -1.3875
13 6 -8 -1.2758 -1.0236
13 6 -5 -0.6738 1.6098
13 6 -2 -1.7398 2.4872
13 6 1 -0.1569 -1.0378
13 6 4 2.8090 -1.8431
13 6 7 1.2004 1.5549
13 6 10 1.6415 3.7006
13 6 13 2.5843 -0.2416
13 6 16 -0.2515 -2.5922
13 6 19 -6.6321 -3.5811
13 6 22 -4.7641 -1.0295
13 6 25 1.4191 -0.4722
13 6 28 1.9418 -0.4320
13 6 31 1.5236 0.6272
13 7 -18 0.5346 -0.2435
13 7 -15 0.9726 0.2769
13 7 -12 -1.6010 -1.6427
13 7 -9 -2.1658 -2.9697
13 7 -6 -2.4733 -0.8665
13 7 -3 -1.8338 1.1403
13 7 0 -2.5260 0.9825
13 7 3 2.4981 -0.7940
13 7 6 5.4319 0.2601
13 7 9 3.5652 3.5683
13 7 12 4.1297 4.4709
13 7 15 1.6216 -0.5607
14 1 -50 0.4945 1.7268
14 1 -47 -1.4417 -0.4739
14 1 -44 1.1576 0.7328
14 1 -41 -0.1543 -1.0860
14 1 -38 2.3285 0.6914
14 1 -35 2.6692 6.4547
14 1 -32 -1.9378 8.5215
14 1 -29 -0.2222 -2.8021
14 1 -26 0.6491 -8.2037
14 1 -23 -1.9070 -0.3372
14 1 -20 -1.5686 6.4135
14 1 -17 0.6334 -3.7007
14 1 -14 1.9979 -11.5885
14 1 -11 2.1187 -4.9058
14 1 -8 -0.3853 1.5345
14 1 -5 -1.1293 1.1791
14 1 -2 1.5924 0.0718
14 1 1 2.7269 -0.3627
14 1 4 0.7579 -0.3759
14 1 7 -0.1188 7.5350
14 1 10 1.4273 11.4799
14 1 13 -3.1854 0.7528
14 1 16 -0.5309 -6.6496
14 1 19 1.5444 0.3364
14 1 22 3.5773 5.5318
14 1 25 0.5879 -2.1631
14 1 28 1.8063 -7.6839
14 1 31 -1.1999 -6.2988
14 1 34 -1.5826 -3.9544
14 1 37 0.0294 1.6002
14 1 40 0.0444 3.4064
14 1 43 -0.1637 0.7733
14 1 46 0.1156 -1.1540
14 1 49 1.1486 5.0565
14 2 -45 -1.0654 0.0040
14 2 -42 -1.4335 -0.6522
14 2 -39 -0.0380 -3.4875
14 2 -36 2.4497 0.8949
14 2 -33 -3.4817 3.6387
14 2 -30 -2.8906 4.2035
14 2 -27 -0.4925 -0.6129
14 2 -24 -0.1321 -3.8120
14 2 -21 0.5096 -0.3121
14 2 -18 4.4087 1.7357
14 2 -15 1.7321 -3.0735
14 2 -12 1.4230 -4.7785
14 2 -9 0.1384 -0.0359
14 2 -6 0.1292 -0.8591
14 2 -3 -0.1153 -1.5882
14 2 0 1.5267 1.8706
14 2 3 -0.3372 1.6574
14 2 6 -1.2608 -1.3660
14 2 9 0.9981 3.1510
14 2 12 1.4969 6.6784
14 2 15 -1.7733 0.5927
14 2 18 1.3250 -4.0521
14 2 21 3.9640 -0.1139
14 2 24 2.3299 1.9649
14 2 27 -0.8577 -2.2523
14 2 30 0.7643 -3.6046
14 2 33 -1.0229 -3.0331
14 2 36 -0.0259 -2.9465
14 2 39 0.9018 0.9691
14 2 42 1.3502 4.2112
14 2 45 0.8675 4.1411
14 3 -40 -1.4059 -2.5158
14 3 -37 0.5922 -0.3218
14 3 -34 -0.9699 -0.6110
14 3 -31 -2.2701 -2.1921
14 3 -28 1.2623 1.9064
14 3 -25 -2.1735 1.2658
14 3 -22 -1.5855 -3.7656
14 3 -19 3.3815 0.0945
14 3 -16 6.4735 2.7267
14 3 -13 0.4360 1.3803
14 3 -10 0.8387 -0.5406
14 3 -7 0.5918 -0.8803
14 3 -4 2.2784 -2.1038
14 3 -1 0.7198 0.5294
14 3 2 0.2951 3.3956
14 3 5 -4.2972 -0.3945
14 3 8 -4.1131 -5.0214
14 3 11 1.2180 -1.8622
14 3 14 0.6944 2.5887
14 3 17 -0.5840 1.1026
14 3 20 0.8636 -1.6479
14 3 23 1.5227 1.0205
14 3 26 0.2536 1.3188
14 3 29 0.0218 -0.5519
14 3 32 0.5857 -0.2639
14 3 35 -0.8214 -0.4968
14 3 38 0.7670 -1.9046
14 3 41 1.4226 2.0186
14 4 -35 -0.4240 1.4568
14 4 -32 -0.0842 -2.2758
14 4 -29 2.2134 -1.2307
14 4 -26 0.4294 0.0272
14 4 -23 -3.2576 -2.6066
14 4 -20 0.9451 -4.0499
14 4 -17 5.4043 1.9389
14 4 -14 2.4173 3.7367
14 4 -11 -2.7468 2.1351
14 4 -8 0.2953 0.7153
14 4 -5 0.5312 0.7127
14 4 -2 2.2306 -0.0204
14 4 1 1.0855 -1.6760
14 4 4 -0.6782 -0.4503
14 4 7 -4.2814 -0.5398
14 4 10 -1.0775 -2.6921
14 4 13 1.6183 -1.6851
14 4 16 -2.8516 0.1746
14 4 19 -4.4164 -0.7474
14 4 22 -2.0724 -1.6444
14 4 25 2.0216 1.1341
14 4 28 1.5875 1.2770
14 4 31 -0.0452 2.6816
14 4 34 -0.4439 2.4116
14 5 -27 1.3383 0.4380
14 5 -24 -2.0954 -2.5340
14 5 -21 -0.8622 -3.4360
14 5 -18 1.7587 -0.6348
14 5 -15 2.2054 1.8001
14 5 -12 -2.1580 -0.8325
14 5 -9 -2.6311 -2.2460
14 5 -6 -0.5433 2.6209
14 5 -3 -0.1739 4.1059
14 5 0 1.9183 -0.2784
14 5 3 1.3614 -3.1097
14 5 6 1.9174 0.8154
14 5 9 1.2251 1.4685
14 5 12 2.6137 -1.7197
14 5 15 -2.6201 -2.4664
14 5 18 -7.5555 -1.4154
14 5 21 -6.1180 -0.6247
14 5 24 0.5269 -0.0321
14 6 -16 0.5837 3.6980
14 6 -13 0.9421 -0.7881
14 6 -10 -2.5340 -5.5379
14 6 -7 -1.9425 -2.4193
14 6 -4 -1.5165 3.0015
14 6 -1 -1.2845 0.3886
14 6 2 0.6185 -2.9108
14 6 5 2.4717 0.0415
14 6 8 5.8649 4.3096
14 6 14 2.3981 0.5021
15 1 -43 -5.9704 -1.8118
15 1 -40 -0.3349 -2.2852
15 1 -37 3.0495 -1.3904
15 1 -34 1.3872 4.5340
15 1 -31 -1.8769 7.5259
15 1 -28 0.8864 3.4346
15 1 -25 -1.9143 -4.7742
15 1 -22 -0.7395 -1.9578
15 1 -19 1.7380 5.4211
15 1 -16 0.5396 -1.2191
15 1 -13 -0.9998 -10.8665
15 1 -10 0.6694 -7.3672
15 1 -7 0.6443 0.5947
15 1 -4 -0.4254 0.9873
15 1 -1 1.3473 1.8196
15 1 2 0.5728 0.3385
15 1 5 -0.1469 -1.6614
15 1 8 2.3300 4.3517
15 1 11 0.4287 11.9056
15 1 14 1.0269 6.7724
15 1 17 0.2574 -4.8076
15 1 20 4.7894 -2.7381
15 1 23 2.1018 3.9927
15 1 26 1.1355 -0.3957
15 1 29 -1.4181 -7.6447
15 1 32 -1.2956 -9.4734
15 1 35 -1.3629 -5.0001
15 1 38 -0.4056 -1.3361
15 1 41 0.6853 4.1423
15 1 44 -0.1090 1.5468
15 2 -38 0.2532 -1.3570
15 2 -35 -2.4751 1.5976
15 2 -32 -2.1006 1.6512
15 2 -29 0.2261 4.3452
15 2 -26 2.0814 2.8615
15 2 -23 -2.6351 -3.8235
15 2 -20 3.7835 -3.2031
15 2 -17 4.2645 3.2082
15 2 -14 0.7150 -0.7821
15 2 -11 -2.4776 -4.3547
15 2 -8 -0.0343 -1.8035
15 2 -5 0.7522 0.5744
15 2 -2 1.8972 0.8308
15 2 1 1.5626 2.2756
15 2 4 0.1269 1.2425
15 2 7 -0.9122 -1.5902
15 2 10 0.8199 1.4004
15 2 13 0.7868 5.8668
15 2 16 1.7346 2.2240
15 2 19 2.2256 -2.9102
15 2 22 3.1976 -0.5127
15 2 25 0.2007 3.7916
15 2 28 0.4058 -2.0070
15 2 31 -0.2422 -5.6591
15 2 34 -0.9367 -5.2354
15 2 37 -1.8591 -2.4880
15 3 -33 -3.4927 -2.6657
15 3 -30 0.5736 -3.1682
15 3 -27 0.5537 3.4852
15 3 -24 -2.0050 0.3739
15 3 -21 0.0380 -4.2063
15 3 -18 8.1508 -0.8619
15 3 -15 4.9299 3.5537
15 3 -12 -1.2306 0.5407
15 3 -9 -3.3685 -0.3338
15 3 -6 0.9799 1.7411
15 3 -3 1.3733 1.3621
15 3 0 2.5831 0.0668
15 3 3 -0.6323 -0.4869
15 3 6 -2.1285 0.0642
15 3 9 -1.8971 -1.8153
15 3 12 1.1258 -1.1733
15 3 15 1.9611 2.9761
15 3 18 0.9597 0.8254
15 3 21 -0.4029 -0.8591
15 3 24 -0.7668 -0.3698
15 3 27 0.4556 1.8634
15 3 30 0.3460 -1.3159
15 4 -25 -0.7394 -1.9339
15 4 -22 -2.0268 -5.1492
15 4 -19 3.9942 -1.1335
15 4 -16 4.2667 3.6980
15 4 -13 -0.2477 2.0672
15 4 -10 -3.2701 -0.8151
15 4 -7 -1.9490 0.8153
15 4 -4 2.2965 3.5146
15 4 -1 2.0074 -0.3719
15 4 2 3.0300 -2.3714
15 4 5 -1.2827 0.6054
15 4 8 0.2848 2.4970
15 4 11 -0.5415 -1.3113
15 4 14 -0.7453 -3.2509
15 4 17 -2.3846 0.0130
15 4 20 -3.1158 -0.3814
15 4 23 -0.7512 1.3936
15 5 10 5.5028 3.1934
16 1 -33 -3.2626 0.6298
16 1 -30 0.3505 4.7071
16 1 -27 0.0324 6.1388
16 1 -24 -1.2384 -2.0124
16 1 -21 -0.7561 -2.7683
16 1 -18 3.2931 4.3283
16 1 -15 0.6758 1.7084
16 1 -12 -1.7520 -8.5806
16 1 -9 -0.5614 -7.2140
16 1 -6 -1.3852 1.4141
16 1 -3 -0.3325 4.8812
16 1 0 -0.5937 1.9029
16 1 3 1.5964 -0.5729
16 1 6 2.8512 -0.3162
16 1 9 1.0994 4.1390
16 1 12 2.9452 9.7716
16 1 15 1.9721 4.8505
16 1 18 4.5142 -5.2118
16 1 21 2.1394 -4.5302
16 1 24 2.3796 2.6233
16 1 27 -2.2138 0.5169
16 1 30 -1.0760 -8.4542
16 1 33 -0.5533 -7.8002
16 2 -28 2.9798 2.1239
16 2 -25 -2.5221 1.9347
16 2 -22 -2.0903 -4.8566
16 2 -19 2.2458 -2.3332
16 2 -16 5.5960 3.5873
16 2 -13 0.4814 1.3556
16 2 -10 -1.9594 -2.1849
16 2 -7 -1.3127 1.3061
16 2 -4 1.7293 5.0800
16 2 -1 1.3199 2.0293
16 2 2 1.3275 -1.6402
16 2 5 0.1825 -1.4687
16 2 8 -0.7646 0.9448
16 2 11 -1.7993 2.3897
16 2 14 2.9585 3.9343
16 2 17 4.2270 2.2980
16 2 20 4.3195 -2.7540
16 2 23 1.2816 -0.2563
16 2 26 0.8229 0.5783
16 3 -17 4.7210 -0.0039
16 3 -14 1.6155 1.4840
16 3 -11 -3.3290 0.5463
16 3 -8 -2.1309 2.7715
16 3 -5 0.6304 4.9158
16 3 -2 4.8809 3.2336
16 3 1 0.8004 -2.7567
16 3 4 0.6522 -1.7301
16 3 7 -2.2197 2.6501
16 3 10 -1.0070 2.1104
16 3 13 -0.5932 -0.8231
16 3 16 2.5036 -1.2207
16 3 19 1.2605 0.6473
17 1 -23 -2.1499 0.2476
17 1 -20 -0.6391 -2.0411
17 1 -17 1.2782 2.0333
17 1 -14 0.7271 0.9132
17 1 -11 -2.4922 -5.6336
17 1 -8 -2.3050 -2.2720
17 1 -5 0.6887 7.1326
17 1 -2 0.7428 7.6192
17 1 1 1.1877 -0.1244
17 1 4 2.6825 -3.2314
17 1 7 0.4616 -0.0702
17 1 10 -0.4706 3.2686
17 1 13 1.4677 4.1257
17 1 16 5.4168 1.2922
17 1 19 2.9305 -3.4114
17 1 22 3.3287 -2.7434
17 2 -6 -0.5905 4.5019
17 2 -3 2.4370 5.8893
17 2 0 4.0224 0.6702
17 2 3 1.4439 -3.9408
17 2 6 0.0895 0.2801
0 0 0 0.0 0.0
;
_shelx_fab_checksum              33919
_olex2_submission_special_instructions 'No special instructions were received'
_oxdiff_exptl_absorpt_empirical_details
;
Empirical correction (ABSPACK) includes:
- Absorption correction using spherical harmonics
- Frame scaling
;
_oxdiff_exptl_absorpt_empirical_full_max 1.758
_oxdiff_exptl_absorpt_empirical_full_min 0.526
loop_
_space_group_symop_operation_xyz
'x, y, z'
'-y, x-y, z'
'-x+y, -x, z'
'x+2/3, y+1/3, z+1/3'
'-y+2/3, x-y+1/3, z+1/3'
'-x+y+2/3, -x+1/3, z+1/3'
'x+1/3, y+2/3, z+2/3'
'-y+1/3, x-y+2/3, z+2/3'
'-x+y+1/3, -x+2/3, z+2/3'
'-x, -y, -z'
'y, -x+y, -z'
'x-y, x, -z'
'-x+2/3, -y+1/3, -z+1/3'
'y+2/3, -x+y+1/3, -z+1/3'
'x-y+2/3, x+1/3, -z+1/3'
'-x+1/3, -y+2/3, -z+2/3'
'y+1/3, -x+y+2/3, -z+2/3'
'x-y+1/3, x+2/3, -z+2/3'
loop_
_atom_site_label
_atom_site_type_symbol
_atom_site_fract_x
_atom_site_fract_y
_atom_site_fract_z
_atom_site_U_iso_or_equiv
_atom_site_adp_type
_atom_site_occupancy
_atom_site_site_symmetry_order
_atom_site_calc_flag
_atom_site_refinement_flags_posn
_atom_site_refinement_flags_adp
_atom_site_refinement_flags_occupancy
_atom_site_disorder_assembly
_atom_site_disorder_group
In1 In 0.53706(2) 0.31654(2) 0.56987(2) 0.02172(5) Uani 1 1 d . . . . .
In2 In 0.666667 0.333333 0.60991(2) 0.01982(7) Uani 1 3 d S T P . .
In3 In 0.64868(2) 0.55201(2) 0.59696(2) 0.02348(6) Uani 1 1 d . . . . .
Fe1 Fe 0.33973(3) 0.32559(3) 0.64400(2) 0.02895(10) Uani 1 1 d . . . . .
Fe2 Fe 0.59216(4) 0.64504(4) 0.52741(2) 0.03659(11) Uani 1 1 d . . . . .
Cl1 Cl 0.62296(9) 0.67935(8) 0.60688(2) 0.0610(3) Uani 1 1 d . . . . .
O1 O 0.42703(15) 0.29844(15) 0.59047(3) 0.0319(4) Uani 1 1 d . . . . .
O2 O 0.51479(16) 0.41059(15) 0.55097(3) 0.0336(5) Uani 1 1 d . . . . .
O3 O 0.56308(15) 0.33463(16) 0.62948(3) 0.0322(4) Uani 1 1 d . . . . .
O11 O 0.38085(16) 0.16893(16) 0.61024(3) 0.0325(4) Uani 1 1 d . . . . .
O5 O 0.72692(16) 0.63029(16) 0.56938(3) 0.0354(5) Uani 1 1 d . . . . .
O6 O 0.52264(15) 0.50259(16) 0.57721(3) 0.0337(4) Uani 1 1 d . . . . .
O7 O 0.75429(16) 0.54322(16) 0.54683(3) 0.0340(5) Uani 1 1 d . . . . .
O8 O 0.58495(17) 0.48190(16) 0.62501(3) 0.0383(5) Uani 1 1 d . . . . .
O9 O 0.65397(12) 0.42804(13) 0.58757(3) 0.0204(3) Uani 1 1 d . . . . .
O10 O 0.666667 0.333333 0.55273(5) 0.0228(6) Uani 1 3 d S T P . .
C2 C 0.666667 0.333333 0.53089(8) 0.0352(11) Uani 1 3 d S T P . .
H2A H 0.721393 0.330791 0.526020 0.053 Uiso 0.3333 1 calc R U P A -1
H2B H 0.669209 0.390602 0.526020 0.053 Uiso 0.3333 1 calc R U P A -1
H2C H 0.609398 0.278607 0.526020 0.053 Uiso 0.3333 1 calc R U P A -1
C3 C 0.3131(2) 0.2647(2) 0.61589(4) 0.0284(6) Uani 1 1 d . . . . .
C34 C 0.5106(2) 0.4804(2) 0.55874(4) 0.0279(6) Uani 1 1 d . . . . .
C5 C 0.7347(2) 0.6073(2) 0.55155(4) 0.0283(6) Uani 1 1 d . . . . .
C6 C 0.54767(19) 0.4022(2) 0.63362(4) 0.0260(5) Uani 1 1 d . . . . .
C7 C 0.4891(2) 0.5389(2) 0.54477(5) 0.0342(6) Uani 1 1 d . . . . .
C8 C 0.4805(2) 0.3862(2) 0.65020(4) 0.0278(6) Uani 1 1 d . . . . .
C9 C 0.7223(2) 0.6612(2) 0.53482(5) 0.0327(6) Uani 1 1 d . . . . .
C10 C 0.37911(19) 0.2423(2) 0.60470(4) 0.0255(5) Uani 1 1 d . . . . .
C11 C 0.3117(3) 0.3520(3) 0.61520(5) 0.0390(7) Uani 1 1 d . . . . .
H11 H 0.351195 0.405385 0.607366 0.047 Uiso 1 1 calc R U . . .
C12 C 0.2419(2) 0.2021(2) 0.63000(5) 0.0363(7) Uani 1 1 d . . . . .
H12 H 0.228361 0.140836 0.633572 0.044 Uiso 1 1 calc R U . . .
C13 C 0.4278(2) 0.3004(3) 0.66191(5) 0.0371(7) Uani 1 1 d . . . . .
H13 H 0.434454 0.246494 0.661360 0.045 Uiso 1 1 calc R U . . .
C14 C 0.4972(3) 0.6289(3) 0.54976(6) 0.0468(8) Uani 1 1 d . . . . .
H14 H 0.512505 0.658524 0.562428 0.056 Uiso 1 1 calc R U . . .
C15 C 0.1957(2) 0.2512(3) 0.63757(6) 0.0464(9) Uani 1 1 d . . . . .
H15 H 0.145418 0.226829 0.646829 0.056 Uiso 1 1 calc R U . . .
C16 C 0.4655(3) 0.5205(3) 0.52372(5) 0.0428(8) Uani 1 1 d . . . . .
H16 H 0.456685 0.467370 0.516429 0.051 Uiso 1 1 calc R U . . .
C17 C 0.4476(2) 0.4500(2) 0.65564(5) 0.0384(7) Uani 1 1 d . . . . .
H17 H 0.469211 0.510884 0.650369 0.046 Uiso 1 1 calc R U . . .
C18 C 0.2384(3) 0.3425(3) 0.62874(6) 0.0485(9) Uani 1 1 d . . . . .
H18 H 0.221823 0.389004 0.631300 0.058 Uiso 1 1 calc R U . . .
C19 C 0.7015(3) 0.6332(3) 0.51398(5) 0.0419(8) Uani 1 1 d . . . . .
H19 H 0.697688 0.579071 0.508060 0.050 Uiso 1 1 calc R U . . .
C20 C 0.3638(3) 0.3132(3) 0.67445(5) 0.0486(9) Uani 1 1 d . . . . .
H20 H 0.321011 0.268814 0.683704 0.058 Uiso 1 1 calc R U . . .
C21 C 0.7224(3) 0.7491(2) 0.53739(6) 0.0437(8) Uani 1 1 d . . . . .
H21 H 0.733638 0.783309 0.549440 0.052 Uiso 1 1 calc R U . . .
C22 C 0.6879(3) 0.7034(3) 0.50397(6) 0.0558(10) Uani 1 1 d . . . . .
H22 H 0.672185 0.702478 0.490318 0.067 Uiso 1 1 calc R U . . .
C23 C 0.3755(2) 0.4035(3) 0.67061(6) 0.0505(10) Uani 1 1 d . . . . .
H23 H 0.341557 0.429061 0.676852 0.061 Uiso 1 1 calc R U . . .
C24 C 0.4774(3) 0.6642(3) 0.53180(8) 0.0596(11) Uani 1 1 d . . . . .
H24 H 0.477292 0.721502 0.530626 0.072 Uiso 1 1 calc R U . . .
C25 C 0.4580(3) 0.5980(3) 0.51601(7) 0.0580(11) Uani 1 1 d . . . . .
H25 H 0.442627 0.604298 0.502665 0.070 Uiso 1 1 calc R U . . .
C26 C 0.7020(3) 0.7743(3) 0.51806(7) 0.0584(11) Uani 1 1 d . . . . .
H26 H 0.698565 0.828943 0.515237 0.070 Uiso 1 1 calc R U . . .
C31 C 0.1755(3) 0.2836(2) 0.57725(7) 0.104(2) Uani 1 1 d G . . . .
H31 H 0.181696 0.339744 0.582605 0.125 Uiso 1 1 calc R U . . .
C30 C 0.1034(3) 0.1955(3) 0.58420(5) 0.0848(17) Uani 1 1 d G . . . .
H30 H 0.061360 0.192717 0.594215 0.102 Uiso 1 1 calc R U . . .
C1 C 0.0941(2) 0.1116(2) 0.57619(6) 0.0724(13) Uani 1 1 d G . . . .
C28 C 0.1570(3) 0.1158(3) 0.56123(7) 0.106(2) Uani 1 1 d G . . . .
H28 H 0.150795 0.059721 0.555868 0.127 Uiso 1 1 calc R U . . .
C29 C 0.2291(3) 0.2039(4) 0.55427(7) 0.122(3) Uani 1 1 d G . . . .
H29 H 0.271131 0.206747 0.544258 0.146 Uiso 1 1 calc R U . . .
C27 C 0.2383(3) 0.2878(3) 0.56228(8) 0.108(3) Uani 1 1 d G . . . .
H27 H 0.286583 0.346759 0.557626 0.130 Uiso 1 1 calc R U . . .
P1 P 0.000000 0.000000 0.58469(4) 0.0691(5) Uiso 1 3 d S . P . .
C32 C 0.000000 0.000000 0.64552(19) 0.127(5) Uani 1 3 d S T P . .
C35 C -0.0404(5) -0.0321(10) 0.6192(2) 0.212(7) Uani 1 1 d . . . . .
loop_
_atom_site_aniso_label
_atom_site_aniso_U_11
_atom_site_aniso_U_22
_atom_site_aniso_U_33
_atom_site_aniso_U_23
_atom_site_aniso_U_13
_atom_site_aniso_U_12
In1 0.02260(9) 0.02346(9) 0.01901(9) -0.00045(6) -0.00141(6) 0.01146(7)
In2 0.02163(9) 0.02163(9) 0.01622(13) 0.000 0.000 0.01081(5)
In3 0.02780(10) 0.02422(9) 0.02039(9) -0.00180(6) -0.00146(6) 0.01449(7)
Fe1 0.02335(19) 0.0367(2) 0.0258(2) -0.00755(17) 0.00132(16) 0.01419(18)
Fe2 0.0442(3) 0.0367(2) 0.0340(2) 0.00725(19) -0.0057(2) 0.0240(2)
Cl1 0.0941(8) 0.0591(6) 0.0551(5) -0.0159(4) -0.0113(5) 0.0573(6)
O1 0.0328(11) 0.0369(11) 0.0277(10) 0.0022(8) 0.0070(8) 0.0187(9)
O2 0.0442(12) 0.0346(11) 0.0288(10) 0.0032(8) -0.0019(9) 0.0249(10)
O3 0.0303(10) 0.0390(11) 0.0307(10) -0.0010(9) 0.0063(8) 0.0199(9)
O11 0.0379(11) 0.0377(11) 0.0272(10) 0.0011(8) 0.0068(9) 0.0230(10)
O5 0.0419(12) 0.0365(11) 0.0243(10) 0.0045(8) 0.0022(9) 0.0170(10)
O6 0.0321(11) 0.0428(12) 0.0276(10) -0.0005(9) -0.0032(8) 0.0198(10)
O7 0.0422(12) 0.0346(11) 0.0293(10) 0.0050(9) -0.0026(9) 0.0223(10)
O8 0.0464(13) 0.0331(11) 0.0290(11) 0.0013(9) 0.0127(9) 0.0151(10)
O9 0.0225(8) 0.0209(8) 0.0179(8) -0.0008(7) -0.0012(7) 0.0109(7)
O10 0.0265(10) 0.0265(10) 0.0155(14) 0.000 0.000 0.0132(5)
C2 0.0422(18) 0.0422(18) 0.021(2) 0.000 0.000 0.0211(9)
C3 0.0238(13) 0.0370(15) 0.0254(13) -0.0062(11) -0.0016(11) 0.0160(12)
C34 0.0235(13) 0.0304(14) 0.0290(14) 0.0026(11) -0.0014(11) 0.0129(11)
C5 0.0260(13) 0.0283(13) 0.0291(14) 0.0057(11) -0.0016(11) 0.0123(11)
C6 0.0212(12) 0.0340(14) 0.0200(12) -0.0052(11) -0.0023(10) 0.0117(11)
C7 0.0351(15) 0.0364(16) 0.0359(16) 0.0037(13) -0.0042(13) 0.0216(13)
C8 0.0243(13) 0.0345(14) 0.0214(12) -0.0044(11) 0.0000(10) 0.0122(11)
C9 0.0365(15) 0.0331(15) 0.0286(14) 0.0066(12) -0.0013(12) 0.0176(13)
C10 0.0229(12) 0.0311(14) 0.0209(12) -0.0055(10) -0.0024(10) 0.0123(11)
C11 0.0444(18) 0.0500(19) 0.0348(16) -0.0039(14) -0.0043(14) 0.0327(16)
C12 0.0240(13) 0.0402(17) 0.0347(16) -0.0097(13) 0.0033(12) 0.0085(13)
C13 0.0331(15) 0.0491(19) 0.0251(14) 0.0040(13) -0.0002(12) 0.0175(14)
C14 0.054(2) 0.048(2) 0.053(2) 0.0020(16) 0.0011(17) 0.0353(18)
C15 0.0244(14) 0.067(2) 0.0424(18) -0.0196(17) 0.0010(13) 0.0191(16)
C16 0.0400(18) 0.0489(19) 0.0368(17) 0.0038(15) -0.0107(14) 0.0202(16)
C17 0.0307(15) 0.0398(17) 0.0423(17) -0.0161(14) -0.0022(13) 0.0160(13)
C18 0.047(2) 0.071(3) 0.047(2) -0.0185(18) -0.0081(16) 0.044(2)
C19 0.0491(19) 0.0481(19) 0.0271(15) 0.0078(14) 0.0043(14) 0.0233(16)
C20 0.0331(16) 0.070(3) 0.0246(15) -0.0025(16) 0.0047(13) 0.0124(17)
C21 0.049(2) 0.0335(16) 0.051(2) 0.0027(15) -0.0083(16) 0.0226(15)
C22 0.059(2) 0.067(3) 0.0361(19) 0.0242(18) -0.0013(17) 0.028(2)
C23 0.0336(17) 0.072(3) 0.0407(19) -0.0308(19) -0.0011(14) 0.0225(17)
C24 0.061(3) 0.059(2) 0.078(3) 0.019(2) 0.002(2) 0.044(2)
C25 0.052(2) 0.071(3) 0.056(2) 0.020(2) -0.0137(19) 0.035(2)
C26 0.059(2) 0.041(2) 0.071(3) 0.0240(19) -0.006(2) 0.0218(18)
C31 0.097(5) 0.080(4) 0.123(6) -0.020(4) -0.064(4) 0.034(4)
C30 0.090(4) 0.079(4) 0.087(4) -0.027(3) -0.033(3) 0.043(3)
C1 0.068(3) 0.071(3) 0.081(3) -0.011(3) -0.010(3) 0.037(3)
C28 0.102(5) 0.085(4) 0.153(7) 0.029(4) 0.048(5) 0.063(4)
C29 0.091(5) 0.115(6) 0.186(8) 0.060(6) 0.047(5) 0.072(5)
C27 0.062(3) 0.094(5) 0.165(7) 0.026(5) -0.026(4) 0.037(3)
C32 0.160(8) 0.160(8) 0.063(7) 0.000 0.000 0.080(4)
C35 0.062(4) 0.156(12) 0.400(17) -0.128(12) -0.004(7) 0.040(6)
loop_
_atom_type_symbol
_atom_type_description
_atom_type_scat_dispersion_real
_atom_type_scat_dispersion_imag
_atom_type_scat_source
C C 0.0147 0.0070 'International Tables Vol C Tables 4.2.6.8 and 6.1.1.4'
H H 0.0000 0.0000 'International Tables Vol C Tables 4.2.6.8 and 6.1.1.4'
Cl Cl 0.3292 0.5397 'International Tables Vol C Tables 4.2.6.8 and 6.1.1.4'
Fe Fe -0.2758 2.5767 'International Tables Vol C Tables 4.2.6.8 and 6.1.1.4'
In In 0.1337 3.9104 'International Tables Vol C Tables 4.2.6.8 and 6.1.1.4'
O O 0.0412 0.0250 'International Tables Vol C Tables 4.2.6.8 and 6.1.1.4'
P P 0.2594 0.3349 'International Tables Vol C Tables 4.2.6.8 and 6.1.1.4'
loop_
_geom_angle_atom_site_label_1
_geom_angle_atom_site_label_2
_geom_angle_atom_site_label_3
_geom_angle
_geom_angle_site_symmetry_1
_geom_angle_site_symmetry_3
_geom_angle_publ_flag
O1 In1 O7 101.87(8) . 2_655 ?
O1 In1 O9 92.72(7) . 2_655 ?
O1 In1 O9 95.32(8) . . ?
O1 In1 O10 170.25(9) . . ?
O2 In1 O1 92.36(8) . . ?
O2 In1 O7 84.56(9) . 2_655 ?
O2 In1 O9 174.73(8) . 2_655 ?
O2 In1 O9 96.16(8) . . ?
O2 In1 O10 95.76(8) . . ?
O7 In1 O9 162.75(8) 2_655 . ?
O7 In1 O10 84.31(8) 2_655 . ?
O9 In1 O7 95.76(8) 2_655 2_655 ?
O9 In1 O9 81.97(10) 2_655 . ?
O9 In1 O10 79.05(7) 2_655 . ?
O9 In1 O10 78.47(7) . . ?
O3 In2 O3 87.00(9) 2_655 . ?
O3 In2 O3 87.00(9) 3_665 . ?
O3 In2 O3 87.01(9) 2_655 3_665 ?
O3 In2 O9 99.85(8) 2_655 3_665 ?
O3 In2 O9 173.13(8) 3_665 2_655 ?
O3 In2 O9 99.85(8) 3_665 . ?
O3 In2 O9 92.82(8) 3_665 3_665 ?
O3 In2 O9 173.12(8) 2_655 . ?
O3 In2 O9 173.13(8) . 3_665 ?
O3 In2 O9 92.82(7) . . ?
O3 In2 O9 92.81(8) 2_655 2_655 ?
O3 In2 O9 99.85(8) . 2_655 ?
O9 In2 O9 80.44(7) 3_665 . ?
O9 In2 O9 80.44(7) 2_655 . ?
O9 In2 O9 80.44(7) 3_665 2_655 ?
O11 In3 Cl1 92.54(7) 3_665 . ?
O11 In3 O5 83.59(8) 3_665 . ?
O11 In3 O6 166.93(8) 3_665 . ?
O11 In3 O8 91.32(9) 3_665 . ?
O11 In3 O9 93.88(8) 3_665 . ?
O5 In3 Cl1 91.55(7) . . ?
O6 In3 Cl1 86.88(6) . . ?
O6 In3 O5 83.38(8) . . ?
O8 In3 Cl1 88.61(7) . . ?
O8 In3 O5 174.91(9) . . ?
O8 In3 O6 101.71(9) . . ?
O9 In3 Cl1 173.27(6) . . ?
O9 In3 O5 91.17(8) . . ?
O9 In3 O6 87.32(8) . . ?
O9 In3 O8 89.23(8) . . ?
C3 Fe1 C11 40.86(13) . . ?
C3 Fe1 C12 41.05(12) . . ?
C3 Fe1 C13 115.31(13) . . ?
C3 Fe1 C15 68.15(12) . . ?
C3 Fe1 C17 133.36(13) . . ?
C3 Fe1 C18 68.34(13) . . ?
C3 Fe1 C23 172.78(17) . . ?
C8 Fe1 C3 109.40(11) . . ?
C8 Fe1 C11 113.57(13) . . ?
C8 Fe1 C12 134.34(13) . . ?
C8 Fe1 C13 41.43(13) . . ?
C8 Fe1 C15 174.47(15) . . ?
C8 Fe1 C17 41.03(12) . . ?
C8 Fe1 C18 144.57(16) . . ?
C8 Fe1 C23 68.19(12) . . ?
C11 Fe1 C12 69.05(15) . . ?
C11 Fe1 C15 68.11(16) . . ?
C11 Fe1 C18 40.81(14) . . ?
C11 Fe1 C23 133.05(17) . . ?
C12 Fe1 C15 40.63(14) . . ?
C12 Fe1 C18 68.35(16) . . ?
C12 Fe1 C23 145.34(15) . . ?
C13 Fe1 C11 145.84(13) . . ?
C13 Fe1 C12 109.96(15) . . ?
C13 Fe1 C15 134.45(16) . . ?
C13 Fe1 C17 69.06(15) . . ?
C13 Fe1 C18 172.86(15) . . ?
C13 Fe1 C23 67.78(16) . . ?
C15 Fe1 C23 114.87(14) . . ?
C17 Fe1 C11 108.13(16) . . ?
C17 Fe1 C12 173.84(13) . . ?
C17 Fe1 C15 144.21(14) . . ?
C17 Fe1 C18 113.40(16) . . ?
C17 Fe1 C23 40.47(14) . . ?
C18 Fe1 C15 39.93(17) . . ?
C18 Fe1 C23 109.38(15) . . ?
C7 Fe2 C9 109.23(12) . . ?
C7 Fe2 C14 41.03(14) . . ?
C7 Fe2 C16 40.88(13) . . ?
C7 Fe2 C19 122.48(14) . . ?
C7 Fe2 C22 156.76(17) . . ?
C7 Fe2 C24 68.16(15) . . ?
C7 Fe2 C25 67.96(15) . . ?
C7 Fe2 C26 162.48(17) . . ?
C9 Fe2 C19 40.67(13) . . ?
C9 Fe2 C22 68.20(14) . . ?
C9 Fe2 C24 153.99(17) . . ?
C9 Fe2 C25 164.90(17) . . ?
C9 Fe2 C26 68.23(14) . . ?
C14 Fe2 C9 120.25(14) . . ?
C14 Fe2 C16 68.96(16) . . ?
C14 Fe2 C19 156.40(14) . . ?
C14 Fe2 C22 160.88(17) . . ?
C14 Fe2 C24 40.47(16) . . ?
C14 Fe2 C25 68.13(18) . . ?
C14 Fe2 C26 124.00(18) . . ?
C16 Fe2 C9 127.89(14) . . ?
C16 Fe2 C19 109.87(16) . . ?
C16 Fe2 C22 121.20(17) . . ?
C16 Fe2 C24 68.19(18) . . ?
C16 Fe2 C25 40.33(15) . . ?
C16 Fe2 C26 154.16(16) . . ?
C21 Fe2 C7 125.89(14) . . ?
C21 Fe2 C9 40.99(13) . . ?
C21 Fe2 C14 105.91(17) . . ?
C21 Fe2 C16 164.50(14) . . ?
C21 Fe2 C19 68.63(15) . . ?
C21 Fe2 C22 68.37(17) . . ?
C21 Fe2 C24 118.04(18) . . ?
C21 Fe2 C25 152.85(16) . . ?
C21 Fe2 C26 40.80(15) . . ?
C22 Fe2 C19 40.38(15) . . ?
C24 Fe2 C19 162.67(16) . . ?
C24 Fe2 C22 124.67(17) . . ?
C24 Fe2 C25 40.2(2) . . ?
C25 Fe2 C19 127.21(17) . . ?
C25 Fe2 C22 108.14(17) . . ?
C26 Fe2 C19 67.72(17) . . ?
C26 Fe2 C22 39.99(19) . . ?
C26 Fe2 C24 106.09(18) . . ?
C26 Fe2 C25 119.09(16) . . ?
C10 O1 In1 137.52(19) . . ?
C34 O2 In1 120.19(18) . . ?
C6 O3 In2 129.52(19) . . ?
C10 O11 In3 130.93(18) . 2_655 ?
C5 O5 In3 135.2(2) . . ?
C34 O6 In3 131.19(19) . . ?
C5 O7 In1 121.31(19) . 3_665 ?
C6 O8 In3 142.32(19) . . ?
In1 O9 In1 103.94(7) 3_665 . ?
In1 O9 In2 98.01(7) 3_665 . ?
In1 O9 In2 97.16(7) . . ?
In3 O9 In1 120.23(8) . . ?
In3 O9 In1 112.58(8) . 3_665 ?
In3 O9 In2 121.32(8) . . ?
In1 O10 In1 97.54(9) 2_655 3_665 ?
In1 O10 In1 97.54(9) 2_655 . ?
In1 O10 In1 97.54(9) 3_665 . ?
C2 O10 In1 119.73(7) . . ?
C2 O10 In1 119.73(7) . 2_655 ?
C2 O10 In1 119.73(7) . 3_665 ?
O10 C2 H2A 109.5 . . ?
O10 C2 H2B 109.5 . . ?
O10 C2 H2C 109.5 . . ?
H2A C2 H2B 109.5 . . ?
H2A C2 H2C 109.5 . . ?
H2B C2 H2C 109.5 . . ?
C10 C3 Fe1 124.41(19) . . ?
C11 C3 Fe1 69.78(17) . . ?
C11 C3 C10 126.7(3) . . ?
C11 C3 C12 108.4(3) . . ?
C12 C3 Fe1 69.76(17) . . ?
C12 C3 C10 124.9(3) . . ?
O2 C34 C7 116.9(3) . . ?
O6 C34 O2 125.0(3) . . ?
O6 C34 C7 118.1(3) . . ?
O5 C5 O7 125.1(3) . . ?
O5 C5 C9 117.2(3) . . ?
O7 C5 C9 117.6(3) . . ?
O3 C6 C8 117.1(3) . . ?
O8 C6 O3 126.1(3) . . ?
O8 C6 C8 116.8(3) . . ?
C34 C7 Fe2 122.1(2) . . ?
C14 C7 Fe2 69.7(2) . . ?
C14 C7 C34 125.2(3) . . ?
C16 C7 Fe2 69.7(2) . . ?
C16 C7 C34 126.4(3) . . ?
C16 C7 C14 108.2(3) . . ?
C6 C8 Fe1 119.38(19) . . ?
C13 C8 Fe1 70.03(17) . . ?
C13 C8 C6 126.7(3) . . ?
C17 C8 Fe1 70.29(17) . . ?
C17 C8 C6 124.9(3) . . ?
C17 C8 C13 108.0(3) . . ?
C5 C9 Fe2 122.4(2) . . ?
C19 C9 Fe2 70.6(2) . . ?
C19 C9 C5 127.3(3) . . ?
C21 C9 Fe2 69.20(19) . . ?
C21 C9 C5 124.4(3) . . ?
C21 C9 C19 108.1(3) . . ?
O1 C10 C3 116.7(3) . . ?
O11 C10 O1 126.8(3) . . ?
O11 C10 C3 116.5(3) . . ?
Fe1 C11 H11 125.9 . . ?
C3 C11 Fe1 69.36(18) . . ?
C3 C11 H11 126.3 . . ?
C3 C11 C18 107.3(3) . . ?
C18 C11 Fe1 70.0(2) . . ?
C18 C11 H11 126.3 . . ?
Fe1 C12 H12 125.6 . . ?
C3 C12 Fe1 69.19(17) . . ?
C3 C12 H12 126.5 . . ?
C15 C12 Fe1 70.33(19) . . ?
C15 C12 C3 107.0(3) . . ?
C15 C12 H12 126.5 . . ?
Fe1 C13 H13 125.7 . . ?
C8 C13 Fe1 68.54(17) . . ?
C8 C13 H13 126.4 . . ?
C20 C13 Fe1 70.9(2) . . ?
C20 C13 C8 107.2(3) . . ?
C20 C13 H13 126.4 . . ?
Fe2 C14 H14 126.0 . . ?
C7 C14 Fe2 69.3(2) . . ?
C7 C14 H14 126.4 . . ?
C24 C14 Fe2 69.9(2) . . ?
C24 C14 C7 107.1(4) . . ?
C24 C14 H14 126.4 . . ?
Fe1 C15 H15 127.3 . . ?
C12 C15 Fe1 69.04(18) . . ?
C12 C15 H15 125.6 . . ?
C18 C15 Fe1 69.7(2) . . ?
C18 C15 C12 108.8(3) . . ?
C18 C15 H15 125.6 . . ?
Fe2 C16 H16 125.8 . . ?
C7 C16 Fe2 69.4(2) . . ?
C7 C16 H16 126.4 . . ?
C25 C16 Fe2 70.0(2) . . ?
C25 C16 C7 107.3(4) . . ?
C25 C16 H16 126.4 . . ?
Fe1 C17 H17 125.9 . . ?
C8 C17 Fe1 68.68(17) . . ?
C8 C17 H17 126.4 . . ?
C23 C17 Fe1 70.59(19) . . ?
C23 C17 C8 107.2(3) . . ?
C23 C17 H17 126.4 . . ?
Fe1 C18 H18 126.2 . . ?
C11 C18 Fe1 69.20(19) . . ?
C11 C18 H18 125.8 . . ?
C15 C18 Fe1 70.4(2) . . ?
C15 C18 C11 108.4(3) . . ?
C15 C18 H18 125.8 . . ?
Fe2 C19 H19 127.3 . . ?
C9 C19 Fe2 68.76(19) . . ?
C9 C19 H19 126.4 . . ?
C22 C19 Fe2 69.1(2) . . ?
C22 C19 C9 107.2(3) . . ?
C22 C19 H19 126.4 . . ?
C13 C20 H20 125.7 . . ?
C23 C20 C13 108.6(3) . . ?
C23 C20 H20 125.7 . . ?
Fe2 C21 H21 125.4 . . ?
C9 C21 Fe2 69.81(19) . . ?
C9 C21 H21 126.4 . . ?
C26 C21 Fe2 69.9(2) . . ?
C26 C21 C9 107.1(3) . . ?
C26 C21 H21 126.4 . . ?
Fe2 C22 H22 125.5 . . ?
C19 C22 Fe2 70.6(2) . . ?
C19 C22 H22 125.7 . . ?
C26 C22 Fe2 69.9(2) . . ?
C26 C22 C19 108.7(3) . . ?
C26 C22 H22 125.7 . . ?
Fe1 C23 H23 126.7 . . ?
C17 C23 Fe1 68.94(18) . . ?
C17 C23 H23 125.5 . . ?
C20 C23 Fe1 70.4(2) . . ?
C20 C23 C17 109.0(3) . . ?
C20 C23 H23 125.5 . . ?
Fe2 C24 H24 126.3 . . ?
C14 C24 Fe2 69.7(2) . . ?
C14 C24 H24 125.7 . . ?
C25 C24 Fe2 69.9(2) . . ?
C25 C24 C14 108.5(3) . . ?
C25 C24 H24 125.7 . . ?
Fe2 C25 H25 126.5 . . ?
C16 C25 Fe2 69.7(2) . . ?
C16 C25 H25 125.6 . . ?
C24 C25 Fe2 69.8(2) . . ?
C24 C25 C16 108.9(3) . . ?
C24 C25 H25 125.6 . . ?
Fe2 C26 H26 126.6 . . ?
C21 C26 Fe2 69.3(2) . . ?
C21 C26 H26 125.6 . . ?
C22 C26 Fe2 70.1(2) . . ?
C22 C26 C21 108.8(3) . . ?
C22 C26 H26 125.6 . . ?
C30 C31 H31 120.0 . . ?
C30 C31 C27 120.0 . . ?
C27 C31 H31 120.0 . . ?
C31 C30 H30 120.0 . . ?
C1 C30 C31 120.0 . . ?
C1 C30 H30 120.0 . . ?
C30 C1 P1 119.5(2) . . ?
C28 C1 C30 120.0 . . ?
C28 C1 P1 120.5(2) . . ?
C1 C28 H28 120.0 . . ?
C29 C28 C1 120.0 . . ?
C29 C28 H28 120.0 . . ?
C28 C29 H29 120.0 . . ?
C27 C29 C28 120.0 . . ?
C27 C29 H29 120.0 . . ?
C31 C27 H27 120.0 . . ?
C29 C27 C31 120.0 . . ?
C29 C27 H27 120.0 . . ?
C1 P1 C1 110.5(3) 2 3 ?
C1 P1 C1 110.5(3) 2 . ?
C1 P1 C1 110.5(3) 3 . ?
C1 P1 C35 105.1(4) . 2 ?
C1 P1 C35 122.2(4) 2 2 ?
C1 P1 C35 105.1(5) 3 . ?
C1 P1 C35 122.2(3) . . ?
C1 P1 C35 97.0(4) 2 . ?
C1 P1 C35 105.1(5) 2 3 ?
C1 P1 C35 97.0(4) 3 2 ?
C1 P1 C35 97.0(3) . 3 ?
C1 P1 C35 122.2(4) 3 3 ?
C35 P1 C35 25.5(3) 3 . ?
C35 P1 C35 25.5(3) 3 2 ?
C35 P1 C35 25.5(3) 2 . ?
C35 C32 C35 32.8(6) . 3 ?
C35 C32 C35 32.8(6) . 2 ?
C35 C32 C35 32.8(6) 2 3 ?
C32 C35 P1 146.2(5) . . ?
C35 C35 P1 77.26(17) 2 . ?
C35 C35 P1 77.26(17) 3 . ?
C35 C35 C32 73.6(3) 3 . ?
C35 C35 C32 73.6(3) 2 . ?
C35 C35 C35 60.000(11) 3 2 ?
loop_
_geom_bond_atom_site_label_1
_geom_bond_atom_site_label_2
_geom_bond_distance
_geom_bond_site_symmetry_2
_geom_bond_publ_flag
In1 O1 2.134(2) . ?
In1 O2 2.127(2) . ?
In1 O7 2.159(2) 2_655 ?
In1 O9 2.1819(18) . ?
In1 O9 2.1532(18) 2_655 ?
In1 O10 2.2704(15) . ?
In2 O3 2.118(2) 3_665 ?
In2 O3 2.118(2) . ?
In2 O3 2.118(2) 2_655 ?
In2 O9 2.2018(18) 3_665 ?
In2 O9 2.2018(18) . ?
In2 O9 2.2018(18) 2_655 ?
In3 Cl1 2.3837(9) . ?
In3 O11 2.136(2) 3_665 ?
In3 O5 2.209(2) . ?
In3 O6 2.200(2) . ?
In3 O8 2.138(2) . ?
In3 O9 2.1370(18) . ?
Fe1 C3 2.034(3) . ?
Fe1 C8 2.017(3) . ?
Fe1 C11 2.039(3) . ?
Fe1 C12 2.042(3) . ?
Fe1 C13 2.037(3) . ?
Fe1 C15 2.059(3) . ?
Fe1 C17 2.039(3) . ?
Fe1 C18 2.050(4) . ?
Fe1 C23 2.060(3) . ?
Fe2 C7 2.038(3) . ?
Fe2 C9 2.043(3) . ?
Fe2 C14 2.043(4) . ?
Fe2 C16 2.043(4) . ?
Fe2 C19 2.067(4) . ?
Fe2 C21 2.035(4) . ?
Fe2 C22 2.048(4) . ?
Fe2 C24 2.046(4) . ?
Fe2 C25 2.047(4) . ?
Fe2 C26 2.044(4) . ?
O1 C10 1.262(4) . ?
O2 C34 1.270(4) . ?
O3 C6 1.264(4) . ?
O11 C10 1.254(4) . ?
O5 C5 1.254(4) . ?
O6 C34 1.252(4) . ?
O7 C5 1.263(4) . ?
O8 C6 1.251(4) . ?
O10 C2 1.434(6) . ?
C2 H2A 0.9600 . ?
C2 H2B 0.9600 . ?
C2 H2C 0.9600 . ?
C3 C10 1.481(4) . ?
C3 C11 1.422(4) . ?
C3 C12 1.429(4) . ?
C34 C7 1.477(4) . ?
C5 C9 1.476(4) . ?
C6 C8 1.466(4) . ?
C7 C14 1.431(5) . ?
C7 C16 1.425(5) . ?
C8 C13 1.434(4) . ?
C8 C17 1.422(4) . ?
C9 C19 1.429(4) . ?
C9 C21 1.428(5) . ?
C11 H11 0.9300 . ?
C11 C18 1.426(5) . ?
C12 H12 0.9300 . ?
C12 C15 1.424(5) . ?
C13 H13 0.9300 . ?
C13 C20 1.416(5) . ?
C14 H14 0.9300 . ?
C14 C24 1.414(6) . ?
C15 H15 0.9300 . ?
C15 C18 1.403(6) . ?
C16 H16 0.9300 . ?
C16 C25 1.410(5) . ?
C17 H17 0.9300 . ?
C17 C23 1.418(5) . ?
C18 H18 0.9300 . ?
C19 H19 0.9300 . ?
C19 C22 1.420(5) . ?
C20 H20 0.9300 . ?
C20 C23 1.397(6) . ?
C21 H21 0.9300 . ?
C21 C26 1.422(5) . ?
C22 H22 0.9300 . ?
C22 C26 1.399(7) . ?
C23 H23 0.9300 . ?
C24 H24 0.9300 . ?
C24 C25 1.408(7) . ?
C25 H25 0.9300 . ?
C26 H26 0.9300 . ?
C31 H31 0.9300 . ?
C31 C30 1.3900 . ?
C31 C27 1.3900 . ?
C30 H30 0.9300 . ?
C30 C1 1.3900 . ?
C1 C28 1.3900 . ?
C1 P1 1.770(3) . ?
C28 H28 0.9300 . ?
C28 C29 1.3900 . ?
C29 H29 0.9300 . ?
C29 C27 1.3900 . ?
C27 H27 0.9300 . ?
P1 C35 2.344(16) . ?
P1 C35 2.344(16) 2 ?
P1 C35 2.344(16) 3 ?
C32 C35 1.829(17) . ?
C32 C35 1.829(17) 2 ?
C32 C35 1.829(17) 3 ?
C35 C35 1.034(14) 3 ?
C35 C35 1.034(14) 2 ?
loop_
_geom_torsion_atom_site_label_1
_geom_torsion_atom_site_label_2
_geom_torsion_atom_site_label_3
_geom_torsion_atom_site_label_4
_geom_torsion
_geom_torsion_site_symmetry_1
_geom_torsion_site_symmetry_2
_geom_torsion_site_symmetry_3
_geom_torsion_site_symmetry_4
_geom_torsion_publ_flag
In1 O1 C10 O11 -5.4(5) . . . . ?
In1 O1 C10 C3 175.3(2) . . . . ?
In1 O2 C34 O6 3.2(4) . . . . ?
In1 O2 C34 C7 -176.4(2) . . . . ?
In1 O7 C5 O5 -0.7(4) 3_665 . . . ?
In1 O7 C5 C9 177.6(2) 3_665 . . . ?
In2 O3 C6 O8 8.7(4) . . . . ?
In2 O3 C6 C8 -170.69(18) . . . . ?
In3 O11 C10 O1 -8.2(4) 2_655 . . . ?
In3 O11 C10 C3 171.06(19) 2_655 . . . ?
In3 O5 C5 O7 -50.1(4) . . . . ?
In3 O5 C5 C9 131.6(3) . . . . ?
In3 O6 C34 O2 64.1(4) . . . . ?
In3 O6 C34 C7 -116.3(3) . . . . ?
In3 O8 C6 O3 25.5(5) . . . . ?
In3 O8 C6 C8 -155.1(3) . . . . ?
Fe1 C3 C10 O1 -103.0(3) . . . . ?
Fe1 C3 C10 O11 77.6(3) . . . . ?
Fe1 C3 C11 C18 -60.0(2) . . . . ?
Fe1 C3 C12 C15 60.5(2) . . . . ?
Fe1 C8 C13 C20 -60.7(2) . . . . ?
Fe1 C8 C17 C23 60.4(2) . . . . ?
Fe1 C11 C18 C15 -59.6(3) . . . . ?
Fe1 C12 C15 C18 58.5(3) . . . . ?
Fe1 C13 C20 C23 -58.7(3) . . . . ?
Fe1 C15 C18 C11 58.9(2) . . . . ?
Fe1 C17 C23 C20 59.2(3) . . . . ?
Fe2 C7 C14 C24 59.9(3) . . . . ?
Fe2 C7 C16 C25 -60.0(3) . . . . ?
Fe2 C9 C19 C22 58.5(3) . . . . ?
Fe2 C9 C21 C26 -60.3(3) . . . . ?
Fe2 C14 C24 C25 59.3(3) . . . . ?
Fe2 C16 C25 C24 -59.0(3) . . . . ?
Fe2 C19 C22 C26 59.7(3) . . . . ?
Fe2 C21 C26 C22 -59.1(3) . . . . ?
Fe2 C22 C26 C21 58.6(3) . . . . ?
Fe2 C24 C25 C16 58.9(3) . . . . ?
O2 C34 C7 Fe2 -82.3(3) . . . . ?
O2 C34 C7 C14 -168.8(3) . . . . ?
O2 C34 C7 C16 5.1(5) . . . . ?
O3 C6 C8 Fe1 -88.1(3) . . . . ?
O3 C6 C8 C13 -2.1(4) . . . . ?
O3 C6 C8 C17 -173.6(3) . . . . ?
O5 C5 C9 Fe2 -71.9(3) . . . . ?
O5 C5 C9 C19 -161.2(3) . . . . ?
O5 C5 C9 C21 13.8(5) . . . . ?
O6 C34 C7 Fe2 98.1(3) . . . . ?
O6 C34 C7 C14 11.6(5) . . . . ?
O6 C34 C7 C16 -174.5(3) . . . . ?
O7 C5 C9 Fe2 109.7(3) . . . . ?
O7 C5 C9 C19 20.3(5) . . . . ?
O7 C5 C9 C21 -164.7(3) . . . . ?
O8 C6 C8 Fe1 92.5(3) . . . . ?
O8 C6 C8 C13 178.5(3) . . . . ?
O8 C6 C8 C17 7.0(4) . . . . ?
C3 C11 C18 Fe1 59.6(2) . . . . ?
C3 C11 C18 C15 -0.1(4) . . . . ?
C3 C12 C15 Fe1 -59.8(2) . . . . ?
C3 C12 C15 C18 -1.3(4) . . . . ?
C34 C7 C14 Fe2 115.6(3) . . . . ?
C34 C7 C14 C24 175.5(3) . . . . ?
C34 C7 C16 Fe2 -115.6(3) . . . . ?
C34 C7 C16 C25 -175.6(3) . . . . ?
C5 C9 C19 Fe2 116.4(3) . . . . ?
C5 C9 C19 C22 175.0(3) . . . . ?
C5 C9 C21 Fe2 -115.7(3) . . . . ?
C5 C9 C21 C26 -176.0(3) . . . . ?
C6 C8 C13 Fe1 -112.3(3) . . . . ?
C6 C8 C13 C20 -173.0(3) . . . . ?
C6 C8 C17 Fe1 112.7(3) . . . . ?
C6 C8 C17 C23 173.0(3) . . . . ?
C7 C14 C24 Fe2 -59.5(3) . . . . ?
C7 C14 C24 C25 -0.2(5) . . . . ?
C7 C16 C25 Fe2 59.6(3) . . . . ?
C7 C16 C25 C24 0.6(5) . . . . ?
C8 C13 C20 C23 0.4(4) . . . . ?
C8 C17 C23 Fe1 -59.1(2) . . . . ?
C8 C17 C23 C20 0.1(4) . . . . ?
C9 C19 C22 Fe2 -58.3(2) . . . . ?
C9 C19 C22 C26 1.4(5) . . . . ?
C9 C21 C26 Fe2 60.2(3) . . . . ?
C9 C21 C26 C22 1.1(5) . . . . ?
C10 C3 C11 Fe1 -118.5(3) . . . . ?
C10 C3 C11 C18 -178.4(3) . . . . ?
C10 C3 C12 Fe1 118.5(3) . . . . ?
C10 C3 C12 C15 179.0(3) . . . . ?
C11 C3 C10 O1 -13.7(4) . . . . ?
C11 C3 C10 O11 166.9(3) . . . . ?
C11 C3 C12 Fe1 -59.2(2) . . . . ?
C11 C3 C12 C15 1.2(3) . . . . ?
C12 C3 C10 O1 169.0(3) . . . . ?
C12 C3 C10 O11 -10.4(4) . . . . ?
C12 C3 C11 Fe1 59.2(2) . . . . ?
C12 C3 C11 C18 -0.7(4) . . . . ?
C12 C15 C18 Fe1 -58.1(2) . . . . ?
C12 C15 C18 C11 0.8(4) . . . . ?
C13 C8 C17 Fe1 -60.2(2) . . . . ?
C13 C8 C17 C23 0.2(3) . . . . ?
C13 C20 C23 Fe1 58.0(2) . . . . ?
C13 C20 C23 C17 -0.3(4) . . . . ?
C14 C7 C16 Fe2 59.3(3) . . . . ?
C14 C7 C16 C25 -0.7(4) . . . . ?
C14 C24 C25 Fe2 -59.1(3) . . . . ?
C14 C24 C25 C16 -0.2(5) . . . . ?
C16 C7 C14 Fe2 -59.3(2) . . . . ?
C16 C7 C14 C24 0.6(4) . . . . ?
C17 C8 C13 Fe1 60.3(2) . . . . ?
C17 C8 C13 C20 -0.4(3) . . . . ?
C19 C9 C21 Fe2 60.1(2) . . . . ?
C19 C9 C21 C26 -0.2(4) . . . . ?
C19 C22 C26 Fe2 -60.1(3) . . . . ?
C19 C22 C26 C21 -1.5(5) . . . . ?
C21 C9 C19 Fe2 -59.2(2) . . . . ?
C21 C9 C19 C22 -0.7(4) . . . . ?
C31 C30 C1 C28 0.0 . . . . ?
C31 C30 C1 P1 -178.3(3) . . . . ?
C30 C31 C27 C29 0.0 . . . . ?
C30 C1 C28 C29 0.0 . . . . ?
C30 C1 P1 C1 -168.4(3) . . . 3 ?
C30 C1 P1 C1 68.9(5) . . . 2 ?
C30 C1 P1 C35 -64.8(3) . . . 2 ?
C30 C1 P1 C35 -44.0(5) . . . . ?
C30 C1 P1 C35 -40.2(4) . . . 3 ?
C1 C28 C29 C27 0.0 . . . . ?
C28 C1 P1 C1 13.4(5) . . . 3 ?
C28 C1 P1 C1 -109.4(2) . . . 2 ?
C28 C1 P1 C35 141.6(4) . . . 3 ?
C28 C1 P1 C35 117.0(3) . . . 2 ?
C28 C1 P1 C35 137.8(4) . . . . ?
C28 C29 C27 C31 0.0 . . . . ?
C27 C31 C30 C1 0.0 . . . . ?
P1 C1 C28 C29 178.3(3) . . . . ?
C35 C32 C35 P1 -31.41(5) 2 . . . ?
C35 C32 C35 P1 31.42(5) 3 . . . ?
C35 C32 C35 C35 62.83(11) 3 . . 2 ?
C35 C32 C35 C35 -62.83(10) 2 . . 3 ?
loop_
_smtbx_masks_void_nr
_smtbx_masks_void_average_x
_smtbx_masks_void_average_y
_smtbx_masks_void_average_z
_smtbx_masks_void_volume
_smtbx_masks_void_count_electrons
_smtbx_masks_void_content
1 0.000 0.000 0.000 515.8 62.7 ?
2 0.089 0.185 0.484 9.2 0.1 ?
3 0.000 0.178 0.622 7.3 -0.0 ?
4 0.000 0.822 0.378 7.3 0.0 ?
5 -0.089 0.815 0.516 9.2 0.1 ?
6 0.095 0.911 0.484 9.2 0.1 ?
7 0.333 0.667 0.667 515.8 62.7 ?
8 0.149 0.571 0.151 9.2 0.1 ?
9 0.156 0.489 0.289 7.3 -0.0 ?
10 0.156 0.667 0.044 7.3 0.0 ?
11 0.185 0.095 0.516 9.2 0.1 ?
12 0.178 0.178 0.378 7.3 0.0 ?
13 0.178 0.000 0.622 7.3 -0.0 ?
14 0.244 0.482 0.182 9.2 0.1 ?
15 0.238 0.756 0.182 9.2 0.1 ?
16 0.333 0.489 0.044 7.3 0.0 ?
17 0.333 0.844 0.289 7.3 -0.0 ?
18 0.423 0.851 0.151 9.2 0.1 ?
19 0.429 0.577 0.151 9.2 0.1 ?
20 0.667 0.333 0.333 515.8 62.7 ?
21 0.482 0.238 0.818 9.2 0.1 ?
22 0.489 0.156 0.956 7.3 -0.0 ?
23 0.489 0.333 0.711 7.3 0.0 ?
24 0.511 0.667 0.289 7.3 -0.0 ?
25 0.518 0.762 0.182 9.2 0.1 ?
26 0.511 0.844 0.044 7.3 0.0 ?
27 0.577 0.149 0.849 9.2 0.1 ?
28 0.571 0.423 0.849 9.2 0.1 ?
29 0.667 0.156 0.711 7.3 0.0 ?
30 0.667 0.511 0.956 7.3 -0.0 ?
31 0.756 0.518 0.818 9.2 0.1 ?
32 0.762 0.244 0.818 9.2 0.1 ?
33 0.815 0.905 0.484 9.2 0.1 ?
34 0.822 0.822 0.622 7.3 -0.0 ?
35 0.822 0.000 0.378 7.3 0.0 ?
36 0.844 0.333 0.956 7.3 -0.0 ?
37 0.851 0.429 0.849 9.2 0.1 ?
38 0.844 0.511 0.711 7.3 0.0 ?
39 0.905 0.089 0.516 9.2 0.1 ?
