#------------------------------------------------------------------------------
#$Date: 2024-02-05 14:09:55 +0200 (Mon, 05 Feb 2024) $
#$Revision: 289697 $
#$URL: file:///home/coder/svn-repositories/cod/cif/1/57/04/1570450.cif $
#------------------------------------------------------------------------------
#
# This file is available in the Crystallography Open Database (COD),
# http://www.crystallography.net/
#
# All data on this site have been placed in the public domain by the
# contributors.
#
data_1570450
loop_
_publ_author_name
'Sacharczuk, Natalia'
'Olejniczak, Anna'
'Bujak, Maciej'
'Dziubek, Kamil Filip'
'Katrusiak, Andrzej'
'Podsiad&#x142;o, Marcin'
_publ_section_title
;
 Conformation-aggregation interplay in the simplest aliphatic ethers
 probed under high pressure.
;
_journal_issue                   'Pt 1'
_journal_name_full               IUCrJ
_journal_page_first              57
_journal_page_last               61
_journal_paper_doi               10.1107/S2052252523009995
_journal_volume                  11
_journal_year                    2024
_chemical_formula_moiety         'C6 H14 O'
_chemical_formula_sum            'C6 H14 O'
_chemical_formula_weight         102.17
_chemical_name_systematic        'dipropyl ether'
_space_group_crystal_system      monoclinic
_space_group_IT_number           14
_space_group_name_Hall           '-P 2ybc'
_space_group_name_H-M_alt        'P 1 21/c 1'
_atom_sites_solution_hydrogens   geom
_atom_sites_solution_primary     dual
_audit_creation_method
;
Olex2 1.5
(compiled 2022.04.07 svn.rca3783a0 for OlexSys, GUI svn.r6498)
;
_cell_angle_alpha                90
_cell_angle_beta                 100.35(3)
_cell_angle_gamma                90
_cell_formula_units_Z            4
_cell_length_a                   9.293(7)
_cell_length_b                   4.0686(2)
_cell_length_c                   15.1855(10)
_cell_measurement_reflns_used    1241
_cell_measurement_temperature    295(2)
_cell_measurement_theta_max      25.5140
_cell_measurement_theta_min      5.1590
_cell_volume                     564.8(4)
_computing_cell_refinement       'CrysAlisPro 1.171.42.49 (Rigaku OD, 2022)'
_computing_data_collection       'CrysAlisPro 1.171.42.49 (Rigaku OD, 2022)'
_computing_data_reduction        'CrysAlisPro 1.171.42.49 (Rigaku OD, 2022)'
_computing_molecular_graphics    'Olex2 1.5 (Dolomanov et al., 2009)'
_computing_publication_material  'Olex2 1.5 (Dolomanov et al., 2009)'
_computing_structure_refinement  'SHELXL 2018/3 (Sheldrick, 2015)'
_computing_structure_solution    'SHELXT 2018/2 (Sheldrick, 2018)'
_diffrn_ambient_environment      'diamond-anvil cell'
_diffrn_ambient_pressure         2800000
_diffrn_ambient_temperature      295(2)
_diffrn_measured_fraction_theta_full 0.328
_diffrn_measured_fraction_theta_max 0.303
_diffrn_measurement_device_type  'KUMA KM4-CCD, Eos'
_diffrn_measurement_method       '\f- and \w-scans'
_diffrn_radiation_type           MoK\a
_diffrn_radiation_wavelength     0.71073
_diffrn_reflns_av_R_equivalents  0.0270
_diffrn_reflns_av_unetI/netI     0.0159
_diffrn_reflns_Laue_measured_fraction_full 0.328
_diffrn_reflns_Laue_measured_fraction_max 0.303
_diffrn_reflns_limit_h_max       4
_diffrn_reflns_limit_h_min       -4
_diffrn_reflns_limit_k_max       5
_diffrn_reflns_limit_k_min       -5
_diffrn_reflns_limit_l_max       19
_diffrn_reflns_limit_l_min       -19
_diffrn_reflns_number            2881
_diffrn_reflns_point_group_measured_fraction_full 0.328
_diffrn_reflns_point_group_measured_fraction_max 0.303
_diffrn_reflns_theta_full        25.242
_diffrn_reflns_theta_max         26.549
_diffrn_reflns_theta_min         5.194
_exptl_absorpt_coefficient_mu    0.078
_exptl_absorpt_correction_T_max  1.00000
_exptl_absorpt_correction_T_min  0.71539
_exptl_absorpt_correction_type   multi-scan
_exptl_absorpt_process_details
;
CrysAlisPro 1.171.42.49 (Rigaku Oxford Diffraction, 2022)
Empirical absorption correction using spherical harmonics,
implemented in SCALE3 ABSPACK scaling algorithm.
;
_exptl_crystal_colour            colourless
_exptl_crystal_density_diffrn    1.202
_exptl_crystal_description       disc
_exptl_crystal_F_000             232
_exptl_crystal_size_max          0.46
_exptl_crystal_size_mid          0.43
_exptl_crystal_size_min          0.23
_refine_diff_density_max         0.093
_refine_diff_density_min         -0.124
_refine_diff_density_rms         0.027
_refine_ls_extinction_method     none
_refine_ls_goodness_of_fit_ref   1.082
_refine_ls_hydrogen_treatment    constr
_refine_ls_matrix_type           full
_refine_ls_number_parameters     66
_refine_ls_number_reflns         356
_refine_ls_number_restraints     0
_refine_ls_restrained_S_all      1.082
_refine_ls_R_factor_all          0.0591
_refine_ls_R_factor_gt           0.0456
_refine_ls_shift/su_max          0.000
_refine_ls_shift/su_mean         0.000
_refine_ls_structure_factor_coef Fsqd
_refine_ls_weighting_details
'w=1/[\s^2^(Fo^2^)+(0.0950P)^2^+0.1072P] where P=(Fo^2^+2Fc^2^)/3'
_refine_ls_weighting_scheme      calc
_refine_ls_wR_factor_gt          0.1256
_refine_ls_wR_factor_ref         0.1447
_reflns_Friedel_coverage         0.000
_reflns_number_gt                282
_reflns_number_total             356
_reflns_threshold_expression     'I > 2\s(I)'
_cod_data_source_file            lq5055.cif
_cod_data_source_block           dipropyl_ether_phase_alpha_2_80GPa
_cod_depositor_comments
'Adding full bibliography for 1570433--1570452.cif.'
_cod_database_code               1570450
_shelx_shelxl_version_number     2018/3
_shelx_space_group_comment
;
The symmetry employed for this shelxl refinement is uniquely defined
by the following loop, which should always be used as a source of
symmetry information in preference to the above space-group names.
They are only intended as comments.
;
_exptl_absorpt_special_details
;
Data were collected at room temperature (295(2) K) and pressure of 2.80(2) GPa
(2800000 kPa).
;
_olex2_refinement_description
;
1. Fixed Uiso
 At 1.2 times of:
  All C(H,H) groups
 At 1.5 times of:
  All C(H,H,H) groups
2.a Secondary CH2 refined with riding coordinates:
 C1(H11,H12), C2(H22,H21), C4(H41,H42), C5(H52,H51)
2.b Idealised Me refined as rotating group:
 C3(H33,H31,H32), C6(H63,H61,H62)
;
_shelx_res_file
;
TITL 3edp_a.res in P2(1)/c
    3edp.res
    created by SHELXL-2018/3 at 13:58:32 on 21-Dec-2022
REM Old TITL 3edp in P2(1)/c
REM SHELXT solution in P2(1)/c: R1 0.173, Rweak 0.373, Alpha 0.082
REM <I/s> 1.038 for 31 systematic absences, Orientation as input
REM Formula found by SHELXT: C6 O
CELL 0.71073 9.2926 4.0686 15.1855 90 100.349 90
ZERR 4 0.0066 0.0002 0.001 0 0.025 0
LATT 1
SYMM -X,0.5+Y,0.5-Z
SFAC C H O
UNIT 24 56 4

L.S. 50
PLAN  10
CONF
BOND
list 4
fmap 2 53
MORE -1
ACTA
BOND $H
REM <olex2.extras>
REM <HklSrc "%.\\3edp.hkl">
REM </olex2.extras>

WGHT    0.095000    0.107200
FVAR       1.78782
O1    3    0.459244    0.851547    0.131808    11.00000    0.06963    0.03614 =
         0.03182   -0.00590   -0.00786    0.00086
C1    1    0.371015    0.714392    0.053437    11.00000    0.11354    0.02963 =
         0.02802   -0.00111    0.00987   -0.00406
AFIX  23
H11   2    0.375837    0.476428    0.056591    11.00000   -1.20000
H12   2    0.408763    0.783597    0.000841    11.00000   -1.20000
AFIX   0
C2    1    0.218274    0.820671    0.045421    11.00000    0.10501    0.03473 =
         0.03545   -0.00295    0.01159    0.00124
AFIX  23
H22   2    0.215089    1.057762    0.051505    11.00000   -1.20000
H21   2    0.176415    0.723991    0.093491    11.00000   -1.20000
AFIX   0
C3    1    0.127499    0.720241   -0.044113    11.00000    0.10862    0.04181 =
         0.02858   -0.00065    0.00231   -0.00594
AFIX 137
H33   2    0.030515    0.808317   -0.049194    11.00000   -1.50000
H31   2    0.122554    0.484845   -0.047821    11.00000   -1.50000
H32   2    0.172152    0.804195   -0.091816    11.00000   -1.50000
AFIX   0
C4    1    0.602829    0.722230    0.148854    11.00000    0.08402    0.03241 =
         0.02766    0.00388    0.00074    0.00572
AFIX  23
H41   2    0.654202    0.788314    0.101489    11.00000   -1.20000
H42   2    0.598606    0.484045    0.149522    11.00000   -1.20000
AFIX   0
C5    1    0.683938    0.843375    0.236821    11.00000    0.06999    0.03440 =
         0.03280    0.00171    0.00212   -0.00171
AFIX  23
H52   2    0.637162    0.759927    0.284476    11.00000   -1.20000
H51   2    0.679331    1.081472    0.238059    11.00000   -1.20000
AFIX   0
C6    1    0.841290    0.736932    0.253093    11.00000    0.13140    0.04385 =
         0.03043    0.00460    0.00642   -0.00210
AFIX 137
H63   2    0.890833    0.827079    0.308776    11.00000   -1.50000
H61   2    0.887268    0.814327    0.205228    11.00000   -1.50000
H62   2    0.846320    0.501371    0.255674    11.00000   -1.50000
AFIX   0
HKLF 4




REM  3edp_a.res in P2(1)/c
REM wR2 = 0.1447, GooF = S = 1.082, Restrained GooF = 1.082 for all data
REM R1 = 0.0456 for 282 Fo > 4sig(Fo) and 0.0591 for all 356 data
REM 66 parameters refined using 0 restraints

END

WGHT      0.0950      0.1072

REM Highest difference peak  0.093,  deepest hole -0.124,  1-sigma level  0.027
Q1    1   0.8432  0.7951  0.2049  11.00000  0.05    0.09
Q2    1   0.1874  1.0666  0.0754  11.00000  0.05    0.08
Q3    1   0.5443  0.5345  0.0781  11.00000  0.05    0.08
Q4    1   0.0852  0.4614 -0.0655  11.00000  0.05    0.08
Q5    1   0.1328  1.0878  0.0661  11.00000  0.05    0.08
Q6    1   0.2999  0.6951 -0.0933  11.00000  0.05    0.07
Q7    1   0.6312  1.0417  0.1146  11.00000  0.05    0.07
Q8    1   0.2493  1.0235  0.0980  11.00000  0.05    0.07
Q9    1   0.4657  0.5275  0.0629  11.00000  0.05    0.07
Q10   1   0.0191  0.4446 -0.0755  11.00000  0.05    0.07
;
_shelx_res_checksum              59354
_shelx_hkl_file
;
   0   0   4 1062.34   15.15
   0   0   4 1085.11   15.86
   0   0  -4 1056.41   16.07
   0   0  -4 1049.46   15.50
   0   0  -4 1071.47   15.98
   0   0   4 1062.52   16.13
   0   0   4 1067.88   15.39
   0   0   5    3.20    1.16
   0   0   5    2.31    0.93
   0   0   5    3.29    1.01
   0   0  -5    3.34    1.04
   0   0   5    1.62    1.00
   0   0  -5    4.70    1.13
   0   0  -5    3.06    1.05
   0   0  -5    3.03    0.98
   0   0  -6 2169.67   29.87
   0   0   6 2107.59   26.90
   0   0   6 2134.41   28.49
   0   0  -6 2133.84   28.96
   0   0  -6 2119.90   29.52
   0   0   6 2127.23   29.91
   0   0   6 2146.99   28.78
   0   0   6 2135.08   29.18
   0   0  -6 2093.98   28.25
   0   0  -7   -4.40    1.88
   0   0   7   -5.26    1.88
   0   0   7   -1.90    1.15
   0   0   7   -3.36    2.00
   0   0   7   -2.67    1.62
   0   0  -7   -2.71    1.65
   0   0   7   -7.25    1.68
   0   0  -7   -1.39    1.50
   0   0  -7   -4.30    1.86
   0   0   8  454.81   12.79
   0   0   8  447.67   11.92
   0   0  -8  468.79   13.20
   0   0  -8  468.32   12.25
   0   0  -8  462.83   11.85
   0   0   8  453.91   12.23
   0   0   8  450.30   11.65
   0   0  -8  453.49   12.39
   0   0  -9   -1.42    1.58
   0   0   9   -0.52    1.72
   0   0   9    1.21    1.64
   0   0   9   -0.99    1.95
   0   0  -9    2.95    2.05
   0   0   9    1.38    1.66
   0   0  -9    0.88    1.74
   0   0  -9    1.97    1.61
   0   0 -10 5831.00   71.76
   0   0 -10 5617.85   70.26
   0   0  10 5709.67   69.56
   0   0  10 5587.39   72.01
   0   0  10 5746.84   70.15
   0   0 -10 5695.43   69.23
   0   0  10 5770.67   71.30
   0   0 -11   -2.73    2.44
   0   0  11   -1.89    2.50
   0   0  11   -1.40    1.94
   0   0  11    0.59    2.82
   0   0 -11    0.57    2.30
   0   0  11    2.48    2.40
   0   0 -11   -1.78    2.46
   0   0 -11   -1.53    1.96
   0   0  12  394.43   13.69
   0   0  12  403.07   14.07
   0   0 -12  412.62   15.01
   0   0 -12  394.03   14.86
   0   0  12  406.13   14.57
   0   0 -12  406.47   13.55
   0   0 -12  429.82   14.67
   0   0  12  383.72   15.24
   0   0 -13    0.13    2.97
   0   0  13   -0.95    2.84
   0   0 -13   -1.76    3.00
   0   0  13    1.79    2.51
   0   0  13   -1.42    2.75
   0   0  13    3.20    3.50
   0   0 -13   -1.05    3.00
   0   0  14   53.11    5.97
   0   0 -14   62.24    6.59
   0   0  14   56.74    6.43
   0   0 -14   52.40    6.26
   0   0  14   56.89    7.09
   0   0 -14   53.01    6.19
   0   0  15   -8.17    4.04
   0   0 -15    1.22    3.23
   0   0 -15   -0.03    3.30
   0   0 -15   -2.79    3.42
   0   0  15   -4.97    4.55
   0   0  15   -0.32    2.92
   0   0 -16   99.89    8.83
   0   0  16  117.16   10.33
   0   0  16  102.23    8.91
   0   0 -16  100.81    8.90
   0   0 -16   96.36    8.74
   0  -1   0    6.23    1.10
   0  -1   0    5.25    1.02
   0  -1   1  209.86    5.35
   0  -1   1  216.51    5.58
   0   1  -1  197.57    5.50
   0  -1   1  188.51    5.55
   0  -1  -1  202.92    5.41
   0  -1  -1  203.40    5.36
   0  -1  -1  189.76    5.34
   0  -1   2 6874.69   71.22
   0  -1   2 6806.58   71.12
   0   1   2 6719.79   70.92
   0   1  -2 6894.21   70.85
   0  -1  -2 6515.87   70.26
   0  -1   2 6555.30   70.36
   0   1   3  234.64    6.89
   0  -1   3  237.68    6.45
   0  -1  -3  229.77    6.55
   0  -1   3  237.39    6.07
   0   1  -3  242.70    6.57
   0  -1   3  247.97    6.43
   0  -1  -3  236.47    5.81
   0  -1  -3  233.83    6.55
   0  -1   3  245.81    6.81
   0   1  -3  246.28    6.28
   0   1   3  225.66    5.65
   0  -1   4    0.99    0.78
   0  -1  -4   -0.19    0.68
   0  -1  -4    0.84    0.68
   0  -1   4   -0.66    0.90
   0   1   4    0.42    0.81
   0   1  -4   -0.41    0.85
   0   1   4    0.23    0.78
   0  -1   4   -0.16    0.78
   0   1  -4    0.09    0.59
   0   1   4   -0.73    0.92
   0  -1   4   -0.49    0.77
   0  -1  -4    0.20    0.82
   0  -1   4    0.44    0.66
   0   1  -4   -0.37    0.62
   0  -1  -4    0.81    0.88
   0   1  -4   -0.08    0.71
   0  -1   5   18.57    2.02
   0   1  -5   15.59    2.23
   0   1   5   16.46    2.33
   0  -1   5   14.99    1.71
   0  -1  -5   16.76    2.24
   0   1   5   18.68    2.21
   0   1  -5   17.83    1.97
   0  -1   5   19.77    2.27
   0   1  -5   16.92    1.81
   0  -1   5   18.18    1.76
   0  -1  -5   17.41    2.07
   0  -1  -5   18.76    2.12
   0   1   5   16.58    1.93
   0  -1  -5   17.92    2.07
   0  -1   5   16.49    1.83
   0   1  -5   18.81    1.98
   0  -1   5   18.08    2.21
   0  -1  -6  480.09   11.17
   0   1   6  457.28    9.65
   0   1  -6  450.12   10.90
   0  -1   6  493.24    9.85
   0   1   6  482.19   11.84
   0  -1  -6  477.38   11.95
   0  -1   6  501.49   11.41
   0  -1   6  478.52   11.92
   0  -1   6  478.97   10.28
   0   1   6  479.39   12.24
   0   1   6  470.63   11.26
   0  -1  -6  481.35   11.74
   0  -1   6  488.72   11.04
   0  -1  -6  488.94   11.59
   0   1  -6  468.82   12.04
   0  -1   6  476.12   11.69
   0   1  -6  510.57   11.50
   0  -1  -6  515.54    9.98
   0   1  -7   26.66    2.86
   0  -1   7   24.56    2.81
   0  -1  -7   24.39    2.86
   0   1  -7   25.56    3.28
   0   1   7   28.95    2.54
   0   1   7   25.11    3.11
   0  -1  -7   28.64    2.55
   0   1  -7   25.72    2.87
   0  -1  -7   23.92    2.60
   0  -1  -7   23.29    2.79
   0   1   7   24.89    2.94
   0   1   7   27.69    2.99
   0  -1   7   29.53    2.34
   0  -1   7   27.71    3.07
   0  -1   7   27.08    3.23
   0  -1  -7   26.22    2.95
   0  -1   7   26.30    2.72
   0   1   8  317.54   10.87
   0   1  -8  329.96   10.72
   0  -1  -8  317.61   10.51
   0  -1  -8  318.47   10.75
   0   1  -8  323.72   10.19
   0  -1   8  321.16   10.39
   0   1   8  322.56    9.29
   0  -1  -8  336.31   11.03
   0   1  -8  332.76   11.23
   0  -1  -8  334.55    9.34
   0  -1   8  324.18   10.90
   0   1   8  317.00   10.38
   0   1   8  305.74   10.85
   0  -1   8  323.63   10.54
   0  -1   8  335.14   10.43
   0  -1  -8  290.48    9.27
   0  -1  -9  256.15    8.63
   0   1   9  246.39   10.12
   0   1   9  209.68    9.12
   0   1  -9  248.84    9.45
   0   1   9  240.76    8.69
   0  -1   9  246.21    9.82
   0   1  -9  250.99   10.00
   0  -1   9  250.10    9.72
   0  -1   9  243.63    9.45
   0  -1   9  242.45    9.48
   0   1  -9  254.24   10.24
   0  -1  -9  258.24   10.25
   0  -1  -9  239.63    9.64
   0  -1  -9  236.24    8.64
   0   1   9  240.07   10.03
   0  -1  -9  254.23    9.93
   0   1  10  202.15    9.42
   0  -1  10  227.36    9.60
   0  -1 -10  214.84    9.97
   0  -1 -10  219.25    9.74
   0   1  10  186.51    9.60
   0   1 -10  216.14   10.16
   0  -1 -10  210.25    9.57
   0   1  10  207.56    8.58
   0  -1 -10  219.93    8.63
   0  -1  10  208.33    9.41
   0   1  10  204.32    9.83
   0   1 -10  223.02    9.85
   0   1 -10  215.13    9.26
   0  -1  10  215.57    9.81
   0  -1  10  200.18    8.91
   0   1  11  126.74    8.19
   0  -1  11  108.16    7.62
   0  -1  11  112.78    7.48
   0  -1  11  110.54    7.08
   0   1 -11  120.04    8.16
   0  -1 -11  118.74    7.82
   0  -1 -11  120.35    7.99
   0   1  11  106.40    7.64
   0   1 -11  116.51    7.49
   0   1 -11  114.66    7.25
   0  -1  11  117.40    7.61
   0   1  11  110.18    7.53
   0  -1 -11  118.58    7.63
   0   1 -12  520.50   17.69
   0   1  12  565.88   17.72
   0  -1 -12  577.66   18.12
   0   1  12  530.79   18.03
   0  -1  12  513.55   16.32
   0  -1  12  541.98   17.84
   0   1 -12  585.49   17.72
   0  -1 -12  565.55   17.60
   0  -1 -12  574.76   17.94
   0  -1  12  587.07   17.86
   0   1 -12  547.10   16.85
   0   1  12  591.47   18.66
   0  -1  13    7.32    3.78
   0   1  13   -7.84    4.04
   0   1 -13   -2.25    3.14
   0  -1  13    1.78    2.61
   0  -1 -13   -4.95    3.57
   0   1  13    1.32    3.06
   0   1 -13    2.30    2.69
   0  -1 -13   -0.96    2.94
   0   1  13   -2.49    3.40
   0  -1 -13   -0.93    2.93
   0  -1  13   -3.25    2.75
   0   1 -13    0.62    2.48
   0  -1  14   31.36    5.45
   0   1 -14   33.72    5.20
   0  -1 -14   27.95    4.67
   0   1  14   35.02    5.05
   0   1 -14   35.48    5.32
   0  -1 -14   29.48    5.45
   0   1 -14   34.37    5.35
   0  -1  14   30.85    5.18
   0   1  14   31.48    5.74
   0  -1  14   30.98    4.80
   0   1  14   31.89    5.70
   0  -1 -14   39.59    5.66
   0   1  15   -1.21    3.78
   0   1  15    3.20    3.61
   0   1 -15   -4.21    3.49
   0  -1  15   -2.20    3.85
   0  -1 -15   -5.67    3.98
   0   1  15   -0.04    4.22
   0   1 -15   -1.08    3.29
   0  -1 -15    2.51    3.47
   0  -1 -15   -1.69    3.23
   0  -1  15    0.08    3.27
   0   1  16    5.06    4.45
   0   1  16    2.96    3.50
   0   1  16    4.84    4.67
   0  -1 -16   -1.54    3.47
   0  -1 -16    6.92    4.04
   0   1  17   15.42    4.77
   0  -1 -17    9.29    4.43
   0   1  17   21.13    6.08
   0  -1 -17    2.82    5.03
   0   2   0 9568.69  104.78
   0  -2   0 9330.84  101.71
   0  -2   0 9826.19  103.28
   0  -2   0 9999.00  105.28
   0  -2   0 9545.50   98.99
   0  -2   0 9765.46  104.43
   0   2   0 9268.78   99.83
   0   2   0 9575.86  103.98
   0  -2   1 1102.98   19.91
   0  -2  -1 1083.71   19.45
   0  -2  -1 1090.65   19.68
   0   2  -1 1069.41   20.29
   0  -2   1 1076.73   16.07
   0   2  -1 1114.61   19.21
   0   2   1 1099.13   17.63
   0  -2  -1 1060.30   17.58
   0  -2  -1 1093.52   20.36
   0  -2  -1 1070.17   17.26
   0   2   1 1086.68   19.99
   0   2   1 1056.95   17.74
   0   2   1 1075.65   19.80
   0  -2   1 1069.37   20.58
   0  -2   1 1076.89   18.91
   0  -2   1 1078.90   18.52
   0   2  -1 1070.98   15.87
   0  -2   2   40.49    3.00
   0  -2   2   40.33    3.54
   0  -2   2   41.15    3.60
   0  -2  -2   43.84    2.87
   0   2   2   47.26    3.87
   0  -2  -2   40.66    3.42
   0   2   2   45.04    2.86
   0  -2  -2   50.54    3.78
   0  -2   2   42.07    3.52
   0  -2  -2   43.09    3.54
   0  -2   2   46.15    2.96
   0   2   2   41.47    3.26
   0   2  -2   44.64    3.73
   0   2   2   40.98    3.54
   0   2  -2   43.23    3.23
   0   2  -2   45.04    2.91
   0  -2  -2   45.34    3.22
   0  -2   3   41.45    3.68
   0  -2  -3   42.55    3.59
   0  -2  -3   47.17    4.00
   0  -2  -3   40.84    3.32
   0   2  -3   40.71    3.13
   0   2   3   41.02    2.48
   0  -2   3   41.87    3.17
   0  -2  -3   42.83    2.78
   0   2   3   44.22    4.14
   0   2   3   41.40    3.52
   0  -2  -3   42.42    2.58
   0  -2   3   45.12    3.67
   0  -2   3   42.90    3.79
   0  -2   3   42.63    3.03
   0   2   3   43.08    3.64
   0  -2  -3   41.84    3.48
   0   2  -3   46.58    3.87
   0   2   3   45.26    2.70
   0   2  -3   46.87    3.34
   0  -2  -3   42.29    2.67
   0   2   3   39.34    2.60
   0  -2   4  172.97    5.77
   0   2  -4  173.90    7.30
   0  -2  -4  184.86    6.17
   0  -2   4  169.08    7.37
   0  -2   4  175.24    7.53
   0   2   4  171.40    7.01
   0  -2  -4  178.01    7.01
   0   2   4  179.09    6.24
   0  -2  -4  176.00    7.24
   0   2   4  170.41    6.82
   0   2  -4  179.44    6.93
   0  -2  -4  165.98    5.67
   0  -2  -4  167.50    6.74
   0   2   4  169.51    5.78
   0  -2   4  167.66    7.11
   0   2   4  179.01    8.05
   0  -2   4  154.95    6.55
   0   2   4  170.27    7.59
   0  -2  -4  173.00    7.52
   0   2  -5    6.19    2.08
   0  -2   5    4.71    2.11
   0  -2  -5    0.68    1.57
   0  -2  -5    3.49    3.17
   0   2   5   -1.27    2.07
   0   2   5    3.23    1.66
   0  -2  -5   -0.18    1.95
   0  -2   5    1.80    1.55
   0  -2  -5    1.32    1.59
   0   2  -5    2.76    1.74
   0  -2   5    4.52    1.89
   0  -2   5    4.80    1.76
   0   2   5    4.69    2.30
   0   2   5    4.79    1.86
   0   2   5    1.61    2.00
   0  -2  -5    0.74    2.14
   0  -2  -5    3.00    1.34
   0   2   6  113.83    6.82
   0  -2  -6  117.53    5.97
   0   2  -6  123.04    6.31
   0   2   6  120.27    7.04
   0  -2  -6  122.11    6.68
   0  -2   6  107.49    6.11
   0  -2  -6  118.69    6.58
   0   2   6  111.99    5.60
   0   2   6  120.49    5.64
   0   2   6  113.89    5.60
   0  -2   6  117.37    6.03
   0  -2  -6  112.27    5.62
   0   2  -6  118.39    6.51
   0  -2   6  119.94    6.77
   0  -2  -6  121.79    5.83
   0   2   6  119.52    6.00
   0  -2   6  108.36    6.06
   0  -2  -6  122.83    5.70
   0  -2   7   51.80    4.37
   0  -2  -7   53.27    4.92
   0   2   7   44.98    4.81
   0  -2  -7   50.10    4.63
   0   2  -7   57.80    4.69
   0  -2  -7   51.09    4.42
   0   2   7   45.10    4.33
   0   2   7   48.32    3.97
   0   2  -7   44.22    4.43
   0   2   7   49.22    4.82
   0  -2   7   48.24    4.18
   0  -2   7   46.63    4.47
   0  -2  -7   53.26    4.31
   0  -2   7   48.66    4.51
   0   2   8    9.21    2.90
   0  -2   8   10.31    2.67
   0   2   8    6.79    2.71
   0  -2   8    5.53    2.41
   0  -2  -8    7.89    2.55
   0   2   8    6.01    2.22
   0  -2   8    7.53    2.35
   0  -2   8    6.06    2.42
   0   2   8    5.73    2.91
   0   2  -8    0.55    2.07
   0  -2  -8    2.63    2.03
   0  -2  -8    6.92    2.27
   0  -2  -8    8.58    2.64
   0   2   9  363.52   13.36
   0   2   9  395.93   13.52
   0  -2   9  369.40   13.54
   0  -2  -9  395.12   14.07
   0   2  -9  397.75   14.55
   0  -2  -9  389.19   12.96
   0  -2  -9  400.15   13.57
   0  -2   9  392.83   14.07
   0   2   9  379.71   14.52
   0  -2  -9  383.82   13.17
   0   2   9  368.17   12.81
   0  -2 -10 1248.79   26.13
   0  -2 -10 1272.71   27.86
   0   2  10 1258.09   26.39
   0   2  10 1248.09   28.40
   0  -2  10 1277.34   27.66
   0  -2 -10 1335.19   27.32
   0  -2 -10 1282.93   26.57
   0   2  10 1208.69   26.65
   0   2 -10 1285.08   28.68
   0   2  10 1256.22   26.91
   0  -2  10 1279.90   28.10
   0   2  11   31.79    4.36
   0   2  11   28.43    4.50
   0  -2  11   36.33    5.40
   0  -2 -11   41.35    4.73
   0   2  11   35.39    5.15
   0   2  11   32.20    5.06
   0   2 -11   28.64    4.73
   0  -2  11   41.61    5.41
   0  -2 -11   30.46    4.42
   0  -2 -11   34.17    5.10
   0  -2 -11   35.98    4.83
   0   2 -12   40.83    7.34
   0   2  12   41.51    5.27
   0  -2  12   42.08    5.66
   0  -2 -12   47.10    6.09
   0   2  12   48.07    6.43
   0  -2  12   40.22    5.60
   0  -2 -12   46.81    5.67
   0   2  12   33.69    5.26
   0  -2 -12   43.11    5.46
   0   2 -13   37.06    5.76
   0  -2  13   30.26    5.45
   0   2  13   19.30    4.72
   0  -2 -13   25.52    5.26
   0  -2 -13   30.67    5.02
   0   2  13   30.57    5.26
   0  -2 -13   27.46    5.06
   0   2  13   32.31    5.44
   0   2 -13   37.76    6.05
   0   2 -14   27.66    4.96
   0  -2 -14   19.94    4.56
   0  -2  14   33.56    5.89
   0  -2 -14   30.42    5.45
   0  -2 -14   34.50    5.76
   0   2 -14   23.58    5.10
   0   2  14   24.07    5.52
   0   2  14   19.40    4.36
   0   2  14   38.50    6.41
   0  -2 -15   46.16    6.93
   0   2  15   40.37    6.52
   0  -2 -15   44.41    6.98
   0   2  15   39.78    7.13
   0   2  15   33.27    6.16
   0  -2 -15   47.49    6.48
   0  -2 -16   14.07    5.24
   0   2  16   -0.82    5.00
   0   2  16    7.64    4.99
   0  -2 -16   17.60    5.66
   0  -3   0   -1.08    2.31
   0  -3   0   -2.45    2.40
   0  -3   0    0.26    1.94
   0   3   0   -1.14    2.88
   0  -3   0   -3.52    2.29
   0   3   0   -2.17    2.35
   0   3   0    0.00    1.83
   0  -3  -1   94.19    6.31
   0  -3   1   81.31    6.24
   0  -3  -1   92.57    6.61
   0  -3   1  102.08    6.48
   0  -3  -1   98.44    6.90
   0   3   1   93.93    6.74
   0   3  -1   93.77    6.19
   0   3  -1   91.42    6.90
   0   3   1   92.66    7.04
   0  -3   1   92.39    6.71
   0   3  -1   86.58    6.32
   0  -3   1   88.89    6.04
   0  -3  -2   45.36    4.72
   0  -3  -2   39.63    4.47
   0  -3   2   45.09    4.92
   0  -3   2   47.52    4.68
   0  -3  -2   40.55    4.73
   0   3  -2   49.14    4.73
   0   3  -2   41.68    5.04
   0   3  -2   43.27    4.56
   0   3   2   37.36    4.43
   0   3   2   47.65    5.32
   0   3   2   42.22    4.71
   0  -3   2   51.40    5.15
   0  -3   2   43.70    4.64
   0  -3   3   69.09    5.23
   0  -3  -3   71.62    5.78
   0  -3   3   69.67    5.94
   0  -3   3   68.71    5.87
   0   3  -3   62.94    5.57
   0   3   3   64.04    5.80
   0   3   3   66.57    5.84
   0  -3  -3   75.70    5.99
   0   3  -3   68.40    5.18
   0   3   3   70.84    6.23
   0   3  -3   58.65    5.62
   0  -3   3   71.40    6.00
   0   3   3   65.05    5.17
   0  -3  -3   74.53    5.77
   0  -3  -4    1.79    2.61
   0  -3   4   -2.38    2.16
   0   3  -4    9.42    3.27
   0  -3  -4    6.94    2.81
   0  -3  -4    3.93    2.83
   0  -3  -4    0.30    2.11
   0  -3   4   -1.91    2.45
   0  -3   4    0.19    2.22
   0   3   4   -1.65    2.26
   0   3   4    3.48    2.65
   0   3   4    5.10    2.67
   0   3   4   -1.71    2.87
   0  -3   5    3.94    2.45
   0   3   5    1.34    2.61
   0   3   5   -2.01    2.61
   0  -3  -5    3.66    2.58
   0  -3   5    0.78    2.08
   0  -3  -5    3.33    2.40
   0  -3   5    3.47    2.63
   0   3  -5    4.70    3.21
   0   3   5    1.30    3.04
   0  -3  -5    2.91    2.20
   0   3   5    1.18    2.37
   0  -3  -5    1.91    2.45
   0  -3   6   -0.03    2.67
   0   3   6    2.76    2.71
   0  -3   6   -2.70    2.48
   0  -3  -6   -1.67    2.47
   0  -3  -6    2.90    2.65
   0  -3   6   -5.95    2.82
   0   3   6   -1.50    2.67
   0   3  -6    3.50    2.78
   0  -3  -6    3.01    2.70
   0   3   6   -1.75    2.77
   0   3   6    5.36    3.59
   0   3   7   15.37    4.00
   0  -3  -7   14.04    3.40
   0  -3  -7   11.74    3.52
   0  -3   7   11.58    3.36
   0   3  -7    9.36    3.47
   0  -3   7   13.93    3.86
   0  -3   7   14.00    3.60
   0   3   7    7.99    3.55
   0  -3   8   39.55    5.61
   0  -3   8   50.30    5.45
   0   3  -8   40.96    5.24
   0  -3   8   40.67    5.34
   0  -3  -8   39.49    5.21
   0   3   8   39.71    5.64
   0   3   8   47.38    6.05
   0   3  -8   44.01    5.80
   0  -3  -8   38.17    5.33
   0  -3  -9  112.42    8.54
   0   3  -9  118.03    8.63
   0   3   9  107.14    8.66
   0   3   9  105.05    8.67
   0  -3  -9  115.14    8.44
   0   3  -9  123.28    9.42
   0  -3   9  121.70    9.13
   0   3  10   52.63    6.77
   0  -3 -10   61.38    7.08
   0  -3 -10   53.96    6.40
   0   3 -10   61.70    6.86
   0   3  10   44.34    6.09
   0   3 -10   55.38    7.10
   0  -3  10   55.23    6.78
   0   3  11   68.43    7.67
   0   3 -11   76.32    7.73
   0  -3  11   58.06    7.25
   0   3  11   65.21    7.41
   0  -3 -11   71.53    7.90
   0   3 -11   67.50    7.71
   0  -3 -11   68.58    7.35
   0   3 -12   20.81    5.01
   0  -3 -12   33.00    5.87
   0   3  12   38.28    6.52
   0  -3 -12   33.08    5.84
   0   3 -12   29.84    5.74
   0   3  12   28.51    5.82
   0  -3  12   35.05    6.06
   0   3  13    0.13    4.12
   0  -3 -13    0.37    3.94
   0   3  13    2.21    4.27
   0  -3 -13    0.76    4.08
   0  -3 -14   -5.81    4.50
   0   3  14    0.76    4.47
   0  -4   0   60.99    6.53
   0  -4   0   47.00    6.04
   0   4   0   59.22    6.50
   0   4   0   59.45    7.04
   0   4   0   61.84    7.14
   0  -4   0   64.20    6.73
   0   4  -1   20.52    4.45
   0  -4   1   14.78    4.17
   0  -4  -1   17.47    4.24
   0  -4   1   21.38    4.69
   0   4   1   21.89    5.10
   0  -4  -1   14.98    3.88
   0   4   1   10.82    4.25
   0   4  -1   16.38    4.35
   0  -4  -1   17.69    4.52
   0   4   1   18.70    4.72
   0   4  -1   16.31    4.75
   0  -4   1   18.57    4.60
   0   4   2   16.28    5.15
   0  -4  -2   20.90    4.71
   0  -4  -2   20.97    4.49
   0  -4   2   13.84    3.98
   0   4   2   24.38    4.67
   0   4  -2   20.46    5.41
   0   4  -2   16.23    4.60
   0   4   2   27.42    5.47
   0  -4   2   15.15    4.34
   0  -4  -2   16.88    4.14
   0  -4  -3   -4.13    3.61
   0  -4   3   -2.07    3.03
   0  -4   3    2.32    3.46
   0   4   3   -0.67    3.61
   0   4  -3    0.54    4.20
   0   4  -3   -3.94    3.73
   0  -4  -3    0.74    3.03
   0   4  -3    4.47    3.67
   0  -4  -3   -2.12    2.93
   0   4   3    1.07    3.57
   0   4   3    3.28    3.15
   0  -4   3    1.82    3.24
   0  -4   4   33.44    5.73
   0  -4  -4   36.14    5.48
   0  -4   4   27.82    4.98
   0   4  -4   33.02    5.63
   0  -4   4   31.27    5.65
   0   4   4   19.73    4.54
   0  -4  -4   23.48    4.19
   0   4   4   26.34    5.68
   0  -4  -4   22.35    4.41
   0   4   4   25.15    4.96
   0   4  -4   30.10    5.05
   0   4  -4   33.32    5.65
   0  -4   5   52.14    7.03
   0   4   5   39.08    5.80
   0   4   5   46.25    6.81
   0  -4   5   34.11    5.53
   0  -4   5   37.75    5.88
   0   4  -5   41.57    6.11
   0   4  -5   45.02    6.63
   0   4   5   41.50    5.72
   0  -4  -5   32.30    5.25
   0  -4  -5   38.05    5.57
   0   4  -5   42.73    6.12
   0  -4  -5   45.84    5.75
   0  -4   6   -0.50    3.49
   0   4  -6   -0.32    3.83
   0  -4  -6    5.32    3.77
   0  -4   6    9.22    4.46
   0   4   6   -2.60    4.08
   0   4  -6   -2.88    4.16
   0   4  -6   -2.04    3.83
   0  -4   6   -2.45    3.36
   0   4   7    6.09    4.92
   0  -4  -7   -4.46    4.23
   0   4  -7    5.69    4.47
   0   4  -7   -0.42    4.16
   0  -4   7    0.15    3.90
   0  -4   7    3.56    3.57
   0  -4   7    3.79    3.59
   0   4   8   49.72    7.39
   0  -4  -8   55.40    7.34
   0   4  -8   57.85    7.51
   0  -4   8   44.76    6.45
   0  -4   8   46.98    7.07
   0   4  -8   47.75    7.64
   0   4   9    7.81    5.95
   0  -4  -9   -1.27    4.98
   0   4  -9   29.33    6.70
   0  -4   9   27.60    5.63
   0  -4  -9    6.57    4.51
   0   4   9   20.18    6.24
   0   4  10   54.56    7.99
   0  -4 -10   39.25    5.86
   0  -4 -10   56.42    7.12
   0   4  10   52.79    7.55
   0   4  11   10.35    5.44
   0  -4 -11   13.26    5.77
   0  -5  -1   37.20    6.90
   0   5   1    8.29    6.82
   0  -5  -2   20.48    6.74
   0  -5  -3   -2.22    4.49
   0  -5  -4   -1.28    4.24
   1   0 -18    0.09    3.87
  -1   0  18    1.40    4.65
  -1   0  18    7.45    4.87
   1   0 -18    5.09    4.19
   1   0 -18   -1.91    4.30
  -1   0  18    0.45    3.92
   1   0 -17    3.95    3.65
   1   0 -17    8.83    4.35
  -1   0  17   -1.15    3.90
  -1   0  17    5.14    4.65
  -1   0  17    7.27    4.12
   1   0 -17   -1.28    3.72
   1   0 -16   32.78    5.83
  -1   0  16   34.05    5.88
  -1   0  16   40.13    6.92
   1   0 -16   37.59    6.13
   1   0 -16   41.00    6.30
  -1   0  16   36.30    5.68
   1   0 -15   -2.14    3.57
  -1   0  15    7.65    4.42
   1   0 -15   -5.17    3.82
  -1   0  15    4.28    3.36
   1   0 -15   -0.87    3.33
  -1   0  15   -8.90    3.68
  -1   0  14 1299.91   29.83
  -1   0  14 1270.88   30.67
   1   0 -14 1342.32   31.42
   1   0 -14 1256.00   29.60
   1   0 -14 1307.26   29.98
  -1   0  14 1299.63   29.24
   1   0 -13    1.24    2.90
  -1   0  13    6.59    3.14
  -1   0  13    5.27    3.24
  -1   0  13   -1.26    3.69
   1   0 -13    2.51    2.89
   1   0 -13    2.01    2.62
   1   0 -13    3.06    2.78
  -1   0  12   90.60    6.77
   1   0 -12  110.50    7.63
  -1   0  12  101.97    7.25
   1   0 -12   98.78    6.57
  -1   0  12   86.04    7.46
   1   0 -12   93.38    7.17
  -1   0  12   93.41    6.60
   1   0 -12   91.37    6.60
   1   0 -11    2.56    2.32
  -1   0  11   -0.60    2.04
  -1   0  11    0.31    2.52
   1   0 -11   -1.02    1.98
  -1   0  11   -0.32    2.15
  -1   0  11   -0.70    1.99
   1   0 -11   -4.25    2.72
   1   0 -11    1.65    2.38
   1   0 -10   55.64    4.38
  -1   0  10   59.40    5.01
  -1   0  10   50.40    5.05
   1   0 -10   58.12    5.05
  -1   0  10   51.27    4.42
  -1   0  10   55.16    4.66
   1   0 -10   61.31    4.99
   1   0 -10   55.43    4.96
  -1   0   9   -1.88    1.25
   1   0  -9    0.85    1.25
  -1   0   9   -0.39    1.49
   1   0  -9    0.22    1.59
  -1   0   9   -0.18    1.95
  -1   0   9   -1.47    1.81
  -1   0   9   -2.64    2.05
   1   0  -9   -2.86    1.73
   1   0  -9   -2.11    1.69
   1   0  -9    1.10    1.52
  -1   0   8  443.67   12.20
   1   0  -8  465.63   11.33
   1   0  -8  468.28   12.59
   1   0  -8  438.12   12.13
  -1   0   8  465.18   10.18
  -1   0   8  453.78   12.01
   1   0  -8  445.22   12.25
  -1   0   8  453.90   11.54
  -1   0   8  466.23   13.06
   1   0  -8  474.97   10.23
   1   0  -7    0.39    1.20
  -1   0   7    0.48    1.16
   1   0  -7   -2.28    1.57
   1   0  -7   -2.96    1.55
   1   0  -7   -0.70    1.25
  -1   0   7   -0.40    1.25
   1   0  -7    0.07    1.16
  -1   0   7   -1.26    1.12
  -1   0   7   -3.94    2.19
  -1   0   7   -2.79    1.51
   1   0  -6   64.38    3.82
  -1   0   6   67.32    3.95
   1   0  -6   66.14    3.45
  -1   0   6   65.35    4.00
   1   0  -6   68.16    4.04
   1   0  -6   69.44    3.94
   1   0  -6   67.07    3.14
  -1   0   6   62.10    3.71
  -1   0   6   63.13    3.03
  -1   0   6   63.96    3.59
  -1   0   5    1.36    0.77
   1   0  -5    0.90    0.83
  -1   0   5   -0.97    0.73
   1   0  -5    1.41    0.63
  -1   0   5    1.10    0.82
  -1   0   5   -0.54    0.78
   1   0  -5    0.42    0.70
   1   0  -5    0.58    0.89
  -1   0  -6 1877.44   27.76
  -1   0  -6 1878.18   27.62
   1   0   6 1903.40   28.08
   1   0   6 1888.28   27.37
  -1   0  -7    0.19    1.40
  -1   0  -7    0.71    1.40
   1   0   7   -1.03    1.94
   1   0   7    0.12    1.31
  -1   0  -8 1521.55   26.29
   1   0   8 1495.52   25.83
  -1   0  -8 1541.09   25.50
  -1   0  -8 1485.40   26.00
   1   0   8 1549.92   26.87
  -1   0  -9    2.36    2.03
   1   0   9    3.40    2.20
  -1   0  -9    0.93    1.58
   1   0   9   -0.05    1.76
   1   0   9    2.33    2.47
  -1   0  -9    0.36    1.63
   1   0  10  266.36   10.38
   1   0  10  268.17   11.16
  -1   0 -10  263.58   10.79
   1   0  10  265.79   10.58
  -1   0 -10  269.77   10.37
  -1   0 -10  271.15   10.96
   1   1 -18   61.98    8.07
  -1  -1  18   75.63    8.42
  -1  -1  18   83.57   10.14
  -1   1  18   59.94    8.56
   1  -1 -18   72.43    8.15
   1   1 -18   73.09    8.10
   1   1 -17    5.83    3.85
  -1  -1  17   14.01    4.71
  -1   1  17   12.76    5.09
   1  -1 -17    5.30    3.90
   1   1 -17    8.06    4.07
   1  -1 -17   16.45    5.38
  -1   1  17   20.73    5.62
  -1  -1  17   15.98    5.31
  -1  -1  17    8.85    4.78
  -1   1  17    8.13    4.76
   1   1 -17   12.89    4.81
   1  -1 -17   16.22    5.02
  -1  -1  16    8.55    4.23
   1   1 -16    5.34    4.28
  -1  -1  16    3.37    3.69
  -1   1  16   14.27    5.12
  -1   1  16   -0.73    3.94
   1  -1 -16    7.60    4.00
  -1   1  16    3.89    4.23
  -1  -1  16   11.58    5.24
   1  -1 -16   10.09    4.33
   1   1 -16    6.87    4.09
   1   1 -16    7.88    3.83
   1  -1 -16   13.53    4.67
  -1  -1  15    7.06    3.57
  -1   1  15   12.09    4.88
   1  -1 -15    7.27    4.48
   1   1 -15    9.69    3.85
  -1  -1  15   22.20    5.28
  -1  -1  15   10.31    4.03
   1  -1 -15   18.38    4.69
   1   1 -15   14.90    4.75
  -1   1  15   11.94    4.43
   1   1 -15    4.51    3.22
  -1   1  15   13.19    4.47
   1  -1 -15    9.73    4.24
  -1   1  14  102.95    8.40
   1  -1 -14   99.37    8.51
  -1   1  14   91.98    8.51
  -1  -1  14  104.60    8.42
   1  -1 -14  104.36    8.16
  -1  -1  14   89.22    7.78
   1   1 -14  109.42    8.40
   1   1 -14  104.72    8.23
   1   1 -14   91.43    8.16
   1  -1 -14   90.64    8.04
  -1  -1  14   95.80    8.04
  -1   1  14   90.67    8.20
   1  -1 -13    5.13    3.03
   1   1 -13   11.75    3.60
  -1  -1  13   14.12    4.11
   1   1 -13    7.37    3.32
  -1   1  13    4.13    3.09
  -1   1  13   11.89    4.16
   1  -1 -13    9.11    3.52
   1  -1 -13    6.96    3.36
  -1  -1  13    2.11    2.75
   1   1 -13    6.95    3.38
  -1   1  13    7.62    3.23
  -1  -1  13   12.55    3.85
   1   1 -12 2502.82   41.81
  -1   1  12 2386.99   42.18
   1  -1 -12 2397.20   40.80
  -1  -1  12 2419.43   41.61
  -1   1  12 2390.54   41.18
   1   1 -12 2464.04   39.18
  -1  -1  12 2356.80   39.60
  -1  -1  12 2377.01   41.07
   1  -1 -12 2474.24   41.29
  -1  -1  12 2482.26   39.74
   1   1 -12 2418.89   40.85
   1   1 -12 2331.57   41.47
   1  -1 -12 2350.94   41.26
  -1   1  12 2419.92   41.71
   1   1 -11  100.57    6.99
  -1  -1  11   85.79    6.79
   1  -1 -11   95.68    6.89
  -1   1  11   87.79    7.13
  -1  -1  11   91.64    6.88
  -1   1  11   86.58    6.47
  -1  -1  11   86.36    6.42
   1  -1 -11   94.49    6.70
   1  -1 -11   88.24    6.81
   1   1 -11   93.80    6.62
   1   1 -11   87.77    6.79
   1   1 -11   96.82    6.45
  -1  -1  11   91.54    6.18
  -1   1  11   88.84    6.87
  -1  -1  10  108.59    6.89
   1   1 -10  116.60    6.73
  -1   1  10  112.44    6.09
   1  -1 -10  121.97    7.20
  -1   1  10  107.20    7.31
  -1   1  10  111.10    7.13
  -1  -1  10  107.22    6.72
   1  -1 -10  120.42    7.35
   1  -1 -10  109.74    6.98
   1   1 -10  117.59    6.93
   1   1 -10  116.99    7.45
  -1  -1  10  118.66    6.72
   1  -1 -10  126.11    6.45
   1   1 -10  111.44    6.68
  -1  -1  10  113.85    6.60
  -1   1  10  102.30    7.03
  -1  -1   9   15.85    2.71
   1  -1  -9   20.90    3.20
   1  -1  -9   22.99    3.27
   1   1  -9   19.86    3.10
  -1   1   9   23.39    3.64
   1  -1  -9   25.36    2.94
  -1   1   9   18.58    3.42
   1  -1  -9   23.25    3.15
  -1  -1   9   20.46    2.85
   1   1  -9   21.95    3.19
  -1  -1   9   20.95    3.18
   1  -1  -9   23.22    2.81
  -1  -1   9   22.23    3.40
   1   1  -9   20.05    3.39
   1   1  -9   19.74    2.94
  -1   1   9   21.18    2.71
  -1   1   9   20.22    3.12
  -1   1   9   19.91    2.61
   1  -1  -8  211.28    7.50
  -1  -1   8  206.49    8.50
  -1   1   8  198.31    8.29
   1  -1  -8  213.22    8.43
  -1   1   8  226.73    9.15
  -1  -1   8  216.25    7.97
  -1  -1   8  221.18    8.42
   1  -1  -8  211.22    8.35
   1  -1  -8  222.93    8.68
  -1   1   8  205.91    7.08
  -1  -1   8  215.07    8.22
   1   1  -8  202.89    8.26
   1   1  -8  210.97    8.08
   1   1  -8  211.40    8.80
   1  -1  -8  205.16    7.15
  -1   1   8  205.75    7.61
   1   1  -8  209.18    8.15
  -1   1   8  208.36    8.77
  -1  -1   7    7.23    1.87
   1   1  -7    6.97    1.75
   1  -1  -7    8.63    1.90
   1  -1  -7    8.25    1.63
  -1   1   7    8.62    2.30
  -1  -1   7    7.86    1.46
   1   1  -7    7.29    1.77
  -1  -1   7    7.47    1.90
  -1   1   7    8.84    2.37
  -1   1   7    9.16    2.11
   1   1  -7    8.82    1.55
  -1   1   7    7.65    1.43
   1   1  -7    9.68    2.09
   1   1  -7    8.60    1.49
  -1  -1   7    5.98    1.50
   1  -1  -7    8.71    2.12
  -1   1   7   10.61    2.01
   1  -1  -7    8.59    1.57
  -1  -1   7    8.74    2.03
   1  -1  -7   11.34    2.32
   1   1  -7   10.57    2.15
  -1  -1   7    8.58    1.41
  -1  -1   6    2.65    1.24
   1  -1  -6    4.76    1.40
   1   1  -6    1.81    1.16
   1  -1  -6    4.31    0.89
   1  -1  -6    4.20    1.19
  -1   1   6    2.82    1.48
   1   1  -6   -0.19    1.49
  -1   1   6    5.73    1.51
   1  -1  -6    3.43    1.21
   1  -1  -6    3.45    1.40
  -1  -1   6    0.52    1.41
  -1   1   6    0.86    1.98
   1   1  -6    5.60    1.32
  -1  -1   6    4.48    1.34
   1   1  -6    3.62    1.11
  -1  -1   6    3.33    1.03
   1   1  -6    4.56    1.15
  -1   1   6    2.27    0.93
  -1   1   6    2.17    1.24
  -1  -1   6    2.88    0.95
  -1  -1   6    3.52    1.11
  -1  -1   5    1.79    1.01
  -1  -1   5    2.10    1.18
   1   1  -5    0.54    0.74
  -1   1   5   -0.91    1.15
  -1  -1   5   -0.10    0.78
  -1   1   5   -0.28    0.97
  -1   1   5   -0.23    1.06
  -1  -1   5    0.82    1.01
  -1  -1   5    0.14    0.87
   1  -1  -5   -0.47    1.09
  -1  -1   5    0.67    0.86
   1   1  -5   -0.52    0.72
   1   1  -5   -0.96    1.23
   1  -1  -5   -0.13    0.65
   1   1  -5   -0.03    0.77
  -1   1   5   -0.13    0.93
   1  -1  -5   -0.52    0.93
   1   1  -5    0.22    0.99
   1  -1  -5    0.87    0.96
   1  -1  -5    0.33    0.88
  -1  -1   4    2.31    1.00
   1   1  -4    1.89    0.76
   1  -1  -4    1.61    0.88
  -1   1   4    1.42    0.91
  -1  -1   4    0.51    0.76
  -1  -1   4    1.19    0.71
  -1  -1   4    1.32    0.71
   1  -1  -4    2.34    0.92
   1   1  -4    1.61    0.78
  -1  -1   4    2.34    1.02
  -1   1   4    1.90    0.95
   1   1  -4    2.39    1.03
  -1   1   4    2.21    0.87
  -1   1   4    1.70    0.93
   1   1  -4    2.48    1.01
   1  -1  -4    1.98    0.80
   1  -1  -4    2.71    0.85
   1   1  -3 1744.12   23.26
  -1  -1   3 1770.00   23.51
   1  -1  -3 1744.11   23.93
  -1   1   3 1790.34   24.61
   1  -1  -3 1775.55   22.92
  -1   1   3 1764.04   22.68
  -1   1   3 1709.22   22.92
   1  -1  -3 1664.22   23.65
   1  -1  -3 1762.69   22.24
   1  -1  -3 1728.84   22.70
   1   1  -3 1775.99   23.43
  -1  -1   3 1769.45   23.32
  -1  -1   3 1806.36   23.16
  -1   1   3 1757.03   24.07
   1   1  -3 1717.62   23.90
  -1  -1   3 1829.64   24.40
  -1  -1   1  150.37    4.88
  -1  -1   1  160.21    4.99
   1  -1  -1  150.46    5.10
  -1  -1   1  140.43    5.01
  -1   1   1  159.05    5.00
   1   1  -1  148.19    4.67
   1   1  -1  155.99    5.01
  -1  -1   0  118.67    4.25
  -1  -1   0  115.65    4.46
  -1  -1   0  119.57    4.16
   1   1   0  116.40    4.32
   1  -1   0  113.51    4.39
  -1  -1  -1   38.94    2.55
   1   1   1   32.39    2.34
  -1  -1  -2  947.75   15.47
  -1  -1  -2  920.20   14.85
  -1  -1  -2  942.12   14.81
  -1  -1  -3  101.86    4.61
  -1  -1  -3  105.11    4.53
   1   1   3   90.56    3.96
  -1  -1  -3  100.58    4.15
  -1  -1  -4  764.02   14.65
  -1  -1  -4  708.19   14.26
  -1  -1  -4  758.69   13.84
   1   1   4  736.10   13.67
   1   1   5  156.04    6.74
  -1  -1  -5  163.37    6.47
  -1  -1  -5  169.27    6.74
   1   1   5  164.15    6.31
  -1  -1  -5  157.65    6.17
   1   1   5  156.32    6.02
  -1  -1  -5  160.02    6.19
   1   1   6  302.77    9.88
  -1  -1  -6  277.57    8.95
  -1  -1  -6  308.80    9.79
   1   1   6  301.54    9.58
   1   1   6  301.64    9.07
  -1  -1  -6  301.84    9.53
  -1  -1  -6  292.38    9.35
   1   1   7  543.29   14.61
  -1  -1  -7  574.07   14.65
   1   1   7  528.81   14.02
   1   1   7  559.15   13.81
  -1  -1  -7  536.61   11.95
  -1  -1  -7  540.51   13.73
  -1  -1  -7  584.22   14.59
   1   1   8 3955.43   53.24
  -1  -1  -8 3860.43   52.58
   1   1   8 3910.46   52.98
   1   1   8 3966.38   51.72
  -1  -1  -8 3923.61   48.66
  -1  -1  -8 3919.85   52.43
  -1  -1  -8 3914.33   52.07
   1   1   9  258.38   10.96
  -1  -1  -9  295.56   11.26
   1   1   9  256.67   10.76
   1   1   9  282.29   10.64
  -1  -1  -9  294.60    9.72
  -1  -1  -9  277.17   10.95
  -1  -1  -9  286.54   11.00
   1   1  10  377.92   13.78
  -1  -1 -10  377.37   13.53
   1   1  10  358.97   12.55
   1   1  10  367.33   13.82
  -1  -1 -10  358.45   13.51
  -1  -1 -10  367.63   13.14
  -1  -1 -11   13.00    3.39
   1   1  11   12.87    3.03
  -1  -1 -11   12.05    3.28
   1   1  11   16.35    3.77
  -1  -1 -11   11.96    3.26
   1   1  11   19.39    4.23
   1   1  12   77.91    7.26
   1   1  12   77.25    7.26
  -1  -1 -12   70.44    6.42
  -1   2  17   13.84    4.87
   1  -2 -17    5.33    5.02
  -1   2  17   -1.40    4.71
  -1   2  16    9.64    4.52
  -1  -2  16   12.02    4.97
   1  -2 -16    9.86    4.60
   1  -2 -16    4.33    4.01
  -1   2  16    5.19    4.86
  -1   2  16    5.88    4.82
   1   2 -16    2.46    4.33
   1  -2 -16    2.51    3.84
  -1  -2  15   16.59    4.64
  -1   2  15   12.16    5.31
   1   2 -15   26.52    5.76
   1  -2 -15   15.53    5.08
  -1   2  15    7.73    4.43
   1   2 -15   18.75    4.79
  -1  -2  15    8.62    4.14
   1  -2 -15   11.42    4.12
   1  -2 -15   13.94    4.75
  -1   2  15    8.93    4.15
  -1  -2  14  306.84   15.10
  -1   2  14  325.17   15.53
   1  -2 -14  330.25   15.45
  -1   2  14  290.61   14.01
   1   2 -14  269.53   13.57
   1  -2 -14  304.50   14.78
   1  -2 -14  333.40   15.05
   1   2 -14  304.05   15.14
  -1   2  14  318.97   16.07
  -1  -2  14  331.05   15.55
  -1  -2  13   40.25    5.57
  -1   2  13   49.46    7.36
  -1   2  13   54.14    7.03
   1  -2 -13   45.62    6.26
  -1  -2  13   46.42    6.32
   1  -2 -13   58.67    6.69
   1   2 -13   52.82    6.54
   1   2 -13   46.40    6.23
  -1  -2  12    3.45    3.26
  -1   2  12    2.44    3.21
   1  -2 -12   -1.26    3.23
   1  -2 -12    3.75    3.19
   1  -2 -12    5.00    3.42
  -1   2  12    2.19    3.48
  -1  -2  12   -1.81    3.02
   1   2 -12   -5.06    3.50
  -1   2  12    2.31    2.67
   1   2 -12   -0.85    3.17
  -1  -2  11   12.98    3.64
   1  -2 -11   16.59    3.82
  -1   2  11   12.48    4.01
  -1   2  11    6.57    3.28
   1  -2 -11   17.66    3.81
  -1   2  11    9.54    3.72
   1  -2 -11    7.61    3.33
  -1  -2  11    4.27    2.66
  -1   2  11   11.20    3.15
   1   2 -11    2.23    3.02
   1   2 -11    9.36    3.40
   1  -2 -11   13.32    3.45
  -1   2  10    7.12    3.61
  -1  -2  10    7.19    2.98
  -1   2  10    5.38    3.46
   1  -2 -10    0.13    2.47
   1  -2 -10   -0.35    2.64
   1  -2 -10    4.10    2.57
   1  -2 -10    1.53    2.38
  -1  -2  10    5.14    2.82
  -1   2  10    2.51    2.77
  -1   2  10    4.76    2.73
   1   2 -10    4.27    2.85
   1   2 -10    5.18    2.97
  -1  -2   9   25.41    3.95
  -1  -2   9   31.62    4.29
  -1   2   9   32.76    4.64
   1  -2  -9   26.75    3.74
  -1   2   9   32.09    4.53
   1  -2  -9   32.90    4.30
   1  -2  -9   30.02    3.74
  -1   2   9   26.08    4.02
  -1   2   9   32.20    4.08
   1   2  -9   32.34    4.50
   1   2  -9   30.07    4.08
   1  -2  -9   29.61    3.73
  -1  -2   8   18.39    3.23
   1   2  -8   16.40    2.95
  -1   2   8   21.76    3.70
   1  -2  -8   18.82    3.30
   1  -2  -8   16.99    3.22
  -1  -2   8   18.86    3.00
   1  -2  -8   19.76    2.79
  -1  -2   8   16.33    2.78
  -1   2   8   17.19    2.89
  -1   2   8   21.15    3.61
  -1   2   8   16.15    3.06
  -1  -2   8   18.27    3.15
   1   2  -8   17.04    3.20
   1   2  -8   17.43    3.35
   1  -2  -8   16.62    3.06
   1   2  -8   19.10    2.86
   1  -2  -7   82.67    5.76
  -1   2   7   87.41    5.72
   1  -2  -7   80.29    5.78
  -1   2   7   80.71    5.26
   1  -2  -7   82.76    5.21
  -1  -2   7   79.38    5.43
  -1  -2   7   82.14    5.10
  -1  -2   7   79.99    5.48
   1   2  -7   82.76    5.32
   1  -2  -7   79.19    5.16
   1   2  -7   88.12    5.40
  -1   2   7   74.99    5.72
   1   2  -7   90.80    5.99
   1   2  -7   79.44    5.98
  -1  -2   7   74.60    5.86
  -1   2   7   81.31    6.11
  -1  -2   6    5.30    2.18
  -1   2   6    6.69    2.04
  -1   2   6    9.20    2.41
   1  -2  -6    7.96    2.32
   1  -2  -6    6.83    2.14
   1  -2  -6    9.06    1.92
   1  -2  -6    5.61    1.88
  -1  -2   6    5.37    2.00
  -1   2   6   12.01    2.26
  -1   2   6    7.87    1.86
  -1  -2   6    7.21    2.12
  -1  -2   6    5.93    2.09
   1   2  -6    7.90    2.13
   1   2  -6    8.91    2.35
  -1   2   6    5.64    2.20
   1   2  -6    6.37    2.17
   1  -2  -6    7.87    1.95
   1   2  -6    5.86    2.37
   1  -2  -6    4.04    1.69
  -1   2   5  451.94   11.58
   1  -2  -5  456.20   12.77
  -1  -2   5  455.33   11.94
  -1   2   5  453.53   11.41
  -1   2   5  453.18   10.95
   1  -2  -5  454.04   12.58
   1  -2  -5  456.74   10.98
  -1  -2   5  447.44   12.03
  -1  -2   5  423.06   12.38
   1  -2  -5  466.73   11.74
   1  -2  -5  432.89   11.16
   1  -2  -5  432.20   10.86
   1   2  -5  477.26   12.69
   1   2  -5  471.41   12.55
   1   2  -5  449.66   12.22
  -1   2   5  456.40   13.22
  -1   2   5  442.11   13.20
   1   2  -5  441.92   13.09
  -1  -2   5  445.59   12.95
   1  -2  -4 1028.08   19.90
  -1  -2   4 1017.22   16.79
  -1   2   4  986.68   16.61
   1  -2  -4 1024.16   18.67
   1  -2  -4 1024.31   19.20
   1  -2  -4 1025.92   16.89
  -1  -2   4  995.17   19.12
   1   2  -4 1018.45   17.05
   1   2  -4 1074.51   20.09
   1   2  -4 1020.71   18.63
  -1  -2   4 1039.52   20.04
   1  -2  -4 1035.74   18.89
  -1   2   4 1010.74   18.78
  -1   2   4  989.90   20.36
  -1  -2   4 1029.10   18.22
   1   2  -4 1022.42   20.29
  -1  -2   4 1021.21   20.05
  -1   2   4 1023.72   20.12
  -1  -2   3    2.67    1.78
   1  -2  -3   -0.43    1.53
  -1   2   3    0.76    1.49
  -1   2   3    0.29    1.52
   1  -2  -3   -1.74    1.47
  -1  -2   3    1.25    1.12
   1   2  -3    1.41    1.09
   1  -2  -3    0.71    1.33
  -1  -2   3    1.81    1.69
  -1   2   3    0.33    1.01
  -1  -2   3   -0.84    1.42
   1  -2  -3    0.66    1.25
   1   2  -3   -0.63    1.41
  -1   2   3    0.45    1.60
   1   2  -3   -0.09    1.39
   1   2  -3   -0.68    1.47
   1  -2  -3   -0.17    0.92
  -1  -2   3    0.19    1.18
  -1  -2   2   -0.69    1.20
   1  -2  -2   -1.80    1.63
  -1  -2   2   -0.12    1.27
  -1   2   2    3.34    1.48
   1  -2  -2    0.69    1.35
  -1  -2   2   -1.63    1.70
   1  -2  -2   -0.22    1.72
  -1   2   2   -0.02    0.90
  -1  -2   2   -1.66    1.51
  -1  -2   2   -1.76    1.26
   1   2  -2    0.58    1.44
  -1   2   2    2.55    1.66
  -1   2   2    1.35    1.61
   1  -2  -2   -0.94    1.49
   1   2  -2    1.67    1.09
   1   2  -2   -0.63    1.54
   1  -2  -1  745.56   15.77
   1  -2  -1  779.86   16.03
  -1  -2   1  785.63   15.23
   1  -2  -1  786.95   14.21
  -1   2   1  750.02   16.14
  -1  -2   1  708.08   15.53
   1   2  -1  711.08   15.98
  -1  -2   1  745.77   16.36
  -1  -2   1  755.75   12.23
   1  -2  -1  770.21   16.12
  -1   2   1  761.88   16.06
   1   2  -1  769.21   15.38
  -1  -2   1  739.45   15.20
   1   2  -1  738.75   12.51
   1   2   0  110.29    4.48
  -1  -2   0  112.13    5.64
   1  -2   0  114.72    5.50
   1  -2   0  114.71    4.46
  -1  -2   0  112.42    4.48
  -1  -2   0  113.91    5.16
  -1  -2   0  108.82    5.86
   1  -2   0  110.55    5.77
   1  -2   0  107.98    5.54
   1   2   0  103.33    5.67
  -1   2   0  108.00    5.60
  -1   2   0  100.09    5.26
  -1  -2   0  110.58    5.39
   1   2   0  100.11    4.89
   1  -2   1   96.62    5.43
   1   2   1   97.60    4.76
   1   2   1  107.11    4.89
   1  -2   1  101.82    5.11
   1  -2   1   93.04    3.91
  -1  -2  -1  106.61    4.73
  -1  -2  -1  102.24    5.40
   1  -2   1   90.68    5.51
   1   2   1   93.26    5.41
  -1   2  -1  100.65    5.55
  -1  -2  -1   96.57    5.14
  -1   2  -1  104.66    5.37
   1  -2   1   99.04    5.38
  -1  -2  -1  100.64    4.64
  -1  -2  -1  103.81    5.53
   1  -2   2    4.21    1.77
   1  -2   2    3.16    1.45
  -1  -2  -2    3.36    1.62
   1   2   2    4.57    1.54
  -1  -2  -2    3.27    1.22
  -1  -2  -2    5.20    1.69
   1  -2   2    2.64    1.39
  -1  -2  -2    1.87    1.52
   1  -2   2    3.17    1.65
   1   2   2    2.90    1.69
  -1   2  -2    2.38    1.78
  -1  -2  -2    4.55    1.22
   1  -2   3   18.46    2.75
   1  -2   3   20.98    2.54
  -1  -2  -3   21.88    3.17
   1   2   3   20.50    2.81
  -1  -2  -3   21.49    2.69
   1  -2   3   20.33    2.90
   1  -2   3   20.36    2.83
  -1  -2  -3   20.65    2.78
   1   2   3   16.17    2.59
  -1  -2  -3   20.10    2.63
  -1   2  -3   20.80    2.79
  -1  -2  -3   18.65    2.00
   1   2   4   77.66    5.09
   1  -2   4   79.38    4.38
  -1  -2  -4   76.17    5.15
  -1  -2  -4   68.81    4.58
  -1  -2  -4   72.73    3.90
  -1  -2  -4   80.55    5.02
   1   2   4   78.95    4.21
   1   2   4   73.51    4.88
   1  -2   4   79.17    5.25
  -1  -2  -4   80.61    4.98
   1  -2   4   71.82    5.11
  -1   2  -4   72.12    4.73
   1  -2   4   77.66    5.38
   1   2   5  120.63    6.99
  -1  -2  -5  122.69    6.74
  -1  -2  -5  136.99    6.92
   1   2   5  135.53    5.97
  -1  -2  -5  123.71    5.93
  -1  -2  -5  118.99    5.50
  -1   2  -5  122.63    6.52
   1  -2   5  126.65    6.69
  -1  -2  -5  125.02    6.07
   1   2   5  118.39    6.10
   1  -2   5  110.92    6.77
   1   2   6  403.94   12.98
  -1  -2  -6  388.93   12.68
  -1  -2  -6  441.80   13.32
   1   2   6  406.93   11.53
   1  -2   6  431.41   13.78
   1  -2   6  424.25   12.49
  -1  -2  -6  439.60   11.44
  -1   2  -6  422.06   12.86
  -1  -2  -6  397.43   11.08
   1   2   7 1065.24   23.38
  -1  -2  -7 1031.94   22.31
  -1  -2  -7 1024.06   22.53
   1   2   7 1093.06   21.57
   1  -2   7 1006.98   20.75
  -1  -2  -7  984.97   20.05
  -1   2  -7 1039.33   22.51
   1  -2   7 1022.68   23.29
  -1  -2  -8    1.14    1.99
   1   2   8    6.72    2.68
  -1  -2  -8    2.48    2.16
  -1  -2  -8    7.49    2.70
   1   2   8    6.09    2.52
   1   2   9  218.32   11.35
  -1  -2  -9  250.98   10.79
  -1  -2  -9  258.60   11.56
   1   2   9  253.45   10.70
  -1  -2  -9  256.16   10.55
  -1  -2 -10   35.90    4.71
   1   2  10   37.07    5.54
  -1  -2 -10   34.52    4.41
  -1  -2 -10   31.89    4.82
   1   2  10   37.75    4.94
  -1  -2 -11   10.13    3.30
   1   2  11   12.72    3.86
  -1  -2 -11   13.83    3.73
   1   2  11    5.87    3.07
  -1  -2 -12    1.76    3.05
   1   2  12   -0.86    3.68
  -1  -2 -12    1.46    3.14
   1   2  12   -5.21    3.85
  -1  -3  15   -3.30    5.30
  -1  -3  14    2.49    4.10
  -1   3  14    5.32    5.43
   1  -3 -14   -5.06    4.45
  -1  -3  14   -0.31    3.73
   1   3 -14    4.36    4.47
   1   3 -14   -0.48    3.99
  -1  -3  13    8.54    4.12
  -1   3  13   17.75    5.16
   1  -3 -13    5.89    4.02
   1  -3 -13   14.08    5.15
  -1  -3  13    1.64    3.77
  -1   3  13    8.95    4.07
   1   3 -13   10.03    4.49
   1   3 -13    7.55    4.76
   1  -3 -12  240.40   12.89
   1  -3 -12  224.30   12.96
  -1  -3  12  216.58   12.78
   1   3 -12  258.00   13.91
  -1   3  12  224.07   12.64
   1   3 -12  236.03   13.87
  -1   3  12  219.49   13.52
  -1  -3  12  220.71   13.25
  -1   3  11   69.83    8.01
   1  -3 -11   61.33    7.05
   1  -3 -11   71.76    7.41
  -1  -3  11   76.83    7.68
   1   3 -11   71.50    7.46
  -1   3  11   79.43    7.96
   1   3 -11   63.01    7.41
  -1  -3  11   69.64    7.43
  -1  -3  10   12.51    3.84
  -1   3  10    4.71    3.59
   1  -3 -10    8.64    3.77
   1  -3 -10    8.53    3.49
  -1  -3  10   16.71    4.07
  -1   3  10   12.05    4.27
   1   3 -10    9.67    3.32
   1   3 -10    8.85    3.98
  -1  -3   9    8.55    3.38
  -1   3   9    0.30    3.61
  -1  -3   9    6.36    2.93
   1  -3  -9    3.20    3.02
   1  -3  -9    9.40    3.23
  -1  -3   9   11.24    3.19
   1   3  -9    8.89    3.51
  -1   3   9    5.67    3.45
   1   3  -9    7.73    3.01
   1   3  -9    8.70    3.76
  -1  -3   8   27.38    4.57
  -1   3   8   15.63    4.39
   1  -3  -8   15.42    3.74
   1  -3  -8   30.56    4.79
  -1  -3   8   22.81    4.17
   1   3  -8   23.04    4.44
   1   3  -8   25.10    4.30
  -1   3   8   11.30    3.98
  -1  -3   8   19.36    3.58
   1   3  -8   22.75    4.00
  -1  -3   7   14.50    3.34
  -1   3   7   11.16    3.63
   1  -3  -7   11.59    3.32
   1  -3  -7    9.53    2.85
  -1  -3   7   13.24    3.46
  -1  -3   7   10.52    3.28
   1   3  -7   14.29    3.99
   1   3  -7   13.65    3.58
  -1   3   7   10.47    3.67
   1   3  -7   11.39    3.67
  -1  -3   6   39.39    5.15
   1  -3  -6   53.47    5.54
   1  -3  -6   51.72    5.33
   1  -3  -6   51.53    5.06
  -1  -3   6   47.48    5.11
  -1   3   6   45.13    4.81
   1   3  -6   53.74    5.99
  -1   3   6   55.36    5.48
   1   3  -6   51.31    5.65
  -1   3   6   58.81    6.25
  -1  -3   6   52.77    5.58
   1   3  -6   50.56    5.74
  -1   3   6   53.47    5.90
  -1  -3   5    0.12    2.25
  -1   3   5    2.65    3.01
   1  -3  -5    5.78    2.72
   1  -3  -5    5.25    2.66
  -1  -3   5   -0.76    2.35
  -1  -3   5   -5.21    2.80
   1   3  -5    0.25    2.55
   1   3  -5   -1.40    3.09
  -1   3   5   -1.08    3.13
   1  -3  -5    2.32    2.23
  -1   3   5    0.28    2.48
   1  -3  -5    1.34    2.41
   1   3  -5   -2.62    2.80
   1  -3  -4  109.98    7.52
  -1   3   4  102.16    7.06
   1   3  -4  104.42    7.32
   1  -3  -4  109.45    6.80
   1  -3  -4  105.25    7.00
  -1  -3   4  101.77    6.98
  -1  -3   4  105.87    7.41
   1  -3  -4  103.25    6.95
   1   3  -4   97.01    7.27
  -1   3   4   96.89    6.88
  -1   3   4  117.53    8.15
   1   3  -4  101.46    7.16
  -1  -3   4   99.98    7.13
   1   3  -3  631.78   18.18
   1  -3  -3  629.55   17.51
   1  -3  -3  642.75   15.83
   1  -3  -3  651.65   17.38
  -1  -3   3  593.27   17.04
  -1  -3   3  577.34   17.44
   1  -3  -3  647.80   17.43
   1   3  -3  629.21   18.30
  -1   3   3  604.81   17.27
  -1   3   3  630.17   18.27
   1   3  -3  635.44   16.29
   1   3  -3  643.98   17.62
  -1   3   3  687.69   18.01
  -1  -3   3  621.00   17.28
   1  -3  -2  954.77   21.74
  -1  -3   2  930.26   20.21
   1  -3  -2  906.62   21.22
  -1  -3   2  968.97   22.03
  -1  -3   2  971.86   22.86
   1  -3  -2  954.23   22.20
   1   3  -2  962.35   22.95
  -1   3   2  965.75   22.35
   1   3  -2  961.34   22.73
  -1   3   2  937.30   22.30
   1   3  -2  948.84   20.99
   1   3  -2  943.27   21.21
  -1  -3   2  939.94   21.10
   1  -3  -1   62.79    5.36
  -1  -3   1   65.29    5.34
   1  -3  -1   62.50    5.60
  -1  -3   1   66.33    5.62
  -1  -3   1   60.18    5.81
   1  -3  -1   61.59    5.52
   1   3  -1   69.37    6.18
  -1   3   1   61.63    5.66
   1   3  -1   62.95    5.98
  -1   3   1   72.23    5.85
   1   3  -1   71.38    5.69
   1   3  -1   69.26    5.37
  -1  -3   1   63.34    5.08
  -1  -3   0    6.38    2.20
   1  -3   0    3.03    2.10
  -1  -3   0    9.11    2.88
   1  -3   0    3.39    2.32
   1   3   0    2.28    2.42
  -1  -3   0    2.17    2.61
  -1   3   0    4.67    2.57
  -1   3   0    6.78    2.84
   1   3   0    1.93    2.39
   1  -3   0    0.17    2.32
   1   3   0    3.27    2.07
  -1  -3   0    1.80    2.21
   1  -3   1    4.84    2.57
  -1  -3  -1    6.49    2.85
   1   3   1    1.16    2.30
   1  -3   1    5.07    2.84
  -1  -3  -1    4.39    2.43
   1  -3   1    4.41    2.30
  -1   3  -1    9.52    3.32
  -1  -3  -1    5.93    2.48
  -1   3  -1    7.54    2.93
   1   3   1    7.04    2.81
   1  -3   2  186.48    8.48
  -1  -3  -2  195.50    9.39
   1  -3   2  187.99    9.25
  -1  -3  -2  188.30    9.21
  -1  -3  -2  195.07    9.66
   1  -3   2  172.63    9.52
   1  -3   2  188.41    9.34
   1   3   2  181.55    9.45
  -1   3  -2  184.65    9.79
   1   3   2  159.49    9.09
   1  -3   3   20.83    3.71
   1  -3   3   19.65    3.02
  -1  -3  -3   22.87    3.92
  -1  -3  -3   19.78    3.71
   1   3   3   24.62    4.17
  -1   3  -3   19.24    3.99
   1   3   3   21.63    3.91
  -1  -3  -3   17.85    3.41
   1  -3   3   14.40    3.20
   1  -3   3   21.71    3.83
   1  -3   4    1.00    2.33
   1   3   4    5.04    2.48
  -1  -3  -4    9.41    3.14
  -1  -3  -4    5.71    2.51
   1  -3   4    5.58    3.12
  -1  -3  -4    6.23    2.63
  -1  -3  -4    4.36    2.50
   1   3   4    3.83    2.75
   1  -3   4   10.76    3.32
   1   3   4    3.20    2.87
  -1  -3  -5   54.20    5.63
  -1  -3  -5   61.59    5.50
  -1  -3  -5   61.23    5.48
  -1  -3  -5   51.21    5.11
   1   3   5   57.51    6.27
   1  -3   5   37.36    4.80
   1   3   5   60.70    5.91
   1  -3   5   62.36    6.11
   1   3   5   51.39    5.45
   1  -3   5   62.62    5.98
  -1  -3  -6  110.91    8.02
  -1  -3  -6  118.02    7.83
   1  -3   6  109.92    7.78
  -1  -3  -6  111.62    7.34
   1   3   6  116.78    8.62
   1   3   6  108.47    7.74
  -1  -3  -7  307.00   13.18
  -1  -3  -7  323.29   13.23
   1   3   7  281.25   13.57
   1   3   7  308.40   13.61
  -1  -3  -8  591.90   19.02
  -1  -3  -8  558.11   18.34
   1   3   8  539.52   18.76
   1   3   8  547.74   18.85
  -1  -3  -9  210.80   11.56
  -1  -3  -9  188.77   10.91
   1   3   9  192.70   11.46
   1   3   9  166.79   10.77
   1   3  10  -11.50    4.77
  -1  -3 -10   -3.11    3.97
  -1  -3 -10   -1.96    3.41
   1   3  10  -15.15    5.35
   1   3  11    6.45    4.00
  -1  -3 -11   12.90    4.61
  -1  -3 -11    7.81    3.83
   1   3  11   13.45    5.11
   1   3  12    1.91    4.41
  -1  -3 -12    1.25    3.91
   1   3  12   10.00    5.07
  -1   4  11    4.77    5.24
   1  -4 -11    1.44    4.33
  -1  -4  10   -1.17    4.80
  -1   4  10   -2.25    4.80
   1  -4 -10   -6.74    4.79
   1   4 -10   -2.84    4.14
  -1   4  10   -0.06    4.74
   1  -4 -10   -1.69    4.63
  -1  -4   9   -3.31    4.30
  -1   4   9    1.53    4.03
   1  -4  -9   -2.57    4.04
   1  -4  -9   -2.46    4.17
   1   4  -9    7.33    4.37
  -1  -4   9    1.97    3.68
  -1   4   9   -8.70    5.11
   1   4  -9    0.61    3.90
  -1  -4   8   -9.90    4.54
   1  -4  -8    3.33    3.95
  -1   4   8   -5.15    4.94
  -1  -4   8    1.44    3.41
   1   4  -8   -7.07    4.66
  -1  -4   8    7.48    4.54
   1   4  -8   -0.75    4.29
   1   4  -8   -4.01    4.33
  -1  -4   7    9.90    4.25
   1  -4  -7   13.14    4.75
   1   4  -7    5.84    3.78
  -1  -4   7   11.17    4.26
  -1  -4   7    8.32    4.05
   1   4  -7    4.46    4.03
  -1   4   7    8.23    4.99
   1   4  -7   18.16    4.67
  -1  -4   6   -5.65    4.04
   1  -4  -6    4.84    3.88
   1   4  -6   -3.37    4.59
  -1  -4   6    3.08    3.37
   1   4  -6    4.45    3.71
  -1   4   6    2.96    4.42
  -1  -4   6   -7.37    4.39
   1   4  -6   -3.86    3.77
   1  -4  -5   38.25    5.60
  -1  -4   5   25.12    4.96
   1  -4  -5   34.25    5.52
  -1  -4   5   31.60    5.26
  -1   4   5   29.83    5.74
  -1  -4   5   27.00    5.07
   1  -4  -5   34.22    5.39
  -1   4   5   31.44    5.13
   1   4  -5   34.47    5.98
  -1   4   5   34.80    6.20
   1   4  -5   35.32    5.69
   1   4  -5   32.08    5.35
  -1  -4   4    0.08    3.30
   1  -4  -4   -0.79    3.42
  -1   4   4    1.07    3.52
  -1  -4   4   -0.18    3.33
  -1  -4   4    2.32    2.98
   1  -4  -4    2.15    3.32
   1   4  -4    0.02    3.67
  -1   4   4    4.29    3.59
   1   4  -4    0.54    3.46
  -1   4   4    7.68    4.51
   1  -4  -4    3.73    3.32
   1   4  -4   -2.51    3.64
   1  -4  -3   75.63    7.29
  -1   4   3   68.16    7.46
   1  -4  -3   81.92    7.71
  -1  -4   3   72.66    7.37
  -1  -4   3   76.48    7.68
   1  -4  -3   71.80    7.24
   1   4  -3   78.07    7.92
   1   4  -3   69.69    7.55
  -1   4   3   82.12    7.77
   1   4  -3   84.49    7.43
  -1  -4   3   77.27    7.29
   1  -4  -2   58.47    6.46
   1  -4  -2   54.51    6.39
  -1  -4   2   58.82    6.80
   1  -4  -2   54.61    6.46
  -1  -4   2   55.23    6.59
   1   4  -2   48.11    6.54
  -1   4   2   57.08    7.00
   1   4  -2   62.04    7.45
   1  -4  -1   11.28    3.97
  -1  -4   1   10.39    3.20
   1  -4  -1   11.15    4.05
  -1  -4   1    5.46    3.58
  -1  -4   1    8.58    3.75
   1  -4  -1   13.96    4.19
   1   4  -1    4.06    3.46
  -1   4   1    2.66    3.64
   1   4  -1    7.55    3.61
  -1   4   1    1.84    3.41
   1   4  -1    9.75    4.19
   1  -4   0   48.83    6.20
  -1  -4   0   44.12    5.78
   1  -4   0   44.46    5.98
  -1  -4   0   46.42    5.89
  -1  -4   0   37.99    5.75
   1  -4   0   43.42    6.03
   1   4   0   43.57    6.28
  -1   4   0   46.55    6.60
   1   4   0   45.19    6.57
   1   4   0   37.73    6.55
   1  -4   1   -7.07    3.53
  -1  -4  -1   -1.67    3.43
  -1  -4  -1    0.22    3.25
   1  -4   1   -1.93    3.35
   1   4   1   -2.78    3.82
  -1   4  -1   -2.56    3.76
   1   4   1    1.86    3.45
  -1  -4  -1    2.70    3.26
   1   4   1   -0.54    3.45
   1  -4   1   -1.61    3.64
  -1  -4  -2    0.82    3.11
   1  -4   2    2.12    3.49
  -1  -4  -2   -4.82    3.53
   1  -4   2    3.42    3.01
   1   4   2   -5.64    4.56
   1   4   2   -2.25    3.62
   1   4   2   -2.71    3.83
  -1  -4  -2    3.37    2.99
  -1  -4  -3   17.88    4.82
  -1  -4  -3   20.75    4.36
  -1  -4  -3   18.83    4.59
   1  -4   3   24.97    6.79
   1   4   3   18.26    4.24
   1   4   3   23.26    4.97
   1   4   3    9.90    5.05
  -1  -4  -4    0.64    3.49
   1   4   4    3.55    4.02
  -1  -4  -4   -4.77    3.15
  -1  -4  -4    4.30    3.43
   1   4   4    2.04    3.65
   1   4   4    0.08    3.59
  -1  -4  -5   10.34    3.77
  -1  -4  -5   16.56    4.84
  -1  -4  -5   12.90    4.10
   1   4   5    4.82    3.77
   1   4   5   11.98    4.21
   1   4   5   14.16    5.13
  -1  -4  -6   66.72    7.34
   1   4   6   78.41    8.39
  -1  -4  -7  238.71   13.83
   1   4   7  224.71   13.76
  -1  -4  -8  198.68   12.71
   1   4   8  219.05   14.04
   1   4   9    6.53    4.66
  -1  -4  -9   12.05    4.83
   1   4   9   10.70    5.22
   1   4  10    1.12    4.98
  -1  -4 -10   -7.64    4.62
  -1  -5  -1    8.29    4.74
   1   5   1    1.16    4.73
  -1  -5  -2    3.51    4.86
  -2   0  19   -1.87    4.23
   2   0 -19   -3.24    5.30
  -2   0  18   -6.30    5.54
  -2   0  18   -2.44    4.12
   2   0 -18    4.63    4.56
   2   0 -18    6.04    4.17
   2   0 -18   -5.01    4.73
  -2   0  18    2.10    4.61
  -2   0  17   -1.79    5.11
  -2   0  17   -8.11    4.25
   2   0 -17    8.27    4.50
   2   0 -17    5.71    4.11
  -2   0  17  -12.99    4.98
   2   0 -17   -6.25    4.59
   2   0 -16   31.46    6.02
  -2   0  16   28.45    6.31
  -2   0  16   29.30    5.52
   2   0 -16   38.10    5.73
  -2   0  16   33.49    5.66
   2   0 -16   38.14    6.70
   2   0 -15   -2.74    3.55
   2   0 -15   -0.12    3.02
  -2   0  15   -3.86    3.96
  -2   0  15   -3.16    3.45
  -2   0  15    0.52    3.06
   2   0 -15    1.12    3.17
  -2   0  14 1849.11   38.16
  -2   0  14 1772.65   36.57
   2   0 -14 1860.18   36.87
   2   0 -14 1780.57   35.28
  -2   0  14 1779.70   36.24
   2   0 -14 1848.66   37.08
  -2   0  13   -1.82    3.44
  -2   0  13   -4.77    3.27
   2   0 -13   -0.30    2.72
  -2   0  13    0.09    3.14
   2   0 -13    0.75    2.90
   2   0 -13    5.41    2.88
  -2   0  12  126.06    8.83
  -2   0  12  126.43    8.36
   2   0 -12  137.48    7.45
   2   0 -12  143.82    8.78
  -2   0  12  137.66    8.34
   2   0 -12  123.24    8.09
   2   0 -12  145.68    8.46
  -2   0  12  129.97    7.83
  -2   0  11    1.04    1.91
   2   0 -11    0.92    2.11
   2   0 -11   -0.34    1.74
  -2   0  11    0.70    2.01
  -2   0  11   -4.70    2.82
  -2   0  11    0.48    3.07
   2   0 -11    0.13    2.21
   2   0 -11   -1.13    2.29
  -2   0  10  128.11    7.54
   2   0 -10  120.86    6.27
  -2   0  10  128.65    7.83
   2   0 -10  131.84    7.47
  -2   0  10  119.42    7.05
   2   0 -10  136.88    7.45
   2   0 -10  135.03    7.42
  -2   0  10  124.16    6.92
  -2   0   9   -0.39    1.24
   2   0  -9    2.13    1.84
  -2   0   9    5.20    2.15
   2   0  -9    0.55    1.59
  -2   0   9   -0.29    2.04
  -2   0   9    1.33    1.72
   2   0  -9   -2.23    1.81
  -2   0   9   -0.84    1.71
   2   0  -9   -0.68    1.86
  -2   0   8    8.09    2.01
   2   0  -8    5.07    1.58
  -2   0   8    3.81    2.01
  -2   0   8    4.42    1.84
  -2   0   8    5.82    1.79
   2   0  -8    4.65    1.67
   2   0  -8    5.95    2.18
   2   0  -8    4.46    1.64
  -2   0   8    5.38    1.35
  -2   0   7    2.14    1.80
   2   0  -7    0.81    1.29
  -2   0   7    0.58    1.42
  -2   0   7    0.79    1.46
  -2   0   7    0.61    1.78
   2   0  -7    2.14    1.46
   2   0  -7    2.41    1.57
   2   0  -7   -0.06    1.41
  -2   0   7    1.84    1.39
  -2   0   6  220.73    7.68
   2   0  -6  225.52    7.62
  -2   0   6  219.50    7.83
   2   0  -6  217.63    6.76
  -2   0   6  226.70    7.91
   2   0  -6  216.73    7.50
   2   0  -6  189.32    6.80
  -2   0   6  215.10    6.55
  -2   0   5    0.42    0.79
   2   0  -5    0.49    0.79
   2   0  -5   -0.25    0.77
  -2  -1  18    9.54    5.03
   2   1 -18   -0.49    3.75
  -2  -1  18    9.38    5.80
  -2  -1  18    4.82    4.55
   2  -1 -18    8.21    5.28
   2   1 -18    4.33    4.08
  -2   1  17   13.37    5.40
   2  -1 -17   17.95    4.49
  -2   1  17   14.25    5.55
   2   1 -17   29.45    5.97
   2  -1 -17   18.85    5.44
  -2  -1  17   23.49    5.80
  -2  -1  17   15.42    5.47
   2   1 -17   13.09    4.55
   2  -1 -17   18.46    5.26
  -2   1  17   13.75    4.86
   2   1 -17   14.76    4.34
  -2  -1  17   14.32    4.68
  -2   1  16  710.49   24.95
  -2  -1  16  639.13   23.00
   2  -1 -16  664.65   22.08
  -2   1  16  723.87   24.41
  -2  -1  16  693.08   22.58
  -2  -1  16  692.74   23.74
   2  -1 -16  754.28   24.78
   2   1 -16  633.32   22.29
   2  -1 -16  720.43   23.93
   2   1 -16  729.74   23.49
   2   1 -16  719.99   23.79
  -2   1  16  647.28   23.14
   2  -1 -15   -2.68    3.75
  -2   1  15    6.26    4.27
   2   1 -15    2.58    3.44
   2  -1 -15    1.36    3.05
  -2  -1  15   -2.49    4.04
  -2   1  15   -2.31    4.06
  -2  -1  15   -2.06    3.73
   2   1 -15   -5.94    4.11
  -2   1  15   -5.38    4.11
  -2  -1  15   -3.16    3.19
   2  -1 -15    2.01    3.35
   2   1 -15    2.86    3.23
  -2   1  14    6.88    4.45
   2   1 -14   13.78    3.69
   2  -1 -14   12.00    4.23
  -2   1  14   10.43    4.49
  -2  -1  14   15.87    4.38
  -2  -1  14    5.81    3.51
  -2   1  14   15.90    4.45
   2  -1 -14    9.23    3.91
   2   1 -14    7.34    3.28
  -2  -1  14    7.17    3.47
   2  -1 -14    4.43    3.37
   2   1 -14   12.27    4.11
  -2   1  13   -3.64    3.29
   2  -1 -13   -0.44    2.77
  -2   1  13   -0.41    3.85
  -2  -1  13    2.20    3.16
  -2  -1  13   -1.80    3.19
   2  -1 -13    0.49    2.87
  -2   1  13    0.01    2.72
  -2  -1  13    5.71    2.97
   2   1 -13    1.05    2.87
   2   1 -13   -1.30    2.63
   2  -1 -13   -0.27    2.86
   2   1 -13    1.01    2.77
  -2  -1  12    4.62    2.53
  -2   1  12    8.31    3.55
   2  -1 -12    8.82    3.30
   2  -1 -12    4.75    2.87
  -2   1  12    2.90    3.41
  -2  -1  12    1.80    2.98
  -2  -1  12    3.05    2.44
   2   1 -12    6.09    2.87
  -2   1  12    4.87    2.79
  -2  -1  12    5.29    2.60
   2   1 -12   10.84    3.65
   2   1 -12    1.26    2.34
   2  -1 -12    4.97    2.83
   2   1 -12    4.54    2.95
  -2  -1  11   24.82    3.61
  -2   1  11   25.38    4.45
   2  -1 -11   28.77    4.30
   2  -1 -11   27.94    4.01
  -2   1  11   27.71    4.89
  -2  -1  11   22.62    3.78
   2   1 -11   23.80    3.56
  -2   1  11   25.71    3.58
  -2  -1  11   23.18    3.87
  -2   1  11   26.73    4.12
  -2  -1  11   22.56    3.67
   2  -1 -11   24.51    3.44
   2   1 -11   21.26    3.76
   2   1 -11   31.18    4.12
   2  -1 -11   29.52    4.40
   2   1 -11   23.42    3.74
  -2   1  10   78.22    6.27
  -2   1  10   77.05    6.41
  -2  -1  10   92.93    6.52
   2  -1 -10   90.76    6.33
  -2  -1  10   83.11    5.83
   2  -1 -10   91.72    6.53
   2   1 -10   86.96    5.91
  -2   1  10   86.32    5.58
  -2  -1  10   85.39    6.24
   2  -1 -10   83.40    6.17
   2   1 -10   83.76    5.89
   2  -1 -10   86.00    5.45
   2   1 -10   84.21    6.21
   2   1 -10   83.17    5.79
  -2  -1  10   82.57    5.74
  -2   1  10   75.23    6.19
   2  -1  -9   76.28    4.71
  -2   1   9   78.61    5.90
  -2   1   9   81.53    6.38
  -2  -1   9   77.32    5.40
   2  -1  -9   75.91    5.49
  -2  -1   9   72.86    5.48
   2  -1  -9   84.52    5.83
   2   1  -9   72.08    5.02
  -2   1   9   75.39    5.03
  -2  -1   9   75.37    5.56
   2  -1  -9   84.03    5.92
   2   1  -9   76.58    5.37
   2  -1  -9   76.94    4.87
   2   1  -9   74.56    5.56
  -2   1   9   66.43    4.74
   2   1  -9   72.82    5.07
  -2  -1   9   74.54    5.29
  -2   1   9   65.45    5.68
   2  -1  -8  119.91    5.77
  -2   1   8  122.72    6.83
  -2  -1   8  116.56    6.06
  -2   1   8  122.84    7.17
  -2  -1   8  122.45    6.52
   2  -1  -8  119.64    6.42
   2  -1  -8  121.77    6.54
   2   1  -8  115.90    6.12
  -2   1   8  119.72    5.91
  -2  -1   8  121.30    6.65
   2  -1  -8  115.64    6.55
   2   1  -8  113.62    5.97
   2   1  -8  110.77    6.50
  -2   1   8  109.62    5.71
   2   1  -8  109.36    6.14
  -2  -1   8  122.82    6.46
  -2   1   8  117.37    6.71
   2  -1  -7  419.53   11.01
  -2   1   7  449.99   12.67
  -2  -1   7  438.01   11.25
   2  -1  -7  446.75   12.42
  -2   1   7  457.42   13.00
  -2  -1   7  449.57   11.95
   2  -1  -7  445.19   12.34
   2   1  -7  438.89   11.31
  -2   1   7  467.76   11.32
  -2  -1   7  427.97   12.46
  -2  -1   7  434.00   10.03
   2  -1  -7  457.55   12.34
   2   1  -7  455.43   11.71
   2   1  -7  431.34   12.62
   2   1  -7  433.72   12.10
  -2  -1   7  439.59   12.14
  -2   1   7  450.33   13.15
   2  -1  -6 2767.84   36.76
  -2  -1   6 2825.20   35.84
   2  -1  -6 2705.12   37.72
   2   1  -6 2775.68   35.88
  -2   1   6 2725.50   37.91
  -2  -1   6 2860.51   36.61
   2  -1  -6 2900.83   38.83
  -2   1   6 2831.52   35.47
  -2  -1   6 2876.07   38.19
  -2  -1   6 2800.93   35.06
   2  -1  -6 2788.47   37.34
   2   1  -6 2799.94   36.05
   2   1  -6 2809.69   37.89
   2   1  -6 2703.71   37.36
  -2  -1   6 2734.81   37.54
  -2   1   6 2717.76   39.16
   2  -1  -5  977.84   17.73
   2  -1  -5  998.13   18.04
  -2   1   5  994.61   18.27
  -2  -1   5  993.83   16.38
   2   1  -5  977.97   16.47
   2  -1  -5 1001.69   18.73
  -2  -1   5 1038.13   18.70
  -2  -1   5  971.84   16.99
   2   1  -5  976.55   17.86
   2   1  -5  989.70   18.01
  -2  -1   5  969.75   18.21
  -2   1   5 1058.65   19.74
  -2  -1   4  128.29    5.45
  -2  -1   4  133.41    5.55
   2   1  -4  134.15    5.53
   2   1  -4  123.15    5.47
  -2  -1   4  128.57    5.60
   2   1  -3  493.23   10.81
  -2   2  17   11.73    5.79
   2  -2 -17   -4.14    4.21
   2  -2 -17    6.22    4.66
  -2   2  17    1.06    5.02
   2  -2 -16   11.74    4.86
  -2   2  16   21.53    5.98
  -2   2  16   23.18    5.92
   2  -2 -16   23.68    5.72
  -2  -2  16   17.03    4.58
   2   2 -16   19.26    5.97
   2  -2 -16   19.51    5.47
  -2   2  16    7.47    3.78
  -2  -2  15   58.08    7.51
  -2   2  15   65.49    8.37
   2  -2 -15   66.85    7.84
   2  -2 -15   66.07    7.90
  -2   2  15   68.43    8.24
  -2  -2  15   60.21    7.21
   2   2 -15   75.09    8.52
  -2   2  15   65.47    7.58
   2   2 -15   65.51    7.52
   2  -2 -15   55.31    7.47
  -2   2  14  448.69   18.94
   2  -2 -14  451.68   18.27
  -2   2  14  429.03   17.25
   2  -2 -14  412.62   17.09
  -2  -2  14  425.09   17.80
   2  -2 -14  468.49   18.42
   2   2 -14  410.68   17.60
   2   2 -14  455.38   17.81
  -2   2  14  434.08   18.61
  -2  -2  14  457.89   18.09
  -2  -2  13   50.10    6.19
  -2   2  13   48.87    6.57
  -2  -2  13   60.53    6.47
   2  -2 -13   51.93    6.61
  -2   2  13   55.28    7.36
  -2   2  13   57.77    6.50
   2  -2 -13   54.55    6.23
   2   2 -13   52.08    6.65
   2   2 -13   50.41    6.25
   2  -2 -13   61.63    6.85
  -2  -2  12    8.71    3.10
  -2   2  12    8.82    3.66
   2  -2 -12    9.57    4.13
  -2   2  12   17.94    4.92
  -2  -2  12    4.35    2.95
   2  -2 -12   10.87    3.65
  -2   2  12   11.09    3.29
   2   2 -12    7.62    4.10
   2   2 -12    5.40    3.20
   2  -2 -12    8.46    3.48
  -2  -2  11   22.19    4.13
  -2   2  11   30.11    4.98
   2  -2 -11   27.70    4.22
   2  -2 -11   31.18    4.86
  -2   2  11   18.93    4.45
   2  -2 -11   29.54    4.61
  -2  -2  11   25.67    4.28
  -2   2  11   30.35    4.41
  -2   2  11   26.44    4.19
   2   2 -11   26.59    4.72
   2  -2 -11   31.82    4.69
   2   2 -11   28.73    4.54
  -2  -2  10   19.71    3.76
  -2   2  10   22.43    4.30
   2  -2 -10   28.49    4.16
   2  -2 -10   18.79    3.43
   2  -2 -10   20.25    3.93
  -2   2  10   19.12    4.13
  -2  -2  10   15.14    3.30
  -2   2  10   19.87    3.66
  -2   2  10   19.15    3.70
   2   2 -10   14.90    3.43
   2  -2 -10   19.55    3.70
   2   2 -10   14.23    3.57
  -2  -2   9    9.80    3.04
  -2   2   9   10.33    3.64
   2  -2  -9    9.44    2.63
   2  -2  -9    9.99    3.08
   2  -2  -9   10.66    3.03
  -2   2   9   11.16    3.28
  -2  -2   9    6.79    2.64
  -2   2   9   13.13    3.04
  -2   2   9   11.75    2.87
   2   2  -9   10.59    2.96
   2  -2  -9   12.46    3.07
   2   2  -9   14.00    3.51
  -2  -2   8    5.00    2.17
   2  -2  -8    5.43    2.08
  -2   2   8    4.27    2.79
   2  -2  -8    3.25    1.99
   2  -2  -8   10.87    2.80
  -2  -2   8    3.74    2.30
  -2  -2   8    6.77    2.46
  -2   2   8    8.52    2.81
   2   2  -8    8.90    2.46
  -2  -2   8    2.43    1.89
  -2   2   8    8.32    2.80
   2  -2  -8    4.68    1.78
   2   2  -8    3.81    2.34
   2   2  -8    1.54    2.19
   2  -2  -7   71.03    5.35
  -2   2   7   67.66    5.01
   2  -2  -7   65.99    5.30
   2  -2  -7   62.45    4.90
  -2  -2   7   64.66    4.86
  -2  -2   7   68.39    5.24
  -2  -2   7   63.17    4.77
   2   2  -7   61.64    4.87
   2   2  -7   69.98    5.36
  -2   2   7   67.01    5.44
   2   2  -7   58.17    5.25
  -2   2   7   60.69    5.59
  -2  -2   7   62.68    5.38
  -2  -2   6   31.63    3.84
   2  -2  -6   30.33    3.66
  -2   2   6   36.89    3.76
   2  -2  -6   32.01    3.25
   2  -2  -6   33.08    3.78
  -2  -2   6   29.67    3.41
   2  -2  -6   35.04    3.37
  -2  -2   6   30.85    3.60
  -2  -2   6   31.68    3.71
   2   2  -6   35.74    3.83
   2   2  -6   34.31    3.83
  -2   2   6   31.66    3.97
   2   2  -6   27.38    3.80
  -2   2   6   39.43    4.64
   2  -2  -5 1263.92   23.78
  -2   2   5 1269.38   21.78
   2  -2  -5 1315.91   22.13
   2  -2  -5 1226.73   23.37
   2  -2  -5 1237.49   21.72
  -2  -2   5 1261.89   22.77
  -2  -2   5 1247.90   22.34
  -2  -2   5 1252.42   23.32
   2   2  -5 1252.24   23.61
   2   2  -5 1246.36   22.46
  -2   2   5 1257.20   24.27
   2   2  -5 1280.83   24.29
  -2   2   5 1276.36   25.52
  -2  -2   5 1263.02   24.18
   2  -2  -4 1644.08   27.66
   2  -2  -4 1549.32   24.79
  -2   2   4 1631.72   25.37
   2  -2  -4 1648.57   27.06
   2  -2  -4 1624.13   26.23
  -2  -2   4 1644.05   26.93
  -2  -2   4 1643.12   25.39
  -2  -2   4 1599.05   27.82
   2   2  -4 1628.53   27.59
   2   2  -4 1643.89   25.91
  -2   2   4 1633.02   28.19
   2   2  -4 1661.48   27.83
  -2  -2   4 1586.57   27.66
   2  -2  -3   -0.41    1.58
  -2  -2   3    0.01    1.51
  -2  -2   3    0.65    1.22
  -2  -2   3    1.46    1.45
   2   2  -3    0.84    1.60
   2   2  -3    0.00    1.67
  -2  -2   3    2.19    1.68
  -2  -2   2    1.72    1.84
  -2  -2   2    6.12    1.48
  -2  -2   2    2.08    1.42
   2   2  -2    3.03    1.71
   2   2  -2    4.15    1.83
  -2  -2   2    2.87    1.66
  -2  -2   1   79.07    4.89
  -2  -2   1   76.32    5.11
  -2  -2   1   79.79    3.93
  -2  -2   1   61.59    4.93
   2   2  -1   74.54    5.15
   2   2  -1   67.50    4.34
  -2  -2   1   75.48    4.78
  -2  -2   0   72.59    4.74
  -2  -2   0   79.17    5.15
  -2  -2   0   74.06    5.11
   2   2   0   70.78    5.01
  -2  -2   0   81.50    4.97
  -2  -2  -1    0.02    1.53
  -2  -2  -1   -1.69    1.57
  -2  -2  -1   -1.04    1.49
   2   2   1    1.17    1.59
  -2  -2  -1   -0.08    1.23
  -2  -2  -2    2.41    1.64
  -2  -2  -2    3.25    1.58
  -2  -2  -2    4.83    1.95
  -2  -2  -2    3.21    1.47
   2   2   3  527.01   13.70
  -2  -2  -3  589.12   15.23
  -2  -2  -3  543.00   14.26
  -2  -2  -4   48.81    4.54
  -2  -3  15    7.40    4.89
  -2  -3  14    7.87    4.44
  -2   3  14   -0.53    4.68
   2  -3 -14    4.44    4.49
  -2  -3  14    4.97    4.34
   2   3 -14    2.85    4.62
  -2  -3  13    1.20    3.53
  -2   3  13    4.45    4.23
   2  -3 -13   -4.17    3.55
   2  -3 -13    1.95    3.99
  -2  -3  13   -2.79    3.93
  -2   3  13    1.79    4.41
   2   3 -13   -2.80    4.33
   2   3 -13   10.26    4.71
  -2  -3  12   29.59    5.65
  -2   3  12   22.57    5.68
   2  -3 -12   30.26    5.77
   2  -3 -12   24.11    5.07
  -2  -3  12   24.12    5.29
  -2   3  12   22.72    4.96
   2   3 -12   25.90    5.09
   2   3 -12   28.80    5.98
  -2  -3  11    5.87    3.30
  -2   3  11    7.95    4.35
   2  -3 -11   10.00    3.99
   2  -3 -11    7.26    3.72
  -2  -3  11   -0.08    3.20
  -2   3  11    5.54    3.82
   2   3 -11    7.65    4.02
   2   3 -11    3.51    3.34
  -2  -3  10    1.10    3.03
  -2   3  10   -0.27    3.72
   2  -3 -10   -1.27    3.07
   2  -3 -10   -2.41    3.50
  -2  -3  10    2.31    2.94
  -2   3  10    0.84    3.29
   2   3 -10    3.51    2.91
   2   3 -10    1.48    3.41
  -2   3   9   42.02    6.13
   2  -3  -9   52.46    6.27
   2  -3  -9   50.69    5.79
  -2  -3   9   43.18    5.30
  -2  -3   9   49.16    5.35
   2   3  -9   40.67    5.46
  -2   3   9   49.48    6.26
   2   3  -9   44.46    5.47
   2   3  -9   41.40    5.90
  -2  -3   9   51.70    6.77
  -2  -3   8    1.95    2.93
  -2   3   8   -0.37    3.52
   2  -3  -8    1.26    2.66
   2  -3  -8    1.55    2.75
  -2  -3   8    4.57    3.25
  -2  -3   8    1.50    3.01
   2   3  -8    3.16    2.86
   2   3  -8   -1.51    2.84
  -2   3   8    1.67    3.46
   2   3  -8    6.12    3.58
   2  -3  -7  260.91   11.86
   2  -3  -7  258.56   11.59
  -2  -3   7  259.17   11.28
  -2  -3   7  243.64   11.84
   2   3  -7  249.46   11.90
   2   3  -7  246.22   11.42
  -2   3   7  245.26   12.03
   2   3  -7  269.75   12.60
  -2   3   7  259.12   12.94
  -2  -3   7  249.66   11.83
   2  -3  -6  159.24    9.29
   2  -3  -6  150.74    8.49
   2  -3  -6  153.14    8.33
  -2  -3   6  162.00    9.15
  -2  -3   6  128.05    8.62
   2   3  -6  147.03    9.01
   2   3  -6  166.86    9.50
  -2   3   6  156.35    9.56
   2   3  -6  158.15    9.47
  -2  -3   6  151.84    9.14
   2  -3  -5  295.64   12.19
   2  -3  -5  293.40   11.54
   2  -3  -5  307.85   11.75
  -2  -3   5  267.05   11.40
  -2  -3   5  300.81   12.50
   2   3  -5  302.96   12.82
  -2   3   5  295.79   13.04
   2   3  -5  317.39   12.85
  -2  -3   5  288.44   12.19
   2  -3  -4  101.19    7.22
   2  -3  -4  109.88    6.72
   2  -3  -4  113.12    7.24
  -2  -3   4  113.98    7.50
  -2  -3   4  101.24    7.59
   2   3  -4  112.79    7.78
  -2   3   4  101.95    7.39
   2   3  -4  100.12    7.28
  -2  -3   4  107.19    7.70
   2  -3  -3  204.30    9.97
   2  -3  -3  194.51    8.68
   2  -3  -3  199.57    9.70
  -2  -3   3  202.11    9.94
  -2  -3   3  186.00   10.24
   2   3  -3  201.69   10.43
   2   3  -3  222.11    9.74
   2   3  -3  222.38   10.35
  -2  -3   3  186.12    9.39
   2  -3  -2   98.73    6.99
  -2  -3   2  108.24    7.01
  -2  -3   2   98.00    6.93
  -2  -3   2  104.08    7.39
   2   3  -2  102.54    7.58
   2   3  -2  110.94    7.17
  -2  -3   2  106.50    7.00
  -2  -3   1    6.27    2.32
  -2  -3   1    8.81    2.82
  -2  -3   1    6.94    2.87
  -2  -3   1    7.09    3.07
   2   3  -1    3.93    2.81
   2   3  -1    6.63    2.76
  -2  -3   0   22.45    3.29
  -2  -3   0   20.64    3.48
  -2  -3   0   21.26    3.55
  -2  -3   0   21.29    3.72
   2   3   0   22.84    4.07
  -2  -3  -1    6.03    2.46
  -2  -3  -1    5.97    2.55
  -2  -3  -1    7.15    2.91
   2   3   1    8.46    3.07
  -2  -3  -2    6.44    2.93
  -2  -3  -2    5.46    3.21
  -2  -3  -2    9.11    3.07
   2   3   2    6.97    3.04
  -2  -3  -3   56.95    5.54
  -2  -3  -3   48.90    5.24
   2   3   4  358.18   13.01
  -2  -3  -4  378.50   14.21
  -2  -3  -4  370.91   13.64
   2   3   5 1184.47   26.55
  -2  -3  -5 1207.83   27.48
  -2  -3  -5 1202.15   26.50
   2   3   6  193.32   10.92
  -2  -3  -6  227.62   11.49
   2   3   7   42.94    5.80
   2  -4 -11    5.38    4.40
  -2  -4  10   -6.34    4.48
   2  -4 -10   -1.65    3.94
   2  -4 -10   -3.67    4.41
  -2   4  10    8.97    5.26
   2   4 -10    2.81    4.70
  -2  -4   9    5.87    4.45
   2  -4  -9    2.35    3.90
   2  -4  -9   -5.07    3.88
  -2  -4   9    2.99    3.49
   2   4  -9   -5.64    4.70
  -2   4   9   -0.92    4.72
   2   4  -9    5.77    4.57
  -2  -4   8   13.99    4.58
   2  -4  -8   19.77    5.55
  -2  -4   8    0.54    4.31
  -2  -4   8   10.20    4.50
   2   4  -8    8.94    4.33
   2   4  -8    9.26    4.40
  -2   4   8    9.24    5.09
   2   4  -8   14.76    4.67
  -2  -4   7   27.91    5.99
   2  -4  -7   26.51    5.62
  -2  -4   7   23.02    5.17
  -2  -4   7   30.35    5.49
   2   4  -7   29.98    5.84
   2   4  -7   28.34    5.31
  -2   4   7   28.72    6.23
   2   4  -7   29.96    5.92
   2  -4  -6  181.46   11.73
  -2  -4   6  201.60   11.92
  -2  -4   6  161.66   11.34
   2   4  -6  197.98   12.49
   2   4  -6  192.17   12.17
   2   4  -6  193.20   12.13
  -2  -4   6  196.75   12.02
   2  -4  -5   92.62    8.67
   2  -4  -5   89.83    7.89
  -2  -4   5  102.29    8.72
  -2  -4   5  103.51    9.17
   2   4  -5  111.54    9.60
   2   4  -5  104.71    9.21
   2   4  -5  102.78    8.67
  -2  -4   5  107.43    8.74
  -2  -4   4   12.58    4.17
  -2  -4   4   14.56    3.88
  -2  -4   4    9.47    3.92
   2   4  -4   18.36    5.00
   2   4  -4   24.31    5.29
   2   4  -4   16.87    4.93
  -2  -4   3   38.54    5.48
  -2  -4   3   37.34    5.89
  -2  -4   3   42.45    6.54
   2   4  -3   36.48    5.71
   2   4  -3   34.65    6.15
   2   4  -3   41.15    5.78
  -2  -4   2   11.39    4.19
  -2  -4   2    8.51    4.38
   2   4  -2    9.29    4.01
   2   4  -2    1.77    3.58
  -2  -4   1    4.85    3.27
  -2  -4   1   16.00    4.67
  -2  -4   1    4.31    3.52
   2   4  -1    7.21    3.90
   2   4  -1   10.35    4.62
   2   4  -1    6.02    4.15
  -2  -4   0   16.76    4.18
  -2  -4   0   12.95    4.53
  -2  -4   0    9.14    4.25
   2   4   0    2.62    3.44
   2   4   0    7.13    3.72
   2   4   0    2.43    4.16
  -2  -4  -1    5.15    3.30
  -2  -4  -1    7.34    3.47
  -2  -4  -1    0.16    2.91
   2   4   1    2.02    3.33
   2   4   1   11.85    4.75
   2   4   1    5.37    4.40
  -2  -4  -2   11.26    3.91
  -2  -4  -2   12.09    4.07
  -2  -4  -2    3.36    3.38
   2   4   2    7.91    3.89
   2   4   2    6.46    3.92
   2   4   2    4.80    4.09
  -2  -4  -3   29.86    5.87
  -2  -4  -3   26.92    5.12
  -2  -4  -3   28.17    5.55
   2   4   3   27.17    5.46
  -2  -4  -4  230.79   12.81
  -2  -4  -4  222.82   12.63
  -2  -4  -4  251.33   13.57
   2   4   4  227.27   13.14
  -2  -4  -5   63.02    7.53
  -2  -4  -5   49.56    6.75
   2   4   5   47.53    6.65
   2   4   5   52.37    7.00
  -2  -4  -6  177.12   11.71
   2   4   6  147.65   11.39
   2   5   1    2.71    6.36
  -3   0  19    5.19    4.99
  -3   0  18  433.22   20.52
  -3   0  18  421.78   19.92
  -3   0  18  408.41   19.24
   3   0 -18  382.15   18.39
   3   0 -18  393.50   18.64
   3   0 -18  374.33   17.91
  -3   0  17    1.84    4.77
  -3   0  17   -7.36    4.18
   3   0 -17    1.14    3.72
  -3   0  17   -6.22    4.28
   3   0 -17   -0.64    3.70
   3   0 -17    2.55    3.86
  -3   0  16   16.72    5.17
  -3   0  16    5.34    4.35
   3   0 -16    7.34    3.44
  -3   0  16   11.73    3.88
   3   0 -16    5.73    3.75
   3   0 -16   -0.40    3.59
  -3   0  15    1.93    3.86
   3   0 -15   -4.08    3.03
  -3   0  15    1.02    3.07
  -3   0  15    4.18    3.69
   3   0 -15   -1.03    2.77
   3   0 -15    1.21    3.37
   3   0 -14   33.76    5.05
  -3   0  14   27.93    5.50
  -3   0  14   27.07    4.70
  -3   0  14   27.05    5.22
   3   0 -14   28.09    4.54
   3   0 -14   27.51    5.16
   3   0 -13    6.85    3.18
  -3   0  13   -0.42    3.37
  -3   0  13   -1.60    3.00
  -3   0  13    0.66    2.94
   3   0 -13    0.52    2.47
   3   0 -13   -5.67    3.42
  -3   0  12  107.66    8.44
  -3   0  12  115.04    8.36
   3   0 -12  115.36    6.85
   3   0 -12  112.14    7.69
  -3   0  12  105.69    7.65
   3   0 -12  115.46    8.05
   3   0 -12  120.87    7.83
   3   0 -11    1.42    1.97
  -3   0  11   -1.37    2.74
  -3   0  11    3.01    2.29
  -3   0  11    1.78    2.42
   3   0 -11    1.48    2.18
   3   0 -11    2.84    2.51
   3   0 -11    2.38    2.19
  -3   0  10  172.84    9.10
  -3   0  10  170.03    9.10
   3   0 -10  151.81    8.06
   3   0 -10  164.96    7.42
  -3   0  10  157.67    8.47
   3   0 -10  171.64    8.44
   3   0 -10  165.70    8.33
   3   0  -9    0.48    1.53
  -3   0   9    2.04    1.84
  -3   0   9    0.62    1.72
   3   0  -9   -2.96    1.91
   3   0  -9    0.65    1.76
   3   0  -9    0.15    1.68
  -3   0   9   -1.56    1.77
  -3   0   8 1032.10   20.65
  -3   0   8  990.56   21.91
  -3  -1  18   20.56    6.56
   3   1 -18    7.27    4.46
   3   1 -18   13.68    5.21
  -3  -1  18   12.42    5.74
  -3   1  17   25.13    6.42
   3   1 -17   31.45    5.70
   3  -1 -17   57.47    7.86
  -3   1  17   38.35    8.31
  -3  -1  17   23.34    6.32
  -3  -1  17   24.68    5.69
   3   1 -17   28.21    6.13
  -3   1  17   40.79    7.07
   3  -1 -17   38.25    6.55
   3   1 -17   28.19    5.91
   3  -1 -17   57.16    8.38
  -3  -1  17   23.20    5.90
  -3   1  16  332.82   16.98
  -3  -1  16  332.44   16.66
   3  -1 -16  328.91   14.92
  -3   1  16  378.47   17.75
  -3  -1  16  325.85   15.74
   3  -1 -16  338.10   16.19
   3   1 -16  330.83   15.68
  -3  -1  16  330.33   16.55
   3  -1 -16  343.98   16.35
   3   1 -16  339.02   16.15
   3   1 -16  352.76   16.40
  -3   1  16  324.17   16.81
  -3   1  15   16.19    4.44
   3  -1 -15   22.92    4.56
  -3   1  15    9.46    4.68
  -3  -1  15   12.41    4.43
   3  -1 -15   13.96    4.30
  -3  -1  15   14.61    4.44
  -3   1  15   21.22    5.53
   3   1 -15   14.94    3.70
  -3  -1  15   17.72    4.65
   3   1 -15   17.72    4.99
   3  -1 -15   10.41    4.19
   3   1 -15   15.48    4.03
  -3   1  14   55.76    7.11
   3  -1 -14   61.47    6.32
  -3  -1  14   61.37    6.72
   3  -1 -14   52.89    6.37
   3   1 -14   53.51    6.03
  -3   1  14   58.33    7.14
  -3  -1  14   58.98    7.12
  -3  -1  14   57.96    6.70
   3   1 -14   59.81    6.45
  -3   1  14   58.39    7.04
   3   1 -14   52.86    6.34
   3  -1 -14   57.19    6.80
  -3   1  13   13.65    4.02
   3  -1 -13   16.12    3.98
   3  -1 -13   13.71    3.63
  -3   1  13    8.60    3.90
  -3  -1  13   14.79    7.73
  -3  -1  13    8.86    3.43
  -3   1  13    6.28    3.17
  -3  -1  13   13.90    3.65
   3   1 -13   15.97    3.79
   3  -1 -13   13.73    3.83
   3   1 -13    9.92    4.36
  -3  -1  12    5.54    2.71
  -3   1  12    3.32    3.29
   3  -1 -12    3.36    2.88
   3   1 -12   -1.74    2.47
   3  -1 -12   -1.47    2.55
  -3   1  12   -1.74    3.51
  -3  -1  12    4.76    3.31
  -3  -1  12    3.44    2.81
  -3   1  12   -0.72    2.87
  -3  -1  12    6.72    3.02
   3   1 -12    6.72    3.48
   3  -1 -12    2.19    2.87
   3   1 -12    3.47    2.94
   3   1 -12    0.98    2.16
  -3  -1  11   13.35    3.14
   3  -1 -11   18.07    3.61
  -3   1  11   18.46    4.49
   3   1 -11   16.11    3.14
   3  -1 -11   23.64    3.80
  -3   1  11   21.59    4.43
  -3  -1  11   18.90    4.05
  -3   1  11   24.12    3.76
  -3  -1  11   15.78    3.50
  -3   1  11   16.73    3.57
  -3  -1  11   21.27    4.03
   3   1 -11   22.52    4.06
   3  -1 -11   18.07    3.56
   3   1 -11   16.08    3.49
   3   1 -11   17.41    3.40
  -3   1  10    2.32    2.71
   3  -1 -10   -1.37    2.19
  -3   1  10    3.16    2.48
  -3   1  10    1.87    1.85
  -3  -1  10    0.92    2.11
  -3  -1  10    1.95    2.08
   3   1 -10   -1.07    2.22
   3  -1 -10   -0.11    2.01
   3   1 -10    1.67    1.97
   3   1 -10   -0.83    1.91
   3  -1 -10    0.00    2.01
   3   1 -10    1.86    2.01
  -3  -1  10   -0.70    1.95
   3  -1  -9  208.37    8.32
  -3   1   9  187.60    9.26
  -3  -1   9  228.27    9.52
   3  -1  -9  192.62    8.75
   3   1  -9  187.23    8.44
   3  -1  -9  200.02    8.91
  -3   1   9  168.33    7.64
  -3  -1   9  229.20   10.20
   3   1  -9  187.61    9.13
   3   1  -9  172.98    8.05
  -3  -1   9  233.66    9.78
  -3  -1   8   21.90    3.08
  -3  -1   8   17.44    3.10
   3   1  -8   23.34    3.32
   3   1  -8   20.73    2.82
  -3  -1   8   22.92    3.11
  -3  -1   7  388.60   11.84
   3   1  -7  435.14   12.02
  -3  -1   7  473.55   14.33
   3   1  -7  489.33   13.57
  -3  -1   7  389.64   12.33
   3  -2 -17   15.70    5.74
  -3   2  16    6.62    6.04
   3  -2 -16   -2.71    4.87
  -3  -2  16    6.65    4.49
   3   2 -16    1.68    3.82
  -3   2  16    1.20    4.61
   3  -2 -16    3.05    3.63
   3  -2 -16   -1.25    4.22
  -3  -2  15    1.63    3.77
  -3   2  15   12.80    5.81
   3  -2 -15   -0.24    3.78
  -3  -2  15    2.62    3.59
   3  -2 -15    4.84    3.90
  -3   2  15    7.91    5.05
   3   2 -15    1.97    3.55
   3  -2 -15    4.34    3.15
   3   2 -15    6.17    4.01
  -3  -2  14   42.54    6.31
  -3   2  14   44.79    6.96
   3  -2 -14   39.51    6.12
   3  -2 -14   46.36    6.42
  -3  -2  14   31.85    5.38
  -3   2  14   37.12    6.13
   3   2 -14   40.93    6.44
   3  -2 -14   31.70    4.82
   3   2 -14   40.13    6.01
  -3  -2  13   31.63    5.00
  -3   2  13   32.61    6.28
   3  -2 -13   34.74    5.31
   3  -2 -13   41.49    6.11
  -3  -2  13   34.10    5.37
  -3   2  13   40.10    6.37
   3   2 -13   35.40    5.59
   3   2 -13   38.39    5.73
  -3  -2  12   -1.67    3.03
  -3   2  12   -0.88    4.18
   3  -2 -12    2.80    3.46
   3  -2 -12    1.81    2.97
  -3  -2  12    1.61    2.73
  -3   2  12    5.32    3.46
   3   2 -12    5.50    3.21
   3   2 -12    2.06    2.80
  -3  -2  11   25.66    4.55
   3  -2 -11   22.39    4.16
   3  -2 -11   23.66    4.09
   3  -2 -11   25.14    5.06
  -3  -2  11   20.35    4.27
  -3   2  11   17.52    4.34
   3   2 -11   19.38    4.08
   3   2 -11   21.58    4.10
  -3  -2  10   11.79    3.46
   3  -2 -10   15.63    3.69
  -3   2  10   14.30    4.60
   3  -2 -10   17.74    3.78
   3  -2 -10   13.84    3.84
  -3  -2  10   10.99    3.20
  -3   2  10   12.90    3.77
   3   2 -10   14.52    3.65
   3   2 -10   16.89    4.00
   3  -2  -9  320.17   12.42
  -3   2   9  325.02   13.39
   3  -2  -9  322.83   13.32
   3  -2  -9  320.90   12.68
  -3  -2   9  321.17   12.69
   3   2  -9  338.34   13.02
   3   2  -9  356.23   13.30
  -3  -2   9  347.61   13.42
  -3  -2   8  335.03   12.51
  -3  -2   8  368.32   12.24
   3   2  -8  382.67   13.26
   3   2  -8  361.46   13.28
  -3  -2   8  366.21   13.52
  -3  -2   7  796.79   18.95
  -3  -2   7  835.19   18.91
   3   2  -7  766.94   19.22
  -3  -2   7  767.25   20.00
  -3  -2   6    6.86    2.08
  -3  -2   6    8.24    2.36
   3   2  -6    8.12    2.81
  -3  -2   6    4.04    1.95
  -3  -2   5  230.00    8.90
  -3  -2   5  248.55   10.32
   3   2  -5  231.96    9.68
  -3  -2   5  261.57   10.82
  -3  -2   4   58.37    4.87
  -3  -3  14    6.52    4.49
   3  -3 -14   -2.30    4.21
  -3  -3  14    4.91    4.40
   3   3 -14    4.95    4.66
   3   3 -14    5.08    4.39
  -3  -3  13   20.79    5.08
   3  -3 -13   20.91    5.92
  -3  -3  13   26.33    5.89
   3   3 -13   20.25    5.39
   3   3 -13   27.15    5.75
  -3  -3  12    3.82    4.23
   3  -3 -12    0.24    3.77
  -3  -3  12    7.17    3.72
   3   3 -12    4.29    3.83
   3   3 -12    1.23    3.99
  -3  -3  11    2.03    3.39
  -3  -3  11   10.51    4.37
   3   3 -11    7.70    3.50
   3   3 -11    8.22    4.30
  -3  -3  10    2.89    3.28
  -3  -3  10   -2.17    3.19
   3   3 -10    1.85    2.96
   3   3 -10    3.25    3.47
  -3  -3   9  179.62   10.81
   3   3  -9  181.94   10.49
   3   3  -9  160.78   10.89
  -3  -3   9  163.97   10.90
  -3  -3   8  247.88   12.00
   3   3  -8  258.52   12.80
  -3  -3   8  226.97   12.11
  -3  -3   7  306.13   13.14
  -3  -3   7  335.80   13.94
   3   3  -7  319.82   14.07
  -3  -3   7  292.29   14.04
  -3  -3   6   56.03    5.78
  -3  -3   6   54.59    6.07
   3   3  -6   51.98    5.64
  -3  -3   6   55.61    6.11
  -3  -3   5   40.53    5.35
  -3  -3   5   46.99    5.31
  -3  -3   5   38.23    5.31
   3   3  -5   47.77    5.76
  -3  -3   4   13.34    3.83
  -3  -3   4   13.51    3.35
  -3  -3   4    8.87    3.16
   3   3  -4   10.56    3.28
  -3  -3   3    2.13    2.83
  -3  -3   3    2.79    2.68
  -3  -3   3   -0.45    2.51
  -3  -3   2   -4.51    3.17
  -3  -3   2    3.24    3.55
  -3  -3   2   -2.93    2.50
  -3  -3   1    0.12    2.75
  -3  -3   1   -0.76    2.37
  -3  -4  10    5.44    3.90
   3   4 -10    2.16    4.38
  -3  -4   9   64.13    7.84
   3   4  -9   59.74    7.82
  -3  -4   9   79.65    8.88
  -3  -4   8   39.13    6.65
  -3  -4   8   29.27    5.65
  -3  -4   8   38.43    6.33
   3   4  -8   32.68    5.99
   3   4  -8   33.38    6.68
  -3  -4   7  359.86   16.49
  -3  -4   7  365.27   17.60
   3   4  -7  397.85   17.75
   3   4  -7  390.84   17.83
  -3  -4   7  345.75   17.34
  -3  -4   6  206.90   12.48
  -3  -4   6  209.00   13.35
   3   4  -6  220.40   13.68
   3   4  -6  190.60   12.28
  -3  -4   6  216.27   13.03
  -3  -4   5   -0.36    3.70
  -3  -4   5    5.09    3.95
  -3  -4   5   -4.39    3.94
   3   4  -5    1.49    4.50
  -3  -4   4   92.13    8.56
  -3  -4   4   81.34    8.49
  -3  -4   4   79.13    7.78
  -3  -4   3    1.95    2.95
  -3  -4   3    2.19    3.67
  -3  -4   3    3.56    3.43
  -3  -4   2   -1.00    3.21
  -3  -4   2   -0.61    3.24
  -3  -4   1    8.35    3.68
  -3  -4   1   15.50    4.43
   3   4  -1   14.93    4.72
   4   0 -18   58.17    7.44
  -4   0  18   64.41    8.48
   4   0 -17   -1.52    3.40
  -4   0  17   -3.50    3.74
  -4   0  17   -1.14    4.19
   4   0 -16   51.19    5.98
  -4   0  16   37.78    5.65
  -4   0  16   45.58    6.49
   4   0 -15    0.91    2.50
  -4   0  15    5.67    3.24
  -4   0  15   -1.24    3.41
   4   0 -14   21.10    4.32
  -4   0  14   21.15    4.52
  -4   0  14   16.13    4.25
   4   1 -18    0.35    4.11
  -4  -1  18    4.42    5.16
  -4  -1  17    4.85    3.71
   4   1 -17   -2.64    3.44
  -4  -1  17    3.32    5.26
   4   1 -16    9.66    3.64
  -4  -1  16    4.45    4.22
  -4  -1  16    3.66    4.31
   4   1 -16    7.76    3.76
  -4  -1  15   -4.79    4.49
  -4  -1  15  -12.57    5.08
   4   1 -15    1.84    3.75
   4   1 -14   16.13    3.71
  -4  -1  14   22.60    5.15
  -4  -1  14   20.17    4.78
   4   1 -13   -3.01    3.15
  -4  -1  13    0.35    3.21
  -4  -1  13   -4.50    3.48
  -4  -1  12   18.95    4.43
  -4  -2  16   15.35    6.25
  -4  -2  15    2.97    3.58
  -4  -2  15   11.41    4.90
   4   2 -15    7.17    4.50
  -4  -2  14    1.82    3.60
  -4  -2  14    5.31    3.82
   4   2 -14    9.88    3.90
  -4  -2  13   15.95    4.70
  -4  -2  13   15.18    4.14
  -4  -2  12    3.54    3.53
  -4  -2  12    2.49    3.24
  -4  -2  11  161.79   10.13
  -4  -2  11  184.57   10.92
  -4  -3  14    3.05    4.61
  -4  -3  14    5.94    3.91
  -4  -3  13    3.09    3.92
  -4  -3  13   -0.34    3.30
  -4  -3  12   -1.72    3.99
  -4  -3  12    1.89    3.36
  -4  -3  11   42.20    6.29
   0   0   0    0.00    0.00


TITL dipropyl_ether_phase_alpha_2_80GPa in P2(1)/c
REM P2(1)/c (#14 in standard setting)
CELL 0.71073   9.292629   4.068620  15.185490  90.0000 100.3493  90.0000
ZERR    4.00   0.006562   0.000184   0.001036   0.0000   0.0251   0.0000
LATT  1
SYMM -x, y+1/2,-z+1/2
SFAC C H O
UNIT 24.00 56.00 4.00
TREF
HKLF 4
END
_computing_structure_solution     'SHELXT 2018/2 (Sheldrick, 2018)'
;
_shelx_hkl_checksum              75613
_olex2_submission_special_instructions 'No special instructions were received'
loop_
_space_group_symop_operation_xyz
'x, y, z'
'-x, y+1/2, -z+1/2'
'-x, -y, -z'
'x, -y-1/2, z-1/2'
loop_
_atom_site_label
_atom_site_type_symbol
_atom_site_fract_x
_atom_site_fract_y
_atom_site_fract_z
_atom_site_U_iso_or_equiv
_atom_site_adp_type
_atom_site_occupancy
_atom_site_site_symmetry_order
_atom_site_calc_flag
_atom_site_refinement_flags_posn
_atom_site_refinement_flags_adp
_atom_site_refinement_flags_occupancy
_atom_site_disorder_assembly
_atom_site_disorder_group
O1 O 0.4592(8) 0.8515(6) 0.13181(16) 0.048(5) Uani 1 1 d . . . . .
C1 C 0.3710(14) 0.7144(8) 0.0534(3) 0.057(7) Uani 1 1 d . . . . .
H11 H 0.375837 0.476428 0.056591 0.069 Uiso 1 1 calc R U . . .
H12 H 0.408763 0.783597 0.000841 0.069 Uiso 1 1 calc R U . . .
C2 C 0.2183(15) 0.8207(9) 0.0454(3) 0.059(8) Uani 1 1 d . . . . .
H22 H 0.215089 1.057762 0.051505 0.070 Uiso 1 1 calc R U . . .
H21 H 0.176415 0.723991 0.093491 0.070 Uiso 1 1 calc R U . . .
C3 C 0.1275(10) 0.7202(6) -0.04411(19) 0.061(6) Uani 1 1 d . . . . .
H33 H 0.030515 0.808317 -0.049194 0.091 Uiso 1 1 calc R U . . .
H31 H 0.122554 0.484845 -0.047821 0.091 Uiso 1 1 calc R U . . .
H32 H 0.172152 0.804195 -0.091816 0.091 Uiso 1 1 calc R U . . .
C4 C 0.6028(12) 0.7222(8) 0.1489(2) 0.049(7) Uani 1 1 d . . . . .
H41 H 0.654202 0.788314 0.101489 0.059 Uiso 1 1 calc R U . . .
H42 H 0.598606 0.484045 0.149522 0.059 Uiso 1 1 calc R U . . .
C5 C 0.6839(15) 0.8434(9) 0.2368(3) 0.047(9) Uani 1 1 d . . . . .
H52 H 0.637162 0.759927 0.284476 0.056 Uiso 1 1 calc R U . . .
H51 H 0.679331 1.081472 0.238059 0.056 Uiso 1 1 calc R U . . .
C6 C 0.8413(16) 0.7369(10) 0.2531(3) 0.070(9) Uani 1 1 d . . . . .
H63 H 0.890833 0.827079 0.308776 0.104 Uiso 1 1 calc R U . . .
H61 H 0.887268 0.814327 0.205228 0.104 Uiso 1 1 calc R U . . .
H62 H 0.846320 0.501371 0.255674 0.104 Uiso 1 1 calc R U . . .
loop_
_atom_site_aniso_label
_atom_site_aniso_U_11
_atom_site_aniso_U_22
_atom_site_aniso_U_33
_atom_site_aniso_U_23
_atom_site_aniso_U_13
_atom_site_aniso_U_12
O1 0.070(16) 0.0361(14) 0.0318(16) -0.0059(9) -0.008(4) 0.001(2)
C1 0.11(2) 0.0296(18) 0.0280(19) -0.0011(13) 0.010(6) -0.004(3)
C2 0.11(3) 0.035(2) 0.035(2) -0.0029(14) 0.012(6) 0.001(3)
C3 0.109(19) 0.0418(16) 0.0286(18) -0.0006(10) 0.002(5) -0.006(3)
C4 0.08(2) 0.0324(18) 0.028(2) 0.0039(13) 0.001(6) 0.006(4)
C5 0.07(3) 0.034(2) 0.033(2) 0.0017(13) 0.002(7) -0.002(3)
C6 0.13(3) 0.044(2) 0.030(2) 0.0046(15) 0.006(7) -0.002(4)
loop_
_atom_type_symbol
_atom_type_description
_atom_type_scat_dispersion_real
_atom_type_scat_dispersion_imag
_atom_type_scat_source
C C 0.0033 0.0016 'International Tables Vol C Tables 4.2.6.8 and 6.1.1.4'
H H 0.0000 0.0000 'International Tables Vol C Tables 4.2.6.8 and 6.1.1.4'
O O 0.0106 0.0060 'International Tables Vol C Tables 4.2.6.8 and 6.1.1.4'
loop_
_geom_angle_atom_site_label_1
_geom_angle_atom_site_label_2
_geom_angle_atom_site_label_3
_geom_angle
_geom_angle_site_symmetry_1
_geom_angle_site_symmetry_3
_geom_angle_publ_flag
C4 O1 C1 112.8(5) . . ?
O1 C1 H11 109.5 . . ?
O1 C1 H12 109.5 . . ?
O1 C1 C2 110.8(4) . . ?
H11 C1 H12 108.1 . . ?
C2 C1 H11 109.5 . . ?
C2 C1 H12 109.5 . . ?
C1 C2 H22 109.3 . . ?
C1 C2 H21 109.3 . . ?
C1 C2 C3 111.6(4) . . ?
H22 C2 H21 108.0 . . ?
C3 C2 H22 109.3 . . ?
C3 C2 H21 109.3 . . ?
C2 C3 H33 109.5 . . ?
C2 C3 H31 109.5 . . ?
C2 C3 H32 109.5 . . ?
H33 C3 H31 109.5 . . ?
H33 C3 H32 109.5 . . ?
H31 C3 H32 109.5 . . ?
O1 C4 H41 109.6 . . ?
O1 C4 H42 109.6 . . ?
O1 C4 C5 110.4(5) . . ?
H41 C4 H42 108.1 . . ?
C5 C4 H41 109.6 . . ?
C5 C4 H42 109.6 . . ?
C4 C5 H52 109.3 . . ?
C4 C5 H51 109.3 . . ?
C4 C5 C6 111.8(5) . . ?
H52 C5 H51 107.9 . . ?
C6 C5 H52 109.3 . . ?
C6 C5 H51 109.3 . . ?
C5 C6 H63 109.5 . . ?
C5 C6 H61 109.5 . . ?
C5 C6 H62 109.5 . . ?
H63 C6 H61 109.5 . . ?
H63 C6 H62 109.5 . . ?
H61 C6 H62 109.5 . . ?
loop_
_geom_bond_atom_site_label_1
_geom_bond_atom_site_label_2
_geom_bond_distance
_geom_bond_site_symmetry_2
_geom_bond_publ_flag
O1 C1 1.432(10) . ?
O1 C4 1.414(14) . ?
C1 H11 0.9700 . ?
C1 H12 0.9700 . ?
C1 C2 1.468(19) . ?
C2 H22 0.9700 . ?
C2 H21 0.9700 . ?
C2 C3 1.522(10) . ?
C3 H33 0.9600 . ?
C3 H31 0.9600 . ?
C3 H32 0.9600 . ?
C4 H41 0.9700 . ?
C4 H42 0.9700 . ?
C4 C5 1.495(10) . ?
C5 H52 0.9700 . ?
C5 H51 0.9700 . ?
C5 C6 1.50(2) . ?
C6 H63 0.9600 . ?
C6 H61 0.9600 . ?
C6 H62 0.9600 . ?
loop_
_geom_torsion_atom_site_label_1
_geom_torsion_atom_site_label_2
_geom_torsion_atom_site_label_3
_geom_torsion_atom_site_label_4
_geom_torsion
_geom_torsion_site_symmetry_1
_geom_torsion_site_symmetry_2
_geom_torsion_site_symmetry_3
_geom_torsion_site_symmetry_4
_geom_torsion_publ_flag
O1 C1 C2 C3 171.5(2) . . . . ?
O1 C4 C5 C6 -174.6(5) . . . . ?
C1 O1 C4 C5 -173.3(3) . . . . ?
C4 O1 C1 C2 172.1(4) . . . . ?
