#------------------------------------------------------------------------------
#$Date: 2024-03-04 21:58:49 +0200 (Mon, 04 Mar 2024) $
#$Revision: 290113 $
#$URL: file:///home/coder/svn-repositories/cod/cif/1/57/05/1570598.cif $
#------------------------------------------------------------------------------
#
# This file is available in the Crystallography Open Database (COD),
# http://www.crystallography.net/
#
# All data on this site have been placed in the public domain by the
# contributors.
#
data_1570598
loop_
_publ_author_name
'Lee, Justin L.'
'Biswas, Saborni'
'Ziller, Joseph W.'
'Bominaar, Emile L.'
'Hendrich, Michael P.'
'Borovik, A. S.'
_publ_section_title
;
 Accessing a synthetic Fe<sup>III</sup>Mn<sup>IV</sup> core to model
 biological heterobimetallic active sites.
;
_journal_issue                   8
_journal_name_full               'Chemical science'
_journal_page_first              2817
_journal_page_last               2826
_journal_paper_doi               10.1039/d3sc04900k
_journal_volume                  15
_journal_year                    2024
_chemical_formula_sum            'C53.5 H66 Cl3 F3 Fe Mn N7 O7 P3 S'
_chemical_formula_weight         1318.24
_chemical_name_systematic        '[(TMTACN)Fe(III)-(O)-Mn(III)poat]OTf'
_chemical_properties_physical    Air-sensitive,Moisture-sensitive
_space_group_crystal_system      triclinic
_space_group_IT_number           2
_space_group_name_Hall           '-P 1'
_space_group_name_H-M_alt        'P -1'
_atom_sites_solution_hydrogens   geom
_atom_sites_solution_primary     direct
_atom_sites_solution_secondary   difmap
_audit_creation_method           SHELXL-2014/7
_audit_update_record
;
2023-08-10 deposited with the CCDC.	2023-12-26 downloaded from the CCDC.
;
_cell_angle_alpha                70.9679(15)
_cell_angle_beta                 65.6681(15)
_cell_angle_gamma                82.9150(16)
_cell_formula_units_Z            2
_cell_length_a                   14.5521(14)
_cell_length_b                   15.0662(15)
_cell_length_c                   16.7358(16)
_cell_measurement_reflns_used    9970
_cell_measurement_temperature    133(2)
_cell_measurement_theta_max      27.12
_cell_measurement_theta_min      2.41
_cell_volume                     3160.3(5)
_computing_cell_refinement       'Bruker SAINT 8.34a, 2013'
_computing_data_collection       'Bruker APEX2 2014.11-0, 2014'
_computing_data_reduction        'Bruker SAINT 8.34a, 2013'
_computing_molecular_graphics    'Bruker SHELXTL'
_computing_publication_material  'Bruker SHELXTL'
_computing_structure_refinement  'SHELXL-2014/7 (Sheldrick, 2014)'
_computing_structure_solution    'Bruker SHELXTL 2014/4'
_diffrn_ambient_temperature      133(2)
_diffrn_measured_fraction_theta_full 1.000
_diffrn_measured_fraction_theta_max 0.999
_diffrn_measurement_device_type  'Bruker SMART APEX II CCD'
_diffrn_measurement_method       '\f and \w scans'
_diffrn_radiation_type           MoK\a
_diffrn_radiation_wavelength     0.71073
_diffrn_reflns_av_R_equivalents  0.0337
_diffrn_reflns_av_unetI/netI     0.0395
_diffrn_reflns_Laue_measured_fraction_full 1.000
_diffrn_reflns_Laue_measured_fraction_max 0.999
_diffrn_reflns_limit_h_max       18
_diffrn_reflns_limit_h_min       -18
_diffrn_reflns_limit_k_max       19
_diffrn_reflns_limit_k_min       -19
_diffrn_reflns_limit_l_max       21
_diffrn_reflns_limit_l_min       -21
_diffrn_reflns_number            40934
_diffrn_reflns_point_group_measured_fraction_full 1.000
_diffrn_reflns_point_group_measured_fraction_max 0.999
_diffrn_reflns_theta_full        25.242
_diffrn_reflns_theta_max         27.103
_diffrn_reflns_theta_min         1.430
_diffrn_source                   'fine-focus sealed tube'
_exptl_absorpt_coefficient_mu    0.727
_exptl_absorpt_correction_T_max  0.7455
_exptl_absorpt_correction_T_min  0.6615
_exptl_absorpt_correction_type   multi-scan
_exptl_absorpt_process_details   'Bruker SADABS 2014/5'
_exptl_crystal_colour            purple
_exptl_crystal_density_diffrn    1.385
_exptl_crystal_density_meas      ?
_exptl_crystal_density_method    not_measured
_exptl_crystal_description       plate
_exptl_crystal_F_000             1364
_exptl_crystal_recrystallization_method
'Re-crystallisation from solvent: Pentane, methylene chloride'
_exptl_crystal_size_max          0.385
_exptl_crystal_size_mid          0.232
_exptl_crystal_size_min          0.078
_refine_diff_density_max         1.532
_refine_diff_density_min         -1.592
_refine_diff_density_rms         0.109
_refine_ls_extinction_method     none
_refine_ls_goodness_of_fit_ref   1.046
_refine_ls_hydrogen_treatment    constr
_refine_ls_matrix_type           full
_refine_ls_number_parameters     722
_refine_ls_number_reflns         13939
_refine_ls_number_restraints     27
_refine_ls_restrained_S_all      1.051
_refine_ls_R_factor_all          0.0967
_refine_ls_R_factor_gt           0.0731
_refine_ls_shift/su_max          0.000
_refine_ls_shift/su_mean         0.000
_refine_ls_structure_factor_coef Fsqd
_refine_ls_weighting_details
'w=1/[\s^2^(Fo^2^)+(0.0927P)^2^+10.7964P] where P=(Fo^2^+2Fc^2^)/3'
_refine_ls_weighting_scheme      calc
_refine_ls_wR_factor_gt          0.1859
_refine_ls_wR_factor_ref         0.2047
_reflns_Friedel_coverage         0.000
_reflns_number_gt                10397
_reflns_number_total             13939
_reflns_threshold_expression     'I > 2\s(I)'
_cod_data_source_file            d3sc04900k2.cif
_cod_data_source_block           asb631
_cod_depositor_comments
;
The following automatic conversions were performed:

data item '_exptl_crystal_density_meas' value 'not_measured' was
changed to '?' -- the value is perceived as not measured.

Automatic conversion script
Id: cif_fix_values 8170 2020-07-09 18:12:32Z antanas 

 Adding full bibliography for 1570597--1570599.cif.
;
_cod_original_formula_sum        'C53.50 H66 Cl3 F3 Fe Mn N7 O7 P3 S'
_cod_database_code               1570598
_shelx_shelxl_version_number     2014/7
_shelx_space_group_comment
; 
The symmetry employed for this shelxl refinement is uniquely defined 
by the following loop, which should always be used as a source of 
symmetry information in preference to the above space-group names. 
They are only intended as comments. 
;
_shelx_estimated_absorpt_t_min   0.767
_shelx_estimated_absorpt_t_max   0.946
_exptl_absorpt_special_details
; 
Reflections not merged 
41029 Corrected reflections written to file asb631s.hkl 
Estimated minimum and maximum transmission:  0.6615  0.7455 
The ratio (0.8873) of these values is more reliable than their absolute values 
Additional spherical absorption correction applied with mu*r =  0.2000 
Lambda/2 correction factor = 0.00150 
;
_shelx_res_file
; 
  
    asb631.res created by SHELXL-2014/7 
  
  
TITL asb631 in P-1 
CELL 0.71073  14.55210  15.06620  16.73580  70.9679  65.6681  82.9150 
ZERR    2.00   0.00140   0.00150   0.00160   0.0015   0.0015   0.0016 
LATT  1 
SFAC C H N O F P S CL MN FE 
UNIT 107 132 14 14 6 6 2 6 2 2 
TEMP -140.000 
SIZE 0.078 0.232 0.385 
  
SIMU 0.04 O8 F4 
SIMU 0.04 O9 F5 
SIMU 0.04 O10 F6 
SIMU 0.04 S2 C53 
  
SADI 0.02 S2 F4 S2 F5 S2 F6 
DFIX 1.82 0.02 S2 C53 
DFIX 1.45 0.02 S2 O8 S2 O9 S2 O10 
SADI 0.02 O8 O9 O9 O10 O10 O8 
DFIX 1.33 0.02 C53 F4 C53 F5 C53 F6 
SADI 0.02 F4 F5 F5 F6 F6 F4 
  
DFIX 1.70 0.01 C54 CL1 C54 CL2 
DFIX 1.70 0.01 C54B CL1B C54B CL2B 
DFIX 2.80 0.01 cl1b cl2b 
  
shel 100 0.78 
  
omit  0  -1   4 
omit  3   5   4 
omit -1   2   3 
omit  0   0   1 
omit  1   1   5 
  
L.S. 12 
FMAP 2 
PLAN 10 
  
ACTA 
  
ABIN 
WGHT    0.092700   10.796399 
FVAR       0.13504 
FE1  10    0.271129    0.079577    0.234099    11.00000    0.01499    0.02877 = 
         0.02385   -0.01401   -0.00341   -0.00477 
MN1   9    0.346053    0.218961    0.305106    11.00000    0.01446    0.03287 = 
         0.02975   -0.01932   -0.00202   -0.00647 
P1    6    0.131560    0.243402    0.460726    11.00000    0.01681    0.02469 = 
         0.03131   -0.01494   -0.00324   -0.00242 
P2    6    0.426189    0.003522    0.335179    11.00000    0.01665    0.03691 = 
         0.03430   -0.02065   -0.00929   -0.00016 
P3    6    0.432003    0.256076    0.086676    11.00000    0.02272    0.03808 = 
         0.02864   -0.01677    0.00210   -0.01207 
O1    4    0.252816    0.158574    0.300152    11.00000    0.01548    0.03232 = 
         0.02909   -0.01721   -0.00324   -0.00467 
O2    4    0.093073    0.145686    0.495188    11.00000    0.02167    0.02684 = 
         0.04170   -0.01712   -0.00426   -0.00212 
O3    4    0.368860   -0.006694    0.280249    11.00000    0.02080    0.03447 = 
         0.03520   -0.02092   -0.01085    0.00114 
O4    4    0.378609    0.162940    0.118054    11.00000    0.02333    0.03846 = 
         0.02782   -0.01714   -0.00014   -0.01079 
N1    3    0.451304    0.293373    0.312551    11.00000    0.01928    0.04297 = 
         0.03618   -0.02458   -0.00275   -0.00909 
N2    3    0.253952    0.258507    0.415222    11.00000    0.01721    0.03368 = 
         0.03250   -0.02130   -0.00311   -0.00450 
N3    3    0.448667    0.111694    0.317335    11.00000    0.01616    0.04099 = 
         0.03960   -0.02468   -0.00779   -0.00269 
N4    3    0.410818    0.298770    0.169222    11.00000    0.02355    0.03300 = 
         0.03248   -0.01700   -0.00139   -0.01171 
N5    3    0.145165   -0.021152    0.330765    11.00000    0.01582    0.03247 = 
         0.02587   -0.01174   -0.00525   -0.00595 
N6    3    0.280253   -0.013242    0.148798    11.00000    0.02053    0.03027 = 
         0.02750   -0.01459   -0.00673   -0.00314 
N7    3    0.151506    0.139277    0.182027    11.00000    0.02295    0.02928 = 
         0.03137   -0.01194   -0.00851   -0.00331 
C1    1    0.412028    0.301263    0.407258    11.00000    0.02567    0.05558 = 
         0.03804   -0.02961   -0.00269   -0.01560 
AFIX  23 
H1A   2    0.424935    0.242366    0.449407    11.00000   -1.20000 
H1B   2    0.447380    0.353257    0.407409    11.00000   -1.20000 
AFIX   0 
C2    1    0.301903    0.319284    0.439741    11.00000    0.02456    0.05019 = 
         0.04048   -0.02945   -0.00348   -0.01073 
AFIX  23 
H2A   2    0.272369    0.306617    0.507350    11.00000   -1.20000 
H2B   2    0.290013    0.385901    0.410926    11.00000   -1.20000 
AFIX   0 
C3    1    0.548272    0.241893    0.291159    11.00000    0.01813    0.05345 = 
         0.04833   -0.03046   -0.00924   -0.00573 
AFIX  23 
H3A   2    0.592047    0.263932    0.313292    11.00000   -1.20000 
H3B   2    0.583674    0.254875    0.223690    11.00000   -1.20000 
AFIX   0 
C4    1    0.529124    0.138521    0.336447    11.00000    0.02158    0.05165 = 
         0.05069   -0.02699   -0.01343   -0.00506 
AFIX  23 
H4A   2    0.591276    0.103627    0.311967    11.00000   -1.20000 
H4B   2    0.508588    0.123288    0.403700    11.00000   -1.20000 
AFIX   0 
C5    1    0.461024    0.387200    0.242804    11.00000    0.02263    0.04151 = 
         0.04658   -0.02597   -0.00034   -0.01311 
AFIX  23 
H5A   2    0.518327    0.422507    0.235788    11.00000   -1.20000 
H5B   2    0.398831    0.423405    0.263577    11.00000   -1.20000 
AFIX   0 
C6    1    0.478218    0.375370    0.151367    11.00000    0.02963    0.03637 = 
         0.04007   -0.01802   -0.00101   -0.01444 
AFIX  23 
H6A   2    0.463012    0.434528    0.111092    11.00000   -1.20000 
H6B   2    0.549500    0.359485    0.120125    11.00000   -1.20000 
AFIX   0 
C7    1    0.082725    0.316415    0.377057    11.00000    0.02540    0.02990 = 
         0.03901   -0.02027   -0.01137    0.00205 
C8    1    0.141319    0.384827    0.298001    11.00000    0.03298    0.03141 = 
         0.03405   -0.01874   -0.00915    0.00246 
AFIX  43 
H8A   2    0.208670    0.395985    0.287846    11.00000   -1.20000 
AFIX   0 
C9    1    0.102726    0.436840    0.233955    11.00000    0.05476    0.03554 = 
         0.03643   -0.01985   -0.01377    0.00967 
AFIX  43 
H9A   2    0.144060    0.482527    0.179838    11.00000   -1.20000 
AFIX   0 
C10   1    0.004837    0.422662    0.248330    11.00000    0.06701    0.03552 = 
         0.06409   -0.02490   -0.04371    0.01407 
AFIX  43 
H10A  2   -0.021610    0.458728    0.204501    11.00000   -1.20000 
AFIX   0 
C11   1   -0.054428    0.356187    0.326264    11.00000    0.04567    0.04247 = 
         0.08932   -0.02414   -0.04349    0.00393 
AFIX  43 
H11A  2   -0.122049    0.346586    0.336091    11.00000   -1.20000 
AFIX   0 
C12   1   -0.016979    0.302753    0.390968    11.00000    0.03229    0.03332 = 
         0.06188   -0.01583   -0.02037   -0.00288 
AFIX  43 
H12A  2   -0.058872    0.256968    0.444625    11.00000   -1.20000 
AFIX   0 
C13   1    0.082553    0.293438    0.555305    11.00000    0.01741    0.02595 = 
         0.02980   -0.01283   -0.00359    0.00094 
C14   1    0.065245    0.388843    0.544104    11.00000    0.03121    0.02667 = 
         0.03139   -0.01029   -0.00816    0.00114 
AFIX  43 
H14A  2    0.079185    0.431626    0.484303    11.00000   -1.20000 
AFIX   0 
C15   1    0.027711    0.421696    0.619945    11.00000    0.04129    0.02650 = 
         0.03606   -0.01359   -0.01212    0.00699 
AFIX  43 
H15A  2    0.015362    0.486764    0.612068    11.00000   -1.20000 
AFIX   0 
C16   1    0.008340    0.359882    0.706745    11.00000    0.03366    0.03848 = 
         0.03239   -0.01946   -0.00430    0.00447 
AFIX  43 
H16A  2   -0.017055    0.382550    0.758537    11.00000   -1.20000 
AFIX   0 
C17   1    0.025816    0.264614    0.718735    11.00000    0.02618    0.03506 = 
         0.02590   -0.00472   -0.00172   -0.00145 
AFIX  43 
H17A  2    0.012654    0.222165    0.778550    11.00000   -1.20000 
AFIX   0 
C18   1    0.062491    0.231795    0.643154    11.00000    0.01970    0.02329 = 
         0.03666   -0.01095   -0.00483   -0.00003 
AFIX  43 
H18A  2    0.074048    0.166587    0.651392    11.00000   -1.20000 
AFIX   0 
C19   1    0.541143   -0.063260    0.305464    11.00000    0.01911    0.03419 = 
         0.03859   -0.01724   -0.00995    0.00031 
C20   1    0.578145   -0.088002    0.224764    11.00000    0.02631    0.04306 = 
         0.04222   -0.02108   -0.01166    0.00282 
AFIX  43 
H20A  2    0.543012   -0.070167    0.185144    11.00000   -1.20000 
AFIX   0 
C21   1    0.666501   -0.138806    0.202139    11.00000    0.03604    0.05092 = 
         0.04825   -0.02589   -0.01020    0.01240 
AFIX  43 
H21A  2    0.691454   -0.156185    0.147260    11.00000   -1.20000 
AFIX   0 
C22   1    0.718345   -0.164210    0.259331    11.00000    0.03079    0.04361 = 
         0.05484   -0.01666   -0.01471    0.01367 
AFIX  43 
H22A  2    0.778685   -0.199120    0.243745    11.00000   -1.20000 
AFIX   0 
C23   1    0.682527   -0.138925    0.338716    11.00000    0.02881    0.05052 = 
         0.04460   -0.00950   -0.01647    0.00214 
AFIX  43 
H23A  2    0.718447   -0.156195    0.377668    11.00000   -1.20000 
AFIX   0 
C24   1    0.594605   -0.088558    0.362070    11.00000    0.02400    0.05234 = 
         0.03927   -0.01900   -0.01127    0.00297 
AFIX  43 
H24A  2    0.570451   -0.071082    0.416852    11.00000   -1.20000 
AFIX   0 
C25   1    0.355329   -0.053826    0.456232    11.00000    0.01830    0.04483 = 
         0.03756   -0.01906   -0.01273   -0.00205 
C26   1    0.351436   -0.151948    0.491798    11.00000    0.02268    0.04600 = 
         0.05212   -0.01965   -0.01795   -0.00236 
AFIX  43 
H26A  2    0.391665   -0.188932    0.453746    11.00000   -1.20000 
AFIX   0 
C27   1    0.289266   -0.194738    0.581937    11.00000    0.02410    0.05035 = 
         0.05800   -0.00787   -0.01918   -0.00640 
AFIX  43 
H27A  2    0.286205   -0.261293    0.605989    11.00000   -1.20000 
AFIX   0 
C28   1    0.230920   -0.140534    0.637812    11.00000    0.02041    0.07337 = 
         0.04194   -0.00763   -0.01053   -0.00927 
AFIX  43 
H28A  2    0.188025   -0.170410    0.699935    11.00000   -1.20000 
AFIX   0 
C29   1    0.234764   -0.043196    0.603673    11.00000    0.02249    0.06454 = 
         0.03927   -0.02020   -0.01047    0.00030 
AFIX  43 
H29A  2    0.195030   -0.006477    0.642194    11.00000   -1.20000 
AFIX   0 
C30   1    0.296862   -0.000326    0.513252    11.00000    0.01935    0.05000 = 
         0.03968   -0.02167   -0.01226   -0.00086 
AFIX  43 
H30A  2    0.299851    0.066256    0.489575    11.00000   -1.20000 
AFIX   0 
C31   1    0.393778    0.337185    0.000592    11.00000    0.03278    0.04461 = 
         0.03058   -0.00911    0.00044   -0.01706 
C32   1    0.407325    0.316694   -0.079271    11.00000    0.06091    0.05260 = 
         0.02779   -0.00812   -0.00202   -0.01764 
AFIX  43 
H32A  2    0.443770    0.262522   -0.091559    11.00000   -1.20000 
AFIX   0 
C33   1    0.368752    0.373682   -0.139468    11.00000    0.07742    0.06989 = 
         0.03159   -0.00475   -0.01222   -0.01807 
AFIX  43 
H33A  2    0.379522    0.359696   -0.194040    11.00000   -1.20000 
AFIX   0 
C34   1    0.313296    0.452793   -0.121511    11.00000    0.06552    0.06477 = 
         0.04692    0.01255   -0.01599   -0.02643 
AFIX  43 
H34A  2    0.285321    0.491650   -0.163128    11.00000   -1.20000 
AFIX   0 
C35   1    0.299387    0.474166   -0.043272    11.00000    0.04776    0.04875 = 
         0.05219   -0.00264   -0.00825   -0.01734 
AFIX  43 
H35A  2    0.262288    0.528080   -0.031022    11.00000   -1.20000 
AFIX   0 
C36   1    0.339514    0.417013    0.017078    11.00000    0.03309    0.04439 = 
         0.03989   -0.00954   -0.00293   -0.01491 
AFIX  43 
H36A  2    0.330114    0.432155    0.070757    11.00000   -1.20000 
AFIX   0 
C37   1    0.566257    0.239325    0.030614    11.00000    0.02512    0.05154 = 
         0.03717   -0.02833    0.00394   -0.01706 
C38   1    0.608687    0.163969    0.076770    11.00000    0.02736    0.06758 = 
         0.04329   -0.03561   -0.00553   -0.00352 
AFIX  43 
H38A  2    0.566377    0.121840    0.133344    11.00000   -1.20000 
AFIX   0 
C39   1    0.712098    0.148672    0.041966    11.00000    0.02740    0.09266 = 
         0.05801   -0.05168   -0.00928   -0.00127 
AFIX  43 
H39A  2    0.739993    0.096798    0.074768    11.00000   -1.20000 
AFIX   0 
C40   1    0.773489    0.208886   -0.039928    11.00000    0.02497    0.10053 = 
         0.07176   -0.06246   -0.00312   -0.00744 
AFIX  43 
H40A  2    0.843958    0.197960   -0.064277    11.00000   -1.20000 
AFIX   0 
C41   1    0.733871    0.285035   -0.087160    11.00000    0.03565    0.09029 = 
         0.05839   -0.04909    0.02276   -0.03516 
AFIX  43 
H41A  2    0.777183    0.326608   -0.143586    11.00000   -1.20000 
AFIX   0 
C42   1    0.628854    0.301711   -0.052047    11.00000    0.03659    0.05608 = 
         0.04874   -0.02800    0.00713   -0.01923 
AFIX  43 
H42A  2    0.601381    0.354530   -0.084222    11.00000   -1.20000 
AFIX   0 
C43   1    0.174946   -0.110471    0.305661    11.00000    0.06004    0.04077 = 
         0.04084   -0.02358    0.00351   -0.02406 
AFIX  23 
H43A  2    0.226390   -0.141934    0.329530    11.00000   -1.20000 
H43B  2    0.115205   -0.152741    0.336568    11.00000   -1.20000 
AFIX   0 
C44   1    0.214868   -0.097472    0.207699    11.00000    0.06183    0.03077 = 
         0.04155   -0.01625    0.00082   -0.01091 
AFIX  23 
H44A  2    0.157619   -0.093491    0.189270    11.00000   -1.20000 
H44B  2    0.254054   -0.153676    0.195685    11.00000   -1.20000 
AFIX   0 
C45   1    0.242960    0.045258    0.078740    11.00000    0.05931    0.06956 = 
         0.03538   -0.03189   -0.02698    0.01958 
AFIX  23 
H45A  2    0.298067    0.088427    0.029462    11.00000   -1.20000 
H45B  2    0.227127    0.003702    0.050759    11.00000   -1.20000 
AFIX   0 
C46   1    0.155229    0.100227    0.111390    11.00000    0.08466    0.05461 = 
         0.06744   -0.04045   -0.05797    0.02455 
AFIX  23 
H46A  2    0.094435    0.060351    0.136540    11.00000   -1.20000 
H46B  2    0.152321    0.152625    0.058283    11.00000   -1.20000 
AFIX   0 
C47   1    0.057658    0.111825    0.268545    11.00000    0.01743    0.05256 = 
         0.07045    0.00444   -0.00403   -0.00289 
AFIX  23 
H47A  2    0.053808    0.150675    0.307450    11.00000   -1.20000 
H47B  2   -0.001479    0.126938    0.251781    11.00000   -1.20000 
AFIX   0 
C48   1    0.050611    0.015863    0.321645    11.00000    0.02001    0.08157 = 
         0.03362   -0.00072   -0.00969   -0.00084 
AFIX  23 
H48A  2    0.030479   -0.021743    0.292635    11.00000   -1.20000 
H48B  2   -0.002975    0.008397    0.383818    11.00000   -1.20000 
AFIX   0 
C49   1    0.134016   -0.041868    0.426827    11.00000    0.02502    0.03307 = 
         0.02528   -0.00743   -0.01008   -0.00698 
AFIX 137 
H49A  2    0.193474   -0.075469    0.434300    11.00000   -1.50000 
H49B  2    0.073573   -0.080927    0.468403    11.00000   -1.50000 
H49C  2    0.127598    0.017038    0.441557    11.00000   -1.50000 
AFIX   0 
C50   1    0.384717   -0.040128    0.101814    11.00000    0.02465    0.06726 = 
         0.05397   -0.04632   -0.00711    0.00231 
AFIX 137 
H50A  2    0.409503   -0.080868    0.147600    11.00000   -1.50000 
H50B  2    0.427413    0.016412    0.066596    11.00000   -1.50000 
H50C  2    0.386826   -0.073838    0.059946    11.00000   -1.50000 
AFIX   0 
C51   1    0.156070    0.242156    0.149303    11.00000    0.04124    0.02915 = 
         0.03551   -0.00581   -0.01691   -0.00456 
AFIX 137 
H51A  2    0.162806    0.265587    0.194835    11.00000   -1.50000 
H51B  2    0.094132    0.266475    0.140553    11.00000   -1.50000 
H51C  2    0.214325    0.263190    0.090644    11.00000   -1.50000 
AFIX   0 
rem AFIX   6 
part  1 
S1    7    0.375892    0.549145    0.614773    10.50000    0.03673    0.02925 = 
         0.03936   -0.01536   -0.01910   -0.00694 
eadp o5 > f3 
O5    4    0.401585    0.605741    0.525866    10.50000    0.05995    0.05561 = 
         0.05995   -0.01769   -0.02701   -0.01673 
O6    4    0.302648    0.580283    0.684464    10.50000    0.05995    0.05561 = 
         0.05995   -0.01769   -0.02701   -0.01673 
O7    4    0.458569    0.499262    0.635440    10.50000    0.05995    0.05561 = 
         0.05995   -0.01769   -0.02701   -0.01673 
C52   1    0.318411    0.451023    0.616557    10.50000    0.05995    0.05561 = 
         0.05995   -0.01769   -0.02701   -0.01673 
F1    5    0.370787    0.398562    0.565933    10.50000    0.05995    0.05561 = 
         0.05995   -0.01769   -0.02701   -0.01673 
F2    5    0.270215    0.389827    0.701952    10.50000    0.05995    0.05561 = 
         0.05995   -0.01769   -0.02701   -0.01673 
F3    5    0.242329    0.473382    0.588158    10.50000    0.05995    0.05561 = 
         0.05995   -0.01769   -0.02701   -0.01673 
part  0 
S2    7    0.036549    1.022122   -0.054456    10.50000    0.04344    0.06207 = 
         0.06435   -0.01243   -0.03339   -0.00821 
eadp o8 > f6 
O8    4    0.103534    0.964616   -0.101699    10.50000    0.07991    0.07600 = 
         0.09121   -0.00091   -0.05140   -0.01809 
O9    4    0.095362    1.098380   -0.061341    10.50000    0.07991    0.07600 = 
         0.09121   -0.00091   -0.05140   -0.01809 
O10   4   -0.029427    1.069247   -0.099728    10.50000    0.07991    0.07600 = 
         0.09121   -0.00091   -0.05140   -0.01809 
C53   1   -0.050326    0.985979    0.063832    10.50000    0.07991    0.07600 = 
         0.09121   -0.00091   -0.05140   -0.01809 
F4    5   -0.073823    1.071688    0.080482    10.50000    0.07991    0.07600 = 
         0.09121   -0.00091   -0.05140   -0.01809 
F5    5   -0.125539    0.944853    0.060993    10.50000    0.07991    0.07600 = 
         0.09121   -0.00091   -0.05140   -0.01809 
F6    5   -0.002818    0.931581    0.115108    10.50000    0.07991    0.07600 = 
         0.09121   -0.00091   -0.05140   -0.01809 
PART   1 
C54   1    0.344618    0.612856    0.358806    10.65000    0.07888 
AFIX  23 
H54A  2    0.393777    0.562585    0.345494    10.65000   -1.20000 
H54B  2    0.315863    0.601820    0.426176    10.65000   -1.20000 
AFIX   0 
eadp cl1 cl2 
CL1   8    0.408314    0.719983    0.304859    10.80000    0.06829    0.06499 = 
         0.07848   -0.00713   -0.03278   -0.00500 
CL2   8    0.249310    0.603997    0.326551    10.65000    0.06829    0.06499 = 
         0.07848   -0.00713   -0.03278   -0.00500 
PART   2 
C54B  1    0.301884    0.652956    0.387130    10.35000    0.09790 
AFIX  23 
H54C  2    0.301542    0.609196    0.446062    10.35000   -1.20000 
H54D  2    0.299458    0.718091    0.389376    10.35000   -1.20000 
AFIX   0 
eadp cl1b cl2b 
CL1B  8    0.407872    0.637399    0.296180    10.20000    0.08736    0.08805 = 
         0.05927   -0.01047   -0.03137   -0.01506 
CL2B  8    0.201447    0.630249    0.368300    10.35000    0.08736    0.08805 = 
         0.05927   -0.01047   -0.03137   -0.01506 
PART   2 
eadp cl3 cl4 
C55   1    0.384232    0.444600    0.592210    10.50000    0.07663 
AFIX  23 
H55A  2    0.416156    0.387878    0.619744    10.50000   -1.20000 
H55B  2    0.416574    0.459272    0.524403    10.50000   -1.20000 
AFIX   0 
CL3   8    0.253174    0.423866    0.631432    10.50000    0.10909 
CL4   8    0.399149    0.532471    0.622201    10.50000    0.10909 
  
HKLF 4 
  
REM  asb631 in P-1 
REM R1 =  0.0731 for   10397 Fo > 4sig(Fo)  and  0.0967 for all   13939 data 
REM    722 parameters refined using     27 restraints 
  
END 
  
WGHT      0.0925     10.7965 
  
REM Highest difference peak  1.532,  deepest hole -1.592,  1-sigma level  0.109 
Q1    1   0.2808  0.5757  0.2954  11.00000  0.05    1.53 
Q2    1   0.0004  1.0646 -0.0104  11.00000  0.05    1.36 
Q3    1   0.2206  0.5127  0.6019  11.00000  0.05    1.25 
Q4    1   0.2447  0.4385  0.6110  11.00000  0.05    1.21 
Q5    1   0.0543  0.0837  0.2289  11.00000  0.05    1.17 
Q6    1  -0.0523  0.9704  0.1607  11.00000  0.05    1.10 
Q7    1   0.2238  0.6249  0.3538  11.00000  0.05    1.10 
Q8    1   0.2567  0.4019  0.6601  11.00000  0.05    1.05 
Q9    1   0.3180  0.3677  0.6500  11.00000  0.05    0.98 
Q10   1   0.2628 -0.1054  0.2306  11.00000  0.05    0.89 
;
_shelx_res_checksum              4176
_shelx_fab_file
; 
    1    0    0     67.67      0.00 
    2    0    0     30.23      0.00 
    3    0    0      1.27      0.00 
    4    0    0     -9.12      0.00 
    5    0    0     -7.88      0.00 
    6    0    0     -3.96      0.00 
    7    0    0     -1.50      0.00 
    8    0    0     -0.11      0.00 
    9    0    0      1.46      0.00 
   10    0    0      2.40      0.00 
   11    0    0      2.06      0.00 
   12    0    0      1.44      0.00 
   13    0    0      0.89      0.00 
   14    0    0      0.11      0.00 
   15    0    0     -0.34      0.00 
   16    0    0     -0.11      0.00 
   17    0    0      0.13      0.00 
  -17    1    0     -0.60      0.00 
  -16    1    0     -0.47      0.00 
  -15    1    0     -0.37      0.00 
  -14    1    0     -0.60      0.00 
  -13    1    0     -0.83      0.00 
  -12    1    0     -1.16      0.00 
  -11    1    0     -1.61      0.00 
  -10    1    0     -1.30      0.00 
   -9    1    0     -0.24      0.00 
   -8    1    0      0.53      0.00 
   -7    1    0      1.88      0.00 
   -6    1    0      5.34      0.00 
   -5    1    0      8.60      0.00 
   -4    1    0      5.32      0.00 
   -3    1    0    -10.30      0.00 
   -2    1    0    -34.57      0.00 
   -1    1    0    -49.75      0.00 
    0    1    0    -40.50      0.00 
    1    1    0    -15.41      0.00 
    2    1    0      2.83      0.00 
    3    1    0      5.32      0.00 
    4    1    0      0.29      0.00 
    5    1    0     -3.28      0.00 
    6    1    0     -3.06      0.00 
    7    1    0     -0.91      0.00 
    8    1    0      0.47      0.00 
    9    1    0      0.58      0.00 
   10    1    0      0.55      0.00 
   11    1    0      0.39      0.00 
   12    1    0     -0.07      0.00 
   13    1    0     -0.04      0.00 
   14    1    0      0.41      0.00 
   15    1    0      0.39      0.00 
   16    1    0      0.07      0.00 
  -16    2    0      0.10      0.00 
  -15    2    0      0.30      0.00 
  -14    2    0      0.38      0.00 
  -13    2    0      0.05      0.00 
  -12    2    0     -0.23      0.00 
  -11    2    0     -0.48      0.00 
  -10    2    0     -0.97      0.00 
   -9    2    0     -0.82      0.00 
   -8    2    0      0.11      0.00 
   -7    2    0     -0.05      0.00 
   -6    2    0     -1.55      0.00 
   -5    2    0     -1.46      0.00 
   -4    2    0      2.38      0.00 
   -3    2    0      6.82      0.00 
   -2    2    0      3.09      0.00 
   -1    2    0    -13.99      0.00 
    0    2    0    -33.53      0.00 
    1    2    0    -36.34      0.00 
    2    2    0    -19.21      0.00 
    3    2    0      1.61      0.00 
    4    2    0     12.01      0.00 
    5    2    0     11.53      0.00 
    6    2    0      6.11      0.00 
    7    2    0      0.61      0.00 
    8    2    0     -2.89      0.00 
    9    2    0     -4.42      0.00 
   10    2    0     -4.14      0.00 
   11    2    0     -2.43      0.00 
   12    2    0     -0.82      0.00 
   13    2    0     -0.15      0.00 
   14    2    0      0.36      0.00 
   15    2    0      1.03      0.00 
   16    2    0      1.15      0.00 
  -16    3    0      0.44      0.00 
  -15    3    0      0.11      0.00 
  -14    3    0      0.09      0.00 
  -13    3    0      0.50      0.00 
  -12    3    0      0.93      0.00 
  -11    3    0      1.24      0.00 
  -10    3    0      1.06      0.00 
   -9    3    0      0.05      0.00 
   -8    3    0     -0.76      0.00 
   -7    3    0     -0.72      0.00 
   -6    3    0     -1.71      0.00 
   -5    3    0     -4.71      0.00 
   -4    3    0     -5.62      0.00 
   -3    3    0      2.78      0.00 
   -2    3    0     23.05      0.00 
   -1    3    0     45.23      0.00 
    0    3    0     51.13      0.00 
    1    3    0     34.03      0.00 
    2    3    0      8.24      0.00 
    3    3    0     -7.92      0.00 
    4    3    0    -10.43      0.00 
    5    3    0     -6.20      0.00 
    6    3    0     -1.49      0.00 
    7    3    0      1.69      0.00 
    8    3    0      3.57      0.00 
    9    3    0      4.10      0.00 
   10    3    0      2.98      0.00 
   11    3    0      1.20      0.00 
   12    3    0      0.11      0.00 
   13    3    0     -0.48      0.00 
   14    3    0     -1.19      0.00 
   15    3    0     -1.65      0.00 
   16    3    0     -1.48      0.00 
  -16    4    0     -0.38      0.00 
  -15    4    0     -0.52      0.00 
  -14    4    0     -0.81      0.00 
  -13    4    0     -0.91      0.00 
  -12    4    0     -0.67      0.00 
  -11    4    0     -0.23      0.00 
  -10    4    0      0.46      0.00 
   -9    4    0      0.96      0.00 
   -8    4    0      0.63      0.00 
   -7    4    0      0.81      0.00 
   -6    4    0      3.44      0.00 
   -5    4    0      6.32      0.00 
   -4    4    0      3.71      0.00 
   -3    4    0     -6.97      0.00 
   -2    4    0    -20.40      0.00 
   -1    4    0    -25.95      0.00 
    0    4    0    -18.10      0.00 
    1    4    0     -4.22      0.00 
    2    4    0      3.44      0.00 
    3    4    0      1.97      0.00 
    4    4    0     -2.21      0.00 
    5    4    0     -3.79      0.00 
    6    4    0     -2.71      0.00 
    7    4    0     -1.01      0.00 
    8    4    0      0.24      0.00 
    9    4    0      1.15      0.00 
   10    4    0      1.65      0.00 
   11    4    0      1.34      0.00 
   12    4    0      0.68      0.00 
   13    4    0      0.46      0.00 
   14    4    0      0.58      0.00 
   15    4    0      0.58      0.00 
   16    4    0      0.45      0.00 
  -16    5    0      0.11      0.00 
  -15    5    0      0.62      0.00 
  -14    5    0      1.14      0.00 
  -13    5    0      0.97      0.00 
  -12    5    0      0.12      0.00 
  -11    5    0     -0.73      0.00 
  -10    5    0     -1.00      0.00 
   -9    5    0     -0.57      0.00 
   -8    5    0     -0.29      0.00 
   -7    5    0     -1.63      0.00 
   -6    5    0     -3.92      0.00 
   -5    5    0     -3.67      0.00 
   -4    5    0      0.52      0.00 
   -3    5    0      4.80      0.00 
   -2    5    0      3.54      0.00 
   -1    5    0     -4.30      0.00 
    0    5    0    -12.29      0.00 
    1    5    0    -12.05      0.00 
    2    5    0     -3.09      0.00 
    3    5    0      6.38      0.00 
    4    5    0      9.43      0.00 
    5    5    0      6.62      0.00 
    6    5    0      2.03      0.00 
    7    5    0     -1.84      0.00 
    8    5    0     -4.38      0.00 
    9    5    0     -5.23      0.00 
   10    5    0     -4.15      0.00 
   11    5    0     -2.06      0.00 
   12    5    0     -0.47      0.00 
   13    5    0      0.16      0.00 
   14    5    0      0.28      0.00 
   15    5    0      0.26      0.00 
   16    5    0      0.19      0.00 
  -16    6    0      0.38      0.00 
  -15    6    0      0.08      0.00 
  -14    6    0     -0.31      0.00 
  -13    6    0     -0.26      0.00 
  -12    6    0      0.07      0.00 
  -11    6    0      0.04      0.00 
  -10    6    0     -0.41      0.00 
   -9    6    0     -0.64      0.00 
   -8    6    0      0.23      0.00 
   -7    6    0      1.86      0.00 
   -6    6    0      1.83      0.00 
   -5    6    0     -1.10      0.00 
   -4    6    0     -3.52      0.00 
   -3    6    0     -0.54      0.00 
   -2    6    0      8.00      0.00 
   -1    6    0     16.27      0.00 
    0    6    0     17.23      0.00 
    1    6    0      9.37      0.00 
    2    6    0     -1.17      0.00 
    3    6    0     -6.96      0.00 
    4    6    0     -6.47      0.00 
    5    6    0     -3.16      0.00 
    6    6    0      0.04      0.00 
    7    6    0      2.61      0.00 
    8    6    0      4.25      0.00 
    9    6    0      4.15      0.00 
   10    6    0      2.50      0.00 
   11    6    0      0.78      0.00 
   12    6    0     -0.09      0.00 
   13    6    0     -0.32      0.00 
   14    6    0     -0.30      0.00 
   15    6    0     -0.22      0.00 
   16    6    0     -0.11      0.00 
  -15    7    0     -0.56      0.00 
  -14    7    0     -0.52      0.00 
  -13    7    0     -0.41      0.00 
  -12    7    0      0.30      0.00 
  -11    7    0      1.35      0.00 
  -10    7    0      1.69      0.00 
   -9    7    0      0.85      0.00 
   -8    7    0     -0.45      0.00 
   -7    7    0     -0.43      0.00 
   -6    7    0      2.06      0.00 
   -5    7    0      4.89      0.00 
   -4    7    0      3.94      0.00 
   -3    7    0     -1.64      0.00 
   -2    7    0     -7.80      0.00 
   -1    7    0     -9.76      0.00 
    0    7    0     -6.36      0.00 
    1    7    0     -0.79      0.00 
    2    7    0      2.44      0.00 
    3    7    0      1.90      0.00 
    4    7    0     -0.04      0.00 
    5    7    0     -0.90      0.00 
    6    7    0     -0.76      0.00 
    7    7    0     -0.62      0.00 
    8    7    0     -0.40      0.00 
    9    7    0      0.24      0.00 
   10    7    0      0.76      0.00 
   11    7    0      0.65      0.00 
   12    7    0      0.21      0.00 
   13    7    0     -0.07      0.00 
   14    7    0     -0.05      0.00 
   15    7    0      0.13      0.00 
  -15    8    0      0.04      0.00 
  -14    8    0      0.37      0.00 
  -13    8    0      0.43      0.00 
  -12    8    0     -0.37      0.00 
  -11    8    0     -1.22      0.00 
  -10    8    0     -0.93      0.00 
   -9    8    0      0.22      0.00 
   -8    8    0      0.45      0.00 
   -7    8    0     -1.50      0.00 
   -6    8    0     -4.38      0.00 
   -5    8    0     -5.00      0.00 
   -4    8    0     -2.19      0.00 
   -3    8    0      1.12      0.00 
   -2    8    0      1.46      0.00 
   -1    8    0     -1.15      0.00 
    0    8    0     -3.80      0.00 
    1    8    0     -3.71      0.00 
    2    8    0     -0.67      0.00 
    3    8    0      2.74      0.00 
    4    8    0      3.76      0.00 
    5    8    0      2.20      0.00 
    6    8    0     -0.21      0.00 
    7    8    0     -2.27      0.00 
    8    8    0     -3.58      0.00 
    9    8    0     -3.65      0.00 
   10    8    0     -2.40      0.00 
   11    8    0     -0.84      0.00 
   12    8    0      0.14      0.00 
   13    8    0      0.44      0.00 
   14    8    0      0.20      0.00 
   15    8    0     -0.21      0.00 
  -14    9    0     -0.17      0.00 
  -13    9    0     -0.36      0.00 
  -12    9    0     -0.07      0.00 
  -11    9    0     -0.10      0.00 
  -10    9    0     -0.72      0.00 
   -9    9    0     -0.85      0.00 
   -8    9    0      0.48      0.00 
   -7    9    0      2.45      0.00 
   -6    9    0      2.96      0.00 
   -5    9    0      1.05      0.00 
   -4    9    0     -1.19      0.00 
   -3    9    0     -0.84      0.00 
   -2    9    0      2.24      0.00 
   -1    9    0      5.30      0.00 
    0    9    0      5.69      0.00 
    1    9    0      2.95      0.00 
    2    9    0     -0.97      0.00 
    3    9    0     -3.35      0.00 
    4    9    0     -2.95      0.00 
    5    9    0     -0.79      0.00 
    6    9    0      1.59      0.00 
    7    9    0      3.43      0.00 
    8    9    0      4.11      0.00 
    9    9    0      3.19      0.00 
   10    9    0      1.43      0.00 
   11    9    0      0.14      0.00 
   12    9    0     -0.29      0.00 
   13    9    0     -0.14      0.00 
   14    9    0      0.17      0.00 
  -14   10    0      0.32      0.00 
  -13   10    0      0.08      0.00 
  -12   10    0      0.03      0.00 
  -11   10    0      0.74      0.00 
  -10   10    0      1.07      0.00 
   -9   10    0     -0.15      0.00 
   -8   10    0     -1.82      0.00 
   -7   10    0     -1.68      0.00 
   -6   10    0      0.77      0.00 
   -5   10    0      3.41      0.00 
   -4   10    0      3.58      0.00 
   -3   10    0      0.86      0.00 
   -2   10    0     -2.49      0.00 
   -1   10    0     -3.98      0.00 
    0   10    0     -3.06      0.00 
    1   10    0     -0.94      0.00 
    2   10    0      0.82      0.00 
    3   10    0      1.36      0.00 
    4   10    0      0.79      0.00 
    5   10    0     -0.16      0.00 
    6   10    0     -0.96      0.00 
    7   10    0     -1.28      0.00 
    8   10    0     -0.90      0.00 
    9   10    0     -0.13      0.00 
   10   10    0      0.30      0.00 
   11   10    0      0.16      0.00 
   12   10    0     -0.28      0.00 
   13   10    0     -0.69      0.00 
   14   10    0     -0.63      0.00 
  -13   11    0      0.50      0.00 
  -12   11    0      0.15      0.00 
  -11   11    0     -0.63      0.00 
  -10   11    0     -0.14      0.00 
   -9   11    0      1.36      0.00 
   -8   11    0      1.51      0.00 
   -7   11    0     -0.64      0.00 
   -6   11    0     -3.32      0.00 
   -5   11    0     -4.05      0.00 
   -4   11    0     -2.17      0.00 
   -3   11    0      0.70      0.00 
   -2   11    0      2.26      0.00 
   -1   11    0      1.73      0.00 
    0   11    0      0.30      0.00 
    1   11    0     -0.59      0.00 
    2   11    0     -0.55      0.00 
    3   11    0     -0.06      0.00 
    4   11    0      0.24      0.00 
    5   11    0     -0.03      0.00 
    6   11    0     -0.81      0.00 
    7   11    0     -1.72      0.00 
    8   11    0     -2.24      0.00 
    9   11    0     -1.91      0.00 
   10   11    0     -0.86      0.00 
   11   11    0      0.20      0.00 
   12   11    0      0.81      0.00 
   13   11    0      0.85      0.00 
  -13   12    0     -0.30      0.00 
  -12   12    0      0.37      0.00 
  -11   12    0      0.46      0.00 
  -10   12    0     -0.43      0.00 
   -9   12    0     -0.70      0.00 
   -8   12    0      0.68      0.00 
   -7   12    0      2.32      0.00 
   -6   12    0      2.39      0.00 
   -5   12    0      0.67      0.00 
   -4   12    0     -1.41      0.00 
   -3   12    0     -2.13      0.00 
   -2   12    0     -0.96      0.00 
   -1   12    0      0.93      0.00 
    0   12    0      1.96      0.00 
    1   12    0      1.68      0.00 
    2   12    0      0.54      0.00 
    3   12    0     -0.77      0.00 
    4   12    0     -1.37      0.00 
    5   12    0     -0.60      0.00 
    6   12    0      1.05      0.00 
    7   12    0      2.43      0.00 
    8   12    0      2.69      0.00 
    9   12    0      1.80      0.00 
   10   12    0      0.54      0.00 
   11   12    0     -0.27      0.00 
   12   12    0     -0.40      0.00 
  -12   13    0     -0.67      0.00 
  -11   13    0     -0.14      0.00 
  -10   13    0      0.01      0.00 
   -9   13    0     -1.02      0.00 
   -8   13    0     -2.04      0.00 
   -7   13    0     -1.37      0.00 
   -6   13    0      0.80      0.00 
   -5   13    0      2.75      0.00 
   -4   13    0      3.01      0.00 
   -3   13    0      1.37      0.00 
   -2   13    0     -1.03      0.00 
   -1   13    0     -2.56      0.00 
    0   13    0     -2.49      0.00 
    1   13    0     -1.34      0.00 
    2   13    0      0.22      0.00 
    3   13    0      1.55      0.00 
    4   13    0      1.86      0.00 
    5   13    0      0.95      0.00 
    6   13    0     -0.45      0.00 
    7   13    0     -1.40      0.00 
    8   13    0     -1.49      0.00 
    9   13    0     -0.93      0.00 
   10   13    0     -0.38      0.00 
   11   13    0     -0.23      0.00 
  -11   14    0     -0.02      0.00 
  -10   14    0      0.54      0.00 
   -9   14    0      1.51      0.00 
   -8   14    0      1.30      0.00 
   -7   14    0     -0.48      0.00 
   -6   14    0     -2.30      0.00 
   -5   14    0     -2.60      0.00 
   -4   14    0     -1.36      0.00 
   -3   14    0      0.35      0.00 
   -2   14    0      1.45      0.00 
   -1   14    0      1.45      0.00 
    0   14    0      0.68      0.00 
    1   14    0     -0.25      0.00 
    2   14    0     -0.86      0.00 
    3   14    0     -0.81      0.00 
    4   14    0     -0.18      0.00 
    5   14    0      0.32      0.00 
    6   14    0      0.30      0.00 
    7   14    0      0.10      0.00 
    8   14    0      0.02      0.00 
    9   14    0      0.12      0.00 
   10   14    0      0.35      0.00 
   -9   15    0     -0.62      0.00 
   -8   15    0     -0.09      0.00 
   -7   15    0      0.70      0.00 
   -6   15    0      0.81      0.00 
   -5   15    0      0.05      0.00 
   -4   15    0     -0.84      0.00 
   -3   15    0     -1.10      0.00 
   -2   15    0     -0.49      0.00 
   -1   15    0      0.61      0.00 
    0   15    0      1.46      0.00 
    1   15    0      1.49      0.00 
    2   15    0      0.68      0.00 
    3   15    0     -0.53      0.00 
    4   15    0     -1.28      0.00 
    5   15    0     -0.90      0.00 
    6   15    0      0.18      0.00 
    7   15    0      0.96      0.00 
    8   15    0      1.01      0.00 
    9   15    0      0.48      0.00 
   -8   16    0     -0.52      0.00 
   -7   16    0     -0.22      0.00 
   -6   16    0      0.59      0.00 
   -5   16    0      1.14      0.00 
   -4   16    0      1.03      0.00 
   -3   16    0      0.48      0.00 
   -2   16    0     -0.40      0.00 
   -1   16    0     -1.40      0.00 
    0   16    0     -1.83      0.00 
    1   16    0     -1.26      0.00 
    2   16    0     -0.08      0.00 
    3   16    0      0.79      0.00 
    4   16    0      0.71      0.00 
    5   16    0     -0.04      0.00 
    6   16    0     -0.70      0.00 
    7   16    0     -0.96      0.00 
    8   16    0     -0.86      0.00 
   -6   17    0     -0.43      0.00 
   -5   17    0     -0.58      0.00 
   -4   17    0     -0.18      0.00 
   -3   17    0      0.27      0.00 
   -2   17    0      0.66      0.00 
   -1   17    0      0.82      0.00 
    0   17    0      0.47      0.00 
    1   17    0     -0.24      0.00 
    2   17    0     -0.71      0.00 
    3   17    0     -0.49      0.00 
    4   17    0      0.15      0.00 
    5   17    0      0.47      0.00 
    6   17    0      0.28      0.00 
   -3   18    0     -0.13      0.00 
   -2   18    0     -0.33      0.00 
   -1   18    0      0.00      0.00 
    0   18    0      0.74      0.00 
    1   18    0      1.18      0.00 
    2   18    0      0.90      0.00 
   -4  -17    1      0.36      0.00 
   -3  -17    1     -0.06      0.00 
   -2  -17    1     -0.52      0.00 
   -1  -17    1     -0.47      0.00 
    0  -17    1     -0.01      0.00 
    1  -17    1      0.51      0.00 
    2  -17    1      0.79      0.00 
    3  -17    1      0.74      0.00 
    4  -17    1      0.51      0.00 
    5  -17    1      0.13      0.00 
    6  -17    1     -0.20      0.00 
   -7  -16    1     -0.56      0.00 
   -6  -16    1     -0.75      0.00 
   -5  -16    1     -0.70      0.00 
   -4  -16    1     -0.09      0.00 
   -3  -16    1      0.63      0.00 
   -2  -16    1      0.65      0.00 
   -1  -16    1     -0.10      0.00 
    0  -16    1     -1.09      0.00 
    1  -16    1     -1.68      0.00 
    2  -16    1     -1.49      0.00 
    3  -16    1     -0.80      0.00 
    4  -16    1     -0.08      0.00 
    5  -16    1      0.55      0.00 
    6  -16    1      0.82      0.00 
    7  -16    1      0.40      0.00 
    8  -16    1     -0.21      0.00 
   -8  -15    1      0.13      0.00 
   -7  -15    1      0.69      0.00 
   -6  -15    1      0.85      0.00 
   -5  -15    1      0.23      0.00 
   -4  -15    1     -0.72      0.00 
   -3  -15    1     -1.04      0.00 
   -2  -15    1     -0.53      0.00 
   -1  -15    1      0.35      0.00 
    0  -15    1      1.20      0.00 
    1  -15    1      1.51      0.00 
    2  -15    1      0.88      0.00 
    3  -15    1     -0.22      0.00 
    4  -15    1     -0.94      0.00 
    5  -15    1     -0.91      0.00 
    6  -15    1     -0.26      0.00 
    7  -15    1      0.37      0.00 
    8  -15    1      0.25      0.00 
    9  -15    1     -0.32      0.00 
  -10  -14    1      0.76      0.00 
   -9  -14    1      0.68      0.00 
   -8  -14    1      0.38      0.00 
   -7  -14    1      0.05      0.00 
   -6  -14    1     -0.05      0.00 
   -5  -14    1      0.19      0.00 
   -4  -14    1      0.27      0.00 
   -3  -14    1     -0.10      0.00 
   -2  -14    1     -0.48      0.00 
   -1  -14    1     -0.54      0.00 
    0  -14    1     -0.27      0.00 
    1  -14    1      0.43      0.00 
    2  -14    1      1.28      0.00 
    3  -14    1      1.47      0.00 
    4  -14    1      0.62      0.00 
    5  -14    1     -0.86      0.00 
    6  -14    1     -1.99      0.00 
    7  -14    1     -1.64      0.00 
    8  -14    1      0.07      0.00 
    9  -14    1      1.31      0.00 
   10  -14    1      0.93      0.00 
   11  -14    1     -0.01      0.00 
  -11  -13    1     -0.45      0.00 
  -10  -13    1     -0.40      0.00 
   -9  -13    1     -0.49      0.00 
   -8  -13    1     -0.89      0.00 
   -7  -13    1     -1.21      0.00 
   -6  -13    1     -1.01      0.00 
   -5  -13    1     -0.19      0.00 
   -4  -13    1      0.94      0.00 
   -3  -13    1      1.65      0.00 
   -2  -13    1      1.43      0.00 
   -1  -13    1      0.49      0.00 
    0  -13    1     -0.91      0.00 
    1  -13    1     -2.32      0.00 
    2  -13    1     -2.62      0.00 
    3  -13    1     -1.15      0.00 
    4  -13    1      1.12      0.00 
    5  -13    1      2.65      0.00 
    6  -13    1      2.42      0.00 
    7  -13    1      0.54      0.00 
    8  -13    1     -1.39      0.00 
    9  -13    1     -1.64      0.00 
   10  -13    1     -0.61      0.00 
   11  -13    1     -0.15      0.00 
   12  -13    1     -0.56      0.00 
  -12  -12    1     -0.20      0.00 
  -11  -12    1     -0.35      0.00 
  -10  -12    1     -0.20      0.00 
   -9  -12    1      0.53      0.00 
   -8  -12    1      1.62      0.00 
   -7  -12    1      2.30      0.00 
   -6  -12    1      2.01      0.00 
   -5  -12    1      0.76      0.00 
   -4  -12    1     -0.77      0.00 
   -3  -12    1     -1.56      0.00 
   -2  -12    1     -1.20      0.00 
   -1  -12    1     -0.01      0.00 
    0  -12    1      1.42      0.00 
    1  -12    1      2.12      0.00 
    2  -12    1      1.17      0.00 
    3  -12    1     -0.79      0.00 
    4  -12    1     -1.95      0.00 
    5  -12    1     -1.28      0.00 
    6  -12    1      0.62      0.00 
    7  -12    1      2.10      0.00 
    8  -12    1      1.77      0.00 
    9  -12    1      0.25      0.00 
   10  -12    1     -0.38      0.00 
   11  -12    1      0.41      0.00 
   12  -12    1      0.91      0.00 
   13  -12    1      0.32      0.00 
  -12  -11    1      0.77      0.00 
  -11  -11    1      0.75      0.00 
  -10  -11    1      0.21      0.00 
   -9  -11    1     -0.85      0.00 
   -8  -11    1     -1.77      0.00 
   -7  -11    1     -2.01      0.00 
   -6  -11    1     -1.61      0.00 
   -5  -11    1     -0.75      0.00 
   -4  -11    1      0.28      0.00 
   -3  -11    1      0.78      0.00 
   -2  -11    1      0.40      0.00 
   -1  -11    1     -0.48      0.00 
    0  -11    1     -0.90      0.00 
    1  -11    1     -0.05      0.00 
    2  -11    1      1.58      0.00 
    3  -11    1      2.19      0.00 
    4  -11    1      0.65      0.00 
    5  -11    1     -2.02      0.00 
    6  -11    1     -3.55      0.00 
    7  -11    1     -2.55      0.00 
    8  -11    1     -0.01      0.00 
    9  -11    1      1.47      0.00 
   10  -11    1      0.70      0.00 
   11  -11    1     -0.53      0.00 
   12  -11    1     -0.40      0.00 
   13  -11    1      0.33      0.00 
  -13  -10    1     -0.51      0.00 
  -12  -10    1     -0.53      0.00 
  -11  -10    1     -0.38      0.00 
  -10  -10    1     -0.07      0.00 
   -9  -10    1      0.09      0.00 
   -8  -10    1     -0.31      0.00 
   -7  -10    1     -0.87      0.00 
   -6  -10    1     -1.08      0.00 
   -5  -10    1     -0.98      0.00 
   -4  -10    1     -0.52      0.00 
   -3  -10    1      0.48      0.00 
   -2  -10    1      1.41      0.00 
   -1  -10    1      1.23      0.00 
    0  -10    1     -0.47      0.00 
    1  -10    1     -2.84      0.00 
    2  -10    1     -3.98      0.00 
    3  -10    1     -2.47      0.00 
    4  -10    1      0.83      0.00 
    5  -10    1      3.18      0.00 
    6  -10    1      2.66      0.00 
    7  -10    1      0.13      0.00 
    8  -10    1     -1.75      0.00 
    9  -10    1     -1.38      0.00 
   10  -10    1      0.10      0.00 
   11  -10    1      0.62      0.00 
   12  -10    1      0.03      0.00 
   13  -10    1     -0.33      0.00 
   14  -10    1     -0.11      0.00 
  -14   -9    1      0.07      0.00 
  -13   -9    1      0.01      0.00 
  -12   -9    1     -0.03      0.00 
  -11   -9    1      0.05      0.00 
  -10   -9    1      0.56      0.00 
   -9   -9    1      1.91      0.00 
   -8   -9    1      3.44      0.00 
   -7   -9    1      3.95      0.00 
   -6   -9    1      3.25      0.00 
   -5   -9    1      1.61      0.00 
   -4   -9    1     -1.01      0.00 
   -3   -9    1     -3.67      0.00 
   -2   -9    1     -4.18      0.00 
   -1   -9    1     -1.49      0.00 
    0   -9    1      2.82      0.00 
    1   -9    1      5.75      0.00 
    2   -9    1      5.23      0.00 
    3   -9    1      1.96      0.00 
    4   -9    1     -0.92      0.00 
    5   -9    1     -0.85      0.00 
    6   -9    1      1.30      0.00 
    7   -9    1      2.64      0.00 
    8   -9    1      1.79      0.00 
    9   -9    1      0.09      0.00 
   10   -9    1     -0.66      0.00 
   11   -9    1     -0.23      0.00 
   12   -9    1      0.26      0.00 
   13   -9    1      0.19      0.00 
   14   -9    1      0.04      0.00 
   15   -9    1      0.16      0.00 
  -14   -8    1      0.04      0.00 
  -13   -8    1      0.14      0.00 
  -12   -8    1      0.10      0.00 
  -11   -8    1     -0.16      0.00 
  -10   -8    1     -1.12      0.00 
   -9   -8    1     -2.68      0.00 
   -8   -8    1     -3.68      0.00 
   -7   -8    1     -3.42      0.00 
   -6   -8    1     -2.10      0.00 
   -5   -8    1      0.35      0.00 
   -4   -8    1      3.59      0.00 
   -3   -8    1      5.46      0.00 
   -2   -8    1      3.83      0.00 
   -1   -8    1     -0.45      0.00 
    0   -8    1     -3.96      0.00 
    1   -8    1     -4.00      0.00 
    2   -8    1     -1.03      0.00 
    3   -8    1      1.64      0.00 
    4   -8    1      1.01      0.00 
    5   -8    1     -2.24      0.00 
    6   -8    1     -4.37      0.00 
    7   -8    1     -3.30      0.00 
    8   -8    1     -0.77      0.00 
    9   -8    1      0.51      0.00 
   10   -8    1      0.01      0.00 
   11   -8    1     -0.88      0.00 
   12   -8    1     -0.88      0.00 
   13   -8    1     -0.13      0.00 
   14   -8    1      0.34      0.00 
   15   -8    1      0.25      0.00 
  -15   -7    1      0.03      0.00 
  -14   -7    1      0.15      0.00 
  -13   -7    1      0.15      0.00 
  -12   -7    1      0.07      0.00 
  -11   -7    1      0.15      0.00 
  -10   -7    1      0.46      0.00 
   -9   -7    1      0.47      0.00 
   -8   -7    1     -0.01      0.00 
   -7   -7    1     -0.44      0.00 
   -6   -7    1     -0.83      0.00 
   -5   -7    1     -1.71      0.00 
   -4   -7    1     -2.27      0.00 
   -3   -7    1     -0.88      0.00 
   -2   -7    1      1.90      0.00 
   -1   -7    1      2.68      0.00 
    0   -7    1     -0.86      0.00 
    1   -7    1     -6.61      0.00 
    2   -7    1     -9.72      0.00 
    3   -7    1     -7.26      0.00 
    4   -7    1     -1.11      0.00 
    5   -7    1      3.69      0.00 
    6   -7    1      3.96      0.00 
    7   -7    1      1.42      0.00 
    8   -7    1     -0.36      0.00 
    9   -7    1     -0.20      0.00 
   10   -7    1      0.79      0.00 
   11   -7    1      1.26      0.00 
   12   -7    1      0.72      0.00 
   13   -7    1     -0.25      0.00 
   14   -7    1     -0.75      0.00 
   15   -7    1     -0.73      0.00 
   16   -7    1     -0.66      0.00 
  -15   -6    1     -0.18      0.00 
  -14   -6    1     -0.34      0.00 
  -13   -6    1     -0.28      0.00 
  -12   -6    1     -0.06      0.00 
  -11   -6    1      0.31      0.00 
  -10   -6    1      1.30      0.00 
   -9   -6    1      3.00      0.00 
   -8   -6    1      4.29      0.00 
   -7   -6    1      4.07      0.00 
   -6   -6    1      2.59      0.00 
   -5   -6    1      0.12      0.00 
   -4   -6    1     -3.78      0.00 
   -3   -6    1     -8.05      0.00 
   -2   -6    1     -8.42      0.00 
   -1   -6    1     -1.32      0.00 
    0   -6    1     10.11      0.00 
    1   -6    1     17.42      0.00 
    2   -6    1     15.32      0.00 
    3   -6    1      6.67      0.00 
    4   -6    1     -1.18      0.00 
    5   -6    1     -3.28      0.00 
    6   -6    1     -0.89      0.00 
    7   -6    1      1.28      0.00 
    8   -6    1      1.08      0.00 
    9   -6    1      0.02      0.00 
   10   -6    1     -0.36      0.00 
   11   -6    1     -0.10      0.00 
   12   -6    1      0.26      0.00 
   13   -6    1      0.27      0.00 
   14   -6    1      0.00      0.00 
   15   -6    1     -0.05      0.00 
   16   -6    1      0.18      0.00 
  -15   -5    1      0.25      0.00 
  -14   -5    1      0.15      0.00 
  -13   -5    1      0.00      0.00 
  -12   -5    1     -0.14      0.00 
  -11   -5    1     -0.77      0.00 
  -10   -5    1     -2.34      0.00 
   -9   -5    1     -4.23      0.00 
   -8   -5    1     -5.04      0.00 
   -7   -5    1     -4.10      0.00 
   -6   -5    1     -1.32      0.00 
   -5   -5    1      3.49      0.00 
   -4   -5    1      9.49      0.00 
   -3   -5    1     12.78      0.00 
   -2   -5    1      8.38      0.00 
   -1   -5    1     -2.76      0.00 
    0   -5    1    -11.57      0.00 
    1   -5    1    -10.48      0.00 
    2   -5    1     -2.23      0.00 
    3   -5    1      4.48      0.00 
    4   -5    1      4.74      0.00 
    5   -5    1      0.51      0.00 
    6   -5    1     -2.94      0.00 
    7   -5    1     -2.89      0.00 
    8   -5    1     -1.19      0.00 
    9   -5    1     -0.42      0.00 
   10   -5    1     -0.62      0.00 
   11   -5    1     -0.77      0.00 
   12   -5    1     -0.41      0.00 
   13   -5    1      0.45      0.00 
   14   -5    1      1.21      0.00 
   15   -5    1      1.19      0.00 
   16   -5    1      0.63      0.00 
  -16   -4    1      0.27      0.00 
  -15   -4    1      0.54      0.00 
  -14   -4    1      0.79      0.00 
  -13   -4    1      0.68      0.00 
  -12   -4    1      0.39      0.00 
  -11   -4    1      0.54      0.00 
  -10   -4    1      1.04      0.00 
   -9   -4    1      1.23      0.00 
   -8   -4    1      0.86      0.00 
   -7   -4    1     -0.12      0.00 
   -6   -4    1     -2.15      0.00 
   -5   -4    1     -5.10      0.00 
   -4   -4    1     -7.04      0.00 
   -3   -4    1     -4.98      0.00 
   -2   -4    1      0.45      0.00 
   -1   -4    1      1.87      0.00 
    0   -4    1     -6.94      0.00 
    1   -4    1    -20.19      0.00 
    2   -4    1    -25.25      0.00 
    3   -4    1    -17.82      0.00 
    4   -4    1     -4.96      0.00 
    5   -4    1      4.10      0.00 
    6   -4    1      5.82      0.00 
    7   -4    1      3.28      0.00 
    8   -4    1      1.24      0.00 
    9   -4    1      0.76      0.00 
   10   -4    1      0.44      0.00 
   11   -4    1     -0.09      0.00 
   12   -4    1     -0.51      0.00 
   13   -4    1     -0.97      0.00 
   14   -4    1     -1.21      0.00 
   15   -4    1     -0.92      0.00 
   16   -4    1     -0.51      0.00 
  -16   -3    1     -1.11      0.00 
  -15   -3    1     -1.71      0.00 
  -14   -3    1     -1.67      0.00 
  -13   -3    1     -0.93      0.00 
  -12   -3    1     -0.16      0.00 
  -11   -3    1      0.58      0.00 
  -10   -3    1      1.95      0.00 
   -9   -3    1      3.60      0.00 
   -8   -3    1      4.38      0.00 
   -7   -3    1      4.04      0.00 
   -6   -3    1      2.75      0.00 
   -5   -3    1     -0.22      0.00 
   -4   -3    1     -5.60      0.00 
   -3   -3    1    -10.99      0.00 
   -2   -3    1     -8.17      0.00 
   -1   -3    1      9.89      0.00 
    0   -3    1     35.22      0.00 
    1   -3    1     47.80      0.00 
    2   -3    1     38.09      0.00 
    3   -3    1     16.76      0.00 
    4   -3    1     -0.36      0.00 
    5   -3    1     -6.77      0.00 
    6   -3    1     -5.51      0.00 
    7   -3    1     -2.68      0.00 
    8   -3    1     -1.28      0.00 
    9   -3    1     -0.37      0.00 
   10   -3    1      0.76      0.00 
   11   -3    1      1.28      0.00 
   12   -3    1      1.14      0.00 
   13   -3    1      0.85      0.00 
   14   -3    1      0.36      0.00 
   15   -3    1     -0.08      0.00 
   16   -3    1     -0.01      0.00 
   17   -3    1      0.18      0.00 
  -16   -2    1      1.02      0.00 
  -15   -2    1      1.35      0.00 
  -14   -2    1      0.82      0.00 
  -13   -2    1      0.05      0.00 
  -12   -2    1     -0.45      0.00 
  -11   -2    1     -1.40      0.00 
  -10   -2    1     -3.17      0.00 
   -9   -2    1     -4.61      0.00 
   -8   -2    1     -4.73      0.00 
   -7   -2    1     -3.09      0.00 
   -6   -2    1      1.08      0.00 
   -5   -2    1      7.89      0.00 
   -4   -2    1     14.98      0.00 
   -3   -2    1     16.11      0.00 
   -2   -2    1      3.98      0.00 
   -1   -2    1    -18.14      0.00 
    0   -2    1    -32.24      0.00 
    1   -2    1    -25.33      0.00 
    2   -2    1     -6.52      0.00 
    3   -2    1      6.42      0.00 
    4   -2    1      7.88      0.00 
    5   -2    1      3.68      0.00 
    6   -2    1      0.29      0.00 
    7   -2    1     -0.27      0.00 
    8   -2    1      0.07      0.00 
    9   -2    1     -0.51      0.00 
   10   -2    1     -1.08      0.00 
   11   -2    1     -0.81      0.00 
   12   -2    1     -0.47      0.00 
   13   -2    1     -0.23      0.00 
   14   -2    1      0.27      0.00 
   15   -2    1      0.52      0.00 
   16   -2    1      0.32      0.00 
   17   -2    1      0.21      0.00 
  -16   -1    1     -0.10      0.00 
  -15   -1    1      0.23      0.00 
  -14   -1    1      0.71      0.00 
  -13   -1    1      0.57      0.00 
  -12   -1    1      0.18      0.00 
  -11   -1    1      0.31      0.00 
  -10   -1    1      0.58      0.00 
   -9   -1    1      0.68      0.00 
   -8   -1    1      0.87      0.00 
   -7   -1    1      0.10      0.00 
   -6   -1    1     -2.86      0.00 
   -5   -1    1     -6.64      0.00 
   -4   -1    1     -7.76      0.00 
   -3   -1    1     -3.60      0.00 
   -2   -1    1      2.36      0.00 
   -1   -1    1     -1.73      0.00 
    0   -1    1    -22.23      0.00 
    1   -1    1    -44.62      0.00 
    2   -1    1    -47.70      0.00 
    3   -1    1    -30.13      0.00 
    4   -1    1     -8.35      0.00 
    5   -1    1      4.66      0.00 
    6   -1    1      7.41      0.00 
    7   -1    1      4.83      0.00 
    8   -1    1      2.16      0.00 
    9   -1    1      0.78      0.00 
   10   -1    1     -0.44      0.00 
   11   -1    1     -1.28      0.00 
   12   -1    1     -1.15      0.00 
   13   -1    1     -0.83      0.00 
   14   -1    1     -0.73      0.00 
   15   -1    1     -0.48      0.00 
   16   -1    1     -0.35      0.00 
   17   -1    1     -0.48      0.00 
  -16    0    1     -0.02      0.00 
  -15    0    1     -0.52      0.00 
  -14    0    1     -0.58      0.00 
  -13    0    1      0.11      0.00 
  -12    0    1      0.89      0.00 
  -11    0    1      1.62      0.00 
  -10    0    1      2.45      0.00 
   -9    0    1      2.41      0.00 
   -8    0    1      1.25      0.00 
   -7    0    1      0.46      0.00 
   -6    0    1      0.11      0.00 
   -5    0    1     -1.98      0.00 
   -4    0    1     -6.51      0.00 
   -3    0    1     -8.45      0.00 
   -2    0    1      3.53      0.00 
   -1    0    1     35.32      0.00 
    0    0    1     70.61      0.00 
    1    0    1     80.62      0.00 
    2    0    1     57.62      0.00 
    3    0    1     22.73      0.00 
    4    0    1     -1.61      0.00 
    5    0    1    -10.22      0.00 
    6    0    1     -9.09      0.00 
    7    0    1     -5.32      0.00 
    8    0    1     -2.41      0.00 
    9    0    1     -0.11      0.00 
   10    0    1      1.70      0.00 
   11    0    1      2.14      0.00 
   12    0    1      1.68      0.00 
   13    0    1      1.33      0.00 
   14    0    1      0.79      0.00 
   15    0    1      0.07      0.00 
   16    0    1     -0.12      0.00 
   17    0    1      0.07      0.00 
  -16    1    1     -0.45      0.00 
  -15    1    1     -0.25      0.00 
  -14    1    1     -0.35      0.00 
  -13    1    1     -0.66      0.00 
  -12    1    1     -1.02      0.00 
  -11    1    1     -1.64      0.00 
  -10    1    1     -1.92      0.00 
   -9    1    1     -1.16      0.00 
   -8    1    1     -0.32      0.00 
   -7    1    1     -0.07      0.00 
   -6    1    1      1.61      0.00 
   -5    1    1      6.18      0.00 
   -4    1    1     10.52      0.00 
   -3    1    1      6.84      0.00 
   -2    1    1    -10.90      0.00 
   -1    1    1    -35.17      0.00 
    0    1    1    -45.45      0.00 
    1    1    1    -31.56      0.00 
    2    1    1     -7.71      0.00 
    3    1    1      6.67      0.00 
    4    1    1      7.96      0.00 
    5    1    1      3.66      0.00 
    6    1    1      0.18      0.00 
    7    1    1     -0.47      0.00 
    8    1    1      0.19      0.00 
    9    1    1      0.35      0.00 
   10    1    1      0.32      0.00 
   11    1    1      0.41      0.00 
   12    1    1     -0.01      0.00 
   13    1    1     -0.48      0.00 
   14    1    1     -0.22      0.00 
   15    1    1      0.14      0.00 
   16    1    1      0.07      0.00 
   17    1    1      0.00      0.00 
  -16    2    1      0.00      0.00 
  -15    2    1      0.06      0.00 
  -14    2    1      0.33      0.00 
  -13    2    1      0.28      0.00 
  -12    2    1      0.04      0.00 
  -11    2    1     -0.12      0.00 
  -10    2    1     -0.59      0.00 
   -9    2    1     -0.97      0.00 
   -8    2    1     -0.19      0.00 
   -7    2    1      0.64      0.00 
   -6    2    1     -0.83      0.00 
   -5    2    1     -3.73      0.00 
   -4    2    1     -4.02      0.00 
   -3    2    1      0.44      0.00 
   -2    2    1      4.56      0.00 
   -1    2    1     -2.02      0.00 
    0    2    1    -21.33      0.00 
    1    2    1    -38.23      0.00 
    2    2    1    -36.36      0.00 
    3    2    1    -18.48      0.00 
    4    2    1     -0.16      0.00 
    5    2    1      8.88      0.00 
    6    2    1      9.11      0.00 
    7    2    1      5.01      0.00 
    8    2    1      0.60      0.00 
    9    2    1     -2.50      0.00 
   10    2    1     -3.95      0.00 
   11    2    1     -3.34      0.00 
   12    2    1     -1.52      0.00 
   13    2    1     -0.31      0.00 
   14    2    1      0.13      0.00 
   15    2    1      0.65      0.00 
   16    2    1      1.03      0.00 
   17    2    1      0.85      0.00 
  -16    3    1      0.71      0.00 
  -15    3    1      0.52      0.00 
  -14    3    1      0.13      0.00 
  -13    3    1      0.19      0.00 
  -12    3    1      0.61      0.00 
  -11    3    1      1.08      0.00 
  -10    3    1      1.27      0.00 
   -9    3    1      0.50      0.00 
   -8    3    1     -0.74      0.00 
   -7    3    1     -0.66      0.00 
   -6    3    1      0.54      0.00 
   -5    3    1     -0.14      0.00 
   -4    3    1     -3.45      0.00 
   -3    3    1     -4.00      0.00 
   -2    3    1      6.26      0.00 
   -1    3    1     28.13      0.00 
    0    3    1     48.21      0.00 
    1    3    1     49.14      0.00 
    2    3    1     29.58      0.00 
    3    3    1      5.63      0.00 
    4    3    1     -8.27      0.00 
    5    3    1    -10.66      0.00 
    6    3    1     -7.25      0.00 
    7    3    1     -2.88      0.00 
    8    3    1      0.71      0.00 
    9    3    1      3.10      0.00 
   10    3    1      3.51      0.00 
   11    3    1      2.06      0.00 
   12    3    1      0.52      0.00 
   13    3    1     -0.16      0.00 
   14    3    1     -0.60      0.00 
   15    3    1     -1.13      0.00 
   16    3    1     -1.34      0.00 
   17    3    1     -1.13      0.00 
  -16    4    1     -0.44      0.00 
  -15    4    1     -0.43      0.00 
  -14    4    1     -0.46      0.00 
  -13    4    1     -0.63      0.00 
  -12    4    1     -0.70      0.00 
  -11    4    1     -0.50      0.00 
  -10    4    1      0.19      0.00 
   -9    4    1      1.18      0.00 
   -8    4    1      1.22      0.00 
   -7    4    1      0.02      0.00 
   -6    4    1      0.19      0.00 
   -5    4    1      3.60      0.00 
   -4    4    1      6.69      0.00 
   -3    4    1      3.24      0.00 
   -2    4    1     -8.25      0.00 
   -1    4    1    -20.78      0.00 
    0    4    1    -23.72      0.00 
    1    4    1    -14.17      0.00 
    2    4    1     -1.11      0.00 
    3    4    1      5.26      0.00 
    4    4    1      4.08      0.00 
    5    4    1      0.82      0.00 
    6    4    1     -0.83      0.00 
    7    4    1     -0.83      0.00 
    8    4    1     -0.30      0.00 
    9    4    1      0.52      0.00 
   10    4    1      1.58      0.00 
   11    4    1      2.04      0.00 
   12    4    1      1.43      0.00 
   13    4    1      0.58      0.00 
   14    4    1      0.23      0.00 
   15    4    1      0.22      0.00 
   16    4    1      0.28      0.00 
  -16    5    1     -0.10      0.00 
  -15    5    1      0.09      0.00 
  -14    5    1      0.64      0.00 
  -13    5    1      1.05      0.00 
  -12    5    1      0.70      0.00 
  -11    5    1     -0.27      0.00 
  -10    5    1     -1.10      0.00 
   -9    5    1     -1.10      0.00 
   -8    5    1     -0.27      0.00 
   -7    5    1     -0.14      0.00 
   -6    5    1     -2.36      0.00 
   -5    5    1     -5.18      0.00 
   -4    5    1     -4.54      0.00 
   -3    5    1      0.10      0.00 
   -2    5    1      3.95      0.00 
   -1    5    1      1.74      0.00 
    0    5    1     -6.26      0.00 
    1    5    1    -13.01      0.00 
    2    5    1    -11.60      0.00 
    3    5    1     -3.37      0.00 
    4    5    1      4.21      0.00 
    5    5    1      6.49      0.00 
    6    5    1      4.57      0.00 
    7    5    1      1.25      0.00 
    8    5    1     -2.03      0.00 
    9    5    1     -4.53      0.00 
   10    5    1     -5.21      0.00 
   11    5    1     -3.79      0.00 
   12    5    1     -1.57      0.00 
   13    5    1      0.00      0.00 
   14    5    1      0.56      0.00 
   15    5    1      0.51      0.00 
   16    5    1      0.31      0.00 
  -15    6    1      0.34      0.00 
  -14    6    1     -0.21      0.00 
  -13    6    1     -0.63      0.00 
  -12    6    1     -0.34      0.00 
  -11    6    1      0.08      0.00 
  -10    6    1     -0.15      0.00 
   -9    6    1     -0.86      0.00 
   -8    6    1     -0.91      0.00 
   -7    6    1      0.71      0.00 
   -6    6    1      2.88      0.00 
   -5    6    1      2.45      0.00 
   -4    6    1     -1.09      0.00 
   -3    6    1     -3.30      0.00 
   -2    6    1      0.24      0.00 
   -1    6    1      8.59      0.00 
    0    6    1     15.75      0.00 
    1    6    1     15.59      0.00 
    2    6    1      7.86      0.00 
    3    6    1     -1.28      0.00 
    4    6    1     -5.88      0.00 
    5    6    1     -5.56      0.00 
    6    6    1     -3.10      0.00 
    7    6    1     -0.17      0.00 
    8    6    1      2.63      0.00 
    9    6    1      4.16      0.00 
   10    6    1      3.59      0.00 
   11    6    1      1.73      0.00 
   12    6    1      0.14      0.00 
   13    6    1     -0.48      0.00 
   14    6    1     -0.40      0.00 
   15    6    1     -0.15      0.00 
   16    6    1     -0.08      0.00 
  -15    7    1     -0.53      0.00 
  -14    7    1     -0.33      0.00 
  -13    7    1     -0.35      0.00 
  -12    7    1     -0.24      0.00 
  -11    7    1      0.68      0.00 
  -10    7    1      1.83      0.00 
   -9    7    1      1.99      0.00 
   -8    7    1      0.74      0.00 
   -7    7    1     -0.84      0.00 
   -6    7    1     -0.47      0.00 
   -5    7    1      2.71      0.00 
   -4    7    1      5.56      0.00 
   -3    7    1      3.99      0.00 
   -2    7    1     -1.81      0.00 
   -1    7    1     -7.55      0.00 
    0    7    1     -9.13      0.00 
    1    7    1     -5.75      0.00 
    2    7    1     -0.52      0.00 
    3    7    1      2.51      0.00 
    4    7    1      2.40      0.00 
    5    7    1      1.18      0.00 
    6    7    1      0.36      0.00 
    7    7    1     -0.17      0.00 
    8    7    1     -0.48      0.00 
    9    7    1     -0.09      0.00 
   10    7    1      0.76      0.00 
   11    7    1      1.19      0.00 
   12    7    1      0.83      0.00 
   13    7    1      0.07      0.00 
   14    7    1     -0.41      0.00 
   15    7    1     -0.24      0.00 
   16    7    1      0.15      0.00 
  -15    8    1     -0.07      0.00 
  -14    8    1      0.13      0.00 
  -13    8    1      0.70      0.00 
  -12    8    1      0.53      0.00 
  -11    8    1     -0.68      0.00 
  -10    8    1     -1.47      0.00 
   -9    8    1     -0.79      0.00 
   -8    8    1      0.45      0.00 
   -7    8    1      0.28      0.00 
   -6    8    1     -2.29      0.00 
   -5    8    1     -5.29      0.00 
   -4    8    1     -5.34      0.00 
   -3    8    1     -2.13      0.00 
   -2    8    1      1.03      0.00 
   -1    8    1      1.36      0.00 
    0    8    1     -0.86      0.00 
    1    8    1     -3.23      0.00 
    2    8    1     -3.40      0.00 
    3    8    1     -1.16      0.00 
    4    8    1      1.32      0.00 
    5    8    1      2.08      0.00 
    6    8    1      1.16      0.00 
    7    8    1     -0.59      0.00 
    8    8    1     -2.48      0.00 
    9    8    1     -3.69      0.00 
   10    8    1     -3.46      0.00 
   11    8    1     -2.07      0.00 
   12    8    1     -0.45      0.00 
   13    8    1      0.62      0.00 
   14    8    1      0.72      0.00 
   15    8    1      0.07      0.00 
  -14    9    1      0.06      0.00 
  -13    9    1     -0.59      0.00 
  -12    9    1     -0.51      0.00 
  -11    9    1     -0.07      0.00 
  -10    9    1     -0.33      0.00 
   -9    9    1     -0.99      0.00 
   -8    9    1     -0.72      0.00 
   -7    9    1      1.03      0.00 
   -6    9    1      3.02      0.00 
   -5    9    1      3.06      0.00 
   -4    9    1      0.75      0.00 
   -3    9    1     -1.35      0.00 
   -2    9    1     -0.74      0.00 
   -1    9    1      2.17      0.00 
    0    9    1      4.94      0.00 
    1    9    1      5.39      0.00 
    2    9    1      3.04      0.00 
    3    9    1     -0.40      0.00 
    4    9    1     -2.53      0.00 
    5    9    1     -2.43      0.00 
    6    9    1     -0.71      0.00 
    7    9    1      1.64      0.00 
    8    9    1      3.54      0.00 
    9    9    1      3.88      0.00 
   10    9    1      2.59      0.00 
   11    9    1      0.82      0.00 
   12    9    1     -0.35      0.00 
   13    9    1     -0.53      0.00 
   14    9    1     -0.01      0.00 
   15    9    1      0.41      0.00 
  -14   10    1      0.37      0.00 
  -13   10    1      0.38      0.00 
  -12   10    1      0.01      0.00 
  -11   10    1      0.34      0.00 
  -10   10    1      1.23      0.00 
   -9   10    1      1.04      0.00 
   -8   10    1     -0.65      0.00 
   -7   10    1     -2.10      0.00 
   -6   10    1     -1.38      0.00 
   -5   10    1      1.45      0.00 
   -4   10    1      3.97      0.00 
   -3   10    1      3.75      0.00 
   -2   10    1      0.88      0.00 
   -1   10    1     -2.34      0.00 
    0   10    1     -3.90      0.00 
    1   10    1     -3.27      0.00 
    2   10    1     -1.26      0.00 
    3   10    1      0.72      0.00 
    4   10    1      1.60      0.00 
    5   10    1      1.22      0.00 
    6   10    1      0.08      0.00 
    7   10    1     -0.98      0.00 
    8   10    1     -1.24      0.00 
    9   10    1     -0.62      0.00 
   10   10    1      0.19      0.00 
   11   10    1      0.55      0.00 
   12   10    1      0.26      0.00 
   13   10    1     -0.49      0.00 
   14   10    1     -0.99      0.00 
  -13   11    1      0.21      0.00 
  -12   11    1      0.55      0.00 
  -11   11    1     -0.21      0.00 
  -10   11    1     -0.68      0.00 
   -9   11    1      0.40      0.00 
   -8   11    1      1.73      0.00 
   -7   11    1      1.21      0.00 
   -6   11    1     -1.33      0.00 
   -5   11    1     -3.93      0.00 
   -4   11    1     -4.32      0.00 
   -3   11    1     -2.15      0.00 
   -2   11    1      0.77      0.00 
   -1   11    1      2.30      0.00 
    0   11    1      1.92      0.00 
    1   11    1      0.58      0.00 
    2   11    1     -0.54      0.00 
    3   11    1     -0.90      0.00 
    4   11    1     -0.61      0.00 
    5   11    1     -0.17      0.00 
    6   11    1     -0.19      0.00 
    7   11    1     -0.94      0.00 
    8   11    1     -1.98      0.00 
    9   11    1     -2.44      0.00 
   10   11    1     -1.86      0.00 
   11   11    1     -0.68      0.00 
   12   11    1      0.47      0.00 
   13   11    1      1.10      0.00 
   14   11    1      0.91      0.00 
  -12   12    1     -0.15      0.00 
  -11   12    1      0.35      0.00 
  -10   12    1     -0.15      0.00 
   -9   12    1     -1.01      0.00 
   -8   12    1     -0.62      0.00 
   -7   12    1      1.12      0.00 
   -6   12    1      2.63      0.00 
   -5   12    1      2.45      0.00 
   -4   12    1      0.57      0.00 
   -3   12    1     -1.56      0.00 
   -2   12    1     -2.28      0.00 
   -1   12    1     -1.20      0.00 
    0   12    1      0.63      0.00 
    1   12    1      1.95      0.00 
    2   12    1      2.07      0.00 
    3   12    1      0.97      0.00 
    4   12    1     -0.57      0.00 
    5   12    1     -1.26      0.00 
    6   12    1     -0.37      0.00 
    7   12    1      1.46      0.00 
    8   12    1      2.83      0.00 
    9   12    1      2.83      0.00 
   10   12    1      1.66      0.00 
   11   12    1      0.24      0.00 
   12   12    1     -0.56      0.00 
   13   12    1     -0.49      0.00 
  -12   13    1     -0.61      0.00 
  -11   13    1     -0.34      0.00 
  -10   13    1      0.28      0.00 
   -9   13    1     -0.09      0.00 
   -8   13    1     -1.41      0.00 
   -7   13    1     -2.14      0.00 
   -6   13    1     -1.16      0.00 
   -5   13    1      1.07      0.00 
   -4   13    1      2.98      0.00 
   -3   13    1      3.16      0.00 
   -2   13    1      1.47      0.00 
   -1   13    1     -0.89      0.00 
    0   13    1     -2.52      0.00 
    1   13    1     -2.75      0.00 
    2   13    1     -1.66      0.00 
    3   13    1      0.20      0.00 
    4   13    1      1.76      0.00 
    5   13    1      1.97      0.00 
    6   13    1      0.79      0.00 
    7   13    1     -0.78      0.00 
    8   13    1     -1.66      0.00 
    9   13    1     -1.49      0.00 
   10   13    1     -0.72      0.00 
   11   13    1     -0.11      0.00 
   12   13    1     -0.03      0.00 
  -11   14    1      0.15      0.00 
  -10   14    1      0.20      0.00 
   -9   14    1      1.11      0.00 
   -8   14    1      1.81      0.00 
   -7   14    1      1.08      0.00 
   -6   14    1     -0.95      0.00 
   -5   14    1     -2.75      0.00 
   -4   14    1     -2.96      0.00 
   -3   14    1     -1.61      0.00 
   -2   14    1      0.24      0.00 
   -1   14    1      1.55      0.00 
    0   14    1      1.74      0.00 
    1   14    1      0.85      0.00 
    2   14    1     -0.42      0.00 
    3   14    1     -1.18      0.00 
    4   14    1     -0.97      0.00 
    5   14    1     -0.19      0.00 
    6   14    1      0.36      0.00 
    7   14    1      0.38      0.00 
    8   14    1      0.09      0.00 
    9   14    1     -0.19      0.00 
   10   14    1     -0.18      0.00 
   11   14    1      0.10      0.00 
   -9   15    1     -0.76      0.00 
   -8   15    1     -0.62      0.00 
   -7   15    1      0.17      0.00 
   -6   15    1      1.09      0.00 
   -5   15    1      1.17      0.00 
   -4   15    1      0.26      0.00 
   -3   15    1     -0.83      0.00 
   -2   15    1     -1.33      0.00 
   -1   15    1     -0.90      0.00 
    0   15    1      0.31      0.00 
    1   15    1      1.52      0.00 
    2   15    1      1.78      0.00 
    3   15    1      0.78      0.00 
    4   15    1     -0.74      0.00 
    5   15    1     -1.52      0.00 
    6   15    1     -0.99      0.00 
    7   15    1      0.25      0.00 
    8   15    1      1.23      0.00 
    9   15    1      1.33      0.00 
   10   15    1      0.67      0.00 
   -8   16    1     -0.51      0.00 
   -7   16    1     -0.68      0.00 
   -6   16    1     -0.17      0.00 
   -5   16    1      0.79      0.00 
   -4   16    1      1.46      0.00 
   -3   16    1      1.56      0.00 
   -2   16    1      1.13      0.00 
   -1   16    1      0.03      0.00 
    0   16    1     -1.38      0.00 
    1   16    1     -2.00      0.00 
    2   16    1     -1.30      0.00 
    3   16    1      0.07      0.00 
    4   16    1      0.96      0.00 
    5   16    1      0.82      0.00 
    6   16    1      0.00      0.00 
    7   16    1     -0.87      0.00 
    8   16    1     -1.30      0.00 
   -6   17    1     -0.02      0.00 
   -5   17    1     -0.85      0.00 
   -4   17    1     -0.99      0.00 
   -3   17    1     -0.60      0.00 
   -2   17    1     -0.02      0.00 
   -1   17    1      0.65      0.00 
    0   17    1      0.95      0.00 
    1   17    1      0.44      0.00 
    2   17    1     -0.42      0.00 
    3   17    1     -0.79      0.00 
    4   17    1     -0.37      0.00 
    5   17    1      0.28      0.00 
    6   17    1      0.53      0.00 
    7   17    1      0.39      0.00 
   -3   18    1      0.07      0.00 
   -2   18    1     -0.37      0.00 
   -1   18    1     -0.51      0.00 
    0   18    1      0.16      0.00 
    1   18    1      1.13      0.00 
    2   18    1      1.47      0.00 
    3   18    1      0.92      0.00 
    4   18    1      0.12      0.00 
   -3  -17    2      0.19      0.00 
   -2  -17    2     -0.21      0.00 
   -1  -17    2     -0.35      0.00 
    0  -17    2     -0.15      0.00 
    1  -17    2      0.21      0.00 
    2  -17    2      0.60      0.00 
    3  -17    2      0.78      0.00 
    4  -17    2      0.72      0.00 
    5  -17    2      0.58      0.00 
   -6  -16    2     -0.37      0.00 
   -5  -16    2     -0.77      0.00 
   -4  -16    2     -0.76      0.00 
   -3  -16    2     -0.10      0.00 
   -2  -16    2      0.53      0.00 
   -1  -16    2      0.53      0.00 
    0  -16    2     -0.06      0.00 
    1  -16    2     -0.95      0.00 
    2  -16    2     -1.55      0.00 
    3  -16    2     -1.45      0.00 
    4  -16    2     -0.97      0.00 
    5  -16    2     -0.41      0.00 
    6  -16    2      0.26      0.00 
    7  -16    2      0.60      0.00 
   -7  -15    2     -0.14      0.00 
   -6  -15    2      0.56      0.00 
   -5  -15    2      0.84      0.00 
   -4  -15    2      0.28      0.00 
   -3  -15    2     -0.54      0.00 
   -2  -15    2     -0.91      0.00 
   -1  -15    2     -0.74      0.00 
    0  -15    2     -0.03      0.00 
    1  -15    2      1.03      0.00 
    2  -15    2      1.49      0.00 
    3  -15    2      0.89      0.00 
    4  -15    2     -0.11      0.00 
    5  -15    2     -0.84      0.00 
    6  -15    2     -1.01      0.00 
    7  -15    2     -0.54      0.00 
    8  -15    2      0.00      0.00 
    9  -15    2     -0.11      0.00 
   -9  -14    2      0.97      0.00 
   -8  -14    2      0.89      0.00 
   -7  -14    2      0.43      0.00 
   -6  -14    2     -0.08      0.00 
   -5  -14    2     -0.17      0.00 
   -4  -14    2      0.15      0.00 
   -3  -14    2      0.29      0.00 
   -2  -14    2      0.11      0.00 
   -1  -14    2     -0.11      0.00 
    0  -14    2     -0.34      0.00 
    1  -14    2     -0.36      0.00 
    2  -14    2      0.29      0.00 
    3  -14    2      1.22      0.00 
    4  -14    2      1.56      0.00 
    5  -14    2      0.99      0.00 
    6  -14    2     -0.30      0.00 
    7  -14    2     -1.37      0.00 
    8  -14    2     -0.96      0.00 
    9  -14    2      0.49      0.00 
   10  -14    2      1.05      0.00 
   11  -14    2      0.29      0.00 
  -10  -13    2     -0.52      0.00 
   -9  -13    2     -0.44      0.00 
   -8  -13    2     -0.46      0.00 
   -7  -13    2     -0.69      0.00 
   -6  -13    2     -0.84      0.00 
   -5  -13    2     -0.68      0.00 
   -4  -13    2     -0.08      0.00 
   -3  -13    2      0.81      0.00 
   -2  -13    2      1.47      0.00 
   -1  -13    2      1.54      0.00 
    0  -13    2      0.90      0.00 
    1  -13    2     -0.59      0.00 
    2  -13    2     -2.24      0.00 
    3  -13    2     -2.61      0.00 
    4  -13    2     -1.31      0.00 
    5  -13    2      0.69      0.00 
    6  -13    2      2.18      0.00 
    7  -13    2      2.05      0.00 
    8  -13    2      0.33      0.00 
    9  -13    2     -1.17      0.00 
   10  -13    2     -1.04      0.00 
   11  -13    2     -0.33      0.00 
   12  -13    2     -0.36      0.00 
  -11  -12    2     -0.24      0.00 
  -10  -12    2     -0.36      0.00 
   -9  -12    2     -0.27      0.00 
   -8  -12    2      0.40      0.00 
   -7  -12    2      1.34      0.00 
   -6  -12    2      1.90      0.00 
   -5  -12    2      1.67      0.00 
   -4  -12    2      0.54      0.00 
   -3  -12    2     -0.98      0.00 
   -2  -12    2     -1.92      0.00 
   -1  -12    2     -1.77      0.00 
    0  -12    2     -0.49      0.00 
    1  -12    2      1.36      0.00 
    2  -12    2      2.29      0.00 
    3  -12    2      1.32      0.00 
    4  -12    2     -0.59      0.00 
    5  -12    2     -1.70      0.00 
    6  -12    2     -1.17      0.00 
    7  -12    2      0.48      0.00 
    8  -12    2      1.59      0.00 
    9  -12    2      1.03      0.00 
   10  -12    2     -0.05      0.00 
   11  -12    2      0.12      0.00 
   12  -12    2      0.98      0.00 
   13  -12    2      0.96      0.00 
  -12  -11    2      0.54      0.00 
  -11  -11    2      0.82      0.00 
  -10  -11    2      0.88      0.00 
   -9  -11    2      0.30      0.00 
   -8  -11    2     -0.76      0.00 
   -7  -11    2     -1.57      0.00 
   -6  -11    2     -1.87      0.00 
   -5  -11    2     -1.60      0.00 
   -4  -11    2     -0.55      0.00 
   -3  -11    2      0.79      0.00 
   -2  -11    2      1.33      0.00 
   -1  -11    2      0.63      0.00 
    0  -11    2     -0.69      0.00 
    1  -11    2     -1.33      0.00 
    2  -11    2     -0.35      0.00 
    3  -11    2      1.46      0.00 
    4  -11    2      2.09      0.00 
    5  -11    2      0.65      0.00 
    6  -11    2     -1.71      0.00 
    7  -11    2     -2.89      0.00 
    8  -11    2     -1.72      0.00 
    9  -11    2      0.46      0.00 
   10  -11    2      1.15      0.00 
   11  -11    2      0.12      0.00 
   12  -11    2     -0.58      0.00 
   13  -11    2     -0.14      0.00 
  -12  -10    2     -0.40      0.00 
  -11  -10    2     -0.64      0.00 
  -10  -10    2     -0.65      0.00 
   -9  -10    2     -0.26      0.00 
   -8  -10    2     -0.05      0.00 
   -7  -10    2     -0.30      0.00 
   -6  -10    2     -0.57      0.00 
   -5  -10    2     -0.83      0.00 
   -4  -10    2     -1.17      0.00 
   -3  -10    2     -0.87      0.00 
   -2  -10    2      0.44      0.00 
   -1  -10    2      1.78      0.00 
    0  -10    2      1.81      0.00 
    1  -10    2     -0.03      0.00 
    2  -10    2     -2.69      0.00 
    3  -10    2     -3.94      0.00 
    4  -10    2     -2.42      0.00 
    5  -10    2      0.64      0.00 
    6  -10    2      2.55      0.00 
    7  -10    2      1.87      0.00 
    8  -10    2     -0.31      0.00 
    9  -10    2     -1.54      0.00 
   10  -10    2     -0.92      0.00 
   11  -10    2      0.06      0.00 
   12  -10    2      0.00      0.00 
   13  -10    2     -0.53      0.00 
   14  -10    2     -0.58      0.00 
  -13   -9    2     -0.14      0.00 
  -12   -9    2     -0.03      0.00 
  -11   -9    2      0.18      0.00 
  -10   -9    2      0.32      0.00 
   -9   -9    2      0.88      0.00 
   -8   -9    2      2.16      0.00 
   -7   -9    2      3.28      0.00 
   -6   -9    2      3.54      0.00 
   -5   -9    2      3.13      0.00 
   -4   -9    2      1.62      0.00 
   -3   -9    2     -1.45      0.00 
   -2   -9    2     -4.48      0.00 
   -1   -9    2     -4.86      0.00 
    0   -9    2     -1.81      0.00 
    1   -9    2      2.76      0.00 
    2   -9    2      5.67      0.00 
    3   -9    2      4.90      0.00 
    4   -9    2      1.61      0.00 
    5   -9    2     -0.81      0.00 
    6   -9    2     -0.44      0.00 
    7   -9    2      1.36      0.00 
    8   -9    2      2.09      0.00 
    9   -9    2      1.14      0.00 
   10   -9    2     -0.11      0.00 
   11   -9    2     -0.34      0.00 
   12   -9    2      0.20      0.00 
   13   -9    2      0.56      0.00 
   14   -9    2      0.47      0.00 
   15   -9    2      0.32      0.00 
  -14   -8    2      0.23      0.00 
  -13   -8    2      0.21      0.00 
  -12   -8    2      0.04      0.00 
  -11   -8    2     -0.01      0.00 
  -10   -8    2     -0.24      0.00 
   -9   -8    2     -1.34      0.00 
   -8   -8    2     -2.85      0.00 
   -7   -8    2     -3.59      0.00 
   -6   -8    2     -3.33      0.00 
   -5   -8    2     -1.97      0.00 
   -4   -8    2      1.14      0.00 
   -3   -8    2      5.06      0.00 
   -2   -8    2      6.76      0.00 
   -1   -8    2      4.34      0.00 
    0   -8    2     -0.56      0.00 
    1   -8    2     -4.16      0.00 
    2   -8    2     -3.88      0.00 
    3   -8    2     -0.67      0.00 
    4   -8    2      1.79      0.00 
    5   -8    2      0.86      0.00 
    6   -8    2     -2.03      0.00 
    7   -8    2     -3.42      0.00 
    8   -8    2     -2.18      0.00 
    9   -8    2     -0.23      0.00 
   10   -8    2      0.47      0.00 
   11   -8    2     -0.09      0.00 
   12   -8    2     -0.67      0.00 
   13   -8    2     -0.48      0.00 
   14   -8    2      0.10      0.00 
   15   -8    2      0.34      0.00 
  -14   -7    2     -0.09      0.00 
  -13   -7    2      0.18      0.00 
  -12   -7    2      0.18      0.00 
  -11   -7    2     -0.05      0.00 
  -10   -7    2      0.00      0.00 
   -9   -7    2      0.35      0.00 
   -8   -7    2      0.36      0.00 
   -7   -7    2      0.06      0.00 
   -6   -7    2     -0.26      0.00 
   -5   -7    2     -1.17      0.00 
   -4   -7    2     -2.83      0.00 
   -3   -7    2     -3.38      0.00 
   -2   -7    2     -1.10      0.00 
   -1   -7    2      2.39      0.00 
    0   -7    2      3.10      0.00 
    1   -7    2     -0.81      0.00 
    2   -7    2     -6.53      0.00 
    3   -7    2     -9.15      0.00 
    4   -7    2     -6.39      0.00 
    5   -7    2     -0.76      0.00 
    6   -7    2      2.97      0.00 
    7   -7    2      2.82      0.00 
    8   -7    2      0.85      0.00 
    9   -7    2     -0.28      0.00 
   10   -7    2     -0.02      0.00 
   11   -7    2      0.69      0.00 
   12   -7    2      0.81      0.00 
   13   -7    2      0.06      0.00 
   14   -7    2     -0.77      0.00 
   15   -7    2     -0.93      0.00 
   16   -7    2     -0.72      0.00 
  -15   -6    2      0.04      0.00 
  -14   -6    2     -0.29      0.00 
  -13   -6    2     -0.39      0.00 
  -12   -6    2     -0.13      0.00 
  -11   -6    2      0.20      0.00 
  -10   -6    2      0.59      0.00 
   -9   -6    2      1.63      0.00 
   -8   -6    2      3.15      0.00 
   -7   -6    2      4.02      0.00 
   -6   -6    2      3.72      0.00 
   -5   -6    2      2.52      0.00 
   -4   -6    2     -0.11      0.00 
   -3   -6    2     -5.01      0.00 
   -2   -6    2    -10.06      0.00 
   -1   -6    2     -9.84      0.00 
    0   -6    2     -1.51      0.00 
    1   -6    2     10.14      0.00 
    2   -6    2     16.42      0.00 
    3   -6    2     13.49      0.00 
    4   -6    2      5.22      0.00 
    5   -6    2     -1.37      0.00 
    6   -6    2     -2.60      0.00 
    7   -6    2     -0.56      0.00 
    8   -6    2      0.81      0.00 
    9   -6    2      0.52      0.00 
   10   -6    2     -0.11      0.00 
   11   -6    2     -0.24      0.00 
   12   -6    2      0.09      0.00 
   13   -6    2      0.47      0.00 
   14   -6    2      0.44      0.00 
   15   -6    2      0.12      0.00 
   16   -6    2      0.04      0.00 
  -15   -5    2      0.31      0.00 
  -14   -5    2      0.33      0.00 
  -13   -5    2      0.10      0.00 
  -12   -5    2     -0.09      0.00 
  -11   -5    2     -0.22      0.00 
  -10   -5    2     -0.88      0.00 
   -9   -5    2     -2.44      0.00 
   -8   -5    2     -4.09      0.00 
   -7   -5    2     -4.69      0.00 
   -6   -5    2     -3.63      0.00 
   -5   -5    2     -0.39      0.00 
   -4   -5    2      5.59      0.00 
   -3   -5    2     12.79      0.00 
   -2   -5    2     15.77      0.00 
   -1   -5    2      9.55      0.00 
    0   -5    2     -2.60      0.00 
    1   -5    2    -10.44      0.00 
    2   -5    2     -8.33      0.00 
    3   -5    2     -0.71      0.00 
    4   -5    2      4.61      0.00 
    5   -5    2      4.17      0.00 
    6   -5    2      0.34      0.00 
    7   -5    2     -2.30      0.00 
    8   -5    2     -2.08      0.00 
    9   -5    2     -0.91      0.00 
   10   -5    2     -0.44      0.00 
   11   -5    2     -0.53      0.00 
   12   -5    2     -0.58      0.00 
   13   -5    2     -0.14      0.00 
   14   -5    2      0.75      0.00 
   15   -5    2      1.31      0.00 
   16   -5    2      1.09      0.00 
  -15   -4    2      0.15      0.00 
  -14   -4    2      0.53      0.00 
  -13   -4    2      0.71      0.00 
  -12   -4    2      0.41      0.00 
  -11   -4    2      0.10      0.00 
  -10   -4    2      0.26      0.00 
   -9   -4    2      0.71      0.00 
   -8   -4    2      0.95      0.00 
   -7   -4    2      0.69      0.00 
   -6   -4    2     -0.56      0.00 
   -5   -4    2     -3.47      0.00 
   -4   -4    2     -7.57      0.00 
   -3   -4    2     -9.83      0.00 
   -2   -4    2     -6.54      0.00 
   -1   -4    2      0.07      0.00 
    0   -4    2      0.86      0.00 
    1   -4    2     -8.56      0.00 
    2   -4    2    -19.92      0.00 
    3   -4    2    -22.31      0.00 
    4   -4    2    -14.37      0.00 
    5   -4    2     -3.11      0.00 
    6   -4    2      4.11      0.00 
    7   -4    2      5.10      0.00 
    8   -4    2      3.03      0.00 
    9   -4    2      1.41      0.00 
   10   -4    2      0.62      0.00 
   11   -4    2      0.05      0.00 
   12   -4    2     -0.32      0.00 
   13   -4    2     -0.72      0.00 
   14   -4    2     -1.25      0.00 
   15   -4    2     -1.30      0.00 
   16   -4    2     -0.85      0.00 
   17   -4    2     -0.46      0.00 
  -15   -3    2     -1.20      0.00 
  -14   -3    2     -1.69      0.00 
  -13   -3    2     -1.33      0.00 
  -12   -3    2     -0.50      0.00 
  -11   -3    2      0.21      0.00 
  -10   -3    2      1.08      0.00 
   -9   -3    2      2.47      0.00 
   -8   -3    2      3.77      0.00 
   -7   -3    2      4.35      0.00 
   -6   -3    2      4.29      0.00 
   -5   -3    2      3.43      0.00 
   -4   -3    2      0.42      0.00 
   -3   -3    2     -6.05      0.00 
   -2   -3    2    -12.48      0.00 
   -1   -3    2     -8.77      0.00 
    0   -3    2     10.32      0.00 
    1   -3    2     32.91      0.00 
    2   -3    2     40.60      0.00 
    3   -3    2     29.45      0.00 
    4   -3    2     10.98      0.00 
    5   -3    2     -2.64      0.00 
    6   -3    2     -7.20      0.00 
    7   -3    2     -5.64      0.00 
    8   -3    2     -3.02      0.00 
    9   -3    2     -1.30      0.00 
   10   -3    2      0.15      0.00 
   11   -3    2      1.13      0.00 
   12   -3    2      1.25      0.00 
   13   -3    2      1.06      0.00 
   14   -3    2      0.73      0.00 
   15   -3    2      0.12      0.00 
   16   -3    2     -0.23      0.00 
   17   -3    2     -0.12      0.00 
  -16   -2    2      0.55      0.00 
  -15   -2    2      1.32      0.00 
  -14   -2    2      1.32      0.00 
  -13   -2    2      0.55      0.00 
  -12   -2    2     -0.11      0.00 
  -11   -2    2     -0.63      0.00 
  -10   -2    2     -1.82      0.00 
   -9   -2    2     -3.52      0.00 
   -8   -2    2     -4.72      0.00 
   -7   -2    2     -4.73      0.00 
   -6   -2    2     -2.79      0.00 
   -5   -2    2      2.17      0.00 
   -4   -2    2     10.42      0.00 
   -3   -2    2     19.15      0.00 
   -2   -2    2     20.07      0.00 
   -1   -2    2      5.96      0.00 
    0   -2    2    -15.51      0.00 
    1   -2    2    -25.38      0.00 
    2   -2    2    -16.52      0.00 
    3   -2    2     -0.99      0.00 
    4   -2    2      7.89      0.00 
    5   -2    2      8.04      0.00 
    6   -2    2      4.23      0.00 
    7   -2    2      1.22      0.00 
    8   -2    2      0.30      0.00 
    9   -2    2     -0.18      0.00 
   10   -2    2     -0.93      0.00 
   11   -2    2     -1.05      0.00 
   12   -2    2     -0.72      0.00 
   13   -2    2     -0.50      0.00 
   14   -2    2     -0.05      0.00 
   15   -2    2      0.52      0.00 
   16   -2    2      0.56      0.00 
   17   -2    2      0.34      0.00 
  -16   -1    2     -0.24      0.00 
  -15   -1    2     -0.18      0.00 
  -14   -1    2      0.43      0.00 
  -13   -1    2      0.83      0.00 
  -12   -1    2      0.56      0.00 
  -11   -1    2      0.33      0.00 
  -10   -1    2      0.45      0.00 
   -9   -1    2      0.54      0.00 
   -8   -1    2      0.80      0.00 
   -7   -1    2      0.94      0.00 
   -6   -1    2     -0.83      0.00 
   -5   -1    2     -5.41      0.00 
   -4   -1    2    -10.72      0.00 
   -3   -1    2    -12.21      0.00 
   -2   -1    2     -6.68      0.00 
   -1   -1    2     -0.05      0.00 
    0   -1    2     -5.77      0.00 
    1   -1    2    -25.85      0.00 
    2   -1    2    -42.78      0.00 
    3   -1    2    -40.82      0.00 
    4   -1    2    -23.86      0.00 
    5   -1    2     -5.80      0.00 
    6   -1    2      4.55      0.00 
    7   -1    2      6.52      0.00 
    8   -1    2      4.41      0.00 
    9   -1    2      2.26      0.00 
   10   -1    2      0.67      0.00 
   11   -1    2     -0.65      0.00 
   12   -1    2     -1.01      0.00 
   13   -1    2     -0.74      0.00 
   14   -1    2     -0.68      0.00 
   15   -1    2     -0.60      0.00 
   16   -1    2     -0.31      0.00 
   17   -1    2     -0.26      0.00 
  -16    0    2      0.09      0.00 
  -15    0    2     -0.42      0.00 
  -14    0    2     -0.97      0.00 
  -13    0    2     -0.74      0.00 
  -12    0    2      0.04      0.00 
  -11    0    2      0.85      0.00 
  -10    0    2      1.90      0.00 
   -9    0    2      2.71      0.00 
   -8    0    2      2.23      0.00 
   -7    0    2      1.25      0.00 
   -6    0    2      1.46      0.00 
   -5    0    2      2.04      0.00 
   -4    0    2     -0.07      0.00 
   -3    0    2     -5.89      0.00 
   -2    0    2     -8.67      0.00 
   -1    0    2      4.62      0.00 
    0    0    2     36.21      0.00 
    1    0    2     65.29      0.00 
    2    0    2     67.75      0.00 
    3    0    2     44.22      0.00 
    4    0    2     14.92      0.00 
    5    0    2     -4.39      0.00 
    6    0    2    -10.98      0.00 
    7    0    2     -9.53      0.00 
    8    0    2     -5.85      0.00 
    9    0    2     -2.53      0.00 
   10    0    2      0.26      0.00 
   11    0    2      1.76      0.00 
   12    0    2      1.75      0.00 
   13    0    2      1.45      0.00 
   14    0    2      1.21      0.00 
   15    0    2      0.59      0.00 
   16    0    2      0.05      0.00 
   17    0    2      0.01      0.00 
  -16    1    2     -0.22      0.00 
  -15    1    2      0.01      0.00 
  -14    1    2      0.07      0.00 
  -13    1    2     -0.23      0.00 
  -12    1    2     -0.63      0.00 
  -11    1    2     -1.28      0.00 
  -10    1    2     -2.06      0.00 
   -9    1    2     -1.97      0.00 
   -8    1    2     -1.03      0.00 
   -7    1    2     -0.69      0.00 
   -6    1    2     -0.71      0.00 
   -5    1    2      1.68      0.00 
   -4    1    2      7.76      0.00 
   -3    1    2     13.31      0.00 
   -2    1    2      9.07      0.00 
   -1    1    2     -9.61      0.00 
    0    1    2    -31.19      0.00 
    1    1    2    -36.19      0.00 
    2    1    2    -21.05      0.00 
    3    1    2     -1.36      0.00 
    4    1    2      9.09      0.00 
    5    1    2      9.54      0.00 
    6    1    2      5.65      0.00 
    7    1    2      2.30      0.00 
    8    1    2      1.00      0.00 
    9    1    2      0.46      0.00 
   10    1    2      0.05      0.00 
   11    1    2      0.17      0.00 
   12    1    2      0.13      0.00 
   13    1    2     -0.48      0.00 
   14    1    2     -0.71      0.00 
   15    1    2     -0.33      0.00 
   16    1    2     -0.14      0.00 
   17    1    2     -0.15      0.00 
  -16    2    2     -0.09      0.00 
  -15    2    2     -0.16      0.00 
  -14    2    2      0.15      0.00 
  -13    2    2      0.39      0.00 
  -12    2    2      0.31      0.00 
  -11    2    2      0.22      0.00 
  -10    2    2     -0.06      0.00 
   -9    2    2     -0.74      0.00 
   -8    2    2     -0.69      0.00 
   -7    2    2      0.58      0.00 
   -6    2    2      0.72      0.00 
   -5    2    2     -2.43      0.00 
   -4    2    2     -6.66      0.00 
   -3    2    2     -6.97      0.00 
   -2    2    2     -1.97      0.00 
   -1    2    2      1.16      0.00 
    0    2    2     -7.55      0.00 
    1    2    2    -25.93      0.00 
    2    2    2    -37.95      0.00 
    3    2    2    -32.70      0.00 
    4    2    2    -16.14      0.00 
    5    2    2     -0.74      0.00 
    6    2    2      6.98      0.00 
    7    2    2      7.49      0.00 
    8    2    2      4.38      0.00 
    9    2    2      0.76      0.00 
   10    2    2     -2.15      0.00 
   11    2    2     -3.32      0.00 
   12    2    2     -2.34      0.00 
   13    2    2     -0.77      0.00 
   14    2    2     -0.04      0.00 
   15    2    2      0.33      0.00 
   16    2    2      0.78      0.00 
   17    2    2      0.88      0.00 
  -16    3    2      0.59      0.00 
  -15    3    2      0.73      0.00 
  -14    3    2      0.32      0.00 
  -13    3    2      0.00      0.00 
  -12    3    2      0.18      0.00 
  -11    3    2      0.72      0.00 
  -10    3    2      1.27      0.00 
   -9    3    2      1.08      0.00 
   -8    3    2     -0.26      0.00 
   -7    3    2     -1.24      0.00 
   -6    3    2      0.12      0.00 
   -5    3    2      2.37      0.00 
   -4    3    2      1.66      0.00 
   -3    3    2     -2.11      0.00 
   -2    3    2     -2.26      0.00 
   -1    3    2      9.10      0.00 
    0    3    2     30.09      0.00 
    1    3    2     45.83      0.00 
    2    3    2     42.55      0.00 
    3    3    2     23.19      0.00 
    4    3    2      2.53      0.00 
    5    3    2     -9.00      0.00 
    6    3    2    -11.08      0.00 
    7    3    2     -8.16      0.00 
    8    3    2     -3.88      0.00 
    9    3    2      0.16      0.00 
   10    3    2      2.69      0.00 
   11    3    2      2.70      0.00 
   12    3    2      1.20      0.00 
   13    3    2      0.17      0.00 
   14    3    2     -0.15      0.00 
   15    3    2     -0.49      0.00 
   16    3    2     -0.85      0.00 
   17    3    2     -0.93      0.00 
  -15    4    2     -0.48      0.00 
  -14    4    2     -0.36      0.00 
  -13    4    2     -0.34      0.00 
  -12    4    2     -0.52      0.00 
  -11    4    2     -0.68      0.00 
  -10    4    2     -0.34      0.00 
   -9    4    2      0.77      0.00 
   -8    4    2      1.76      0.00 
   -7    4    2      0.94      0.00 
   -6    4    2     -0.99      0.00 
   -5    4    2     -0.40      0.00 
   -4    4    2      3.87      0.00 
   -3    4    2      7.06      0.00 
   -2    4    2      3.17      0.00 
   -1    4    2     -7.91      0.00 
    0    4    2    -18.42      0.00 
    1    4    2    -19.18      0.00 
    2    4    2     -9.55      0.00 
    3    4    2      1.72      0.00 
    4    4    2      6.87      0.00 
    5    4    2      6.00      0.00 
    6    4    2      3.30      0.00 
    7    4    2      1.34      0.00 
    8    4    2      0.26      0.00 
    9    4    2     -0.02      0.00 
   10    4    2      0.77      0.00 
   11    4    2      1.95      0.00 
   12    4    2      2.13      0.00 
   13    4    2      1.21      0.00 
   14    4    2      0.26      0.00 
   15    4    2     -0.14      0.00 
   16    4    2     -0.14      0.00 
   17    4    2      0.05      0.00 
  -15    5    2     -0.10      0.00 
  -14    5    2      0.15      0.00 
  -13    5    2      0.70      0.00 
  -12    5    2      0.95      0.00 
  -11    5    2      0.35      0.00 
  -10    5    2     -0.73      0.00 
   -9    5    2     -1.39      0.00 
   -8    5    2     -0.92      0.00 
   -7    5    2      0.25      0.00 
   -6    5    2     -0.14      0.00 
   -5    5    2     -3.38      0.00 
   -4    5    2     -6.55      0.00 
   -3    5    2     -5.59      0.00 
   -2    5    2     -1.06      0.00 
   -1    5    2      2.07      0.00 
    0    5    2     -0.43      0.00 
    1    5    2     -7.39      0.00 
    2    5    2    -12.37      0.00 
    3    5    2    -10.32      0.00 
    4    5    2     -3.40      0.00 
    5    5    2      2.45      0.00 
    6    5    2      4.39      0.00 
    7    5    2      3.43      0.00 
    8    5    2      1.03      0.00 
    9    5    2     -2.02      0.00 
   10    5    2     -4.46      0.00 
   11    5    2     -4.83      0.00 
   12    5    2     -3.14      0.00 
   13    5    2     -0.94      0.00 
   14    5    2      0.46      0.00 
   15    5    2      0.80      0.00 
   16    5    2      0.56      0.00 
   17    5    2      0.30      0.00 
  -15    6    2      0.39      0.00 
  -14    6    2      0.12      0.00 
  -13    6    2     -0.57      0.00 
  -12    6    2     -0.70      0.00 
  -11    6    2     -0.05      0.00 
  -10    6    2      0.26      0.00 
   -9    6    2     -0.42      0.00 
   -8    6    2     -1.35      0.00 
   -7    6    2     -0.96      0.00 
   -6    6    2      1.55      0.00 
   -5    6    2      4.01      0.00 
   -4    6    2      3.00      0.00 
   -3    6    2     -0.85      0.00 
   -2    6    2     -2.74      0.00 
   -1    6    2      0.71      0.00 
    0    6    2      7.98      0.00 
    1    6    2     13.68      0.00 
    2    6    2     12.77      0.00 
    3    6    2      5.77      0.00 
    4    6    2     -1.68      0.00 
    5    6    2     -5.30      0.00 
    6    6    2     -5.30      0.00 
    7    6    2     -3.34      0.00 
    8    6    2     -0.31      0.00 
    9    6    2      2.58      0.00 
   10    6    2      3.71      0.00 
   11    6    2      2.71      0.00 
   12    6    2      0.85      0.00 
   13    6    2     -0.44      0.00 
   14    6    2     -0.65      0.00 
   15    6    2     -0.24      0.00 
   16    6    2      0.04      0.00 
  -15    7    2     -0.50      0.00 
  -14    7    2     -0.30      0.00 
  -13    7    2     -0.15      0.00 
  -12    7    2     -0.47      0.00 
  -11    7    2     -0.31      0.00 
  -10    7    2      0.92      0.00 
   -9    7    2      2.16      0.00 
   -8    7    2      2.05      0.00 
   -7    7    2      0.37      0.00 
   -6    7    2     -1.34      0.00 
   -5    7    2     -0.40      0.00 
   -4    7    2      3.38      0.00 
   -3    7    2      6.08      0.00 
   -2    7    2      4.26      0.00 
   -1    7    2     -1.16      0.00 
    0    7    2     -6.40      0.00 
    1    7    2     -7.91      0.00 
    2    7    2     -4.82      0.00 
    3    7    2     -0.04      0.00 
    4    7    2      2.83      0.00 
    5    7    2      3.19      0.00 
    6    7    2      2.38      0.00 
    7    7    2      1.21      0.00 
    8    7    2      0.07      0.00 
    9    7    2     -0.27      0.00 
   10    7    2      0.41      0.00 
   11    7    2      1.33      0.00 
   12    7    2      1.56      0.00 
   13    7    2      0.81      0.00 
   14    7    2     -0.28      0.00 
   15    7    2     -0.69      0.00 
   16    7    2     -0.26      0.00 
  -14    8    2     -0.09      0.00 
  -13    8    2      0.48      0.00 
  -12    8    2      1.12      0.00 
  -11    8    2      0.43      0.00 
  -10    8    2     -1.07      0.00 
   -9    8    2     -1.55      0.00 
   -8    8    2     -0.53      0.00 
   -7    8    2      0.66      0.00 
   -6    8    2      0.00      0.00 
   -5    8    2     -3.08      0.00 
   -4    8    2     -5.99      0.00 
   -3    8    2     -5.59      0.00 
   -2    8    2     -2.34      0.00 
   -1    8    2      0.71      0.00 
    0    8    2      1.45      0.00 
    1    8    2     -0.16      0.00 
    2    8    2     -2.38      0.00 
    3    8    2     -3.03      0.00 
    4    8    2     -1.77      0.00 
    5    8    2     -0.08      0.00 
    6    8    2      0.82      0.00 
    7    8    2      0.56      0.00 
    8    8    2     -0.85      0.00 
    9    8    2     -2.66      0.00 
   10    8    2     -3.60      0.00 
   11    8    2     -3.14      0.00 
   12    8    2     -1.66      0.00 
   13    8    2      0.07      0.00 
   14    8    2      1.03      0.00 
   15    8    2      0.67      0.00 
   16    8    2     -0.21      0.00 
  -14    9    2      0.45      0.00 
  -13    9    2     -0.32      0.00 
  -12    9    2     -0.70      0.00 
  -11    9    2     -0.16      0.00 
  -10    9    2      0.19      0.00 
   -9    9    2     -0.37      0.00 
   -8    9    2     -0.94      0.00 
   -7    9    2     -0.35      0.00 
   -6    9    2      1.61      0.00 
   -5    9    2      3.44      0.00 
   -4    9    2      3.02      0.00 
   -3    9    2      0.53      0.00 
   -2    9    2     -1.37      0.00 
   -1    9    2     -0.88      0.00 
    0    9    2      1.55      0.00 
    1    9    2      4.12      0.00 
    2    9    2      4.82      0.00 
    3    9    2      3.02      0.00 
    4    9    2      0.13      0.00 
    5    9    2     -1.92      0.00 
    6    9    2     -2.21      0.00 
    7    9    2     -0.71      0.00 
    8    9    2      1.68      0.00 
    9    9    2      3.35      0.00 
   10    9    2      3.27      0.00 
   11    9    2      1.85      0.00 
   12    9    2      0.20      0.00 
   13    9    2     -0.70      0.00 
   14    9    2     -0.44      0.00 
   15    9    2      0.31      0.00 
  -13   10    2      0.38      0.00 
  -12   10    2     -0.03      0.00 
  -11   10    2     -0.30      0.00 
  -10   10    2      0.50      0.00 
   -9   10    2      1.28      0.00 
   -8   10    2      0.59      0.00 
   -7   10    2     -1.18      0.00 
   -6   10    2     -2.22      0.00 
   -5   10    2     -1.01      0.00 
   -4   10    2      1.99      0.00 
   -3   10    2      4.25      0.00 
   -2   10    2      3.80      0.00 
   -1   10    2      1.13      0.00 
    0   10    2     -1.93      0.00 
    1   10    2     -3.71      0.00 
    2   10    2     -3.37      0.00 
    3   10    2     -1.38      0.00 
    4   10    2      0.85      0.00 
    5   10    2      2.02      0.00 
    6   10    2      1.62      0.00 
    7   10    2      0.25      0.00 
    8   10    2     -0.83      0.00 
    9   10    2     -0.88      0.00 
   10   10    2     -0.22      0.00 
   11   10    2      0.46      0.00 
   12   10    2      0.66      0.00 
   13   10    2      0.05      0.00 
   14   10    2     -0.93      0.00 
   15   10    2     -1.15      0.00 
  -13   11    2     -0.25      0.00 
  -12   11    2      0.52      0.00 
  -11   11    2      0.34      0.00 
  -10   11    2     -0.60      0.00 
   -9   11    2     -0.55      0.00 
   -8   11    2      0.78      0.00 
   -7   11    2      1.71      0.00 
   -6   11    2      0.74      0.00 
   -5   11    2     -1.92      0.00 
   -4   11    2     -4.30      0.00 
   -3   11    2     -4.35      0.00 
   -2   11    2     -2.06      0.00 
   -1   11    2      0.74      0.00 
    0   11    2      2.31      0.00 
    1   11    2      2.10      0.00 
    2   11    2      0.74      0.00 
    3   11    2     -0.67      0.00 
    4   11    2     -1.35      0.00 
    5   11    2     -1.09      0.00 
    6   11    2     -0.42      0.00 
    7   11    2     -0.34      0.00 
    8   11    2     -1.23      0.00 
    9   11    2     -2.24      0.00 
   10   11    2     -2.36      0.00 
   11   11    2     -1.51      0.00 
   12   11    2     -0.22      0.00 
   13   11    2      0.96      0.00 
   14   11    2      1.37      0.00 
  -12   12    2     -0.31      0.00 
  -11   12    2      0.24      0.00 
  -10   12    2      0.33      0.00 
   -9   12    2     -0.49      0.00 
   -8   12    2     -1.01      0.00 
   -7   12    2     -0.23      0.00 
   -6   12    2      1.45      0.00 
   -5   12    2      2.72      0.00 
   -4   12    2      2.35      0.00 
   -3   12    2      0.38      0.00 
   -2   12    2     -1.72      0.00 
   -1   12    2     -2.49      0.00 
    0   12    2     -1.56      0.00 
    1   12    2      0.38      0.00 
    2   12    2      2.06      0.00 
    3   12    2      2.39      0.00 
    4   12    2      1.20      0.00 
    5   12    2     -0.51      0.00 
    6   12    2     -1.15      0.00 
    7   12    2     -0.05      0.00 
    8   12    2      1.84      0.00 
    9   12    2      2.94      0.00 
   10   12    2      2.54      0.00 
   11   12    2      1.11      0.00 
   12   12    2     -0.32      0.00 
   13   12    2     -0.88      0.00 
  -11   13    2     -0.55      0.00 
  -10   13    2      0.05      0.00 
   -9   13    2      0.37      0.00 
   -8   13    2     -0.39      0.00 
   -7   13    2     -1.59      0.00 
   -6   13    2     -2.00      0.00 
   -5   13    2     -0.91      0.00 
   -4   13    2      1.27      0.00 
   -3   13    2      3.04      0.00 
   -2   13    2      3.13      0.00 
   -1   13    2      1.58      0.00 
    0   13    2     -0.69      0.00 
    1   13    2     -2.53      0.00 
    2   13    2     -2.97      0.00 
    3   13    2     -1.78      0.00 
    4   13    2      0.34      0.00 
    5   13    2      1.95      0.00 
    6   13    2      1.95      0.00 
    7   13    2      0.57      0.00 
    8   13    2     -0.94      0.00 
    9   13    2     -1.57      0.00 
   10   13    2     -1.17      0.00 
   11   13    2     -0.33      0.00 
   12   13    2      0.18      0.00 
  -10   14    2     -0.02      0.00 
   -9   14    2      0.47      0.00 
   -8   14    2      1.44      0.00 
   -7   14    2      1.83      0.00 
   -6   14    2      0.86      0.00 
   -5   14    2     -1.20      0.00 
   -4   14    2     -2.90      0.00 
   -3   14    2     -3.00      0.00 
   -2   14    2     -1.64      0.00 
   -1   14    2      0.28      0.00 
    0   14    2      1.76      0.00 
    1   14    2      1.97      0.00 
    2   14    2      0.84      0.00 
    3   14    2     -0.64      0.00 
    4   14    2     -1.37      0.00 
    5   14    2     -1.05      0.00 
    6   14    2     -0.25      0.00 
    7   14    2      0.27      0.00 
    8   14    2      0.23      0.00 
    9   14    2     -0.15      0.00 
   10   14    2     -0.43      0.00 
   11   14    2     -0.29      0.00 
   12   14    2      0.05      0.00 
   -9   15    2     -0.62      0.00 
   -8   15    2     -0.81      0.00 
   -7   15    2     -0.60      0.00 
   -6   15    2      0.31      0.00 
   -5   15    2      1.31      0.00 
   -4   15    2      1.36      0.00 
   -3   15    2      0.39      0.00 
   -2   15    2     -0.83      0.00 
   -1   15    2     -1.60      0.00 
    0   15    2     -1.29      0.00 
    1   15    2      0.18      0.00 
    2   15    2      1.68      0.00 
    3   15    2      1.88      0.00 
    4   15    2      0.62      0.00 
    5   15    2     -0.97      0.00 
    6   15    2     -1.60      0.00 
    7   15    2     -0.89      0.00 
    8   15    2      0.49      0.00 
    9   15    2      1.47      0.00 
   10   15    2      1.38      0.00 
   -8   16    2     -0.32      0.00 
   -7   16    2     -0.70      0.00 
   -6   16    2     -0.77      0.00 
   -5   16    2     -0.16      0.00 
   -4   16    2      0.85      0.00 
   -3   16    2      1.63      0.00 
   -2   16    2      1.99      0.00 
   -1   16    2      1.65      0.00 
    0   16    2      0.26      0.00 
    1   16    2     -1.46      0.00 
    2   16    2     -2.05      0.00 
    3   16    2     -1.14      0.00 
    4   16    2      0.31      0.00 
    5   16    2      1.15      0.00 
    6   16    2      0.93      0.00 
    7   16    2     -0.04      0.00 
    8   16    2     -1.08      0.00 
    9   16    2     -1.46      0.00 
   -6   17    2      0.78      0.00 
   -5   17    2     -0.25      0.00 
   -4   17    2     -1.15      0.00 
   -3   17    2     -1.33      0.00 
   -2   17    2     -0.98      0.00 
   -1   17    2     -0.19      0.00 
    0   17    2      0.77      0.00 
    1   17    2      1.05      0.00 
    2   17    2      0.35      0.00 
    3   17    2     -0.53      0.00 
    4   17    2     -0.75      0.00 
    5   17    2     -0.27      0.00 
    6   17    2      0.32      0.00 
    7   17    2      0.57      0.00 
   -4   18    2      0.39      0.00 
   -3   18    2      0.38      0.00 
   -2   18    2     -0.08      0.00 
   -1   18    2     -0.69      0.00 
    0   18    2     -0.65      0.00 
    1   18    2      0.33      0.00 
    2   18    2      1.39      0.00 
    3   18    2      1.54      0.00 
    4   18    2      0.81      0.00 
    5   18    2      0.01      0.00 
   -1  -17    3     -0.20      0.00 
    0  -17    3     -0.09      0.00 
    1  -17    3      0.13      0.00 
    2  -17    3      0.41      0.00 
    3  -17    3      0.65      0.00 
    4  -17    3      0.63      0.00 
   -4  -16    3     -0.86      0.00 
   -3  -16    3     -0.75      0.00 
   -2  -16    3     -0.11      0.00 
   -1  -16    3      0.39      0.00 
    0  -16    3      0.42      0.00 
    1  -16    3     -0.08      0.00 
    2  -16    3     -0.87      0.00 
    3  -16    3     -1.28      0.00 
    4  -16    3     -1.15      0.00 
    5  -16    3     -0.91      0.00 
    6  -16    3     -0.51      0.00 
    7  -16    3      0.18      0.00 
   -6  -15    3     -0.21      0.00 
   -5  -15    3      0.53      0.00 
   -4  -15    3      0.78      0.00 
   -3  -15    3      0.30      0.00 
   -2  -15    3     -0.40      0.00 
   -1  -15    3     -0.92      0.00 
    0  -15    3     -1.00      0.00 
    1  -15    3     -0.25      0.00 
    2  -15    3      0.85      0.00 
    3  -15    3      1.19      0.00 
    4  -15    3      0.68      0.00 
    5  -15    3     -0.06      0.00 
    6  -15    3     -0.78      0.00 
    7  -15    3     -1.06      0.00 
    8  -15    3     -0.61      0.00 
    9  -15    3     -0.17      0.00 
   -8  -14    3      1.00      0.00 
   -7  -14    3      0.85      0.00 
   -6  -14    3      0.28      0.00 
   -5  -14    3     -0.23      0.00 
   -4  -14    3     -0.20      0.00 
   -3  -14    3      0.15      0.00 
   -2  -14    3      0.34      0.00 
   -1  -14    3      0.36      0.00 
    0  -14    3      0.19      0.00 
    1  -14    3     -0.24      0.00 
    2  -14    3     -0.34      0.00 
    3  -14    3      0.31      0.00 
    4  -14    3      1.17      0.00 
    5  -14    3      1.62      0.00 
    6  -14    3      1.29      0.00 
    7  -14    3      0.08      0.00 
    8  -14    3     -0.92      0.00 
    9  -14    3     -0.43      0.00 
   10  -14    3      0.64      0.00 
   -9  -13    3     -0.55      0.00 
   -8  -13    3     -0.41      0.00 
   -7  -13    3     -0.37      0.00 
   -6  -13    3     -0.45      0.00 
   -5  -13    3     -0.49      0.00 
   -4  -13    3     -0.44      0.00 
   -3  -13    3     -0.05      0.00 
   -2  -13    3      0.70      0.00 
   -1  -13    3      1.43      0.00 
    0  -13    3      1.75      0.00 
    1  -13    3      1.18      0.00 
    2  -13    3     -0.45      0.00 
    3  -13    3     -2.11      0.00 
    4  -13    3     -2.51      0.00 
    5  -13    3     -1.53      0.00 
    6  -13    3      0.23      0.00 
    7  -13    3      1.76      0.00 
    8  -13    3      1.69      0.00 
    9  -13    3      0.19      0.00 
   10  -13    3     -0.77      0.00 
   11  -13    3     -0.48      0.00 
   12  -13    3     -0.20      0.00 
  -10  -12    3     -0.23      0.00 
   -9  -12    3     -0.39      0.00 
   -8  -12    3     -0.28      0.00 
   -7  -12    3      0.35      0.00 
   -6  -12    3      1.09      0.00 
   -5  -12    3      1.56      0.00 
   -4  -12    3      1.40      0.00 
   -3  -12    3      0.29      0.00 
   -2  -12    3     -1.29      0.00 
   -1  -12    3     -2.39      0.00 
    0  -12    3     -2.28      0.00 
    1  -12    3     -0.74      0.00 
    2  -12    3      1.40      0.00 
    3  -12    3      2.36      0.00 
    4  -12    3      1.44      0.00 
    5  -12    3     -0.30      0.00 
    6  -12    3     -1.39      0.00 
    7  -12    3     -1.05      0.00 
    8  -12    3      0.29      0.00 
    9  -12    3      0.96      0.00 
   10  -12    3      0.29      0.00 
   11  -12    3     -0.20      0.00 
   12  -12    3      0.45      0.00 
   13  -12    3      1.05      0.00 
  -11  -11    3      0.60      0.00 
  -10  -11    3      1.00      0.00 
   -9  -11    3      1.05      0.00 
   -8  -11    3      0.33      0.00 
   -7  -11    3     -0.66      0.00 
   -6  -11    3     -1.39      0.00 
   -5  -11    3     -1.84      0.00 
   -4  -11    3     -1.54      0.00 
   -3  -11    3     -0.14      0.00 
   -2  -11    3      1.36      0.00 
   -1  -11    3      1.71      0.00 
    0  -11    3      0.63      0.00 
    1  -11    3     -1.01      0.00 
    2  -11    3     -1.70      0.00 
    3  -11    3     -0.56      0.00 
    4  -11    3      1.30      0.00 
    5  -11    3      1.94      0.00 
    6  -11    3      0.68      0.00 
    7  -11    3     -1.36      0.00 
    8  -11    3     -2.19      0.00 
    9  -11    3     -0.95      0.00 
   10  -11    3      0.70      0.00 
   11  -11    3      0.79      0.00 
   12  -11    3     -0.14      0.00 
   13  -11    3     -0.41      0.00 
  -12  -10    3     -0.09      0.00 
  -11  -10    3     -0.44      0.00 
  -10  -10    3     -0.95      0.00 
   -9  -10    3     -0.93      0.00 
   -8  -10    3     -0.44      0.00 
   -7  -10    3     -0.17      0.00 
   -6  -10    3     -0.11      0.00 
   -5  -10    3     -0.14      0.00 
   -4  -10    3     -0.71      0.00 
   -3  -10    3     -1.43      0.00 
   -2  -10    3     -1.01      0.00 
   -1  -10    3      0.67      0.00 
    0  -10    3      2.28      0.00 
    1  -10    3      2.31      0.00 
    2  -10    3      0.24      0.00 
    3  -10    3     -2.63      0.00 
    4  -10    3     -3.86      0.00 
    5  -10    3     -2.41      0.00 
    6  -10    3      0.30      0.00 
    7  -10    3      1.87      0.00 
    8  -10    3      1.22      0.00 
    9  -10    3     -0.46      0.00 
   10  -10    3     -1.16      0.00 
   11  -10    3     -0.57      0.00 
   12  -10    3     -0.10      0.00 
   13  -10    3     -0.39      0.00 
   14  -10    3     -0.70      0.00 
  -12   -9    3     -0.33      0.00 
  -11   -9    3      0.03      0.00 
  -10   -9    3      0.35      0.00 
   -9   -9    3      0.51      0.00 
   -8   -9    3      1.13      0.00 
   -7   -9    3      2.14      0.00 
   -6   -9    3      2.77      0.00 
   -5   -9    3      3.08      0.00 
   -4   -9    3      3.04      0.00 
   -3   -9    3      1.40      0.00 
   -2   -9    3     -2.09      0.00 
   -1   -9    3     -5.15      0.00 
    0   -9    3     -5.20      0.00 
    1   -9    3     -1.82      0.00 
    2   -9    3      2.86      0.00 
    3   -9    3      5.52      0.00 
    4   -9    3      4.46      0.00 
    5   -9    3      1.38      0.00 
    6   -9    3     -0.52      0.00 
    7   -9    3     -0.09      0.00 
    8   -9    3      1.18      0.00 
    9   -9    3      1.46      0.00 
   10   -9    3      0.60      0.00 
   11   -9    3     -0.22      0.00 
   12   -9    3     -0.15      0.00 
   13   -9    3      0.38      0.00 
   14   -9    3      0.63      0.00 
   15   -9    3      0.51      0.00 
  -13   -8    3      0.52      0.00 
  -12   -8    3      0.31      0.00 
  -11   -8    3      0.07      0.00 
  -10   -8    3      0.12      0.00 
   -9   -8    3     -0.21      0.00 
   -8   -8    3     -1.47      0.00 
   -7   -8    3     -2.78      0.00 
   -6   -8    3     -3.39      0.00 
   -5   -8    3     -3.31      0.00 
   -4   -8    3     -1.72      0.00 
   -3   -8    3      2.11      0.00 
   -2   -8    3      6.29      0.00 
   -1   -8    3      7.42      0.00 
    0   -8    3      4.25      0.00 
    1   -8    3     -0.97      0.00 
    2   -8    3     -4.33      0.00 
    3   -8    3     -3.57      0.00 
    4   -8    3     -0.21      0.00 
    5   -8    3      1.88      0.00 
    6   -8    3      0.81      0.00 
    7   -8    3     -1.52      0.00 
    8   -8    3     -2.33      0.00 
    9   -8    3     -1.25      0.00 
   10   -8    3      0.08      0.00 
   11   -8    3      0.42      0.00 
   12   -8    3     -0.06      0.00 
   13   -8    3     -0.37      0.00 
   14   -8    3     -0.09      0.00 
   15   -8    3      0.29      0.00 
  -14   -7    3     -0.47      0.00 
  -13   -7    3     -0.15      0.00 
  -12   -7    3      0.14      0.00 
  -11   -7    3     -0.01      0.00 
  -10   -7    3     -0.33      0.00 
   -9   -7    3     -0.18      0.00 
   -8   -7    3      0.26      0.00 
   -7   -7    3      0.41      0.00 
   -6   -7    3      0.43      0.00 
   -5   -7    3      0.05      0.00 
   -4   -7    3     -1.61      0.00 
   -3   -7    3     -3.84      0.00 
   -2   -7    3     -3.95      0.00 
   -1   -7    3     -0.76      0.00 
    0   -7    3      3.09      0.00 
    1   -7    3      3.47      0.00 
    2   -7    3     -0.74      0.00 
    3   -7    3     -6.21      0.00 
    4   -7    3     -8.32      0.00 
    5   -7    3     -5.57      0.00 
    6   -7    3     -0.86      0.00 
    7   -7    3      1.88      0.00 
    8   -7    3      1.70      0.00 
    9   -7    3      0.45      0.00 
   10   -7    3     -0.15      0.00 
   11   -7    3      0.17      0.00 
   12   -7    3      0.64      0.00 
   13   -7    3      0.38      0.00 
   14   -7    3     -0.47      0.00 
   15   -7    3     -0.92      0.00 
   16   -7    3     -0.73      0.00 
  -14   -6    3     -0.07      0.00 
  -13   -6    3     -0.44      0.00 
  -12   -6    3     -0.40      0.00 
  -11   -6    3      0.01      0.00 
  -10   -6    3      0.37      0.00 
   -9   -6    3      0.79      0.00 
   -8   -6    3      1.77      0.00 
   -7   -6    3      2.92      0.00 
   -6   -6    3      3.40      0.00 
   -5   -6    3      3.22      0.00 
   -4   -6    3      2.30      0.00 
   -3   -6    3     -0.76      0.00 
   -2   -6    3     -6.65      0.00 
   -1   -6    3    -11.93      0.00 
    0   -6    3    -10.71      0.00 
    1   -6    3     -1.47      0.00 
    2   -6    3      9.70      0.00 
    3   -6    3     14.77      0.00 
    4   -6    3     11.42      0.00 
    5   -6    3      4.08      0.00 
    6   -6    3     -1.04      0.00 
    7   -6    3     -1.68      0.00 
    8   -6    3     -0.27      0.00 
    9   -6    3      0.42      0.00 
   10   -6    3      0.12      0.00 
   11   -6    3     -0.28      0.00 
   12   -6    3     -0.27      0.00 
   13   -6    3      0.19      0.00 
   14   -6    3      0.53      0.00 
   15   -6    3      0.33      0.00 
   16   -6    3      0.03      0.00 
  -14   -5    3      0.53      0.00 
  -13   -5    3      0.51      0.00 
  -12   -5    3      0.25      0.00 
  -11   -5    3      0.06      0.00 
  -10   -5    3     -0.13      0.00 
   -9   -5    3     -0.88      0.00 
   -8   -5    3     -2.36      0.00 
   -7   -5    3     -3.76      0.00 
   -6   -5    3     -4.17      0.00 
   -5   -5    3     -2.96      0.00 
   -4   -5    3      0.87      0.00 
   -3   -5    3      8.02      0.00 
   -2   -5    3     15.81      0.00 
   -1   -5    3     17.56      0.00 
    0   -5    3      9.48      0.00 
    1   -5    3     -2.74      0.00 
    2   -5    3     -9.16      0.00 
    3   -5    3     -6.52      0.00 
    4   -5    3      0.13      0.00 
    5   -5    3      4.26      0.00 
    6   -5    3      3.44      0.00 
    7   -5    3      0.20      0.00 
    8   -5    3     -1.70      0.00 
    9   -5    3     -1.46      0.00 
   10   -5    3     -0.71      0.00 
   11   -5    3     -0.41      0.00 
   12   -5    3     -0.48      0.00 
   13   -5    3     -0.44      0.00 
   14   -5    3      0.15      0.00 
   15   -5    3      0.93      0.00 
   16   -5    3      1.12      0.00 
   17   -5    3      0.81      0.00 
  -15   -4    3     -0.20      0.00 
  -14   -4    3     -0.03      0.00 
  -13   -4    3      0.29      0.00 
  -12   -4    3      0.30      0.00 
  -11   -4    3     -0.03      0.00 
  -10   -4    3     -0.26      0.00 
   -9   -4    3     -0.06      0.00 
   -8   -4    3      0.42      0.00 
   -7   -4    3      0.81      0.00 
   -6   -4    3      0.63      0.00 
   -5   -4    3     -0.95      0.00 
   -4   -4    3     -4.70      0.00 
   -3   -4    3     -9.62      0.00 
   -2   -4    3    -11.36      0.00 
   -1   -4    3     -6.35      0.00 
    0   -4    3      0.80      0.00 
    1   -4    3      0.49      0.00 
    2   -4    3     -8.77      0.00 
    3   -4    3    -17.83      0.00 
    4   -4    3    -18.50      0.00 
    5   -4    3    -11.17      0.00 
    6   -4    3     -1.88      0.00 
    7   -4    3      3.63      0.00 
    8   -4    3      4.22      0.00 
    9   -4    3      2.72      0.00 
   10   -4    3      1.40      0.00 
   11   -4    3      0.49      0.00 
   12   -4    3     -0.03      0.00 
   13   -4    3     -0.34      0.00 
   14   -4    3     -0.86      0.00 
   15   -4    3     -1.24      0.00 
   16   -4    3     -1.03      0.00 
   17   -4    3     -0.62      0.00 
  -15   -3    3     -0.40      0.00 
  -14   -3    3     -1.14      0.00 
  -13   -3    3     -1.38      0.00 
  -12   -3    3     -0.88      0.00 
  -11   -3    3     -0.16      0.00 
  -10   -3    3      0.52      0.00 
   -9   -3    3      1.46      0.00 
   -8   -3    3      2.63      0.00 
   -7   -3    3      3.51      0.00 
   -6   -3    3      3.89      0.00 
   -5   -3    3      4.01      0.00 
   -4   -3    3      3.43      0.00 
   -3   -3    3      0.03      0.00 
   -2   -3    3     -7.73      0.00 
   -1   -3    3    -14.46      0.00 
    0   -3    3     -9.26      0.00 
    1   -3    3      9.62      0.00 
    2   -3    3     28.20      0.00 
    3   -3    3     32.19      0.00 
    4   -3    3     21.66      0.00 
    5   -3    3      6.65      0.00 
    6   -3    3     -3.82      0.00 
    7   -3    3     -6.80      0.00 
    8   -3    3     -5.21      0.00 
    9   -3    3     -2.95      0.00 
   10   -3    3     -1.05      0.00 
   11   -3    3      0.50      0.00 
   12   -3    3      1.16      0.00 
   13   -3    3      1.13      0.00 
   14   -3    3      0.93      0.00 
   15   -3    3      0.45      0.00 
   16   -3    3     -0.11      0.00 
   17   -3    3     -0.25      0.00 
  -15   -2    3      0.78      0.00 
  -14   -2    3      1.42      0.00 
  -13   -2    3      1.16      0.00 
  -12   -2    3      0.47      0.00 
  -11   -2    3     -0.01      0.00 
  -10   -2    3     -0.66      0.00 
   -9   -2    3     -1.93      0.00 
   -8   -2    3     -3.41      0.00 
   -7   -2    3     -4.38      0.00 
   -6   -2    3     -4.20      0.00 
   -5   -2    3     -1.90      0.00 
   -4   -2    3      3.82      0.00 
   -3   -2    3     13.52      0.00 
   -2   -2    3     23.09      0.00 
   -1   -2    3     22.47      0.00 
    0   -2    3      6.87      0.00 
    1   -2    3    -12.13      0.00 
    2   -2    3    -18.10      0.00 
    3   -2    3     -9.56      0.00 
    4   -2    3      2.07      0.00 
    5   -2    3      8.02      0.00 
    6   -2    3      7.52      0.00 
    7   -2    3      4.14      0.00 
    8   -2    3      1.57      0.00 
    9   -2    3      0.41      0.00 
   10   -2    3     -0.52      0.00 
   11   -2    3     -1.11      0.00 
   12   -2    3     -0.99      0.00 
   13   -2    3     -0.75      0.00 
   14   -2    3     -0.44      0.00 
   15   -2    3      0.21      0.00 
   16   -2    3      0.58      0.00 
   17   -2    3      0.44      0.00 
  -15   -1    3     -0.45      0.00 
  -14   -1    3     -0.16      0.00 
  -13   -1    3      0.48      0.00 
  -12   -1    3      0.65      0.00 
  -11   -1    3      0.40      0.00 
  -10   -1    3      0.29      0.00 
   -9   -1    3      0.25      0.00 
   -8   -1    3      0.30      0.00 
   -7   -1    3      0.78      0.00 
   -6   -1    3      0.68      0.00 
   -5   -1    3     -2.07      0.00 
   -4   -1    3     -8.04      0.00 
   -3   -1    3    -14.37      0.00 
   -2   -1    3    -15.18      0.00 
   -1   -1    3     -7.90      0.00 
    0   -1    3     -1.40      0.00 
    1   -1    3     -8.15      0.00 
    2   -1    3    -25.41      0.00 
    3   -1    3    -36.54      0.00 
    4   -1    3    -32.08      0.00 
    5   -1    3    -17.58      0.00 
    6   -1    3     -3.33      0.00 
    7   -1    3      4.46      0.00 
    8   -1    3      5.65      0.00 
    9   -1    3      3.99      0.00 
   10   -1    3      2.14      0.00 
   11   -1    3      0.40      0.00 
   12   -1    3     -0.63      0.00 
   13   -1    3     -0.63      0.00 
   14   -1    3     -0.51      0.00 
   15   -1    3     -0.57      0.00 
   16   -1    3     -0.35      0.00 
   17   -1    3     -0.12      0.00 
  -15    0    3     -0.11      0.00 
  -14    0    3     -0.88      0.00 
  -13    0    3     -1.25      0.00 
  -12    0    3     -0.84      0.00 
  -11    0    3     -0.10      0.00 
  -10    0    3      0.91      0.00 
   -9    0    3      2.25      0.00 
   -8    0    3      2.81      0.00 
   -7    0    3      1.99      0.00 
   -6    0    3      1.39      0.00 
   -5    0    3      2.50      0.00 
   -4    0    3      3.64      0.00 
   -3    0    3      0.83      0.00 
   -2    0    3     -6.57      0.00 
   -1    0    3     -9.63      0.00 
    0    0    3      4.32      0.00 
    1    0    3     32.70      0.00 
    2    0    3     54.07      0.00 
    3    0    3     51.84      0.00 
    4    0    3     31.24      0.00 
    5    0    3      8.28      0.00 
    6    0    3     -6.38      0.00 
    7    0    3    -10.90      0.00 
    8    0    3     -9.16      0.00 
    9    0    3     -5.64      0.00 
   10    0    3     -2.09      0.00 
   11    0    3      0.65      0.00 
   12    0    3      1.61      0.00 
   13    0    3      1.45      0.00 
   14    0    3      1.30      0.00 
   15    0    3      0.96      0.00 
   16    0    3      0.34      0.00 
   17    0    3      0.04      0.00 
  -15    1    3      0.27      0.00 
  -14    1    3      0.54      0.00 
  -13    1    3      0.39      0.00 
  -12    1    3      0.00      0.00 
  -11    1    3     -0.57      0.00 
  -10    1    3     -1.53      0.00 
   -9    1    3     -2.25      0.00 
   -8    1    3     -1.78      0.00 
   -7    1    3     -0.92      0.00 
   -6    1    3     -1.07      0.00 
   -5    1    3     -1.01      0.00 
   -4    1    3      2.49      0.00 
   -3    1    3     10.23      0.00 
   -2    1    3     16.51      0.00 
   -1    1    3     11.47      0.00 
    0    1    3     -6.66      0.00 
    1    1    3    -24.09      0.00 
    2    1    3    -25.46      0.00 
    3    1    3    -12.11      0.00 
    4    1    3      2.64      0.00 
    5    1    3      9.88      0.00 
    6    1    3      9.70      0.00 
    7    1    3      6.26      0.00 
    8    1    3      3.27      0.00 
    9    1    3      1.48      0.00 
   10    1    3      0.21      0.00 
   11    1    3     -0.22      0.00 
   12    1    3     -0.01      0.00 
   13    1    3     -0.28      0.00 
   14    1    3     -0.79      0.00 
   15    1    3     -0.71      0.00 
   16    1    3     -0.41      0.00 
   17    1    3     -0.35      0.00 
  -15    2    3     -0.41      0.00 
  -14    2    3     -0.19      0.00 
  -13    2    3      0.27      0.00 
  -12    2    3      0.46      0.00 
  -11    2    3      0.47      0.00 
  -10    2    3      0.41      0.00 
   -9    2    3     -0.18      0.00 
   -8    2    3     -0.90      0.00 
   -7    2    3     -0.28      0.00 
   -6    2    3      1.14      0.00 
   -5    2    3      0.13      0.00 
   -4    2    3     -4.72      0.00 
   -3    2    3     -9.78      0.00 
   -2    2    3     -9.67      0.00 
   -1    2    3     -4.45      0.00 
    0    2    3     -2.47      0.00 
    1    2    3    -11.47      0.00 
    2    2    3    -26.36      0.00 
    3    2    3    -33.47      0.00 
    4    2    3    -26.83      0.00 
    5    2    3    -12.72      0.00 
    6    2    3     -0.28      0.00 
    7    2    3      5.88      0.00 
    8    2    3      6.35      0.00 
    9    2    3      4.01      0.00 
   10    2    3      0.86      0.00 
   11    2    3     -1.82      0.00 
   12    2    3     -2.51      0.00 
   13    2    3     -1.42      0.00 
   14    2    3     -0.38      0.00 
   15    2    3      0.03      0.00 
   16    2    3      0.44      0.00 
   17    2    3      0.77      0.00 
  -15    3    3      0.64      0.00 
  -14    3    3      0.43      0.00 
  -13    3    3     -0.07      0.00 
  -12    3    3     -0.26      0.00 
  -11    3    3      0.11      0.00 
  -10    3    3      0.86      0.00 
   -9    3    3      1.37      0.00 
   -8    3    3      0.70      0.00 
   -7    3    3     -0.97      0.00 
   -6    3    3     -1.25      0.00 
   -5    3    3      1.42      0.00 
   -4    3    3      4.26      0.00 
   -3    3    3      3.09      0.00 
   -2    3    3     -1.08      0.00 
   -1    3    3     -0.88      0.00 
    0    3    3     10.22      0.00 
    1    3    3     28.19      0.00 
    2    3    3     39.15      0.00 
    3    3    3     33.62      0.00 
    4    3    3     16.42      0.00 
    5    3    3     -0.41      0.00 
    6    3    3     -9.56      0.00 
    7    3    3    -11.16      0.00 
    8    3    3     -8.52      0.00 
    9    3    3     -4.20      0.00 
   10    3    3      0.04      0.00 
   11    3    3      2.25      0.00 
   12    3    3      1.87      0.00 
   13    3    3      0.70      0.00 
   14    3    3      0.20      0.00 
   15    3    3      0.03      0.00 
   16    3    3     -0.28      0.00 
   17    3    3     -0.53      0.00 
  -15    4    3     -0.35      0.00 
  -14    4    3     -0.32      0.00 
  -13    4    3     -0.14      0.00 
  -12    4    3     -0.16      0.00 
  -11    4    3     -0.51      0.00 
  -10    4    3     -0.70      0.00 
   -9    4    3     -0.06      0.00 
   -8    4    3      1.38      0.00 
   -7    4    3      1.98      0.00 
   -6    4    3      0.18      0.00 
   -5    4    3     -2.06      0.00 
   -4    4    3     -0.66      0.00 
   -3    4    3      4.36      0.00 
   -2    4    3      7.59      0.00 
   -1    4    3      3.94      0.00 
    0    4    3     -5.73      0.00 
    1    4    3    -14.13      0.00 
    2    4    3    -13.83      0.00 
    3    4    3     -5.33      0.00 
    4    4    3      3.79      0.00 
    5    4    3      7.77      0.00 
    6    4    3      7.12      0.00 
    7    4    3      4.83      0.00 
    8    4    3      2.46      0.00 
    9    4    3      0.56      0.00 
   10    4    3     -0.02      0.00 
   11    4    3      0.94      0.00 
   12    4    3      2.00      0.00 
   13    4    3      1.80      0.00 
   14    4    3      0.76      0.00 
   15    4    3     -0.10      0.00 
   16    4    3     -0.42      0.00 
   17    4    3     -0.34      0.00 
  -15    5    3     -0.13      0.00 
  -14    5    3     -0.11      0.00 
  -13    5    3      0.22      0.00 
  -12    5    3      0.75      0.00 
  -11    5    3      0.75      0.00 
  -10    5    3     -0.09      0.00 
   -9    5    3     -1.15      0.00 
   -8    5    3     -1.47      0.00 
   -7    5    3     -0.47      0.00 
   -6    5    3      0.82      0.00 
   -5    5    3     -0.36      0.00 
   -4    5    3     -4.50      0.00 
   -3    5    3     -7.77      0.00 
   -2    5    3     -6.82      0.00 
   -1    5    3     -2.92      0.00 
    0    5    3     -0.30      0.00 
    1    5    3     -2.17      0.00 
    2    5    3     -7.42      0.00 
    3    5    3    -10.74      0.00 
    4    5    3     -8.53      0.00 
    5    5    3     -3.06      0.00 
    6    5    3      1.36      0.00 
    7    5    3      3.22      0.00 
    8    5    3      3.03      0.00 
    9    5    3      1.09      0.00 
   10    5    3     -1.89      0.00 
   11    5    3     -4.09      0.00 
   12    5    3     -4.08      0.00 
   13    5    3     -2.31      0.00 
   14    5    3     -0.35      0.00 
   15    5    3      0.69      0.00 
   16    5    3      0.76      0.00 
   17    5    3      0.49      0.00 
  -15    6    3      0.24      0.00 
  -14    6    3      0.31      0.00 
  -13    6    3     -0.24      0.00 
  -12    6    3     -0.79      0.00 
  -11    6    3     -0.37      0.00 
  -10    6    3      0.46      0.00 
   -9    6    3      0.34      0.00 
   -8    6    3     -0.82      0.00 
   -7    6    3     -1.77      0.00 
   -6    6    3     -0.72      0.00 
   -5    6    3      2.53      0.00 
   -4    6    3      4.89      0.00 
   -3    6    3      3.36      0.00 
   -2    6    3     -0.44      0.00 
   -1    6    3     -2.19      0.00 
    0    6    3      0.46      0.00 
    1    6    3      6.25      0.00 
    2    6    3     10.64      0.00 
    3    6    3      9.40      0.00 
    4    6    3      3.56      0.00 
    5    6    3     -2.19      0.00 
    6    6    3     -5.13      0.00 
    7    6    3     -5.44      0.00 
    8    6    3     -3.57      0.00 
    9    6    3     -0.33      0.00 
   10    6    3      2.36      0.00 
   11    6    3      2.97      0.00 
   12    6    3      1.76      0.00 
   13    6    3      0.10      0.00 
   14    6    3     -0.74      0.00 
   15    6    3     -0.53      0.00 
   16    6    3     -0.02      0.00 
   17    6    3      0.11      0.00 
  -14    7    3     -0.30      0.00 
  -13    7    3      0.04      0.00 
  -12    7    3     -0.19      0.00 
  -11    7    3     -0.79      0.00 
  -10    7    3     -0.36      0.00 
   -9    7    3      1.19      0.00 
   -8    7    3      2.36      0.00 
   -7    7    3      1.90      0.00 
   -6    7    3     -0.18      0.00 
   -5    7    3     -1.77      0.00 
   -4    7    3     -0.11      0.00 
   -3    7    3      4.05      0.00 
   -2    7    3      6.61      0.00 
   -1    7    3      5.07      0.00 
    0    7    3      0.34      0.00 
    1    7    3     -4.63      0.00 
    2    7    3     -6.30      0.00 
    3    7    3     -3.67      0.00 
    4    7    3      0.47      0.00 
    5    7    3      3.19      0.00 
    6    7    3      3.95      0.00 
    7    7    3      3.20      0.00 
    8    7    3      1.52      0.00 
    9    7    3      0.14      0.00 
   10    7    3      0.02      0.00 
   11    7    3      0.88      0.00 
   12    7    3      1.73      0.00 
   13    7    3      1.66      0.00 
   14    7    3      0.53      0.00 
   15    7    3     -0.59      0.00 
   16    7    3     -0.66      0.00 
  -14    8    3     -0.10      0.00 
  -13    8    3     -0.02      0.00 
  -12    8    3      0.92      0.00 
  -11    8    3      1.25      0.00 
  -10    8    3     -0.01      0.00 
   -9    8    3     -1.43      0.00 
   -8    8    3     -1.47      0.00 
   -7    8    3     -0.21      0.00 
   -6    8    3      0.85      0.00 
   -5    8    3     -0.32      0.00 
   -4    8    3     -3.80      0.00 
   -3    8    3     -6.50      0.00 
   -2    8    3     -5.93      0.00 
   -1    8    3     -2.93      0.00 
    0    8    3      0.25      0.00 
    1    8    3      1.73      0.00 
    2    8    3      0.73      0.00 
    3    8    3     -1.42      0.00 
    4    8    3     -2.62      0.00 
    5    8    3     -2.29      0.00 
    6    8    3     -1.03      0.00 
    7    8    3      0.23      0.00 
    8    8    3      0.32      0.00 
    9    8    3     -1.03      0.00 
   10    8    3     -2.62      0.00 
   11    8    3     -3.27      0.00 
   12    8    3     -2.70      0.00 
   13    8    3     -1.14      0.00 
   14    8    3      0.54      0.00 
   15    8    3      1.04      0.00 
   16    8    3      0.29      0.00 
  -14    9    3      0.56      0.00 
  -13    9    3      0.17      0.00 
  -12    9    3     -0.53      0.00 
  -11    9    3     -0.29      0.00 
  -10    9    3      0.48      0.00 
   -9    9    3      0.47      0.00 
   -8    9    3     -0.28      0.00 
   -7    9    3     -0.74      0.00 
   -6    9    3      0.03      0.00 
   -5    9    3      2.08      0.00 
   -4    9    3      3.67      0.00 
   -3    9    3      2.91      0.00 
   -2    9    3      0.48      0.00 
   -1    9    3     -1.40      0.00 
    0    9    3     -1.41      0.00 
    1    9    3      0.47      0.00 
    2    9    3      2.97      0.00 
    3    9    3      4.05      0.00 
    4    9    3      2.91      0.00 
    5    9    3      0.50      0.00 
    6    9    3     -1.70      0.00 
    7    9    3     -2.27      0.00 
    8    9    3     -0.74      0.00 
    9    9    3      1.58      0.00 
   10    9    3      2.84      0.00 
   11    9    3      2.52      0.00 
   12    9    3      1.18      0.00 
   13    9    3     -0.22      0.00 
   14    9    3     -0.68      0.00 
   15    9    3     -0.06      0.00 
   16    9    3      0.56      0.00 
  -13   10    3      0.14      0.00 
  -12   10    3     -0.04      0.00 
  -11   10    3     -0.72      0.00 
  -10   10    3     -0.54      0.00 
   -9   10    3      0.55      0.00 
   -8   10    3      0.99      0.00 
   -7   10    3      0.02      0.00 
   -6   10    3     -1.60      0.00 
   -5   10    3     -2.26      0.00 
   -4   10    3     -0.70      0.00 
   -3   10    3      2.28      0.00 
   -2   10    3      4.29      0.00 
   -1   10    3      4.00      0.00 
    0   10    3      1.75      0.00 
    1   10    3     -1.29      0.00 
    2   10    3     -3.42      0.00 
    3   10    3     -3.36      0.00 
    4   10    3     -1.37      0.00 
    5   10    3      1.12      0.00 
    6   10    3      2.47      0.00 
    7   10    3      1.93      0.00 
    8   10    3      0.45      0.00 
    9   10    3     -0.47      0.00 
   10   10    3     -0.44      0.00 
   11   10    3      0.04      0.00 
   12   10    3      0.53      0.00 
   13   10    3      0.46      0.00 
   14   10    3     -0.45      0.00 
   15   10    3     -1.25      0.00 
  -13   11    3     -0.50      0.00 
  -12   11    3      0.18      0.00 
  -11   11    3      0.60      0.00 
  -10   11    3     -0.15      0.00 
   -9   11    3     -0.91      0.00 
   -8   11    3     -0.40      0.00 
   -7   11    3      0.89      0.00 
   -6   11    3      1.51      0.00 
   -5   11    3      0.34      0.00 
   -4   11    3     -2.30      0.00 
   -3   11    3     -4.40      0.00 
   -2   11    3     -4.24      0.00 
   -1   11    3     -2.11      0.00 
    0   11    3      0.55      0.00 
    1   11    3      2.26      0.00 
    2   11    3      2.23      0.00 
    3   11    3      0.82      0.00 
    4   11    3     -0.88      0.00 
    5   11    3     -1.78      0.00 
    6   11    3     -1.41      0.00 
    7   11    3     -0.54      0.00 
    8   11    3     -0.56      0.00 
    9   11    3     -1.54      0.00 
   10   11    3     -2.22      0.00 
   11   11    3     -1.92      0.00 
   12   11    3     -0.91      0.00 
   13   11    3      0.39      0.00 
   14   11    3      1.38      0.00 
  -12   12    3     -0.13      0.00 
  -11   12    3      0.23      0.00 
  -10   12    3      0.74      0.00 
   -9   12    3      0.41      0.00 
   -8   12    3     -0.40      0.00 
   -7   12    3     -0.63      0.00 
   -6   12    3      0.15      0.00 
   -5   12    3      1.63      0.00 
   -4   12    3      2.70      0.00 
   -3   12    3      2.18      0.00 
   -2   12    3      0.25      0.00 
   -1   12    3     -1.83      0.00 
    0   12    3     -2.80      0.00 
    1   12    3     -1.97      0.00 
    2   12    3      0.19      0.00 
    3   12    3      2.16      0.00 
    4   12    3      2.57      0.00 
    5   12    3      1.25      0.00 
    6   12    3     -0.54      0.00 
    7   12    3     -1.03      0.00 
    8   12    3      0.25      0.00 
    9   12    3      1.97      0.00 
   10   12    3      2.62      0.00 
   11   12    3      1.87      0.00 
   12   12    3      0.39      0.00 
   13   12    3     -0.80      0.00 
   14   12    3     -0.93      0.00 
  -11   13    3     -0.62      0.00 
  -10   13    3     -0.38      0.00 
   -9   13    3      0.22      0.00 
   -8   13    3      0.17      0.00 
   -7   13    3     -0.62      0.00 
   -6   13    3     -1.55      0.00 
   -5   13    3     -1.80      0.00 
   -4   13    3     -0.70      0.00 
   -3   13    3      1.34      0.00 
   -2   13    3      2.92      0.00 
   -1   13    3      3.13      0.00 
    0   13    3      1.86      0.00 
    1   13    3     -0.43      0.00 
    2   13    3     -2.51      0.00 
    3   13    3     -3.05      0.00 
    4   13    3     -1.73      0.00 
    5   13    3      0.53      0.00 
    6   13    3      2.06      0.00 
    7   13    3      1.84      0.00 
    8   13    3      0.46      0.00 
    9   13    3     -0.78      0.00 
   10   13    3     -1.14      0.00 
   11   13    3     -0.69      0.00 
   12   13    3     -0.02      0.00 
   13   13    3      0.27      0.00 
  -10   14    3     -0.17      0.00 
   -9   14    3     -0.10      0.00 
   -8   14    3      0.61      0.00 
   -7   14    3      1.47      0.00 
   -6   14    3      1.76      0.00 
   -5   14    3      0.78      0.00 
   -4   14    3     -1.22      0.00 
   -3   14    3     -2.76      0.00 
   -2   14    3     -2.83      0.00 
   -1   14    3     -1.58      0.00 
    0   14    3      0.36      0.00 
    1   14    3      1.94      0.00 
    2   14    3      2.02      0.00 
    3   14    3      0.71      0.00 
    4   14    3     -0.78      0.00 
    5   14    3     -1.45      0.00 
    6   14    3     -1.14      0.00 
    7   14    3     -0.41      0.00 
    8   14    3     -0.01      0.00 
    9   14    3     -0.15      0.00 
   10   14    3     -0.46      0.00 
   11   14    3     -0.47      0.00 
   12   14    3     -0.14      0.00 
   -9   15    3     -0.24      0.00 
   -8   15    3     -0.51      0.00 
   -7   15    3     -0.82      0.00 
   -6   15    3     -0.72      0.00 
   -5   15    3      0.29      0.00 
   -4   15    3      1.38      0.00 
   -3   15    3      1.46      0.00 
   -2   15    3      0.55      0.00 
   -1   15    3     -0.81      0.00 
    0   15    3     -1.85      0.00 
    1   15    3     -1.51      0.00 
    2   15    3      0.22      0.00 
    3   15    3      1.75      0.00 
    4   15    3      1.76      0.00 
    5   15    3      0.41      0.00 
    6   15    3     -1.05      0.00 
    7   15    3     -1.46      0.00 
    8   15    3     -0.60      0.00 
    9   15    3      0.74      0.00 
   10   15    3      1.43      0.00 
   11   15    3      1.05      0.00 
   -8   16    3     -0.18      0.00 
   -7   16    3     -0.49      0.00 
   -6   16    3     -0.81      0.00 
   -5   16    3     -0.89      0.00 
   -4   16    3     -0.32      0.00 
   -3   16    3      0.65      0.00 
   -2   16    3      1.59      0.00 
   -1   16    3      2.25      0.00 
    0   16    3      1.94      0.00 
    1   16    3      0.29      0.00 
    2   16    3     -1.47      0.00 
    3   16    3     -1.88      0.00 
    4   16    3     -0.86      0.00 
    5   16    3      0.55      0.00 
    6   16    3      1.31      0.00 
    7   16    3      0.98      0.00 
    8   16    3     -0.09      0.00 
    9   16    3     -1.08      0.00 
   10   16    3     -1.24      0.00 
   -6   17    3      1.32      0.00 
   -5   17    3      0.86      0.00 
   -4   17    3     -0.33      0.00 
   -3   17    3     -1.28      0.00 
   -2   17    3     -1.59      0.00 
   -1   17    3     -1.25      0.00 
    0   17    3     -0.23      0.00 
    1   17    3      0.85      0.00 
    2   17    3      1.00      0.00 
    3   17    3      0.23      0.00 
    4   17    3     -0.54      0.00 
    5   17    3     -0.66      0.00 
    6   17    3     -0.21      0.00 
    7   17    3      0.30      0.00 
    8   17    3      0.52      0.00 
   -4   18    3      0.16      0.00 
   -3   18    3      0.57      0.00 
   -2   18    3      0.43      0.00 
   -1   18    3     -0.29      0.00 
    0   18    3     -0.96      0.00 
    1   18    3     -0.69      0.00 
    2   18    3      0.47      0.00 
    3   18    3      1.43      0.00 
    4   18    3      1.41      0.00 
    5   18    3      0.61      0.00 
    6   18    3     -0.10      0.00 
   -3  -16    4     -0.82      0.00 
   -2  -16    4     -0.64      0.00 
   -1  -16    4     -0.14      0.00 
    0  -16    4      0.23      0.00 
    1  -16    4      0.26      0.00 
    2  -16    4     -0.20      0.00 
    3  -16    4     -0.74      0.00 
    4  -16    4     -0.82      0.00 
    5  -16    4     -0.72      0.00 
    6  -16    4     -0.74      0.00 
   -5  -15    4     -0.18      0.00 
   -4  -15    4      0.46      0.00 
   -3  -15    4      0.68      0.00 
   -2  -15    4      0.34      0.00 
   -1  -15    4     -0.30      0.00 
    0  -15    4     -0.98      0.00 
    1  -15    4     -1.10      0.00 
    2  -15    4     -0.32      0.00 
    3  -15    4      0.54      0.00 
    4  -15    4      0.70      0.00 
    5  -15    4      0.45      0.00 
    6  -15    4     -0.03      0.00 
    7  -15    4     -0.73      0.00 
    8  -15    4     -0.93      0.00 
   -7  -14    4      0.82      0.00 
   -6  -14    4      0.58      0.00 
   -5  -14    4      0.03      0.00 
   -4  -14    4     -0.36      0.00 
   -3  -14    4     -0.27      0.00 
   -2  -14    4      0.07      0.00 
   -1  -14    4      0.37      0.00 
    0  -14    4      0.58      0.00 
    1  -14    4      0.40      0.00 
    2  -14    4     -0.08      0.00 
    3  -14    4     -0.16      0.00 
    4  -14    4      0.34      0.00 
    5  -14    4      1.04      0.00 
    6  -14    4      1.60      0.00 
    7  -14    4      1.35      0.00 
    8  -14    4      0.11      0.00 
    9  -14    4     -0.69      0.00 
   10  -14    4     -0.11      0.00 
   -8  -13    4     -0.53      0.00 
   -7  -13    4     -0.37      0.00 
   -6  -13    4     -0.27      0.00 
   -5  -13    4     -0.15      0.00 
   -4  -13    4     -0.12      0.00 
   -3  -13    4     -0.21      0.00 
   -2  -13    4      0.01      0.00 
   -1  -13    4      0.68      0.00 
    0  -13    4      1.45      0.00 
    1  -13    4      1.82      0.00 
    2  -13    4      1.19      0.00 
    3  -13    4     -0.40      0.00 
    4  -13    4     -1.86      0.00 
    5  -13    4     -2.35      0.00 
    6  -13    4     -1.70      0.00 
    7  -13    4     -0.04      0.00 
    8  -13    4      1.47      0.00 
    9  -13    4      1.33      0.00 
   10  -13    4      0.14      0.00 
   11  -13    4     -0.34      0.00 
   -9  -12    4     -0.22      0.00 
   -8  -12    4     -0.33      0.00 
   -7  -12    4     -0.09      0.00 
   -6  -12    4      0.40      0.00 
   -5  -12    4      0.86      0.00 
   -4  -12    4      1.27      0.00 
   -3  -12    4      1.15      0.00 
   -2  -12    4      0.01      0.00 
   -1  -12    4     -1.63      0.00 
    0  -12    4     -2.76      0.00 
    1  -12    4     -2.57      0.00 
    2  -12    4     -0.81      0.00 
    3  -12    4      1.41      0.00 
    4  -12    4      2.33      0.00 
    5  -12    4      1.55      0.00 
    6  -12    4      0.00      0.00 
    7  -12    4     -1.12      0.00 
    8  -12    4     -0.91      0.00 
    9  -12    4      0.12      0.00 
   10  -12    4      0.37      0.00 
   11  -12    4     -0.23      0.00 
   12  -12    4     -0.22      0.00 
   13  -12    4      0.50      0.00 
  -10  -11    4      0.74      0.00 
   -9  -11    4      1.23      0.00 
   -8  -11    4      1.08      0.00 
   -7  -11    4      0.27      0.00 
   -6  -11    4     -0.54      0.00 
   -5  -11    4     -1.31      0.00 
   -4  -11    4     -1.90      0.00 
   -3  -11    4     -1.36      0.00 
   -2  -11    4      0.33      0.00 
   -1  -11    4      1.80      0.00 
    0  -11    4      1.91      0.00 
    1  -11    4      0.58      0.00 
    2  -11    4     -1.26      0.00 
    3  -11    4     -1.92      0.00 
    4  -11    4     -0.70      0.00 
    5  -11    4      1.12      0.00 
    6  -11    4      1.77      0.00 
    7  -11    4      0.69      0.00 
    8  -11    4     -1.05      0.00 
    9  -11    4     -1.58      0.00 
   10  -11    4     -0.39      0.00 
   11  -11    4      0.75      0.00 
   12  -11    4      0.53      0.00 
   13  -11    4     -0.16      0.00 
  -11  -10    4      0.02      0.00 
  -10  -10    4     -0.67      0.00 
   -9  -10    4     -1.30      0.00 
   -8  -10    4     -1.16      0.00 
   -7  -10    4     -0.66      0.00 
   -6  -10    4     -0.24      0.00 
   -5  -10    4      0.25      0.00 
   -4  -10    4      0.29      0.00 
   -3  -10    4     -0.69      0.00 
   -2  -10    4     -1.55      0.00 
   -1  -10    4     -0.91      0.00 
    0  -10    4      0.95      0.00 
    1  -10    4      2.62      0.00 
    2  -10    4      2.58      0.00 
    3  -10    4      0.32      0.00 
    4  -10    4     -2.59      0.00 
    5  -10    4     -3.73      0.00 
    6  -10    4     -2.40      0.00 
    7  -10    4     -0.04      0.00 
    8  -10    4      1.32      0.00 
    9  -10    4      0.84      0.00 
   10  -10    4     -0.40      0.00 
   11  -10    4     -0.75      0.00 
   12  -10    4     -0.28      0.00 
   13  -10    4     -0.12      0.00 
   14  -10    4     -0.41      0.00 
  -12   -9    4     -0.59      0.00 
  -11   -9    4     -0.45      0.00 
  -10   -9    4      0.10      0.00 
   -9   -9    4      0.44      0.00 
   -8   -9    4      0.68      0.00 
   -7   -9    4      1.28      0.00 
   -6   -9    4      1.81      0.00 
   -5   -9    4      2.07      0.00 
   -4   -9    4      2.62      0.00 
   -3   -9    4      2.79      0.00 
   -2   -9    4      0.88      0.00 
   -1   -9    4     -2.74      0.00 
    0   -9    4     -5.50      0.00 
    1   -9    4     -5.16      0.00 
    2   -9    4     -1.54      0.00 
    3   -9    4      3.05      0.00 
    4   -9    4      5.27      0.00 
    5   -9    4      3.98      0.00 
    6   -9    4      1.28      0.00 
    7   -9    4     -0.21      0.00 
    8   -9    4      0.05      0.00 
    9   -9    4      0.86      0.00 
   10   -9    4      0.93      0.00 
   11   -9    4      0.18      0.00 
   12   -9    4     -0.39      0.00 
   13   -9    4     -0.18      0.00 
   14   -9    4      0.31      0.00 
   15   -9    4      0.46      0.00 
  -12   -8    4      0.69      0.00 
  -11   -8    4      0.40      0.00 
  -10   -8    4      0.29      0.00 
   -9   -8    4      0.42      0.00 
   -8   -8    4     -0.12      0.00 
   -7   -8    4     -1.38      0.00 
   -6   -8    4     -2.45      0.00 
   -5   -8    4     -3.16      0.00 
   -4   -8    4     -3.27      0.00 
   -3   -8    4     -1.28      0.00 
   -2   -8    4      3.06      0.00 
   -1   -8    4      7.03      0.00 
    0   -8    4      7.45      0.00 
    1   -8    4      3.73      0.00 
    2   -8    4     -1.53      0.00 
    3   -8    4     -4.41      0.00 
    4   -8    4     -3.08      0.00 
    5   -8    4      0.24      0.00 
    6   -8    4      1.90      0.00 
    7   -8    4      0.88      0.00 
    8   -8    4     -0.88      0.00 
    9   -8    4     -1.44      0.00 
   10   -8    4     -0.68      0.00 
   11   -8    4      0.24      0.00 
   12   -8    4      0.40      0.00 
   13   -8    4      0.02      0.00 
   14   -8    4     -0.07      0.00 
   15   -8    4      0.23      0.00 
  -13   -7    4     -0.50      0.00 
  -12   -7    4     -0.16      0.00 
  -11   -7    4      0.02      0.00 
  -10   -7    4     -0.34      0.00 
   -9   -7    4     -0.69      0.00 
   -8   -7    4     -0.41      0.00 
   -7   -7    4      0.14      0.00 
   -6   -7    4      0.63      0.00 
   -5   -7    4      1.04      0.00 
   -4   -7    4      0.41      0.00 
   -3   -7    4     -2.01      0.00 
   -2   -7    4     -4.46      0.00 
   -1   -7    4     -3.96      0.00 
    0   -7    4     -0.15      0.00 
    1   -7    4      3.67      0.00 
    2   -7    4      3.64      0.00 
    3   -7    4     -0.70      0.00 
    4   -7    4     -5.78      0.00 
    5   -7    4     -7.44      0.00 
    6   -7    4     -4.98      0.00 
    7   -7    4     -1.27      0.00 
    8   -7    4      0.82      0.00 
    9   -7    4      0.90      0.00 
   10   -7    4      0.23      0.00 
   11   -7    4      0.00      0.00 
   12   -7    4      0.40      0.00 
   13   -7    4      0.60      0.00 
   14   -7    4      0.02      0.00 
   15   -7    4     -0.66      0.00 
   16   -7    4     -0.65      0.00 
  -13   -6    4     -0.23      0.00 
  -12   -6    4     -0.58      0.00 
  -11   -6    4     -0.41      0.00 
  -10   -6    4      0.10      0.00 
   -9   -6    4      0.49      0.00 
   -8   -6    4      0.92      0.00 
   -7   -6    4      1.68      0.00 
   -6   -6    4      2.30      0.00 
   -5   -6    4      2.49      0.00 
   -4   -6    4      2.59      0.00 
   -3   -6    4      1.88      0.00 
   -2   -6    4     -1.70      0.00 
   -1   -6    4     -8.19      0.00 
    0   -6    4    -13.07      0.00 
    1   -6    4    -10.70      0.00 
    2   -6    4     -1.10      0.00 
    3   -6    4      9.06      0.00 
    4   -6    4     12.90      0.00 
    5   -6    4      9.47      0.00 
    6   -6    4      3.38      0.00 
    7   -6    4     -0.40      0.00 
    8   -6    4     -0.86      0.00 
    9   -6    4     -0.12      0.00 
   10   -6    4      0.14      0.00 
   11   -6    4     -0.17      0.00 
   12   -6    4     -0.48      0.00 
   13   -6    4     -0.29      0.00 
   14   -6    4      0.21      0.00 
   15   -6    4      0.32      0.00 
   16   -6    4      0.01      0.00 
  -14   -5    4      0.48      0.00 
  -13   -5    4      0.80      0.00 
  -12   -5    4      0.83      0.00 
  -11   -5    4      0.57      0.00 
  -10   -5    4      0.31      0.00 
   -9   -5    4      0.01      0.00 
   -8   -5    4     -0.76      0.00 
   -7   -5    4     -2.06      0.00 
   -6   -5    4     -3.22      0.00 
   -5   -5    4     -3.55      0.00 
   -4   -5    4     -2.23      0.00 
   -3   -5    4      2.24      0.00 
   -2   -5    4     10.28      0.00 
   -1   -5    4     17.76      0.00 
    0   -5    4     17.67      0.00 
    1   -5    4      8.29      0.00 
    2   -5    4     -3.13      0.00 
    3   -5    4     -8.10      0.00 
    4   -5    4     -5.24      0.00 
    5   -5    4      0.51      0.00 
    6   -5    4      3.70      0.00 
    7   -5    4      2.74      0.00 
    8   -5    4      0.17      0.00 
    9   -5    4     -1.15      0.00 
   10   -5    4     -1.02      0.00 
   11   -5    4     -0.57      0.00 
   12   -5    4     -0.43      0.00 
   13   -5    4     -0.50      0.00 
   14   -5    4     -0.26      0.00 
   15   -5    4      0.41      0.00 
   16   -5    4      0.82      0.00 
   17   -5    4      0.68      0.00 
  -14   -4    4     -0.43      0.00 
  -13   -4    4     -0.32      0.00 
  -12   -4    4     -0.14      0.00 
  -11   -4    4     -0.18      0.00 
  -10   -4    4     -0.43      0.00 
   -9   -4    4     -0.61      0.00 
   -8   -4    4     -0.39      0.00 
   -7   -4    4      0.20      0.00 
   -6   -4    4      0.80      0.00 
   -5   -4    4      0.76      0.00 
   -4   -4    4     -1.07      0.00 
   -3   -4    4     -5.59      0.00 
   -2   -4    4    -10.80      0.00 
   -1   -4    4    -11.20      0.00 
    0   -4    4     -4.62      0.00 
    1   -4    4      2.12      0.00 
    2   -4    4      0.66      0.00 
    3   -4    4     -7.86      0.00 
    4   -4    4    -14.96      0.00 
    5   -4    4    -14.92      0.00 
    6   -4    4     -8.71      0.00 
    7   -4    4     -1.34      0.00 
    8   -4    4      2.82      0.00 
    9   -4    4      3.36      0.00 
   10   -4    4      2.41      0.00 
   11   -4    4      1.32      0.00 
   12   -4    4      0.51      0.00 
   13   -4    4      0.08      0.00 
   14   -4    4     -0.32      0.00 
   15   -4    4     -0.79      0.00 
   16   -4    4     -0.83      0.00 
   17   -4    4     -0.52      0.00 
  -14   -3    4     -0.32      0.00 
  -13   -3    4     -0.90      0.00 
  -12   -3    4     -1.00      0.00 
  -11   -3    4     -0.59      0.00 
  -10   -3    4      0.03      0.00 
   -9   -3    4      0.77      0.00 
   -8   -3    4      1.65      0.00 
   -7   -3    4      2.42      0.00 
   -6   -3    4      2.80      0.00 
   -5   -3    4      2.90      0.00 
   -4   -3    4      3.14      0.00 
   -3   -3    4      2.71      0.00 
   -2   -3    4     -1.45      0.00 
   -1   -3    4    -10.20      0.00 
    0   -3    4    -16.10      0.00 
    1   -3    4     -9.29      0.00 
    2   -3    4      8.22      0.00 
    3   -3    4     22.83      0.00 
    4   -3    4     24.76      0.00 
    5   -3    4     15.79      0.00 
    6   -3    4      3.91      0.00 
    7   -3    4     -3.90      0.00 
    8   -3    4     -5.81      0.00 
    9   -3    4     -4.55      0.00 
   10   -3    4     -2.66      0.00 
   11   -3    4     -0.74      0.00 
   12   -3    4      0.63      0.00 
   13   -3    4      1.04      0.00 
   14   -3    4      0.96      0.00 
   15   -3    4      0.63      0.00 
   16   -3    4      0.08      0.00 
   17   -3    4     -0.24      0.00 
  -14   -2    4      0.89      0.00 
  -13   -2    4      1.34      0.00 
  -12   -2    4      1.10      0.00 
  -11   -2    4      0.66      0.00 
  -10   -2    4      0.22      0.00 
   -9   -2    4     -0.55      0.00 
   -8   -2    4     -1.69      0.00 
   -7   -2    4     -2.83      0.00 
   -6   -2    4     -3.51      0.00 
   -5   -2    4     -3.12      0.00 
   -4   -2    4     -0.61      0.00 
   -3   -2    4      5.82      0.00 
   -2   -2    4     16.58      0.00 
   -1   -2    4     25.59      0.00 
    0   -2    4     22.56      0.00 
    1   -2    4      6.62      0.00 
    2   -2    4     -8.98      0.00 
    3   -2    4    -12.36      0.00 
    4   -2    4     -5.34      0.00 
    5   -2    4      3.17      0.00 
    6   -2    4      7.30      0.00 
    7   -2    4      6.49      0.00 
    8   -2    4      3.68      0.00 
    9   -2    4      1.59      0.00 
   10   -2    4      0.26      0.00 
   11   -2    4     -0.80      0.00 
   12   -2    4     -1.15      0.00 
   13   -2    4     -0.99      0.00 
   14   -2    4     -0.76      0.00 
   15   -2    4     -0.24      0.00 
   16   -2    4      0.32      0.00 
   17   -2    4      0.39      0.00 
  -15   -1    4     -0.31      0.00 
  -14   -1    4     -0.54      0.00 
  -13   -1    4     -0.16      0.00 
  -12   -1    4      0.28      0.00 
  -11   -1    4      0.30      0.00 
  -10   -1    4      0.16      0.00 
   -9   -1    4     -0.02      0.00 
   -8   -1    4     -0.30      0.00 
   -7   -1    4     -0.15      0.00 
   -6   -1    4      0.55      0.00 
   -5   -1    4      0.27      0.00 
   -4   -1    4     -3.21      0.00 
   -3   -1    4    -10.15      0.00 
   -2   -1    4    -16.58      0.00 
   -1   -1    4    -15.76      0.00 
    0   -1    4     -7.20      0.00 
    1   -1    4     -1.65      0.00 
    2   -1    4     -8.48      0.00 
    3   -1    4    -21.90      0.00 
    4   -1    4    -28.68      0.00 
    5   -1    4    -23.83      0.00 
    6   -1    4    -12.26      0.00 
    7   -1    4     -1.45      0.00 
    8   -1    4      4.07      0.00 
    9   -1    4      4.80      0.00 
   10   -1    4      3.61      0.00 
   11   -1    4      1.86      0.00 
   12   -1    4      0.22      0.00 
   13   -1    4     -0.40      0.00 
   14   -1    4     -0.33      0.00 
   15   -1    4     -0.38      0.00 
   16   -1    4     -0.34      0.00 
   17   -1    4     -0.07      0.00 
   18   -1    4     -0.01      0.00 
  -15    0    4      0.22      0.00 
  -14    0    4     -0.35      0.00 
  -13    0    4     -1.12      0.00 
  -12    0    4     -1.30      0.00 
  -11    0    4     -0.91      0.00 
  -10    0    4     -0.17      0.00 
   -9    0    4      1.18      0.00 
   -8    0    4      2.63      0.00 
   -7    0    4      2.75      0.00 
   -6    0    4      1.62      0.00 
   -5    0    4      1.36      0.00 
   -4    0    4      3.11      0.00 
   -3    0    4      4.23      0.00 
   -2    0    4      0.19      0.00 
   -1    0    4     -8.31      0.00 
    0    0    4    -10.73      0.00 
    1    0    4      2.99      0.00 
    2    0    4     26.44      0.00 
    3    0    4     41.13      0.00 
    4    0    4     37.23      0.00 
    5    0    4     20.81      0.00 
    6    0    4      3.48      0.00 
    7    0    4     -7.14      0.00 
    8    0    4     -9.97      0.00 
    9    0    4     -8.27      0.00 
   10    0    4     -4.96      0.00 
   11    0    4     -1.42      0.00 
   12    0    4      0.86      0.00 
   13    0    4      1.37      0.00 
   14    0    4      1.25      0.00 
   15    0    4      1.09      0.00 
   16    0    4      0.61      0.00 
   17    0    4      0.16      0.00 
   18    0    4      0.06      0.00 
  -15    1    4      0.26      0.00 
  -14    1    4      0.72      0.00 
  -13    1    4      0.91      0.00 
  -12    1    4      0.70      0.00 
  -11    1    4      0.29      0.00 
  -10    1    4     -0.54      0.00 
   -9    1    4     -1.70      0.00 
   -8    1    4     -2.13      0.00 
   -7    1    4     -1.32      0.00 
   -6    1    4     -0.67      0.00 
   -5    1    4     -1.14      0.00 
   -4    1    4     -0.67      0.00 
   -3    1    4      4.16      0.00 
   -2    1    4     13.16      0.00 
   -1    1    4     19.19      0.00 
    0    1    4     13.31      0.00 
    1    1    4     -3.12      0.00 
    2    1    4    -16.56      0.00 
    3    1    4    -16.45      0.00 
    4    1    4     -6.15      0.00 
    5    1    4      4.36      0.00 
    6    1    4      9.24      0.00 
    7    1    4      8.71      0.00 
    8    1    4      5.98      0.00 
    9    1    4      3.41      0.00 
   10    1    4      1.25      0.00 
   11    1    4     -0.19      0.00 
   12    1    4     -0.40      0.00 
   13    1    4     -0.30      0.00 
   14    1    4     -0.66      0.00 
   15    1    4     -0.84      0.00 
   16    1    4     -0.59      0.00 
   17    1    4     -0.46      0.00 
   18    1    4     -0.43      0.00 
  -15    2    4     -0.53      0.00 
  -14    2    4     -0.57      0.00 
  -13    2    4     -0.13      0.00 
  -12    2    4      0.31      0.00 
  -11    2    4      0.52      0.00 
  -10    2    4      0.67      0.00 
   -9    2    4      0.42      0.00 
   -8    2    4     -0.56      0.00 
   -7    2    4     -1.12      0.00 
   -6    2    4      0.06      0.00 
   -5    2    4      1.27      0.00 
   -4    2    4     -1.06      0.00 
   -3    2    4     -7.16      0.00 
   -2    2    4    -12.26      0.00 
   -1    2    4    -11.47      0.00 
    0    2    4     -6.34      0.00 
    1    2    4     -4.98      0.00 
    2    2    4    -12.55      0.00 
    3    2    4    -23.24      0.00 
    4    2    4    -26.83      0.00 
    5    2    4    -20.29      0.00 
    6    2    4     -8.93      0.00 
    7    2    4      0.53      0.00 
    8    2    4      5.07      0.00 
    9    2    4      5.52      0.00 
   10    2    4      3.72      0.00 
   11    2    4      0.84      0.00 
   12    2    4     -1.40      0.00 
   13    2    4     -1.64      0.00 
   14    2    4     -0.79      0.00 
   15    2    4     -0.27      0.00 
   16    2    4      0.04      0.00 
   17    2    4      0.47      0.00 
   18    2    4      0.66      0.00 
  -15    3    4      0.43      0.00 
  -14    3    4      0.45      0.00 
  -13    3    4     -0.01      0.00 
  -12    3    4     -0.51      0.00 
  -11    3    4     -0.54      0.00 
  -10    3    4      0.05      0.00 
   -9    3    4      0.99      0.00 
   -8    3    4      1.38      0.00 
   -7    3    4      0.24      0.00 
   -6    3    4     -1.48      0.00 
   -5    3    4     -0.86      0.00 
   -4    3    4      2.78      0.00 
   -3    3    4      5.53      0.00 
   -2    3    4      3.66      0.00 
   -1    3    4     -0.71      0.00 
    0    3    4     -0.46      0.00 
    1    3    4      9.19      0.00 
    2    3    4     23.42      0.00 
    3    3    4     30.63      0.00 
    4    3    4     24.61      0.00 
    5    3    4     10.45      0.00 
    6    3    4     -2.56      0.00 
    7    3    4     -9.48      0.00 
    8    3    4    -10.67      0.00 
    9    3    4     -8.21      0.00 
   10    3    4     -3.88      0.00 
   11    3    4      0.13      0.00 
   12    3    4      1.75      0.00 
   13    3    4      1.28      0.00 
   14    3    4      0.61      0.00 
   15    3    4      0.42      0.00 
   16    3    4      0.21      0.00 
   17    3    4     -0.11      0.00 
   18    3    4     -0.28      0.00 
  -15    4    4     -0.09      0.00 
  -14    4    4     -0.17      0.00 
  -13    4    4     -0.01      0.00 
  -12    4    4      0.18      0.00 
  -11    4    4     -0.02      0.00 
  -10    4    4     -0.54      0.00 
   -9    4    4     -0.62      0.00 
   -8    4    4      0.41      0.00 
   -7    4    4      1.97      0.00 
   -6    4    4      1.90      0.00 
   -5    4    4     -0.74      0.00 
   -4    4    4     -2.75      0.00 
   -3    4    4     -0.40      0.00 
   -2    4    4      5.08      0.00 
   -1    4    4      8.43      0.00 
    0    4    4      5.57      0.00 
    1    4    4     -2.52      0.00 
    2    4    4     -9.45      0.00 
    3    4    4     -8.98      0.00 
    4    4    4     -2.10      0.00 
    5    4    4      4.76      0.00 
    6    4    4      7.66      0.00 
    7    4    4      7.29      0.00 
    8    4    4      5.33      0.00 
    9    4    4      2.61      0.00 
   10    4    4      0.34      0.00 
   11    4    4     -0.12      0.00 
   12    4    4      0.92      0.00 
   13    4    4      1.64      0.00 
   14    4    4      1.19      0.00 
   15    4    4      0.28      0.00 
   16    4    4     -0.33      0.00 
   17    4    4     -0.49      0.00 
  -14    5    4     -0.25      0.00 
  -13    5    4     -0.17      0.00 
  -12    5    4      0.26      0.00 
  -11    5    4      0.70      0.00 
  -10    5    4      0.44      0.00 
   -9    5    4     -0.54      0.00 
   -8    5    4     -1.46      0.00 
   -7    5    4     -1.39      0.00 
   -6    5    4      0.12      0.00 
   -5    5    4      1.30      0.00 
   -4    5    4     -0.74      0.00 
   -3    5    4     -5.41      0.00 
   -2    5    4     -8.66      0.00 
   -1    5    4     -8.11      0.00 
    0    5    4     -4.93      0.00 
    1    5    4     -2.26      0.00 
    2    5    4     -3.09      0.00 
    3    5    4     -6.72      0.00 
    4    5    4     -8.65      0.00 
    5    5    4     -6.48      0.00 
    6    5    4     -2.40      0.00 
    7    5    4      0.92      0.00 
    8    5    4      2.83      0.00 
    9    5    4      3.03      0.00 
   10    5    4      1.19      0.00 
   11    5    4     -1.64      0.00 
   12    5    4     -3.41      0.00 
   13    5    4     -3.11      0.00 
   14    5    4     -1.48      0.00 
   15    5    4      0.04      0.00 
   16    5    4      0.64      0.00 
   17    5    4      0.58      0.00 
  -14    6    4      0.37      0.00 
  -13    6    4      0.16      0.00 
  -12    6    4     -0.57      0.00 
  -11    6    4     -0.72      0.00 
  -10    6    4      0.16      0.00 
   -9    6    4      0.80      0.00 
   -8    6    4      0.16      0.00 
   -7    6    4     -1.31      0.00 
   -6    6    4     -2.09      0.00 
   -5    6    4     -0.38      0.00 
   -4    6    4      3.28      0.00 
   -3    6    4      5.25      0.00 
   -2    6    4      3.46      0.00 
   -1    6    4     -0.07      0.00 
    0    6    4     -2.06      0.00 
    1    6    4     -0.45      0.00 
    2    6    4      4.07      0.00 
    3    6    4      7.42      0.00 
    4    6    4      6.15      0.00 
    5    6    4      1.68      0.00 
    6    6    4     -2.61      0.00 
    7    6    4     -5.23      0.00 
    8    6    4     -5.63      0.00 
    9    6    4     -3.55      0.00 
   10    6    4     -0.28      0.00 
   11    6    4      1.97      0.00 
   12    6    4      2.19      0.00 
   13    6    4      0.98      0.00 
   14    6    4     -0.35      0.00 
   15    6    4     -0.72      0.00 
   16    6    4     -0.28      0.00 
   17    6    4      0.06      0.00 
  -14    7    4     -0.26      0.00 
  -13    7    4      0.10      0.00 
  -12    7    4      0.34      0.00 
  -11    7    4     -0.36      0.00 
  -10    7    4     -0.98      0.00 
   -9    7    4     -0.15      0.00 
   -8    7    4      1.53      0.00 
   -7    7    4      2.52      0.00 
   -6    7    4      1.69      0.00 
   -5    7    4     -0.69      0.00 
   -4    7    4     -1.91      0.00 
   -3    7    4      0.41      0.00 
   -2    7    4      4.67      0.00 
   -1    7    4      7.29      0.00 
    0    7    4      6.39      0.00 
    1    7    4      2.19      0.00 
    2    7    4     -2.68      0.00 
    3    7    4     -4.53      0.00 
    4    7    4     -2.56      0.00 
    5    7    4      0.76      0.00 
    6    7    4      3.37      0.00 
    7    7    4      4.38      0.00 
    8    7    4      3.42      0.00 
    9    7    4      1.45      0.00 
   10    7    4      0.18      0.00 
   11    7    4      0.25      0.00 
   12    7    4      1.12      0.00 
   13    7    4      1.81      0.00 
   14    7    4      1.41      0.00 
   15    7    4      0.15      0.00 
   16    7    4     -0.59      0.00 
   17    7    4     -0.37      0.00 
  -14    8    4      0.02      0.00 
  -13    8    4     -0.40      0.00 
  -12    8    4      0.11      0.00 
  -11    8    4      1.13      0.00 
  -10    8    4      0.88      0.00 
   -9    8    4     -0.61      0.00 
   -8    8    4     -1.65      0.00 
   -7    8    4     -1.30      0.00 
   -6    8    4      0.13      0.00 
   -5    8    4      1.03      0.00 
   -4    8    4     -0.66      0.00 
   -3    8    4     -4.30      0.00 
   -2    8    4     -6.81      0.00 
   -1    8    4     -6.44      0.00 
    0    8    4     -3.71      0.00 
    1    8    4     -0.15      0.00 
    2    8    4      2.02      0.00 
    3    8    4      1.53      0.00 
    4    8    4     -0.48      0.00 
    5    8    4     -2.14      0.00 
    6    8    4     -2.45      0.00 
    7    8    4     -1.24      0.00 
    8    8    4      0.21      0.00 
    9    8    4      0.21      0.00 
   10    8    4     -1.10      0.00 
   11    8    4     -2.35      0.00 
   12    8    4     -2.80      0.00 
   13    8    4     -2.17      0.00 
   14    8    4     -0.59      0.00 
   15    8    4      0.72      0.00 
   16    8    4      0.65      0.00 
  -13    9    4      0.47      0.00 
  -12    9    4     -0.13      0.00 
  -11    9    4     -0.34      0.00 
  -10    9    4      0.41      0.00 
   -9    9    4      0.97      0.00 
   -8    9    4      0.58      0.00 
   -7    9    4     -0.26      0.00 
   -6    9    4     -0.69      0.00 
   -5    9    4      0.20      0.00 
   -4    9    4      2.31      0.00 
   -3    9    4      3.65      0.00 
   -2    9    4      2.80      0.00 
   -1    9    4      0.55      0.00 
    0    9    4     -1.58      0.00 
    1    9    4     -2.26      0.00 
    2    9    4     -0.79      0.00 
    3    9    4      1.71      0.00 
    4    9    4      3.22      0.00 
    5    9    4      2.74      0.00 
    6    9    4      0.52      0.00 
    7    9    4     -1.90      0.00 
    8    9    4     -2.42      0.00 
    9    9    4     -0.73      0.00 
   10    9    4      1.30      0.00 
   11    9    4      2.23      0.00 
   12    9    4      1.91      0.00 
   13    9    4      0.75      0.00 
   14    9    4     -0.30      0.00 
   15    9    4     -0.31      0.00 
   16    9    4      0.31      0.00 
  -13   10    4     -0.06      0.00 
  -12   10    4      0.04      0.00 
  -11   10    4     -0.66      0.00 
  -10   10    4     -1.17      0.00 
   -9   10    4     -0.47      0.00 
   -8   10    4      0.57      0.00 
   -7   10    4      0.69      0.00 
   -6   10    4     -0.35      0.00 
   -5   10    4     -1.84      0.00 
   -4   10    4     -2.22      0.00 
   -3   10    4     -0.50      0.00 
   -2   10    4      2.27      0.00 
   -1   10    4      4.26      0.00 
    0   10    4      4.49      0.00 
    1   10    4      2.65      0.00 
    2   10    4     -0.55      0.00 
    3   10    4     -3.08      0.00 
    4   10    4     -3.33      0.00 
    5   10    4     -1.31      0.00 
    6   10    4      1.46      0.00 
    7   10    4      2.82      0.00 
    8   10    4      2.08      0.00 
    9   10    4      0.70      0.00 
   10   10    4     -0.05      0.00 
   11   10    4     -0.20      0.00 
   12   10    4      0.03      0.00 
   13   10    4      0.33      0.00 
   14   10    4     -0.02      0.00 
   15   10    4     -0.90      0.00 
  -12   11    4     -0.18      0.00 
  -11   11    4      0.47      0.00 
  -10   11    4      0.26      0.00 
   -9   11    4     -0.70      0.00 
   -8   11    4     -1.06      0.00 
   -7   11    4     -0.31      0.00 
   -6   11    4      0.92      0.00 
   -5   11    4      1.43      0.00 
   -4   11    4      0.13      0.00 
   -3   11    4     -2.43      0.00 
   -2   11    4     -4.28      0.00 
   -1   11    4     -4.23      0.00 
    0   11    4     -2.42      0.00 
    1   11    4      0.22      0.00 
    2   11    4      2.19      0.00 
    3   11    4      2.37      0.00 
    4   11    4      0.90      0.00 
    5   11    4     -1.09      0.00 
    6   11    4     -2.08      0.00 
    7   11    4     -1.45      0.00 
    8   11    4     -0.55      0.00 
    9   11    4     -0.80      0.00 
   10   11    4     -1.63      0.00 
   11   11    4     -1.83      0.00 
   12   11    4     -1.28      0.00 
   13   11    4     -0.28      0.00 
   14   11    4      0.84      0.00 
   15   11    4      1.36      0.00 
  -12   12    4      0.13      0.00 
  -11   12    4      0.29      0.00 
  -10   12    4      0.93      0.00 
   -9   12    4      1.10      0.00 
   -8   12    4      0.53      0.00 
   -7   12    4     -0.14      0.00 
   -6   12    4     -0.34      0.00 
   -5   12    4      0.31      0.00 
   -4   12    4      1.69      0.00 
   -3   12    4      2.63      0.00 
   -2   12    4      2.11      0.00 
   -1   12    4      0.28      0.00 
    0   12    4     -1.93      0.00 
    1   12    4     -3.18      0.00 
    2   12    4     -2.35      0.00 
    3   12    4      0.03      0.00 
    4   12    4      2.18      0.00 
    5   12    4      2.60      0.00 
    6   12    4      1.15      0.00 
    7   12    4     -0.67      0.00 
    8   12    4     -0.93      0.00 
    9   12    4      0.40      0.00 
   10   12    4      1.75      0.00 
   11   12    4      2.01      0.00 
   12   12    4      1.17      0.00 
   13   12    4     -0.10      0.00 
   14   12    4     -0.86      0.00 
  -11   13    4     -0.54      0.00 
  -10   13    4     -0.69      0.00 
   -9   13    4     -0.19      0.00 
   -8   13    4      0.18      0.00 
   -7   13    4     -0.01      0.00 
   -6   13    4     -0.62      0.00 
   -5   13    4     -1.42      0.00 
   -4   13    4     -1.65      0.00 
   -3   13    4     -0.60      0.00 
   -2   13    4      1.22      0.00 
   -1   13    4      2.76      0.00 
    0   13    4      3.33      0.00 
    1   13    4      2.31      0.00 
    2   13    4     -0.11      0.00 
    3   13    4     -2.41      0.00 
    4   13    4     -3.01      0.00 
    5   13    4     -1.57      0.00 
    6   13    4      0.75      0.00 
    7   13    4      2.08      0.00 
    8   13    4      1.70      0.00 
    9   13    4      0.51      0.00 
   10   13    4     -0.39      0.00 
   11   13    4     -0.65      0.00 
   12   13    4     -0.37      0.00 
   13   13    4      0.03      0.00 
  -10   14    4     -0.25      0.00 
   -9   14    4     -0.49      0.00 
   -8   14    4     -0.17      0.00 
   -7   14    4      0.53      0.00 
   -6   14    4      1.38      0.00 
   -5   14    4      1.78      0.00 
   -4   14    4      0.82      0.00 
   -3   14    4     -1.09      0.00 
   -2   14    4     -2.50      0.00 
   -1   14    4     -2.70      0.00 
    0   14    4     -1.60      0.00 
    1   14    4      0.41      0.00 
    2   14    4      1.98      0.00 
    3   14    4      1.94      0.00 
    4   14    4      0.61      0.00 
    5   14    4     -0.85      0.00 
    6   14    4     -1.53      0.00 
    7   14    4     -1.22      0.00 
    8   14    4     -0.59      0.00 
    9   14    4     -0.39      0.00 
   10   14    4     -0.56      0.00 
   11   14    4     -0.60      0.00 
   12   14    4     -0.27      0.00 
   -9   15    4      0.20      0.00 
   -8   15    4      0.01      0.00 
   -7   15    4     -0.37      0.00 
   -6   15    4     -1.01      0.00 
   -5   15    4     -0.96      0.00 
   -4   15    4      0.21      0.00 
   -3   15    4      1.39      0.00 
   -2   15    4      1.60      0.00 
   -1   15    4      0.76      0.00 
    0   15    4     -0.83      0.00 
    1   15    4     -2.06      0.00 
    2   15    4     -1.56      0.00 
    3   15    4      0.27      0.00 
    4   15    4      1.68      0.00 
    5   15    4      1.58      0.00 
    6   15    4      0.30      0.00 
    7   15    4     -0.97      0.00 
    8   15    4     -1.16      0.00 
    9   15    4     -0.26      0.00 
   10   15    4      0.78      0.00 
   11   15    4      1.07      0.00 
   -8   16    4     -0.13      0.00 
   -7   16    4     -0.35      0.00 
   -6   16    4     -0.52      0.00 
   -5   16    4     -0.92      0.00 
   -4   16    4     -1.12      0.00 
   -3   16    4     -0.65      0.00 
   -2   16    4      0.27      0.00 
   -1   16    4      1.42      0.00 
    0   16    4      2.37      0.00 
    1   16    4      2.04      0.00 
    2   16    4      0.31      0.00 
    3   16    4     -1.33      0.00 
    4   16    4     -1.61      0.00 
    5   16    4     -0.62      0.00 
    6   16    4      0.70      0.00 
    7   16    4      1.34      0.00 
    8   16    4      0.93      0.00 
    9   16    4     -0.04      0.00 
   10   16    4     -0.76      0.00 
   -6   17    4      1.25      0.00 
   -5   17    4      1.70      0.00 
   -4   17    4      1.05      0.00 
   -3   17    4     -0.27      0.00 
   -2   17    4     -1.33      0.00 
   -1   17    4     -1.79      0.00 
    0   17    4     -1.43      0.00 
    1   17    4     -0.28      0.00 
    2   17    4      0.77      0.00 
    3   17    4      0.84      0.00 
    4   17    4      0.16      0.00 
    5   17    4     -0.46      0.00 
    6   17    4     -0.52      0.00 
    7   17    4     -0.13      0.00 
    8   17    4      0.23      0.00 
    9   17    4      0.33      0.00 
   -4   18    4     -0.35      0.00 
   -3   18    4      0.43      0.00 
   -2   18    4      0.84      0.00 
   -1   18    4      0.49      0.00 
    0   18    4     -0.44      0.00 
    1   18    4     -1.09      0.00 
    2   18    4     -0.67      0.00 
    3   18    4      0.47      0.00 
    4   18    4      1.29      0.00 
    5   18    4      1.12      0.00 
    6   18    4      0.31      0.00 
    7   18    4     -0.24      0.00 
    0   19    4      0.40      0.00 
    1   19    4      0.38      0.00 
    2   19    4     -0.30      0.00 
    3   19    4     -1.12      0.00 
    0  -16    5     -0.16      0.00 
    1  -16    5      0.10      0.00 
    2  -16    5      0.05      0.00 
    3  -16    5     -0.33      0.00 
    4  -16    5     -0.50      0.00 
    5  -16    5     -0.32      0.00 
   -4  -15    5     -0.18      0.00 
   -3  -15    5      0.35      0.00 
   -2  -15    5      0.61      0.00 
   -1  -15    5      0.39      0.00 
    0  -15    5     -0.27      0.00 
    1  -15    5     -0.98      0.00 
    2  -15    5     -1.01      0.00 
    3  -15    5     -0.37      0.00 
    4  -15    5      0.12      0.00 
    5  -15    5      0.28      0.00 
    6  -15    5      0.34      0.00 
    7  -15    5     -0.02      0.00 
    8  -15    5     -0.64      0.00 
   -6  -14    5      0.46      0.00 
   -5  -14    5      0.21      0.00 
   -4  -14    5     -0.27      0.00 
   -3  -14    5     -0.58      0.00 
   -2  -14    5     -0.45      0.00 
   -1  -14    5     -0.08      0.00 
    0  -14    5      0.40      0.00 
    1  -14    5      0.76      0.00 
    2  -14    5      0.61      0.00 
    3  -14    5      0.16      0.00 
    4  -14    5      0.01      0.00 
    5  -14    5      0.26      0.00 
    6  -14    5      0.85      0.00 
    7  -14    5      1.45      0.00 
    8  -14    5      1.09      0.00 
    9  -14    5     -0.12      0.00 
   10  -14    5     -0.58      0.00 
   -7  -13    5     -0.49      0.00 
   -6  -13    5     -0.36      0.00 
   -5  -13    5     -0.10      0.00 
   -4  -13    5      0.28      0.00 
   -3  -13    5      0.29      0.00 
   -2  -13    5      0.02      0.00 
   -1  -13    5      0.10      0.00 
    0  -13    5      0.65      0.00 
    1  -13    5      1.32      0.00 
    2  -13    5      1.61      0.00 
    3  -13    5      1.02      0.00 
    4  -13    5     -0.29      0.00 
    5  -13    5     -1.50      0.00 
    6  -13    5     -2.12      0.00 
    7  -13    5     -1.65      0.00 
    8  -13    5     -0.01      0.00 
    9  -13    5      1.28      0.00 
   10  -13    5      0.98      0.00 
   11  -13    5      0.12      0.00 
   -8  -12    5     -0.19      0.00 
   -7  -12    5     -0.10      0.00 
   -6  -12    5      0.23      0.00 
   -5  -12    5      0.42      0.00 
   -4  -12    5      0.64      0.00 
   -3  -12    5      1.07      0.00 
   -2  -12    5      0.95      0.00 
   -1  -12    5     -0.22      0.00 
    0  -12    5     -1.81      0.00 
    1  -12    5     -2.91      0.00 
    2  -12    5     -2.64      0.00 
    3  -12    5     -0.79      0.00 
    4  -12    5      1.34      0.00 
    5  -12    5      2.20      0.00 
    6  -12    5      1.56      0.00 
    7  -12    5      0.13      0.00 
    8  -12    5     -0.93      0.00 
    9  -12    5     -0.71      0.00 
   10  -12    5      0.04      0.00 
   11  -12    5      0.00      0.00 
   12  -12    5     -0.42      0.00 
   -9  -11    5      1.01      0.00 
   -8  -11    5      1.37      0.00 
   -7  -11    5      0.95      0.00 
   -6  -11    5      0.22      0.00 
   -5  -11    5     -0.45      0.00 
   -4  -11    5     -1.41      0.00 
   -3  -11    5     -2.01      0.00 
   -2  -11    5     -1.15      0.00 
   -1  -11    5      0.68      0.00 
    0  -11    5      2.06      0.00 
    1  -11    5      2.11      0.00 
    2  -11    5      0.63      0.00 
    3  -11    5     -1.35      0.00 
    4  -11    5     -1.98      0.00 
    5  -11    5     -0.74      0.00 
    6  -11    5      0.98      0.00 
    7  -11    5      1.61      0.00 
    8  -11    5      0.64      0.00 
    9  -11    5     -0.88      0.00 
   10  -11    5     -1.18      0.00 
   11  -11    5     -0.10      0.00 
   12  -11    5      0.65      0.00 
   13  -11    5      0.33      0.00 
  -10  -10    5     -0.04      0.00 
   -9  -10    5     -0.98      0.00 
   -8  -10    5     -1.52      0.00 
   -7  -10    5     -1.33      0.00 
   -6  -10    5     -0.90      0.00 
   -5  -10    5     -0.16      0.00 
   -4  -10    5      0.75      0.00 
   -3  -10    5      0.65      0.00 
   -2  -10    5     -0.63      0.00 
   -1  -10    5     -1.47      0.00 
    0  -10    5     -0.79      0.00 
    1  -10    5      1.03      0.00 
    2  -10    5      2.74      0.00 
    3  -10    5      2.64      0.00 
    4  -10    5      0.27      0.00 
    5  -10    5     -2.52      0.00 
    6  -10    5     -3.52      0.00 
    7  -10    5     -2.33      0.00 
    8  -10    5     -0.21      0.00 
    9  -10    5      1.07      0.00 
   10  -10    5      0.71      0.00 
   11  -10    5     -0.22      0.00 
   12  -10    5     -0.36      0.00 
   13  -10    5      0.00      0.00 
   14  -10    5      0.02      0.00 
  -11   -9    5     -0.79      0.00 
  -10   -9    5     -0.48      0.00 
   -9   -9    5      0.10      0.00 
   -8   -9    5      0.44      0.00 
   -7   -9    5      0.83      0.00 
   -6   -9    5      1.26      0.00 
   -5   -9    5      1.25      0.00 
   -4   -9    5      1.36      0.00 
   -3   -9    5      2.17      0.00 
   -2   -9    5      2.29      0.00 
   -1   -9    5      0.22      0.00 
    0   -9    5     -3.16      0.00 
    1   -9    5     -5.52      0.00 
    2   -9    5     -4.89      0.00 
    3   -9    5     -1.14      0.00 
    4   -9    5      3.16      0.00 
    5   -9    5      4.84      0.00 
    6   -9    5      3.48      0.00 
    7   -9    5      1.21      0.00 
    8   -9    5     -0.08      0.00 
    9   -9    5     -0.02      0.00 
   10   -9    5      0.57      0.00 
   11   -9    5      0.54      0.00 
   12   -9    5     -0.19      0.00 
   13   -9    5     -0.60      0.00 
   14   -9    5     -0.28      0.00 
   15   -9    5      0.12      0.00 
  -12   -8    5      0.69      0.00 
  -11   -8    5      0.74      0.00 
  -10   -8    5      0.54      0.00 
   -9   -8    5      0.66      0.00 
   -8   -8    5      0.74      0.00 
   -7   -8    5      0.03      0.00 
   -6   -8    5     -1.06      0.00 
   -5   -8    5     -2.01      0.00 
   -4   -8    5     -2.99      0.00 
   -3   -8    5     -3.13      0.00 
   -2   -8    5     -0.70      0.00 
   -1   -8    5      3.77      0.00 
    0   -8    5      7.27      0.00 
    1   -8    5      7.09      0.00 
    2   -8    5      3.02      0.00 
    3   -8    5     -2.07      0.00 
    4   -8    5     -4.25      0.00 
    5   -8    5     -2.44      0.00 
    6   -8    5      0.59      0.00 
    7   -8    5      1.85      0.00 
    8   -8    5      0.99      0.00 
    9   -8    5     -0.42      0.00 
   10   -8    5     -0.96      0.00 
   11   -8    5     -0.39      0.00 
   12   -8    5      0.32      0.00 
   13   -8    5      0.34      0.00 
   14   -8    5      0.07      0.00 
   15   -8    5      0.18      0.00 
  -12   -7    5     -0.46      0.00 
  -11   -7    5     -0.16      0.00 
  -10   -7    5     -0.18      0.00 
   -9   -7    5     -0.72      0.00 
   -8   -7    5     -1.03      0.00 
   -7   -7    5     -0.66      0.00 
   -6   -7    5      0.06      0.00 
   -5   -7    5      1.03      0.00 
   -4   -7    5      1.77      0.00 
   -3   -7    5      0.78      0.00 
   -2   -7    5     -2.21      0.00 
   -1   -7    5     -4.62      0.00 
    0   -7    5     -3.66      0.00 
    1   -7    5      0.38      0.00 
    2   -7    5      3.95      0.00 
    3   -7    5      3.55      0.00 
    4   -7    5     -0.76      0.00 
    5   -7    5     -5.29      0.00 
    6   -7    5     -6.56      0.00 
    7   -7    5     -4.54      0.00 
    8   -7    5     -1.61      0.00 
    9   -7    5      0.20      0.00 
   10   -7    5      0.50      0.00 
   11   -7    5      0.15      0.00 
   12   -7    5      0.20      0.00 
   13   -7    5      0.61      0.00 
   14   -7    5      0.45      0.00 
   15   -7    5     -0.26      0.00 
   16   -7    5     -0.54      0.00 
  -13   -6    5      0.09      0.00 
  -12   -6    5     -0.38      0.00 
  -11   -6    5     -0.72      0.00 
  -10   -6    5     -0.44      0.00 
   -9   -6    5      0.16      0.00 
   -8   -6    5      0.57      0.00 
   -7   -6    5      0.94      0.00 
   -6   -6    5      1.33      0.00 
   -5   -6    5      1.40      0.00 
   -4   -6    5      1.46      0.00 
   -3   -6    5      1.89      0.00 
   -2   -6    5      1.30      0.00 
   -1   -6    5     -2.63      0.00 
    0   -6    5     -9.15      0.00 
    1   -6    5    -13.15      0.00 
    2   -6    5     -9.82      0.00 
    3   -6    5     -0.46      0.00 
    4   -6    5      8.30      0.00 
    5   -6    5     10.97      0.00 
    6   -6    5      7.76      0.00 
    7   -6    5      2.96      0.00 
    8   -6    5      0.14      0.00 
    9   -6    5     -0.39      0.00 
   10   -6    5     -0.07      0.00 
   11   -6    5     -0.02      0.00 
   12   -6    5     -0.37      0.00 
   13   -6    5     -0.54      0.00 
   14   -6    5     -0.17      0.00 
   15   -6    5      0.16      0.00 
   16   -6    5     -0.01      0.00 
  -13   -5    5      0.66      0.00 
  -12   -5    5      1.12      0.00 
  -11   -5    5      1.23      0.00 
  -10   -5    5      0.91      0.00 
   -9   -5    5      0.54      0.00 
   -8   -5    5      0.21      0.00 
   -7   -5    5     -0.51      0.00 
   -6   -5    5     -1.61      0.00 
   -5   -5    5     -2.61      0.00 
   -4   -5    5     -2.99      0.00 
   -3   -5    5     -1.62      0.00 
   -2   -5    5      3.41      0.00 
   -1   -5    5     11.80      0.00 
    0   -5    5     18.21      0.00 
    1   -5    5     16.28      0.00 
    2   -5    5      6.47      0.00 
    3   -5    5     -3.60      0.00 
    4   -5    5     -7.23      0.00 
    5   -5    5     -4.26      0.00 
    6   -5    5      0.68      0.00 
    7   -5    5      3.10      0.00 
    8   -5    5      2.18      0.00 
    9   -5    5      0.23      0.00 
   10   -5    5     -0.74      0.00 
   11   -5    5     -0.72      0.00 
   12   -5    5     -0.51      0.00 
   13   -5    5     -0.53      0.00 
   14   -5    5     -0.49      0.00 
   15   -5    5     -0.01      0.00 
   16   -5    5      0.49      0.00 
   17   -5    5      0.47      0.00 
  -13   -4    5     -0.68      0.00 
  -12   -4    5     -0.69      0.00 
  -11   -4    5     -0.57      0.00 
  -10   -4    5     -0.52      0.00 
   -9   -4    5     -0.73      0.00 
   -8   -4    5     -0.93      0.00 
   -7   -4    5     -0.67      0.00 
   -6   -4    5      0.10      0.00 
   -5   -4    5      1.01      0.00 
   -4   -4    5      1.23      0.00 
   -3   -4    5     -0.85      0.00 
   -2   -4    5     -6.00      0.00 
   -1   -4    5    -10.84      0.00 
    0   -4    5     -9.59      0.00 
    1   -4    5     -2.23      0.00 
    2   -4    5      3.37      0.00 
    3   -4    5      1.03      0.00 
    4   -4    5     -6.50      0.00 
    5   -4    5    -12.17      0.00 
    6   -4    5    -11.97      0.00 
    7   -4    5     -6.94      0.00 
    8   -4    5     -1.21      0.00 
    9   -4    5      2.01      0.00 
   10   -4    5      2.65      0.00 
   11   -4    5      2.08      0.00 
   12   -4    5      1.23      0.00 
   13   -4    5      0.59      0.00 
   14   -4    5      0.15      0.00 
   15   -4    5     -0.30      0.00 
   16   -4    5     -0.48      0.00 
   17   -4    5     -0.25      0.00 
  -14   -3    5      0.25      0.00 
  -13   -3    5     -0.17      0.00 
  -12   -3    5     -0.66      0.00 
  -11   -3    5     -0.84      0.00 
  -10   -3    5     -0.54      0.00 
   -9   -3    5      0.15      0.00 
   -8   -3    5      0.96      0.00 
   -7   -3    5      1.60      0.00 
   -6   -3    5      1.84      0.00 
   -5   -3    5      1.63      0.00 
   -4   -3    5      1.45      0.00 
   -3   -3    5      1.90      0.00 
   -2   -3    5      1.43      0.00 
   -1   -3    5     -3.61      0.00 
    0   -3    5    -12.57      0.00 
    1   -3    5    -16.74      0.00 
    2   -3    5     -8.76      0.00 
    3   -3    5      6.74      0.00 
    4   -3    5     18.18      0.00 
    5   -3    5     19.14      0.00 
    6   -3    5     11.75      0.00 
    7   -3    5      2.48      0.00 
    8   -3    5     -3.28      0.00 
    9   -3    5     -4.70      0.00 
   10   -3    5     -3.91      0.00 
   11   -3    5     -2.28      0.00 
   12   -3    5     -0.49      0.00 
   13   -3    5      0.60      0.00 
   14   -3    5      0.87      0.00 
   15   -3    5      0.69      0.00 
   16   -3    5      0.23      0.00 
   17   -3    5     -0.19      0.00 
  -14   -2    5      0.08      0.00 
  -13   -2    5      0.87      0.00 
  -12   -2    5      1.30      0.00 
  -11   -2    5      1.27      0.00 
  -10   -2    5      0.95      0.00 
   -9   -2    5      0.40      0.00 
   -8   -2    5     -0.34      0.00 
   -7   -2    5     -1.14      0.00 
   -6   -2    5     -1.85      0.00 
   -5   -2    5     -2.22      0.00 
   -4   -2    5     -1.83      0.00 
   -3   -2    5      0.71      0.00 
   -2   -2    5      7.79      0.00 
   -1   -2    5     18.82      0.00 
    0   -2    5     25.97      0.00 
    1   -2    5     20.61      0.00 
    2   -2    5      5.59      0.00 
    3   -2    5     -6.75      0.00 
    4   -2    5     -8.82      0.00 
    5   -2    5     -3.38      0.00 
    6   -2    5      3.05      0.00 
    7   -2    5      6.04      0.00 
    8   -2    5      5.23      0.00 
    9   -2    5      3.14      0.00 
   10   -2    5      1.43      0.00 
   11   -2    5      0.02      0.00 
   12   -2    5     -0.92      0.00 
   13   -2    5     -1.12      0.00 
   14   -2    5     -0.98      0.00 
   15   -2    5     -0.63      0.00 
   16   -2    5     -0.06      0.00 
   17   -2    5      0.23      0.00 
   18   -2    5      0.15      0.00 
  -14   -1    5     -0.40      0.00 
  -13   -1    5     -0.55      0.00 
  -12   -1    5     -0.28      0.00 
  -11   -1    5     -0.06      0.00 
  -10   -1    5     -0.02      0.00 
   -9   -1    5     -0.14      0.00 
   -8   -1    5     -0.58      0.00 
   -7   -1    5     -1.04      0.00 
   -6   -1    5     -0.70      0.00 
   -5   -1    5      0.30      0.00 
   -4   -1    5      0.04      0.00 
   -3   -1    5     -3.87      0.00 
   -2   -1    5    -11.23      0.00 
   -1   -1    5    -16.76      0.00 
    0   -1    5    -14.11      0.00 
    1   -1    5     -5.34      0.00 
    2   -1    5     -1.16      0.00 
    3   -1    5     -7.27      0.00 
    4   -1    5    -17.13      0.00 
    5   -1    5    -21.29      0.00 
    6   -1    5    -17.05      0.00 
    7   -1    5     -8.21      0.00 
    8   -1    5     -0.38      0.00 
    9   -1    5      3.46      0.00 
   10   -1    5      4.14      0.00 
   11   -1    5      3.23      0.00 
   12   -1    5      1.53      0.00 
   13   -1    5      0.19      0.00 
   14   -1    5     -0.14      0.00 
   15   -1    5     -0.16      0.00 
   16   -1    5     -0.22      0.00 
   17   -1    5     -0.04      0.00 
   18   -1    5      0.11      0.00 
  -14    0    5      0.22      0.00 
  -13    0    5     -0.46      0.00 
  -12    0    5     -1.09      0.00 
  -11    0    5     -1.22      0.00 
  -10    0    5     -0.94      0.00 
   -9    0    5     -0.01      0.00 
   -8    0    5      1.67      0.00 
   -7    0    5      2.94      0.00 
   -6    0    5      2.42      0.00 
   -5    0    5      0.94      0.00 
   -4    0    5      0.95      0.00 
   -3    0    5      2.99      0.00 
   -2    0    5      3.51      0.00 
   -1    0    5     -1.74      0.00 
    0    0    5    -10.19      0.00 
    1    0    5    -11.31      0.00 
    2    0    5      1.33      0.00 
    3    0    5     19.74      0.00 
    4    0    5     29.77      0.00 
    5    0    5     25.90      0.00 
    6    0    5     13.35      0.00 
    7    0    5      0.65      0.00 
    8    0    5     -6.77      0.00 
    9    0    5     -8.63      0.00 
   10    0    5     -7.18      0.00 
   11    0    5     -4.05      0.00 
   12    0    5     -0.84      0.00 
   13    0    5      0.84      0.00 
   14    0    5      1.14      0.00 
   15    0    5      1.06      0.00 
   16    0    5      0.76      0.00 
   17    0    5      0.30      0.00 
   18    0    5      0.07      0.00 
  -14    1    5      0.40      0.00 
  -13    1    5      0.90      0.00 
  -12    1    5      1.05      0.00 
  -11    1    5      0.93      0.00 
  -10    1    5      0.45      0.00 
   -9    1    5     -0.65      0.00 
   -8    1    5     -1.76      0.00 
   -7    1    5     -1.67      0.00 
   -6    1    5     -0.55      0.00 
   -5    1    5     -0.14      0.00 
   -4    1    5     -0.77      0.00 
   -3    1    5      0.35      0.00 
   -2    1    5      6.35      0.00 
   -1    1    5     15.66      0.00 
    0    1    5     20.51      0.00 
    1    1    5     14.01      0.00 
    2    1    5     -0.30      0.00 
    3    1    5    -10.71      0.00 
    4    1    5    -10.40      0.00 
    5    1    5     -2.97      0.00 
    6    1    5      4.34      0.00 
    7    1    5      7.59      0.00 
    8    1    5      7.19      0.00 
    9    1    5      5.29      0.00 
   10    1    5      2.97      0.00 
   11    1    5      0.72      0.00 
   12    1    5     -0.47      0.00 
   13    1    5     -0.55      0.00 
   14    1    5     -0.61      0.00 
   15    1    5     -0.83      0.00 
   16    1    5     -0.70      0.00 
   17    1    5     -0.48      0.00 
   18    1    5     -0.44      0.00 
  -14    2    5     -0.66      0.00 
  -13    2    5     -0.52      0.00 
  -12    2    5     -0.07      0.00 
  -11    2    5      0.30      0.00 
  -10    2    5      0.64      0.00 
   -9    2    5      0.80      0.00 
   -8    2    5      0.12      0.00 
   -7    2    5     -1.22      0.00 
   -6    2    5     -1.44      0.00 
   -5    2    5      0.22      0.00 
   -4    2    5      0.99      0.00 
   -3    2    5     -2.45      0.00 
   -2    2    5     -8.99      0.00 
   -1    2    5    -13.45      0.00 
    0    2    5    -12.00      0.00 
    1    2    5     -7.03      0.00 
    2    2    5     -5.62      0.00 
    3    2    5    -11.14      0.00 
    4    2    5    -18.36      0.00 
    5    2    5    -19.81      0.00 
    6    2    5    -14.08      0.00 
    7    2    5     -5.55      0.00 
    8    2    5      1.11      0.00 
    9    2    5      4.39      0.00 
   10    2    5      4.93      0.00 
   11    2    5      3.38      0.00 
   12    2    5      0.78      0.00 
   13    2    5     -0.88      0.00 
   14    2    5     -0.89      0.00 
   15    2    5     -0.44      0.00 
   16    2    5     -0.25      0.00 
   17    2    5      0.05      0.00 
   18    2    5      0.42      0.00 
  -14    3    5      0.40      0.00 
  -13    3    5      0.16      0.00 
  -12    3    5     -0.40      0.00 
  -11    3    5     -0.85      0.00 
  -10    3    5     -0.74      0.00 
   -9    3    5      0.08      0.00 
   -8    3    5      1.16      0.00 
   -7    3    5      1.33      0.00 
   -6    3    5     -0.25      0.00 
   -5    3    5     -1.84      0.00 
   -4    3    5     -0.39      0.00 
   -3    3    5      3.57      0.00 
   -2    3    5      5.67      0.00 
   -1    3    5      3.19      0.00 
    0    3    5     -1.18      0.00 
    1    3    5     -1.21      0.00 
    2    3    5      6.64      0.00 
    3    3    5     17.64      0.00 
    4    3    5     22.35      0.00 
    5    3    5     16.86      0.00 
    6    3    5      5.97      0.00 
    7    3    5     -3.54      0.00 
    8    3    5     -8.71      0.00 
    9    3    5     -9.70      0.00 
   10    3    5     -7.36      0.00 
   11    3    5     -3.21      0.00 
   12    3    5      0.18      0.00 
   13    3    5      1.27      0.00 
   14    3    5      0.96      0.00 
   15    3    5      0.71      0.00 
   16    3    5      0.60      0.00 
   17    3    5      0.31      0.00 
   18    3    5     -0.01      0.00 
  -14    4    5     -0.01      0.00 
  -13    4    5      0.04      0.00 
  -12    4    5      0.31      0.00 
  -11    4    5      0.43      0.00 
  -10    4    5      0.01      0.00 
   -9    4    5     -0.57      0.00 
   -8    4    5     -0.38      0.00 
   -7    4    5      1.05      0.00 
   -6    4    5      2.54      0.00 
   -5    4    5      1.69      0.00 
   -4    4    5     -1.39      0.00 
   -3    4    5     -2.75      0.00 
   -2    4    5      0.38      0.00 
   -1    4    5      6.01      0.00 
    0    4    5      9.58      0.00 
    1    4    5      7.48      0.00 
    2    4    5      0.44      0.00 
    3    4    5     -5.52      0.00 
    4    4    5     -5.18      0.00 
    5    4    5     -0.18      0.00 
    6    4    5      4.46      0.00 
    7    4    5      6.62      0.00 
    8    4    5      6.71      0.00 
    9    4    5      5.00      0.00 
   10    4    5      2.15      0.00 
   11    4    5     -0.01      0.00 
   12    4    5     -0.20      0.00 
   13    4    5      0.68      0.00 
   14    4    5      1.02      0.00 
   15    4    5      0.51      0.00 
   16    4    5     -0.11      0.00 
   17    4    5     -0.40      0.00 
   18    4    5     -0.43      0.00 
  -14    5    5     -0.33      0.00 
  -13    5    5     -0.38      0.00 
  -12    5    5     -0.21      0.00 
  -11    5    5      0.30      0.00 
  -10    5    5      0.61      0.00 
   -9    5    5      0.12      0.00 
   -8    5    5     -0.92      0.00 
   -7    5    5     -1.74      0.00 
   -6    5    5     -1.23      0.00 
   -5    5    5      0.76      0.00 
   -4    5    5      1.63      0.00 
   -3    5    5     -1.10      0.00 
   -2    5    5     -5.87      0.00 
   -1    5    5     -9.13      0.00 
    0    5    5     -9.10      0.00 
    1    5    5     -6.23      0.00 
    2    5    5     -3.27      0.00 
    3    5    5     -3.38      0.00 
    4    5    5     -5.66      0.00 
    5    5    5     -6.31      0.00 
    6    5    5     -4.33      0.00 
    7    5    5     -1.54      0.00 
    8    5    5      1.00      0.00 
    9    5    5      2.88      0.00 
   10    5    5      3.06      0.00 
   11    5    5      1.20      0.00 
   12    5    5     -1.29      0.00 
   13    5    5     -2.58      0.00 
   14    5    5     -2.10      0.00 
   15    5    5     -0.76      0.00 
   16    5    5      0.20      0.00 
   17    5    5      0.44      0.00 
  -14    6    5      0.40      0.00 
  -13    6    5      0.49      0.00 
  -12    6    5     -0.07      0.00 
  -11    6    5     -0.78      0.00 
  -10    6    5     -0.45      0.00 
   -9    6    5      0.57      0.00 
   -8    6    5      0.82      0.00 
   -7    6    5     -0.22      0.00 
   -6    6    5     -1.90      0.00 
   -5    6    5     -2.45      0.00 
   -4    6    5     -0.17      0.00 
   -3    6    5      3.49      0.00 
   -2    6    5      5.02      0.00 
   -1    6    5      3.25      0.00 
    0    6    5     -0.10      0.00 
    1    6    5     -2.48      0.00 
    2    6    5     -1.56      0.00 
    3    6    5      2.08      0.00 
    4    6    5      4.53      0.00 
    5    6    5      3.49      0.00 
    6    6    5      0.42      0.00 
    7    6    5     -2.88      0.00 
    8    6    5     -5.36      0.00 
    9    6    5     -5.56      0.00 
   10    6    5     -3.23      0.00 
   11    6    5     -0.22      0.00 
   12    6    5      1.56      0.00 
   13    6    5      1.55      0.00 
   14    6    5      0.43      0.00 
   15    6    5     -0.51      0.00 
   16    6    5     -0.50      0.00 
   17    6    5     -0.13      0.00 
  -14    7    5     -0.24      0.00 
  -13    7    5     -0.07      0.00 
  -12    7    5      0.57      0.00 
  -11    7    5      0.50      0.00 
  -10    7    5     -0.50      0.00 
   -9    7    5     -0.84      0.00 
   -8    7    5      0.29      0.00 
   -7    7    5      1.98      0.00 
   -6    7    5      2.80      0.00 
   -5    7    5      1.57      0.00 
   -4    7    5     -0.96      0.00 
   -3    7    5     -1.67      0.00 
   -2    7    5      1.01      0.00 
   -1    7    5      5.18      0.00 
    0    7    5      8.08      0.00 
    1    7    5      7.72      0.00 
    2    7    5      3.81      0.00 
    3    7    5     -0.86      0.00 
    4    7    5     -2.87      0.00 
    5    7    5     -1.87      0.00 
    6    7    5      0.66      0.00 
    7    7    5      3.28      0.00 
    8    7    5      4.30      0.00 
    9    7    5      3.11      0.00 
   10    7    5      1.22      0.00 
   11    7    5      0.20      0.00 
   12    7    5      0.32      0.00 
   13    7    5      1.12      0.00 
   14    7    5      1.57      0.00 
   15    7    5      0.92      0.00 
   16    7    5     -0.09      0.00 
   17    7    5     -0.32      0.00 
  -13    8    5     -0.43      0.00 
  -12    8    5     -0.68      0.00 
  -11    8    5      0.19      0.00 
  -10    8    5      0.92      0.00 
   -9    8    5      0.23      0.00 
   -8    8    5     -1.11      0.00 
   -7    8    5     -1.77      0.00 
   -6    8    5     -1.11      0.00 
   -5    8    5      0.52      0.00 
   -4    8    5      1.17      0.00 
   -3    8    5     -0.92      0.00 
   -2    8    5     -4.50      0.00 
   -1    8    5     -6.95      0.00 
    0    8    5     -6.96      0.00 
    1    8    5     -4.36      0.00 
    2    8    5     -0.46      0.00 
    3    8    5      2.16      0.00 
    4    8    5      2.19      0.00 
    5    8    5      0.45      0.00 
    6    8    5     -1.53      0.00 
    7    8    5     -2.08      0.00 
    8    8    5     -0.81      0.00 
    9    8    5      0.39      0.00 
   10    8    5      0.06      0.00 
   11    8    5     -1.06      0.00 
   12    8    5     -1.97      0.00 
   13    8    5     -2.31      0.00 
   14    8    5     -1.56      0.00 
   15    8    5     -0.13      0.00 
   16    8    5      0.56      0.00 
   17    8    5      0.19      0.00 
  -13    9    5      0.47      0.00 
  -12    9    5      0.28      0.00 
  -11    9    5     -0.22      0.00 
  -10    9    5      0.11      0.00 
   -9    9    5      0.92      0.00 
   -8    9    5      1.08      0.00 
   -7    9    5      0.44      0.00 
   -6    9    5     -0.53      0.00 
   -5    9    5     -1.01      0.00 
   -4    9    5      0.06      0.00 
   -3    9    5      2.18      0.00 
   -2    9    5      3.39      0.00 
   -1    9    5      2.73      0.00 
    0    9    5      0.61      0.00 
    1    9    5     -1.94      0.00 
    2    9    5     -3.15      0.00 
    3    9    5     -1.99      0.00 
    4    9    5      0.51      0.00 
    5    9    5      2.49      0.00 
    6    9    5      2.44      0.00 
    7    9    5      0.14      0.00 
    8    9    5     -2.26      0.00 
    9    9    5     -2.37      0.00 
   10    9    5     -0.65      0.00 
   11    9    5      1.01      0.00 
   12    9    5      1.77      0.00 
   13    9    5      1.51      0.00 
   14    9    5      0.53      0.00 
   15    9    5     -0.11      0.00 
   16    9    5      0.10      0.00 
  -12   10    5      0.17      0.00 
  -11   10    5     -0.20      0.00 
  -10   10    5     -1.05      0.00 
   -9   10    5     -1.09      0.00 
   -8   10    5     -0.15      0.00 
   -7   10    5      0.71      0.00 
   -6   10    5      0.68      0.00 
   -5   10    5     -0.40      0.00 
   -4   10    5     -1.81      0.00 
   -3   10    5     -2.01      0.00 
   -2   10    5     -0.40      0.00 
   -1   10    5      2.06      0.00 
    0   10    5      4.32      0.00 
    1   10    5      5.19      0.00 
    2   10    5      3.57      0.00 
    3   10    5      0.13      0.00 
    4   10    5     -2.81      0.00 
    5   10    5     -3.32      0.00 
    6   10    5     -1.16      0.00 
    7   10    5      1.74      0.00 
    8   10    5      2.87      0.00 
    9   10    5      2.05      0.00 
   10   10    5      0.92      0.00 
   11   10    5      0.19      0.00 
   12   10    5     -0.21      0.00 
   13   10    5     -0.13      0.00 
   14   10    5     -0.02      0.00 
   15   10    5     -0.49      0.00 
   16   10    5     -0.95      0.00 
  -12   11    5     -0.39      0.00 
  -11   11    5      0.09      0.00 
  -10   11    5      0.33      0.00 
   -9   11    5     -0.30      0.00 
   -8   11    5     -1.06      0.00 
   -7   11    5     -1.06      0.00 
   -6   11    5     -0.17      0.00 
   -5   11    5      1.10      0.00 
   -4   11    5      1.48      0.00 
   -3   11    5      0.06      0.00 
   -2   11    5     -2.32      0.00 
   -1   11    5     -4.11      0.00 
    0   11    5     -4.43      0.00 
    1   11    5     -2.90      0.00 
    2   11    5     -0.13      0.00 
    3   11    5      2.16      0.00 
    4   11    5      2.57      0.00 
    5   11    5      0.96      0.00 
    6   11    5     -1.28      0.00 
    7   11    5     -2.09      0.00 
    8   11    5     -1.19      0.00 
    9   11    5     -0.50      0.00 
   10   11    5     -0.93      0.00 
   11   11    5     -1.44      0.00 
   12   11    5     -1.30      0.00 
   13   11    5     -0.74      0.00 
   14   11    5      0.09      0.00 
   15   11    5      0.85      0.00 
  -11   12    5      0.33      0.00 
  -10   12    5      0.89      0.00 
   -9   12    5      1.36      0.00 
   -8   12    5      1.14      0.00 
   -7   12    5      0.51      0.00 
   -6   12    5     -0.13      0.00 
   -5   12    5     -0.42      0.00 
   -4   12    5      0.25      0.00 
   -3   12    5      1.65      0.00 
   -2   12    5      2.58      0.00 
   -1   12    5      2.24      0.00 
    0   12    5      0.47      0.00 
    1   12    5     -2.05      0.00 
    2   12    5     -3.53      0.00 
    3   12    5     -2.66      0.00 
    4   12    5     -0.14      0.00 
    5   12    5      2.14      0.00 
    6   12    5      2.51      0.00 
    7   12    5      0.86      0.00 
    8   12    5     -0.87      0.00 
    9   12    5     -0.88      0.00 
   10   12    5      0.34      0.00 
   11   12    5      1.34      0.00 
   12   12    5      1.45      0.00 
   13   12    5      0.77      0.00 
   14   12    5     -0.11      0.00 
   15   12    5     -0.47      0.00 
  -10   13    5     -0.81      0.00 
   -9   13    5     -0.55      0.00 
   -8   13    5     -0.03      0.00 
   -7   13    5      0.18      0.00 
   -6   13    5      0.09      0.00 
   -5   13    5     -0.44      0.00 
   -4   13    5     -1.29      0.00 
   -3   13    5     -1.53      0.00 
   -2   13    5     -0.63      0.00 
   -1   13    5      0.97      0.00 
    0   13    5      2.75      0.00 
    1   13    5      3.76      0.00 
    2   13    5      2.83      0.00 
    3   13    5      0.19      0.00 
    4   13    5     -2.27      0.00 
    5   13    5     -2.85      0.00 
    6   13    5     -1.27      0.00 
    7   13    5      0.96      0.00 
    8   13    5      1.97      0.00 
    9   13    5      1.51      0.00 
   10   13    5      0.64      0.00 
   11   13    5     -0.03      0.00 
   12   13    5     -0.37      0.00 
   13   13    5     -0.35      0.00 
   14   13    5     -0.18      0.00 
  -10   14    5     -0.18      0.00 
   -9   14    5     -0.62      0.00 
   -8   14    5     -0.65      0.00 
   -7   14    5     -0.32      0.00 
   -6   14    5      0.33      0.00 
   -5   14    5      1.36      0.00 
   -4   14    5      1.83      0.00 
   -3   14    5      0.84      0.00 
   -2   14    5     -0.93      0.00 
   -1   14    5     -2.33      0.00 
    0   14    5     -2.74      0.00 
    1   14    5     -1.70      0.00 
    2   14    5      0.38      0.00 
    3   14    5      1.91      0.00 
    4   14    5      1.82      0.00 
    5   14    5      0.50      0.00 
    6   14    5     -0.96      0.00 
    7   14    5     -1.54      0.00 
    8   14    5     -1.13      0.00 
    9   14    5     -0.65      0.00 
   10   14    5     -0.67      0.00 
   11   14    5     -0.78      0.00 
   12   14    5     -0.51      0.00 
   13   14    5      0.01      0.00 
   -9   15    5      0.52      0.00 
   -8   15    5      0.42      0.00 
   -7   15    5      0.29      0.00 
   -6   15    5     -0.42      0.00 
   -5   15    5     -1.36      0.00 
   -4   15    5     -1.19      0.00 
   -3   15    5      0.16      0.00 
   -2   15    5      1.42      0.00 
   -1   15    5      1.80      0.00 
    0   15    5      0.93      0.00 
    1   15    5     -0.94      0.00 
    2   15    5     -2.20      0.00 
    3   15    5     -1.53      0.00 
    4   15    5      0.30      0.00 
    5   15    5      1.59      0.00 
    6   15    5      1.45      0.00 
    7   15    5      0.24      0.00 
    8   15    5     -0.83      0.00 
    9   15    5     -0.85      0.00 
   10   15    5     -0.06      0.00 
   11   15    5      0.62      0.00 
   12   15    5      0.62      0.00 
   -7   16    5     -0.33      0.00 
   -6   16    5     -0.30      0.00 
   -5   16    5     -0.47      0.00 
   -4   16    5     -1.04      0.00 
   -3   16    5     -1.36      0.00 
   -2   16    5     -1.01      0.00 
   -1   16    5     -0.10      0.00 
    0   16    5      1.32      0.00 
    1   16    5      2.47      0.00 
    2   16    5      2.09      0.00 
    3   16    5      0.38      0.00 
    4   16    5     -1.15      0.00 
    5   16    5     -1.41      0.00 
    6   16    5     -0.47      0.00 
    7   16    5      0.72      0.00 
    8   16    5      1.19      0.00 
    9   16    5      0.82      0.00 
   10   16    5      0.15      0.00 
   11   16    5     -0.28      0.00 
   -6   17    5      0.71      0.00 
   -5   17    5      1.72      0.00 
   -4   17    5      2.09      0.00 
   -3   17    5      1.22      0.00 
   -2   17    5     -0.21      0.00 
   -1   17    5     -1.41      0.00 
    0   17    5     -1.99      0.00 
    1   17    5     -1.60      0.00 
    2   17    5     -0.43      0.00 
    3   17    5      0.56      0.00 
    4   17    5      0.69      0.00 
    5   17    5      0.18      0.00 
    6   17    5     -0.28      0.00 
    7   17    5     -0.26      0.00 
    8   17    5      0.01      0.00 
    9   17    5      0.12      0.00 
   -4   18    5     -0.90      0.00 
   -3   18    5     -0.14      0.00 
   -2   18    5      0.79      0.00 
   -1   18    5      1.11      0.00 
    0   18    5      0.55      0.00 
    1   18    5     -0.50      0.00 
    2   18    5     -1.11      0.00 
    3   18    5     -0.70      0.00 
    4   18    5      0.35      0.00 
    5   18    5      0.99      0.00 
    6   18    5      0.65      0.00 
    7   18    5     -0.09      0.00 
   -1   19    5     -0.23      0.00 
    0   19    5      0.22      0.00 
    1   19    5      0.72      0.00 
    2   19    5      0.68      0.00 
    3   19    5     -0.14      0.00 
    4   19    5     -1.06      0.00 
   -2  -15    6      0.30      0.00 
   -1  -15    6      0.59      0.00 
    0  -15    6      0.37      0.00 
    1  -15    6     -0.29      0.00 
    2  -15    6     -0.86      0.00 
    3  -15    6     -0.81      0.00 
    4  -15    6     -0.43      0.00 
    5  -15    6     -0.19      0.00 
    6  -15    6      0.08      0.00 
    7  -15    6      0.31      0.00 
   -4  -14    6     -0.17      0.00 
   -3  -14    6     -0.62      0.00 
   -2  -14    6     -0.85      0.00 
   -1  -14    6     -0.66      0.00 
    0  -14    6     -0.18      0.00 
    1  -14    6      0.48      0.00 
    2  -14    6      0.95      0.00 
    3  -14    6      0.82      0.00 
    4  -14    6      0.36      0.00 
    5  -14    6      0.04      0.00 
    6  -14    6      0.06      0.00 
    7  -14    6      0.62      0.00 
    8  -14    6      1.13      0.00 
    9  -14    6      0.61      0.00 
   -6  -13    6     -0.49      0.00 
   -5  -13    6     -0.31      0.00 
   -4  -13    6      0.24      0.00 
   -3  -13    6      0.78      0.00 
   -2  -13    6      0.62      0.00 
   -1  -13    6      0.19      0.00 
    0  -13    6      0.14      0.00 
    1  -13    6      0.46      0.00 
    2  -13    6      0.94      0.00 
    3  -13    6      1.23      0.00 
    4  -13    6      0.85      0.00 
    5  -13    6     -0.08      0.00 
    6  -13    6     -1.10      0.00 
    7  -13    6     -1.76      0.00 
    8  -13    6     -1.27      0.00 
    9  -13    6      0.22      0.00 
   10  -13    6      1.06      0.00 
   11  -13    6      0.61      0.00 
   -7  -12    6     -0.11      0.00 
   -6  -12    6      0.25      0.00 
   -5  -12    6      0.46      0.00 
   -4  -12    6      0.32      0.00 
   -3  -12    6      0.51      0.00 
   -2  -12    6      1.02      0.00 
   -1  -12    6      0.85      0.00 
    0  -12    6     -0.27      0.00 
    1  -12    6     -1.79      0.00 
    2  -12    6     -2.91      0.00 
    3  -12    6     -2.60      0.00 
    4  -12    6     -0.75      0.00 
    5  -12    6      1.18      0.00 
    6  -12    6      1.92      0.00 
    7  -12    6      1.35      0.00 
    8  -12    6      0.04      0.00 
    9  -12    6     -0.79      0.00 
   10  -12    6     -0.44      0.00 
   11  -12    6      0.10      0.00 
   12  -12    6     -0.09      0.00 
   -8  -11    6      1.27      0.00 
   -7  -11    6      1.32      0.00 
   -6  -11    6      0.75      0.00 
   -5  -11    6      0.21      0.00 
   -4  -11    6     -0.54      0.00 
   -3  -11    6     -1.72      0.00 
   -2  -11    6     -2.16      0.00 
   -1  -11    6     -1.03      0.00 
    0  -11    6      0.85      0.00 
    1  -11    6      2.31      0.00 
    2  -11    6      2.42      0.00 
    3  -11    6      0.75      0.00 
    4  -11    6     -1.36      0.00 
    5  -11    6     -1.87      0.00 
    6  -11    6     -0.64      0.00 
    7  -11    6      0.92      0.00 
    8  -11    6      1.44      0.00 
    9  -11    6      0.46      0.00 
   10  -11    6     -0.90      0.00 
   11  -11    6     -0.99      0.00 
   12  -11    6     -0.04      0.00 
   13  -11    6      0.43      0.00 
   -9  -10    6     -0.26      0.00 
   -8  -10    6     -1.20      0.00 
   -7  -10    6     -1.57      0.00 
   -6  -10    6     -1.46      0.00 
   -5  -10    6     -1.01      0.00 
   -4  -10    6      0.18      0.00 
   -3  -10    6      1.29      0.00 
   -2  -10    6      0.94      0.00 
   -1  -10    6     -0.48      0.00 
    0  -10    6     -1.38      0.00 
    1  -10    6     -0.88      0.00 
    2  -10    6      0.93      0.00 
    3  -10    6      2.76      0.00 
    4  -10    6      2.57      0.00 
    5  -10    6      0.15      0.00 
    6  -10    6     -2.38      0.00 
    7  -10    6     -3.21      0.00 
    8  -10    6     -2.10      0.00 
    9  -10    6     -0.09      0.00 
   10  -10    6      1.09      0.00 
   11  -10    6      0.71      0.00 
   12  -10    6     -0.02      0.00 
   13  -10    6     -0.01      0.00 
   14  -10    6      0.25      0.00 
  -10   -9    6     -0.83      0.00 
   -9   -9    6     -0.48      0.00 
   -8   -9    6     -0.02      0.00 
   -7   -9    6      0.39      0.00 
   -6   -9    6      0.91      0.00 
   -5   -9    6      1.03      0.00 
   -4   -9    6      0.62      0.00 
   -3   -9    6      0.79      0.00 
   -2   -9    6      1.70      0.00 
   -1   -9    6      1.69      0.00 
    0   -9    6     -0.28      0.00 
    1   -9    6     -3.34      0.00 
    2   -9    6     -5.46      0.00 
    3   -9    6     -4.59      0.00 
    4   -9    6     -0.78      0.00 
    5   -9    6      3.03      0.00 
    6   -9    6      4.19      0.00 
    7   -9    6      2.96      0.00 
    8   -9    6      1.03      0.00 
    9   -9    6     -0.21      0.00 
   10   -9    6     -0.18      0.00 
   11   -9    6      0.38      0.00 
   12   -9    6      0.20      0.00 
   13   -9    6     -0.52      0.00 
   14   -9    6     -0.70      0.00 
   15   -9    6     -0.30      0.00 
  -11   -8    6      0.64      0.00 
  -10   -8    6      0.72      0.00 
   -9   -8    6      0.76      0.00 
   -8   -8    6      1.06      0.00 
   -7   -8    6      0.99      0.00 
   -6   -8    6      0.21      0.00 
   -5   -8    6     -0.69      0.00 
   -4   -8    6     -1.69      0.00 
   -3   -8    6     -2.90      0.00 
   -2   -8    6     -2.88      0.00 
   -1   -8    6     -0.19      0.00 
    0   -8    6      4.14      0.00 
    1   -8    6      7.23      0.00 
    2   -8    6      6.61      0.00 
    3   -8    6      2.31      0.00 
    4   -8    6     -2.37      0.00 
    5   -8    6     -3.74      0.00 
    6   -8    6     -1.75      0.00 
    7   -8    6      0.80      0.00 
    8   -8    6      1.77      0.00 
    9   -8    6      1.03      0.00 
   10   -8    6     -0.28      0.00 
   11   -8    6     -0.77      0.00 
   12   -8    6     -0.20      0.00 
   13   -8    6      0.31      0.00 
   14   -8    6      0.19      0.00 
   15   -8    6      0.10      0.00 
  -11   -7    6     -0.39      0.00 
  -10   -7    6     -0.17      0.00 
   -9   -7    6     -0.41      0.00 
   -8   -7    6     -1.04      0.00 
   -7   -7    6     -1.25      0.00 
   -6   -7    6     -0.81      0.00 
   -5   -7    6      0.13      0.00 
   -4   -7    6      1.59      0.00 
   -3   -7    6      2.50      0.00 
   -2   -7    6      1.14      0.00 
   -1   -7    6     -2.15      0.00 
    0   -7    6     -4.48      0.00 
    1   -7    6     -3.31      0.00 
    2   -7    6      0.70      0.00 
    3   -7    6      3.93      0.00 
    4   -7    6      3.19      0.00 
    5   -7    6     -0.90      0.00 
    6   -7    6     -4.71      0.00 
    7   -7    6     -5.67      0.00 
    8   -7    6     -4.03      0.00 
    9   -7    6     -1.56      0.00 
   10   -7    6      0.08      0.00 
   11   -7    6      0.35      0.00 
   12   -7    6      0.15      0.00 
   13   -7    6      0.43      0.00 
   14   -7    6      0.65      0.00 
   15   -7    6      0.15      0.00 
   16   -7    6     -0.41      0.00 
  -12   -6    6      0.07      0.00 
  -11   -6    6     -0.48      0.00 
  -10   -6    6     -0.81      0.00 
   -9   -6    6     -0.45      0.00 
   -8   -6    6      0.15      0.00 
   -7   -6    6      0.54      0.00 
   -6   -6    6      0.83      0.00 
   -5   -6    6      0.83      0.00 
   -4   -6    6      0.43      0.00 
   -3   -6    6      0.46      0.00 
   -2   -6    6      1.22      0.00 
   -1   -6    6      0.74      0.00 
    0   -6    6     -3.24      0.00 
    1   -6    6     -9.31      0.00 
    2   -6    6    -12.27      0.00 
    3   -6    6     -8.36      0.00 
    4   -6    6      0.23      0.00 
    5   -6    6      7.35      0.00 
    6   -6    6      9.04      0.00 
    7   -6    6      6.26      0.00 
    8   -6    6      2.53      0.00 
    9   -6    6      0.27      0.00 
   10   -6    6     -0.27      0.00 
   11   -6    6     -0.08      0.00 
   12   -6    6     -0.14      0.00 
   13   -6    6     -0.45      0.00 
   14   -6    6     -0.35      0.00 
   15   -6    6      0.07      0.00 
   16   -6    6      0.09      0.00 
  -12   -5    6      0.80      0.00 
  -11   -5    6      1.44      0.00 
  -10   -5    6      1.56      0.00 
   -9   -5    6      1.14      0.00 
   -8   -5    6      0.75      0.00 
   -7   -5    6      0.42      0.00 
   -6   -5    6     -0.26      0.00 
   -5   -5    6     -1.21      0.00 
   -4   -5    6     -2.13      0.00 
   -3   -5    6     -2.68      0.00 
   -2   -5    6     -1.28      0.00 
   -1   -5    6      4.11      0.00 
    0   -5    6     12.27      0.00 
    1   -5    6     17.25      0.00 
    2   -5    6     14.01      0.00 
    3   -5    6      4.57      0.00 
    4   -5    6     -3.88      0.00 
    5   -5    6     -6.31      0.00 
    6   -5    6     -3.37      0.00 
    7   -5    6      0.76      0.00 
    8   -5    6      2.57      0.00 
    9   -5    6      1.79      0.00 
   10   -5    6      0.33      0.00 
   11   -5    6     -0.41      0.00 
   12   -5    6     -0.50      0.00 
   13   -5    6     -0.55      0.00 
   14   -5    6     -0.65      0.00 
   15   -5    6     -0.38      0.00 
   16   -5    6      0.18      0.00 
   17   -5    6      0.35      0.00 
  -13   -4    6     -0.61      0.00 
  -12   -4    6     -0.94      0.00 
  -11   -4    6     -1.03      0.00 
  -10   -4    6     -0.82      0.00 
   -9   -4    6     -0.69      0.00 
   -8   -4    6     -0.94      0.00 
   -7   -4    6     -1.13      0.00 
   -6   -4    6     -0.75      0.00 
   -5   -4    6      0.24      0.00 
   -4   -4    6      1.56      0.00 
   -3   -4    6      2.07      0.00 
   -2   -4    6     -0.35      0.00 
   -1   -4    6     -5.87      0.00 
    0   -4    6     -9.88      0.00 
    1   -4    6     -7.30      0.00 
    2   -4    6     -0.13      0.00 
    3   -4    6      4.02      0.00 
    4   -4    6      1.24      0.00 
    5   -4    6     -5.21      0.00 
    6   -4    6     -9.80      0.00 
    7   -4    6     -9.58      0.00 
    8   -4    6     -5.59      0.00 
    9   -4    6     -1.15      0.00 
   10   -4    6      1.43      0.00 
   11   -4    6      2.10      0.00 
   12   -4    6      1.74      0.00 
   13   -4    6      1.14      0.00 
   14   -4    6      0.61      0.00 
   15   -4    6      0.08      0.00 
   16   -4    6     -0.26      0.00 
   17   -4    6     -0.12      0.00 
  -13   -3    6      0.35      0.00 
  -12   -3    6     -0.04      0.00 
  -11   -3    6     -0.62      0.00 
  -10   -3    6     -0.92      0.00 
   -9   -3    6     -0.56      0.00 
   -8   -3    6      0.27      0.00 
   -7   -3    6      1.00      0.00 
   -6   -3    6      1.27      0.00 
   -5   -3    6      0.94      0.00 
   -4   -3    6      0.15      0.00 
   -3   -3    6     -0.13      0.00 
   -2   -3    6      0.63      0.00 
   -1   -3    6     -0.07      0.00 
    0   -3    6     -5.76      0.00 
    1   -3    6    -13.99      0.00 
    2   -3    6    -16.11      0.00 
    3   -3    6     -7.68      0.00 
    4   -3    6      5.62      0.00 
    5   -3    6     14.61      0.00 
    6   -3    6     15.02      0.00 
    7   -3    6      8.96      0.00 
    8   -3    6      1.79      0.00 
    9   -3    6     -2.54      0.00 
   10   -3    6     -3.84      0.00 
   11   -3    6     -3.36      0.00 
   12   -3    6     -1.90      0.00 
   13   -3    6     -0.36      0.00 
   14   -3    6      0.49      0.00 
   15   -3    6      0.66      0.00 
   16   -3    6      0.38      0.00 
   17   -3    6     -0.08      0.00 
  -13   -2    6      0.12      0.00 
  -12   -2    6      0.88      0.00 
  -11   -2    6      1.43      0.00 
  -10   -2    6      1.52      0.00 
   -9   -2    6      1.10      0.00 
   -8   -2    6      0.46      0.00 
   -7   -2    6     -0.07      0.00 
   -6   -2    6     -0.41      0.00 
   -5   -2    6     -0.66      0.00 
   -4   -2    6     -0.90      0.00 
   -3   -2    6     -0.78      0.00 
   -2   -2    6      1.76      0.00 
   -1   -2    6      9.28      0.00 
    0   -2    6     19.63      0.00 
    1   -2    6     24.33      0.00 
    2   -2    6     17.54      0.00 
    3   -2    6      4.22      0.00 
    4   -2    6     -5.52      0.00 
    5   -2    6     -7.00      0.00 
    6   -2    6     -2.68      0.00 
    7   -2    6      2.40      0.00 
    8   -2    6      4.66      0.00 
    9   -2    6      4.12      0.00 
   10   -2    6      2.66      0.00 
   11   -2    6      1.18      0.00 
   12   -2    6     -0.14      0.00 
   13   -2    6     -0.86      0.00 
   14   -2    6     -1.00      0.00 
   15   -2    6     -0.83      0.00 
   16   -2    6     -0.38      0.00 
   17   -2    6      0.03      0.00 
   18   -2    6      0.10      0.00 
  -13   -1    6     -0.44      0.00 
  -12   -1    6     -0.56      0.00 
  -11   -1    6     -0.45      0.00 
  -10   -1    6     -0.29      0.00 
   -9   -1    6     -0.17      0.00 
   -8   -1    6     -0.43      0.00 
   -7   -1    6     -1.19      0.00 
   -6   -1    6     -1.74      0.00 
   -5   -1    6     -1.10      0.00 
   -4   -1    6      0.35      0.00 
   -3   -1    6      0.26      0.00 
   -2   -1    6     -3.90      0.00 
   -1   -1    6    -11.06      0.00 
    0   -1    6    -15.17      0.00 
    1   -1    6    -11.29      0.00 
    2   -1    6     -3.33      0.00 
    3   -1    6     -0.41      0.00 
    4   -1    6     -5.40      0.00 
    5   -1    6    -12.53      0.00 
    6   -1    6    -15.22      0.00 
    7   -1    6    -11.87      0.00 
    8   -1    6     -5.43      0.00 
    9   -1    6      0.08      0.00 
   10   -1    6      2.96      0.00 
   11   -1    6      3.68      0.00 
   12   -1    6      2.79      0.00 
   13   -1    6      1.22      0.00 
   14   -1    6      0.26      0.00 
   15   -1    6      0.03      0.00 
   16   -1    6     -0.06      0.00 
   17   -1    6     -0.02      0.00 
   18   -1    6      0.14      0.00 
  -14    0    6      0.44      0.00 
  -13    0    6      0.24      0.00 
  -12    0    6     -0.42      0.00 
  -11    0    6     -0.93      0.00 
  -10    0    6     -1.14      0.00 
   -9    0    6     -0.84      0.00 
   -8    0    6      0.40      0.00 
   -7    0    6      2.20      0.00 
   -6    0    6      2.95      0.00 
   -5    0    6      1.67      0.00 
   -4    0    6     -0.11      0.00 
   -3    0    6      0.13      0.00 
   -2    0    6      2.11      0.00 
   -1    0    6      1.79      0.00 
    0    0    6     -3.99      0.00 
    1    0    6    -11.30      0.00 
    2    0    6    -11.05      0.00 
    3    0    6      0.02      0.00 
    4    0    6     14.17      0.00 
    5    0    6     21.14      0.00 
    6    0    6     17.81      0.00 
    7    0    6      8.48      0.00 
    8    0    6     -0.57      0.00 
    9    0    6     -5.84      0.00 
   10    0    6     -7.34      0.00 
   11    0    6     -6.06      0.00 
   12    0    6     -3.15      0.00 
   13    0    6     -0.51      0.00 
   14    0    6      0.67      0.00 
   15    0    6      0.89      0.00 
   16    0    6      0.77      0.00 
   17    0    6      0.41      0.00 
  -14    1    6     -0.13      0.00 
  -13    1    6      0.36      0.00 
  -12    1    6      0.82      0.00 
  -11    1    6      1.03      0.00 
  -10    1    6      0.98      0.00 
   -9    1    6      0.31      0.00 
   -8    1    6     -0.92      0.00 
   -7    1    6     -1.64      0.00 
   -6    1    6     -0.87      0.00 
   -5    1    6      0.47      0.00 
   -4    1    6      0.58      0.00 
   -3    1    6     -0.11      0.00 
   -2    1    6      1.69      0.00 
   -1    1    6      8.29      0.00 
    0    1    6     16.88      0.00 
    1    1    6     20.15      0.00 
    2    1    6     13.41      0.00 
    3    1    6      1.19      0.00 
    4    1    6     -7.02      0.00 
    5    1    6     -6.90      0.00 
    6    1    6     -1.73      0.00 
    7    1    6      3.26      0.00 
    8    1    6      5.62      0.00 
    9    1    6      5.70      0.00 
   10    1    6      4.39      0.00 
   11    1    6      2.21      0.00 
   12    1    6      0.24      0.00 
   13    1    6     -0.54      0.00 
   14    1    6     -0.63      0.00 
   15    1    6     -0.77      0.00 
   16    1    6     -0.78      0.00 
   17    1    6     -0.52      0.00 
   18    1    6     -0.35      0.00 
  -14    2    6     -0.36      0.00 
  -13    2    6     -0.57      0.00 
  -12    2    6     -0.36      0.00 
  -11    2    6     -0.02      0.00 
  -10    2    6      0.36      0.00 
   -9    2    6      0.84      0.00 
   -8    2    6      0.78      0.00 
   -7    2    6     -0.48      0.00 
   -6    2    6     -2.03      0.00 
   -5    2    6     -1.72      0.00 
   -4    2    6      0.32      0.00 
   -3    2    6      0.60      0.00 
   -2    2    6     -3.41      0.00 
   -1    2    6     -9.61      0.00 
    0    2    6    -13.19      0.00 
    1    2    6    -11.26      0.00 
    2    2    6     -6.40      0.00 
    3    2    6     -4.72      0.00 
    4    2    6     -8.51      0.00 
    5    2    6    -13.18      0.00 
    6    2    6    -13.37      0.00 
    7    2    6     -8.87      0.00 
    8    2    6     -3.09      0.00 
    9    2    6      1.37      0.00 
   10    2    6      3.95      0.00 
   11    2    6      4.48      0.00 
   12    2    6      2.93      0.00 
   13    2    6      0.71      0.00 
   14    2    6     -0.37      0.00 
   15    2    6     -0.34      0.00 
   16    2    6     -0.24      0.00 
   17    2    6     -0.21      0.00 
   18    2    6      0.04      0.00 
  -14    3    6      0.24      0.00 
  -13    3    6      0.28      0.00 
  -12    3    6     -0.08      0.00 
  -11    3    6     -0.64      0.00 
  -10    3    6     -1.02      0.00 
   -9    3    6     -0.78      0.00 
   -8    3    6      0.25      0.00 
   -7    3    6      1.41      0.00 
   -6    3    6      1.20      0.00 
   -5    3    6     -0.83      0.00 
   -4    3    6     -2.18      0.00 
   -3    3    6     -0.25      0.00 
   -2    3    6      3.39      0.00 
   -1    3    6      4.68      0.00 
    0    3    6      1.90      0.00 
    1    3    6     -2.35      0.00 
    2    3    6     -2.66      0.00 
    3    3    6      3.75      0.00 
    4    3    6     12.25      0.00 
    5    3    6     15.27      0.00 
    6    3    6     10.88      0.00 
    7    3    6      3.21      0.00 
    8    3    6     -3.51      0.00 
    9    3    6     -7.61      0.00 
   10    3    6     -8.51      0.00 
   11    3    6     -6.25      0.00 
   12    3    6     -2.52      0.00 
   13    3    6      0.12      0.00 
   14    3    6      0.85      0.00 
   15    3    6      0.78      0.00 
   16    3    6      0.78      0.00 
   17    3    6      0.68      0.00 
   18    3    6      0.34      0.00 
  -14    4    6      0.08      0.00 
  -13    4    6      0.02      0.00 
  -12    4    6      0.16      0.00 
  -11    4    6      0.47      0.00 
  -10    4    6      0.44      0.00 
   -9    4    6     -0.13      0.00 
   -8    4    6     -0.60      0.00 
   -7    4    6      0.00      0.00 
   -6    4    6      1.83      0.00 
   -5    4    6      3.09      0.00 
   -4    4    6      1.56      0.00 
   -3    4    6     -1.47      0.00 
   -2    4    6     -2.06      0.00 
   -1    4    6      1.46      0.00 
    0    4    6      7.04      0.00 
    1    4    6     10.66      0.00 
    2    4    6      8.78      0.00 
    3    4    6      2.41      0.00 
    4    4    6     -2.60      0.00 
    5    4    6     -2.62      0.00 
    6    4    6      0.27      0.00 
    7    4    6      3.13      0.00 
    8    4    6      5.14      0.00 
    9    4    6      5.72      0.00 
   10    4    6      4.18      0.00 
   11    4    6      1.51      0.00 
   12    4    6     -0.22      0.00 
   13    4    6     -0.23      0.00 
   14    4    6      0.34      0.00 
   15    4    6      0.36      0.00 
   16    4    6     -0.07      0.00 
   17    4    6     -0.35      0.00 
   18    4    6     -0.37      0.00 
  -13    5    6     -0.35      0.00 
  -12    5    6     -0.39      0.00 
  -11    5    6     -0.10      0.00 
  -10    5    6      0.44      0.00 
   -9    5    6      0.57      0.00 
   -8    5    6     -0.10      0.00 
   -7    5    6     -1.27      0.00 
   -6    5    6     -2.01      0.00 
   -5    5    6     -0.96      0.00 
   -4    5    6      1.35      0.00 
   -3    5    6      1.78      0.00 
   -2    5    6     -1.30      0.00 
   -1    5    6     -5.86      0.00 
    0    5    6     -9.10      0.00 
    1    5    6     -9.24      0.00 
    2    5    6     -6.35      0.00 
    3    5    6     -3.48      0.00 
    4    5    6     -3.27      0.00 
    5    5    6     -4.18      0.00 
    6    5    6     -3.77      0.00 
    7    5    6     -2.33      0.00 
    8    5    6     -0.67      0.00 
    9    5    6      1.34      0.00 
   10    5    6      2.97      0.00 
   11    5    6      2.89      0.00 
   12    5    6      1.08      0.00 
   13    5    6     -0.95      0.00 
   14    5    6     -1.75      0.00 
   15    5    6     -1.13      0.00 
   16    5    6     -0.19      0.00 
   17    5    6      0.22      0.00 
   18    5    6      0.27      0.00 
  -13    6    6      0.62      0.00 
  -12    6    6      0.46      0.00 
  -11    6    6     -0.37      0.00 
  -10    6    6     -0.84      0.00 
   -9    6    6     -0.18      0.00 
   -8    6    6      0.73      0.00 
   -7    6    6      0.65      0.00 
   -6    6    6     -0.74      0.00 
   -5    6    6     -2.64      0.00 
   -4    6    6     -2.89      0.00 
   -3    6    6     -0.25      0.00 
   -2    6    6      3.13      0.00 
   -1    6    6      4.31      0.00 
    0    6    6      2.65      0.00 
    1    6    6     -0.69      0.00 
    2    6    6     -3.16      0.00 
    3    6    6     -2.39      0.00 
    4    6    6      0.43      0.00 
    5    6    6      2.10      0.00 
    6    6    6      1.66      0.00 
    7    6    6     -0.20      0.00 
    8    6    6     -3.02      0.00 
    9    6    6     -5.28      0.00 
   10    6    6     -5.09      0.00 
   11    6    6     -2.73      0.00 
   12    6    6     -0.13      0.00 
   13    6    6      1.26      0.00 
   14    6    6      1.05      0.00 
   15    6    6      0.05      0.00 
   16    6    6     -0.46      0.00 
   17    6    6     -0.27      0.00 
  -13    7    6     -0.36      0.00 
  -12    7    6      0.23      0.00 
  -11    7    6      0.91      0.00 
  -10    7    6      0.48      0.00 
   -9    7    6     -0.53      0.00 
   -8    7    6     -0.56      0.00 
   -7    7    6      0.77      0.00 
   -6    7    6      2.55      0.00 
   -5    7    6      3.21      0.00 
   -4    7    6      1.56      0.00 
   -3    7    6     -0.90      0.00 
   -2    7    6     -1.17      0.00 
   -1    7    6      1.54      0.00 
    0    7    6      5.57      0.00 
    1    7    6      8.66      0.00 
    2    7    6      8.51      0.00 
    3    7    6      4.92      0.00 
    4    7    6      0.69      0.00 
    5    7    6     -1.73      0.00 
    6    7    6     -1.81      0.00 
    7    7    6      0.25      0.00 
    8    7    6      2.90      0.00 
    9    7    6      3.76      0.00 
   10    7    6      2.57      0.00 
   11    7    6      1.00      0.00 
   12    7    6      0.15      0.00 
   13    7    6      0.27      0.00 
   14    7    6      0.95      0.00 
   15    7    6      1.10      0.00 
   16    7    6      0.39      0.00 
   17    7    6     -0.12      0.00 
  -13    8    6     -0.18      0.00 
  -12    8    6     -0.88      0.00 
  -11    8    6     -0.79      0.00 
  -10    8    6      0.19      0.00 
   -9    8    6      0.55      0.00 
   -8    8    6     -0.29      0.00 
   -7    8    6     -1.44      0.00 
   -6    8    6     -1.87      0.00 
   -5    8    6     -0.86      0.00 
   -4    8    6      0.94      0.00 
   -3    8    6      1.23      0.00 
   -2    8    6     -1.06      0.00 
   -1    8    6     -4.40      0.00 
    0    8    6     -6.89      0.00 
    1    8    6     -7.18      0.00 
    2    8    6     -4.65      0.00 
    3    8    6     -0.71      0.00 
    4    8    6      2.23      0.00 
    5    8    6      2.88      0.00 
    6    8    6      1.34      0.00 
    7    8    6     -0.81      0.00 
    8    8    6     -1.29      0.00 
    9    8    6     -0.19      0.00 
   10    8    6      0.39      0.00 
   11    8    6     -0.16      0.00 
   12    8    6     -0.97      0.00 
   13    8    6     -1.68      0.00 
   14    8    6     -1.81      0.00 
   15    8    6     -0.88      0.00 
   16    8    6      0.16      0.00 
   17    8    6      0.27      0.00 
  -12    9    6      0.51      0.00 
  -11    9    6      0.08      0.00 
  -10    9    6     -0.12      0.00 
   -9    9    6      0.47      0.00 
   -8    9    6      1.07      0.00 
   -7    9    6      0.96      0.00 
   -6    9    6      0.09      0.00 
   -5    9    6     -1.16      0.00 
   -4    9    6     -1.63      0.00 
   -3    9    6     -0.35      0.00 
   -2    9    6      1.74      0.00 
   -1    9    6      3.01      0.00 
    0    9    6      2.67      0.00 
    1    9    6      0.56      0.00 
    2    9    6     -2.34      0.00 
    3    9    6     -3.91      0.00 
    4    9    6     -3.06      0.00 
    5    9    6     -0.49      0.00 
    6    9    6      1.92      0.00 
    7    9    6      1.94      0.00 
    8    9    6     -0.46      0.00 
    9    9    6     -2.37      0.00 
   10    9    6     -2.00      0.00 
   11    9    6     -0.47      0.00 
   12    9    6      0.86      0.00 
   13    9    6      1.52      0.00 
   14    9    6      1.20      0.00 
   15    9    6      0.41      0.00 
   16    9    6      0.13      0.00 
  -12   10    6      0.25      0.00 
  -11   10    6      0.30      0.00 
  -10   10    6     -0.39      0.00 
   -9   10    6     -1.05      0.00 
   -8   10    6     -0.73      0.00 
   -7   10    6      0.24      0.00 
   -6   10    6      1.04      0.00 
   -5   10    6      1.01      0.00 
   -4   10    6     -0.11      0.00 
   -3   10    6     -1.42      0.00 
   -2   10    6     -1.60      0.00 
   -1   10    6     -0.42      0.00 
    0   10    6      1.82      0.00 
    1   10    6      4.52      0.00 
    2   10    6      5.87      0.00 
    3   10    6      4.30      0.00 
    4   10    6      0.63      0.00 
    5   10    6     -2.67      0.00 
    6   10    6     -3.28      0.00 
    7   10    6     -0.93      0.00 
    8   10    6      1.80      0.00 
    9   10    6      2.56      0.00 
   10   10    6      1.86      0.00 
   11   10    6      1.01      0.00 
   12   10    6      0.21      0.00 
   13   10    6     -0.27      0.00 
   14   10    6     -0.24      0.00 
   15   10    6     -0.34      0.00 
   16   10    6     -0.69      0.00 
  -11   11    6     -0.30      0.00 
  -10   11    6      0.09      0.00 
   -9   11    6     -0.02      0.00 
   -8   11    6     -0.65      0.00 
   -7   11    6     -1.13      0.00 
   -6   11    6     -0.96      0.00 
   -5   11    6      0.07      0.00 
   -4   11    6      1.35      0.00 
   -3   11    6      1.50      0.00 
   -2   11    6      0.07      0.00 
   -1   11    6     -2.08      0.00 
    0   11    6     -4.04      0.00 
    1   11    6     -4.78      0.00 
    2   11    6     -3.35      0.00 
    3   11    6     -0.34      0.00 
    4   11    6      2.29      0.00 
    5   11    6      2.80      0.00 
    6   11    6      0.92      0.00 
    7   11    6     -1.35      0.00 
    8   11    6     -1.74      0.00 
    9   11    6     -0.78      0.00 
   10   11    6     -0.47      0.00 
   11   11    6     -0.94      0.00 
   12   11    6     -1.16      0.00 
   13   11    6     -0.95      0.00 
   14   11    6     -0.49      0.00 
   15   11    6      0.14      0.00 
  -11   12    6      0.29      0.00 
  -10   12    6      0.73      0.00 
   -9   12    6      1.25      0.00 
   -8   12    6      1.30      0.00 
   -7   12    6      0.86      0.00 
   -6   12    6      0.21      0.00 
   -5   12    6     -0.54      0.00 
   -4   12    6     -0.78      0.00 
   -3   12    6      0.05      0.00 
   -2   12    6      1.50      0.00 
   -1   12    6      2.61      0.00 
    0   12    6      2.54      0.00 
    1   12    6      0.66      0.00 
    2   12    6     -2.18      0.00 
    3   12    6     -3.78      0.00 
    4   12    6     -2.89      0.00 
    5   12    6     -0.26      0.00 
    6   12    6      2.08      0.00 
    7   12    6      2.24      0.00 
    8   12    6      0.42      0.00 
    9   12    6     -1.04      0.00 
   10   12    6     -0.84      0.00 
   11   12    6      0.21      0.00 
   12   12    6      1.01      0.00 
   13   12    6      1.16      0.00 
   14   12    6      0.75      0.00 
   15   12    6      0.23      0.00 
  -10   13    6     -0.76      0.00 
   -9   13    6     -0.78      0.00 
   -8   13    6     -0.30      0.00 
   -7   13    6      0.14      0.00 
   -6   13    6      0.40      0.00 
   -5   13    6      0.42      0.00 
   -4   13    6     -0.21      0.00 
   -3   13    6     -1.10      0.00 
   -2   13    6     -1.37      0.00 
   -1   13    6     -0.77      0.00 
    0   13    6      0.74      0.00 
    1   13    6      2.91      0.00 
    2   13    6      4.23      0.00 
    3   13    6      3.18      0.00 
    4   13    6      0.36      0.00 
    5   13    6     -2.14      0.00 
    6   13    6     -2.55      0.00 
    7   13    6     -0.86      0.00 
    8   13    6      1.06      0.00 
    9   13    6      1.67      0.00 
   10   13    6      1.27      0.00 
   11   13    6      0.69      0.00 
   12   13    6      0.12      0.00 
   13   13    6     -0.36      0.00 
   14   13    6     -0.53      0.00 
   -9   14    6     -0.47      0.00 
   -8   14    6     -0.75      0.00 
   -7   14    6     -0.72      0.00 
   -6   14    6     -0.55      0.00 
   -5   14    6      0.19      0.00 
   -4   14    6      1.37      0.00 
   -3   14    6      1.75      0.00 
   -2   14    6      0.76      0.00 
   -1   14    6     -0.84      0.00 
    0   14    6     -2.32      0.00 
    1   14    6     -2.89      0.00 
    2   14    6     -1.79      0.00 
    3   14    6      0.35      0.00 
    4   14    6      1.82      0.00 
    5   14    6      1.68      0.00 
    6   14    6      0.29      0.00 
    7   14    6     -1.09      0.00 
    8   14    6     -1.35      0.00 
    9   14    6     -0.79      0.00 
   10   14    6     -0.53      0.00 
   11   14    6     -0.75      0.00 
   12   14    6     -0.78      0.00 
   13   14    6     -0.33      0.00 
   -8   15    6      0.58      0.00 
   -7   15    6      0.68      0.00 
   -6   15    6      0.45      0.00 
   -5   15    6     -0.67      0.00 
   -4   15    6     -1.67      0.00 
   -3   15    6     -1.28      0.00 
   -2   15    6      0.11      0.00 
   -1   15    6      1.45      0.00 
    0   15    6      1.95      0.00 
    1   15    6      0.92      0.00 
    2   15    6     -1.12      0.00 
    3   15    6     -2.23      0.00 
    4   15    6     -1.40      0.00 
    5   15    6      0.38      0.00 
    6   15    6      1.55      0.00 
    7   15    6      1.31      0.00 
    8   15    6      0.13      0.00 
    9   15    6     -0.75      0.00 
   10   15    6     -0.64      0.00 
   11   15    6      0.00      0.00 
   12   15    6      0.41      0.00 
   -7   16    6     -0.34      0.00 
   -6   16    6     -0.35      0.00 
   -5   16    6     -0.12      0.00 
   -4   16    6     -0.39      0.00 
   -3   16    6     -1.07      0.00 
   -2   16    6     -1.41      0.00 
   -1   16    6     -1.19      0.00 
    0   16    6     -0.26      0.00 
    1   16    6      1.36      0.00 
    2   16    6      2.53      0.00 
    3   16    6      2.06      0.00 
    4   16    6      0.36      0.00 
    5   16    6     -1.08      0.00 
    6   16    6     -1.27      0.00 
    7   16    6     -0.36      0.00 
    8   16    6      0.60      0.00 
    9   16    6      0.91      0.00 
   10   16    6      0.69      0.00 
   11   16    6      0.35      0.00 
   -6   17    6      0.15      0.00 
   -5   17    6      1.03      0.00 
   -4   17    6      2.12      0.00 
   -3   17    6      2.26      0.00 
   -2   17    6      1.20      0.00 
   -1   17    6     -0.28      0.00 
    0   17    6     -1.53      0.00 
    1   17    6     -2.16      0.00 
    2   17    6     -1.76      0.00 
    3   17    6     -0.61      0.00 
    4   17    6      0.38      0.00 
    5   17    6      0.60      0.00 
    6   17    6      0.25      0.00 
    7   17    6     -0.01      0.00 
    8   17    6      0.09      0.00 
    9   17    6      0.17      0.00 
   10   17    6      0.01      0.00 
   -4   18    6     -1.12      0.00 
   -3   18    6     -0.88      0.00 
   -2   18    6      0.17      0.00 
   -1   18    6      1.09      0.00 
    0   18    6      1.26      0.00 
    1   18    6      0.58      0.00 
    2   18    6     -0.50      0.00 
    3   18    6     -1.12      0.00 
    4   18    6     -0.73      0.00 
    5   18    6      0.21      0.00 
    6   18    6      0.58      0.00 
    7   18    6      0.07      0.00 
    8   18    6     -0.44      0.00 
   -1   19    6     -0.39      0.00 
    0   19    6     -0.06      0.00 
    1   19    6      0.56      0.00 
    2   19    6      1.18      0.00 
    3   19    6      1.08      0.00 
    4   19    6      0.03      0.00 
    1  -15    7      0.23      0.00 
    2  -15    7     -0.31      0.00 
    3  -15    7     -0.67      0.00 
    4  -15    7     -0.59      0.00 
    5  -15    7     -0.44      0.00 
   -3  -14    7     -0.48      0.00 
   -2  -14    7     -0.90      0.00 
   -1  -14    7     -1.01      0.00 
    0  -14    7     -0.73      0.00 
    1  -14    7     -0.15      0.00 
    2  -14    7      0.64      0.00 
    3  -14    7      1.12      0.00 
    4  -14    7      0.90      0.00 
    5  -14    7      0.37      0.00 
    6  -14    7     -0.09      0.00 
    7  -14    7     -0.16      0.00 
    8  -14    7      0.37      0.00 
   -5  -13    7     -0.52      0.00 
   -4  -13    7     -0.18      0.00 
   -3  -13    7      0.65      0.00 
   -2  -13    7      1.09      0.00 
   -1  -13    7      0.72      0.00 
    0  -13    7      0.23      0.00 
    1  -13    7      0.04      0.00 
    2  -13    7      0.09      0.00 
    3  -13    7      0.49      0.00 
    4  -13    7      0.88      0.00 
    5  -13    7      0.76      0.00 
    6  -13    7      0.17      0.00 
    7  -13    7     -0.67      0.00 
    8  -13    7     -1.24      0.00 
    9  -13    7     -0.72      0.00 
   10  -13    7      0.39      0.00 
   -6  -12    7      0.08      0.00 
   -5  -12    7      0.55      0.00 
   -4  -12    7      0.48      0.00 
   -3  -12    7      0.20      0.00 
   -2  -12    7      0.55      0.00 
   -1  -12    7      1.09      0.00 
    0  -12    7      0.87      0.00 
    1  -12    7     -0.16      0.00 
    2  -12    7     -1.68      0.00 
    3  -12    7     -2.84      0.00 
    4  -12    7     -2.45      0.00 
    5  -12    7     -0.71      0.00 
    6  -12    7      0.89      0.00 
    7  -12    7      1.45      0.00 
    8  -12    7      0.94      0.00 
    9  -12    7     -0.13      0.00 
   10  -12    7     -0.59      0.00 
   11  -12    7     -0.12      0.00 
   12  -12    7      0.21      0.00 
   -7  -11    7      1.37      0.00 
   -6  -11    7      1.13      0.00 
   -5  -11    7      0.63      0.00 
   -4  -11    7      0.18      0.00 
   -3  -11    7     -0.84      0.00 
   -2  -11    7     -2.12      0.00 
   -1  -11    7     -2.27      0.00 
    0  -11    7     -1.00      0.00 
    1  -11    7      0.97      0.00 
    2  -11    7      2.67      0.00 
    3  -11    7      2.73      0.00 
    4  -11    7      0.78      0.00 
    5  -11    7     -1.26      0.00 
    6  -11    7     -1.56      0.00 
    7  -11    7     -0.43      0.00 
    8  -11    7      0.87      0.00 
    9  -11    7      1.19      0.00 
   10  -11    7      0.15      0.00 
   11  -11    7     -1.00      0.00 
   12  -11    7     -0.87      0.00 
   13  -11    7     -0.08      0.00 
   -8  -10    7     -0.51      0.00 
   -7  -10    7     -1.23      0.00 
   -6  -10    7     -1.51      0.00 
   -5  -10    7     -1.52      0.00 
   -4  -10    7     -0.84      0.00 
   -3  -10    7      0.71      0.00 
   -2  -10    7      1.75      0.00 
   -1  -10    7      1.15      0.00 
    0  -10    7     -0.36      0.00 
    1  -10    7     -1.46      0.00 
    2  -10    7     -1.10      0.00 
    3  -10    7      0.92      0.00 
    4  -10    7      2.80      0.00 
    5  -10    7      2.38      0.00 
    6  -10    7      0.06      0.00 
    7  -10    7     -2.10      0.00 
    8  -10    7     -2.77      0.00 
    9  -10    7     -1.68      0.00 
   10  -10    7      0.25      0.00 
   11  -10    7      1.17      0.00 
   12  -10    7      0.68      0.00 
   13  -10    7      0.15      0.00 
   14  -10    7      0.25      0.00 
   -9   -9    7     -0.73      0.00 
   -8   -9    7     -0.50      0.00 
   -7   -9    7     -0.18      0.00 
   -6   -9    7      0.35      0.00 
   -5   -9    7      0.88      0.00 
   -4   -9    7      0.68      0.00 
   -3   -9    7      0.12      0.00 
   -2   -9    7      0.41      0.00 
   -1   -9    7      1.28      0.00 
    0   -9    7      1.23      0.00 
    1   -9    7     -0.55      0.00 
    2   -9    7     -3.50      0.00 
    3   -9    7     -5.51      0.00 
    4   -9    7     -4.34      0.00 
    5   -9    7     -0.61      0.00 
    6   -9    7      2.58      0.00 
    7   -9    7      3.45      0.00 
    8   -9    7      2.44      0.00 
    9   -9    7      0.69      0.00 
   10   -9    7     -0.45      0.00 
   11   -9    7     -0.26      0.00 
   12   -9    7      0.21      0.00 
   13   -9    7     -0.15      0.00 
   14   -9    7     -0.70      0.00 
   15   -9    7     -0.59      0.00 
  -10   -8    7      0.51      0.00 
   -9   -8    7      0.69      0.00 
   -8   -8    7      1.00      0.00 
   -7   -8    7      1.34      0.00 
   -6   -8    7      1.06      0.00 
   -5   -8    7      0.30      0.00 
   -4   -8    7     -0.48      0.00 
   -3   -8    7     -1.60      0.00 
   -2   -8    7     -2.87      0.00 
   -1   -8    7     -2.64      0.00 
    0   -8    7      0.14      0.00 
    1   -8    7      4.32      0.00 
    2   -8    7      7.14      0.00 
    3   -8    7      6.09      0.00 
    4   -8    7      1.70      0.00 
    5   -8    7     -2.29      0.00 
    6   -8    7     -2.99      0.00 
    7   -8    7     -1.16      0.00 
    8   -8    7      0.88      0.00 
    9   -8    7      1.66      0.00 
   10   -8    7      0.90      0.00 
   11   -8    7     -0.33      0.00 
   12   -8    7     -0.59      0.00 
   13   -8    7     -0.02      0.00 
   14   -8    7      0.20      0.00 
   15   -8    7      0.04      0.00 
  -11   -7    7     -0.38      0.00 
  -10   -7    7     -0.34      0.00 
   -9   -7    7     -0.22      0.00 
   -8   -7    7     -0.62      0.00 
   -7   -7    7     -1.18      0.00 
   -6   -7    7     -1.25      0.00 
   -5   -7    7     -0.77      0.00 
   -4   -7    7      0.38      0.00 
   -3   -7    7      2.20      0.00 
   -2   -7    7      3.14      0.00 
   -1   -7    7      1.50      0.00 
    0   -7    7     -1.96      0.00 
    1   -7    7     -4.25      0.00 
    2   -7    7     -2.98      0.00 
    3   -7    7      0.92      0.00 
    4   -7    7      3.69      0.00 
    5   -7    7      2.66      0.00 
    6   -7    7     -0.98      0.00 
    7   -7    7     -4.05      0.00 
    8   -7    7     -4.78      0.00 
    9   -7    7     -3.34      0.00 
   10   -7    7     -1.12      0.00 
   11   -7    7      0.19      0.00 
   12   -7    7      0.27      0.00 
   13   -7    7      0.27      0.00 
   14   -7    7      0.61      0.00 
   15   -7    7      0.45      0.00 
   16   -7    7     -0.20      0.00 
  -11   -6    7      0.11      0.00 
  -10   -6    7     -0.53      0.00 
   -9   -6    7     -0.83      0.00 
   -8   -6    7     -0.47      0.00 
   -7   -6    7      0.03      0.00 
   -6   -6    7      0.43      0.00 
   -5   -6    7      0.69      0.00 
   -4   -6    7      0.33      0.00 
   -3   -6    7     -0.44      0.00 
   -2   -6    7     -0.36      0.00 
   -1   -6    7      0.69      0.00 
    0   -6    7      0.35      0.00 
    1   -6    7     -3.45      0.00 
    2   -6    7     -8.82      0.00 
    3   -6    7    -10.81      0.00 
    4   -6    7     -6.70      0.00 
    5   -6    7      0.71      0.00 
    6   -6    7      6.20      0.00 
    7   -6    7      7.20      0.00 
    8   -6    7      4.91      0.00 
    9   -6    7      1.92      0.00 
   10   -6    7      0.06      0.00 
   11   -6    7     -0.33      0.00 
   12   -6    7     -0.17      0.00 
   13   -6    7     -0.30      0.00 
   14   -6    7     -0.37      0.00 
   15   -6    7      0.01      0.00 
   16   -6    7      0.29      0.00 
  -12   -5    7      0.20      0.00 
  -11   -5    7      0.94      0.00 
  -10   -5    7      1.69      0.00 
   -9   -5    7      1.74      0.00 
   -8   -5    7      1.30      0.00 
   -7   -5    7      0.93      0.00 
   -6   -5    7      0.50      0.00 
   -5   -5    7     -0.22      0.00 
   -4   -5    7     -1.01      0.00 
   -3   -5    7     -1.91      0.00 
   -2   -5    7     -2.65      0.00 
   -1   -5    7     -1.23      0.00 
    0   -5    7      4.27      0.00 
    1   -5    7     11.78      0.00 
    2   -5    7     15.39      0.00 
    3   -5    7     11.48      0.00 
    4   -5    7      3.00      0.00 
    5   -5    7     -3.77      0.00 
    6   -5    7     -5.24      0.00 
    7   -5    7     -2.51      0.00 
    8   -5    7      0.83      0.00 
    9   -5    7      2.17      0.00 
   10   -5    7      1.55      0.00 
   11   -5    7      0.48      0.00 
   12   -5    7     -0.09      0.00 
   13   -5    7     -0.34      0.00 
   14   -5    7     -0.64      0.00 
   15   -5    7     -0.68      0.00 
   16   -5    7     -0.19      0.00 
   17   -5    7      0.23      0.00 
  -12   -4    7     -0.75      0.00 
  -11   -4    7     -1.17      0.00 
  -10   -4    7     -1.22      0.00 
   -9   -4    7     -0.90      0.00 
   -8   -4    7     -0.78      0.00 
   -7   -4    7     -0.99      0.00 
   -6   -4    7     -1.03      0.00 
   -5   -4    7     -0.53      0.00 
   -4   -4    7      0.68      0.00 
   -3   -4    7      2.44      0.00 
   -2   -4    7      3.12      0.00 
   -1   -4    7      0.28      0.00 
    0   -4    7     -5.32      0.00 
    1   -4    7     -8.37      0.00 
    2   -4    7     -5.14      0.00 
    3   -4    7      1.09      0.00 
    4   -4    7      3.90      0.00 
    5   -4    7      1.14      0.00 
    6   -4    7     -4.20      0.00 
    7   -4    7     -7.83      0.00 
    8   -4    7     -7.58      0.00 
    9   -4    7     -4.42      0.00 
   10   -4    7     -0.97      0.00 
   11   -4    7      1.05      0.00 
   12   -4    7      1.63      0.00 
   13   -4    7      1.46      0.00 
   14   -4    7      1.06      0.00 
   15   -4    7      0.49      0.00 
   16   -4    7     -0.08      0.00 
   17   -4    7     -0.20      0.00 
  -12   -3    7      0.41      0.00 
  -11   -3    7     -0.07      0.00 
  -10   -3    7     -0.77      0.00 
   -9   -3    7     -1.05      0.00 
   -8   -3    7     -0.55      0.00 
   -7   -3    7      0.29      0.00 
   -6   -3    7      0.81      0.00 
   -5   -3    7      0.73      0.00 
   -4   -3    7     -0.15      0.00 
   -3   -3    7     -1.38      0.00 
   -2   -3    7     -1.50      0.00 
   -1   -3    7     -0.40      0.00 
    0   -3    7     -1.38      0.00 
    1   -3    7     -7.18      0.00 
    2   -3    7    -13.99      0.00 
    3   -3    7    -14.33      0.00 
    4   -3    7     -6.17      0.00 
    5   -3    7      4.90      0.00 
    6   -3    7     11.85      0.00 
    7   -3    7     11.78      0.00 
    8   -3    7      6.82      0.00 
    9   -3    7      1.30      0.00 
   10   -3    7     -2.11      0.00 
   11   -3    7     -3.31      0.00 
   12   -3    7     -2.92      0.00 
   13   -3    7     -1.63      0.00 
   14   -3    7     -0.37      0.00 
   15   -3    7      0.33      0.00 
   16   -3    7      0.44      0.00 
   17   -3    7      0.14      0.00 
  -13   -2    7     -0.28      0.00 
  -12   -2    7      0.25      0.00 
  -11   -2    7      1.04      0.00 
  -10   -2    7      1.66      0.00 
   -9   -2    7      1.64      0.00 
   -8   -2    7      1.03      0.00 
   -7   -2    7      0.40      0.00 
   -6   -2    7      0.17      0.00 
   -5   -2    7      0.30      0.00 
   -4   -2    7      0.43      0.00 
   -3   -2    7      0.05      0.00 
   -2   -2    7     -0.23      0.00 
   -1   -2    7      2.36      0.00 
    0   -2    7      9.93      0.00 
    1   -2    7     18.88      0.00 
    2   -2    7     21.36      0.00 
    3   -2    7     14.19      0.00 
    4   -2    7      2.85      0.00 
    5   -2    7     -4.92      0.00 
    6   -2    7     -5.98      0.00 
    7   -2    7     -2.36      0.00 
    8   -2    7      1.74      0.00 
    9   -2    7      3.56      0.00 
   10   -2    7      3.33      0.00 
   11   -2    7      2.29      0.00 
   12   -2    7      1.00      0.00 
   13   -2    7     -0.09      0.00 
   14   -2    7     -0.64      0.00 
   15   -2    7     -0.77      0.00 
   16   -2    7     -0.56      0.00 
   17   -2    7     -0.15      0.00 
   18   -2    7      0.06      0.00 
  -13   -1    7     -0.13      0.00 
  -12   -1    7     -0.49      0.00 
  -11   -1    7     -0.59      0.00 
  -10   -1    7     -0.54      0.00 
   -9   -1    7     -0.31      0.00 
   -8   -1    7     -0.16      0.00 
   -7   -1    7     -0.60      0.00 
   -6   -1    7     -1.60      0.00 
   -5   -1    7     -2.11      0.00 
   -4   -1    7     -1.07      0.00 
   -3   -1    7      0.87      0.00 
   -2   -1    7      0.91      0.00 
   -1   -1    7     -3.33      0.00 
    0   -1    7     -9.85      0.00 
    1   -1    7    -12.60      0.00 
    2   -1    7     -8.38      0.00 
    3   -1    7     -1.76      0.00 
    4   -1    7      0.24      0.00 
    5   -1    7     -3.59      0.00 
    6   -1    7     -8.72      0.00 
    7   -1    7    -10.58      0.00 
    8   -1    7     -8.16      0.00 
    9   -1    7     -3.66      0.00 
   10   -1    7      0.32      0.00 
   11   -1    7      2.71      0.00 
   12   -1    7      3.28      0.00 
   13   -1    7      2.29      0.00 
   14   -1    7      0.99      0.00 
   15   -1    7      0.33      0.00 
   16   -1    7      0.10      0.00 
   17   -1    7      0.01      0.00 
   18   -1    7      0.10      0.00 
  -13    0    7      0.53      0.00 
  -12    0    7      0.21      0.00 
  -11    0    7     -0.36      0.00 
  -10    0    7     -0.82      0.00 
   -9    0    7     -1.05      0.00 
   -8    0    7     -0.60      0.00 
   -7    0    7      0.88      0.00 
   -6    0    7      2.51      0.00 
   -5    0    7      2.51      0.00 
   -4    0    7      0.51      0.00 
   -3    0    7     -1.37      0.00 
   -2    0    7     -0.95      0.00 
   -1    0    7      0.74      0.00 
    0    0    7     -0.19      0.00 
    1    0    7     -5.65      0.00 
    2    0    7    -11.29      0.00 
    3    0    7    -10.03      0.00 
    4    0    7     -0.69      0.00 
    5    0    7     10.06      0.00 
    6    0    7     14.91      0.00 
    7    0    7     12.23      0.00 
    8    0    7      5.51      0.00 
    9    0    7     -0.93      0.00 
   10    0    7     -4.99      0.00 
   11    0    7     -6.29      0.00 
   12    0    7     -5.02      0.00 
   13    0    7     -2.44      0.00 
   14    0    7     -0.42      0.00 
   15    0    7      0.42      0.00 
   16    0    7      0.60      0.00 
   17    0    7      0.43      0.00 
   18    0    7      0.14      0.00 
  -13    1    7     -0.21      0.00 
  -12    1    7      0.26      0.00 
  -11    1    7      0.65      0.00 
  -10    1    7      0.90      0.00 
   -9    1    7      0.78      0.00 
   -8    1    7     -0.09      0.00 
   -7    1    7     -1.24      0.00 
   -6    1    7     -1.31      0.00 
   -5    1    7      0.12      0.00 
   -4    1    7      1.49      0.00 
   -3    1    7      1.22      0.00 
   -2    1    7      0.58      0.00 
   -1    1    7      2.82      0.00 
    0    1    7      9.27      0.00 
    1    1    7     16.58      0.00 
    2    1    7     18.39      0.00 
    3    1    7     11.80      0.00 
    4    1    7      1.56      0.00 
    5    1    7     -4.90      0.00 
    6    1    7     -5.03      0.00 
    7    1    7     -1.62      0.00 
    8    1    7      1.88      0.00 
    9    1    7      3.97      0.00 
   10    1    7      4.45      0.00 
   11    1    7      3.38      0.00 
   12    1    7      1.44      0.00 
   13    1    7      0.01      0.00 
   14    1    7     -0.44      0.00 
   15    1    7     -0.60      0.00 
   16    1    7     -0.73      0.00 
   17    1    7     -0.60      0.00 
   18    1    7     -0.34      0.00 
  -13    2    7     -0.31      0.00 
  -12    2    7     -0.36      0.00 
  -11    2    7     -0.17      0.00 
  -10    2    7      0.09      0.00 
   -9    2    7      0.58      0.00 
   -8    2    7      1.08      0.00 
   -7    2    7      0.60      0.00 
   -6    2    7     -1.23      0.00 
   -5    2    7     -2.69      0.00 
   -4    2    7     -1.71      0.00 
   -3    2    7      0.58      0.00 
   -2    2    7      0.52      0.00 
   -1    2    7     -3.46      0.00 
    0    2    7     -8.98      0.00 
    1    2    7    -11.83      0.00 
    2    2    7     -9.62      0.00 
    3    2    7     -4.98      0.00 
    4    2    7     -3.23      0.00 
    5    2    7     -5.71      0.00 
    6    2    7     -8.41      0.00 
    7    2    7     -8.00      0.00 
    8    2    7     -5.06      0.00 
    9    2    7     -1.55      0.00 
   10    2    7      1.60      0.00 
   11    2    7      3.78      0.00 
   12    2    7      4.01      0.00 
   13    2    7      2.39      0.00 
   14    2    7      0.64      0.00 
   15    2    7      0.02      0.00 
   16    2    7      0.00      0.00 
   17    2    7     -0.10      0.00 
   18    2    7     -0.17      0.00 
  -13    3    7      0.22      0.00 
  -12    3    7      0.14      0.00 
  -11    3    7     -0.23      0.00 
  -10    3    7     -0.74      0.00 
   -9    3    7     -1.05      0.00 
   -8    3    7     -0.66      0.00 
   -7    3    7      0.57      0.00 
   -6    3    7      1.66      0.00 
   -5    3    7      0.88      0.00 
   -4    3    7     -1.56      0.00 
   -3    3    7     -2.68      0.00 
   -2    3    7     -0.72      0.00 
   -1    3    7      2.30      0.00 
    0    3    7      3.06      0.00 
    1    3    7      0.28      0.00 
    2    3    7     -3.70      0.00 
    3    3    7     -3.97      0.00 
    4    3    7      1.36      0.00 
    5    3    7      7.71      0.00 
    6    3    7      9.64      0.00 
    7    3    7      6.77      0.00 
    8    3    7      1.86      0.00 
    9    3    7     -3.06      0.00 
   10    3    7     -6.59      0.00 
   11    3    7     -7.30      0.00 
   12    3    7     -5.08      0.00 
   13    3    7     -1.93      0.00 
   14    3    7      0.00      0.00 
   15    3    7      0.50      0.00 
   16    3    7      0.61      0.00 
   17    3    7      0.75      0.00 
   18    3    7      0.66      0.00 
  -13    4    7      0.02      0.00 
  -12    4    7     -0.03      0.00 
  -11    4    7      0.15      0.00 
  -10    4    7      0.39      0.00 
   -9    4    7      0.20      0.00 
   -8    4    7     -0.42      0.00 
   -7    4    7     -0.66      0.00 
   -6    4    7      0.46      0.00 
   -5    4    7      2.64      0.00 
   -4    4    7      3.56      0.00 
   -3    4    7      1.65      0.00 
   -2    4    7     -0.98      0.00 
   -1    4    7     -1.00      0.00 
    0    4    7      2.52      0.00 
    1    4    7      7.84      0.00 
    2    4    7     11.07      0.00 
    3    4    7      9.00      0.00 
    4    4    7      3.46      0.00 
    5    4    7     -0.60      0.00 
    6    4    7     -1.45      0.00 
    7    4    7     -0.51      0.00 
    8    4    7      1.44      0.00 
    9    4    7      3.75      0.00 
   10    4    7      4.63      0.00 
   11    4    7      3.23      0.00 
   12    4    7      0.99      0.00 
   13    4    7     -0.24      0.00 
   14    4    7     -0.20      0.00 
   15    4    7      0.04      0.00 
   16    4    7     -0.17      0.00 
   17    4    7     -0.47      0.00 
   18    4    7     -0.46      0.00 
  -13    5    7     -0.16      0.00 
  -12    5    7     -0.24      0.00 
  -11    5    7     -0.19      0.00 
  -10    5    7      0.20      0.00 
   -9    5    7      0.69      0.00 
   -8    5    7      0.66      0.00 
   -7    5    7     -0.22      0.00 
   -6    5    7     -1.62      0.00 
   -5    5    7     -2.17      0.00 
   -4    5    7     -0.56      0.00 
   -3    5    7      1.80      0.00 
   -2    5    7      1.80      0.00 
   -1    5    7     -1.24      0.00 
    0    5    7     -5.43      0.00 
    1    5    7     -8.42      0.00 
    2    5    7     -8.32      0.00 
    3    5    7     -5.59      0.00 
    4    5    7     -3.27      0.00 
    5    5    7     -2.62      0.00 
    6    5    7     -2.11      0.00 
    7    5    7     -1.28      0.00 
    8    5    7     -0.76      0.00 
    9    5    7      0.06      0.00 
   10    5    7      1.67      0.00 
   11    5    7      2.88      0.00 
   12    5    7      2.49      0.00 
   13    5    7      0.83      0.00 
   14    5    7     -0.70      0.00 
   15    5    7     -0.96      0.00 
   16    5    7     -0.29      0.00 
   17    5    7      0.18      0.00 
   18    5    7      0.18      0.00 
  -13    6    7      0.44      0.00 
  -12    6    7      0.67      0.00 
  -11    6    7      0.22      0.00 
  -10    6    7     -0.66      0.00 
   -9    6    7     -0.83      0.00 
   -8    6    7     -0.01      0.00 
   -7    6    7      0.76      0.00 
   -6    6    7      0.41      0.00 
   -5    6    7     -1.40      0.00 
   -4    6    7     -3.46      0.00 
   -3    6    7     -3.35      0.00 
   -2    6    7     -0.59      0.00 
   -1    6    7      2.39      0.00 
    0    6    7      3.32      0.00 
    1    6    7      1.65      0.00 
    2    6    7     -1.55      0.00 
    3    6    7     -3.61      0.00 
    4    6    7     -2.95      0.00 
    5    6    7     -1.09      0.00 
    6    6    7      0.25      0.00 
    7    6    7      0.72      0.00 
    8    6    7     -0.39      0.00 
    9    6    7     -3.00      0.00 
   10    6    7     -4.87      0.00 
   11    6    7     -4.33      0.00 
   12    6    7     -2.14      0.00 
   13    6    7      0.06      0.00 
   14    6    7      1.05      0.00 
   15    6    7      0.59      0.00 
   16    6    7     -0.19      0.00 
   17    6    7     -0.30      0.00 
   18    6    7     -0.10      0.00 
  -12    7    7     -0.36      0.00 
  -11    7    7      0.51      0.00 
  -10    7    7      0.99      0.00 
   -9    7    7      0.29      0.00 
   -8    7    7     -0.62      0.00 
   -7    7    7     -0.39      0.00 
   -6    7    7      1.22      0.00 
   -5    7    7      3.19      0.00 
   -4    7    7      3.57      0.00 
   -3    7    7      1.63      0.00 
   -2    7    7     -0.58      0.00 
   -1    7    7     -0.60      0.00 
    0    7    7      1.88      0.00 
    1    7    7      5.68      0.00 
    2    7    7      8.64      0.00 
    3    7    7      8.56      0.00 
    4    7    7      5.60      0.00 
    5    7    7      1.72      0.00 
    6    7    7     -1.42      0.00 
    7    7    7     -2.24      0.00 
    8    7    7     -0.21      0.00 
    9    7    7      2.36      0.00 
   10    7    7      3.01      0.00 
   11    7    7      2.04      0.00 
   12    7    7      0.78      0.00 
   13    7    7      0.04      0.00 
   14    7    7      0.22      0.00 
   15    7    7      0.71      0.00 
   16    7    7      0.52      0.00 
   17    7    7      0.00      0.00 
  -12    8    7     -0.47      0.00 
  -11    8    7     -1.07      0.00 
  -10    8    7     -0.65      0.00 
   -9    8    7      0.26      0.00 
   -8    8    7      0.37      0.00 
   -7    8    7     -0.54      0.00 
   -6    8    7     -1.68      0.00 
   -5    8    7     -1.88      0.00 
   -4    8    7     -0.46      0.00 
   -3    8    7      1.27      0.00 
   -2    8    7      1.16      0.00 
   -1    8    7     -1.04      0.00 
    0    8    7     -4.04      0.00 
    1    8    7     -6.50      0.00 
    2    8    7     -6.91      0.00 
    3    8    7     -4.59      0.00 
    4    8    7     -0.78      0.00 
    5    8    7      2.55      0.00 
    6    8    7      3.64      0.00 
    7    8    7      2.03      0.00 
    8    8    7     -0.10      0.00 
    9    8    7     -0.46      0.00 
   10    8    7      0.16      0.00 
   11    8    7      0.15      0.00 
   12    8    7     -0.36      0.00 
   13    8    7     -0.97      0.00 
   14    8    7     -1.50      0.00 
   15    8    7     -1.22      0.00 
   16    8    7     -0.23      0.00 
   17    8    7      0.27      0.00 
  -12    9    7      0.49      0.00 
  -11    9    7      0.37      0.00 
  -10    9    7     -0.09      0.00 
   -9    9    7     -0.03      0.00 
   -8    9    7      0.63      0.00 
   -7    9    7      1.11      0.00 
   -6    9    7      0.81      0.00 
   -5    9    7     -0.46      0.00 
   -4    9    7     -2.01      0.00 
   -3    9    7     -2.31      0.00 
   -2    9    7     -0.89      0.00 
   -1    9    7      1.15      0.00 
    0    9    7      2.64      0.00 
    1    9    7      2.57      0.00 
    2    9    7      0.40      0.00 
    3    9    7     -2.71      0.00 
    4    9    7     -4.60      0.00 
    5    9    7     -3.98      0.00 
    6    9    7     -1.15      0.00 
    7    9    7      1.50      0.00 
    8    9    7      1.32      0.00 
    9    9    7     -0.87      0.00 
   10    9    7     -2.03      0.00 
   11    9    7     -1.42      0.00 
   12    9    7     -0.20      0.00 
   13    9    7      0.88      0.00 
   14    9    7      1.30      0.00 
   15    9    7      0.83      0.00 
   16    9    7      0.30      0.00 
   17    9    7      0.21      0.00 
  -11   10    7      0.52      0.00 
  -10   10    7      0.31      0.00 
   -9   10    7     -0.49      0.00 
   -8   10    7     -0.95      0.00 
   -7   10    7     -0.51      0.00 
   -6   10    7      0.57      0.00 
   -5   10    7      1.53      0.00 
   -4   10    7      1.51      0.00 
   -3   10    7      0.45      0.00 
   -2   10    7     -0.67      0.00 
   -1   10    7     -1.10      0.00 
    0   10    7     -0.52      0.00 
    1   10    7      1.65      0.00 
    2   10    7      4.73      0.00 
    3   10    7      6.30      0.00 
    4   10    7      4.71      0.00 
    5   10    7      0.81      0.00 
    6   10    7     -2.69      0.00 
    7   10    7     -3.11      0.00 
    8   10    7     -0.71      0.00 
    9   10    7      1.54      0.00 
   10   10    7      2.04      0.00 
   11   10    7      1.62      0.00 
   12   10    7      0.95      0.00 
   13   10    7      0.20      0.00 
   14   10    7     -0.15      0.00 
   15   10    7     -0.24      0.00 
   16   10    7     -0.49      0.00 
  -11   11    7     -0.51      0.00 
  -10   11    7     -0.25      0.00 
   -9   11    7      0.02      0.00 
   -8   11    7     -0.14      0.00 
   -7   11    7     -0.65      0.00 
   -6   11    7     -1.07      0.00 
   -5   11    7     -0.79      0.00 
   -4   11    7      0.36      0.00 
   -3   11    7      1.42      0.00 
   -2   11    7      1.33      0.00 
   -1   11    7      0.13      0.00 
    0   11    7     -1.84      0.00 
    1   11    7     -4.08      0.00 
    2   11    7     -5.06      0.00 
    3   11    7     -3.52      0.00 
    4   11    7     -0.22      0.00 
    5   11    7      2.63      0.00 
    6   11    7      2.96      0.00 
    7   11    7      0.79      0.00 
    8   11    7     -1.20      0.00 
    9   11    7     -1.18      0.00 
   10   11    7     -0.46      0.00 
   11   11    7     -0.52      0.00 
   12   11    7     -0.93      0.00 
   13   11    7     -1.05      0.00 
   14   11    7     -0.86      0.00 
   15   11    7     -0.43      0.00 
   16   11    7      0.02      0.00 
  -10   12    7      0.50      0.00 
   -9   12    7      0.97      0.00 
   -8   12    7      1.16      0.00 
   -7   12    7      0.94      0.00 
   -6   12    7      0.45      0.00 
   -5   12    7     -0.32      0.00 
   -4   12    7     -1.11      0.00 
   -3   12    7     -1.19      0.00 
   -2   12    7     -0.26      0.00 
   -1   12    7      1.26      0.00 
    0   12    7      2.71      0.00 
    1   12    7      2.82      0.00 
    2   12    7      0.74      0.00 
    3   12    7     -2.30      0.00 
    4   12    7     -3.93      0.00 
    5   12    7     -3.01      0.00 
    6   12    7     -0.30      0.00 
    7   12    7      1.95      0.00 
    8   12    7      1.79      0.00 
    9   12    7      0.01      0.00 
   10   12    7     -1.06      0.00 
   11   12    7     -0.72      0.00 
   12   12    7      0.17      0.00 
   13   12    7      0.86      0.00 
   14   12    7      1.07      0.00 
   15   12    7      0.87      0.00 
  -10   13    7     -0.59      0.00 
   -9   13    7     -0.85      0.00 
   -8   13    7     -0.59      0.00 
   -7   13    7     -0.11      0.00 
   -6   13    7      0.34      0.00 
   -5   13    7      0.77      0.00 
   -4   13    7      0.77      0.00 
   -3   13    7      0.08      0.00 
   -2   13    7     -0.73      0.00 
   -1   13    7     -1.17      0.00 
    0   13    7     -0.94      0.00 
    1   13    7      0.63      0.00 
    2   13    7      3.12      0.00 
    3   13    7      4.43      0.00 
    4   13    7      3.18      0.00 
    5   13    7      0.31      0.00 
    6   13    7     -1.99      0.00 
    7   13    7     -2.09      0.00 
    8   13    7     -0.46      0.00 
    9   13    7      0.96      0.00 
   10   13    7      1.23      0.00 
   11   13    7      0.98      0.00 
   12   13    7      0.62      0.00 
   13   13    7      0.09      0.00 
   14   13    7     -0.46      0.00 
   -9   14    7     -0.18      0.00 
   -8   14    7     -0.52      0.00 
   -7   14    7     -0.65      0.00 
   -6   14    7     -0.80      0.00 
   -5   14    7     -0.75      0.00 
   -4   14    7      0.11      0.00 
   -3   14    7      1.25      0.00 
   -2   14    7      1.45      0.00 
   -1   14    7      0.60      0.00 
    0   14    7     -0.83      0.00 
    1   14    7     -2.37      0.00 
    2   14    7     -2.94      0.00 
    3   14    7     -1.72      0.00 
    4   14    7      0.41      0.00 
    5   14    7      1.76      0.00 
    6   14    7      1.47      0.00 
    7   14    7      0.00      0.00 
    8   14    7     -1.09      0.00 
    9   14    7     -0.91      0.00 
   10   14    7     -0.29      0.00 
   11   14    7     -0.31      0.00 
   12   14    7     -0.69      0.00 
   13   14    7     -0.67      0.00 
   14   14    7     -0.19      0.00 
   -8   15    7      0.54      0.00 
   -7   15    7      0.65      0.00 
   -6   15    7      0.91      0.00 
   -5   15    7      0.45      0.00 
   -4   15    7     -0.90      0.00 
   -3   15    7     -1.78      0.00 
   -2   15    7     -1.31      0.00 
   -1   15    7      0.01      0.00 
    0   15    7      1.41      0.00 
    1   15    7      1.91      0.00 
    2   15    7      0.72      0.00 
    3   15    7     -1.25      0.00 
    4   15    7     -2.07      0.00 
    5   15    7     -1.13      0.00 
    6   15    7      0.52      0.00 
    7   15    7      1.49      0.00 
    8   15    7      1.09      0.00 
    9   15    7     -0.05      0.00 
   10   15    7     -0.71      0.00 
   11   15    7     -0.50      0.00 
   12   15    7      0.04      0.00 
   13   15    7      0.31      0.00 
   -7   16    7     -0.27      0.00 
   -6   16    7     -0.49      0.00 
   -5   16    7     -0.23      0.00 
   -4   16    7      0.09      0.00 
   -3   16    7     -0.22      0.00 
   -2   16    7     -0.81      0.00 
   -1   16    7     -1.17      0.00 
    0   16    7     -1.10      0.00 
    1   16    7     -0.21      0.00 
    2   16    7      1.42      0.00 
    3   16    7      2.43      0.00 
    4   16    7      1.78      0.00 
    5   16    7      0.13      0.00 
    6   16    7     -1.09      0.00 
    7   16    7     -1.09      0.00 
    8   16    7     -0.27      0.00 
    9   16    7      0.40      0.00 
   10   16    7      0.58      0.00 
   11   16    7      0.53      0.00 
   -5   17    7      0.25      0.00 
   -4   17    7      1.27      0.00 
   -3   17    7      2.23      0.00 
   -2   17    7      2.11      0.00 
   -1   17    7      0.98      0.00 
    0   17    7     -0.39      0.00 
    1   17    7     -1.58      0.00 
    2   17    7     -2.20      0.00 
    3   17    7     -1.81      0.00 
    4   17    7     -0.68      0.00 
    5   17    7      0.28      0.00 
    6   17    7      0.51      0.00 
    7   17    7      0.31      0.00 
    8   17    7      0.27      0.00 
    9   17    7      0.39      0.00 
   10   17    7      0.27      0.00 
   -3   18    7     -1.31      0.00 
   -2   18    7     -0.76      0.00 
   -1   18    7      0.36      0.00 
    0   18    7      1.16      0.00 
    1   18    7      1.25      0.00 
    2   18    7      0.59      0.00 
    3   18    7     -0.46      0.00 
    4   18    7     -1.02      0.00 
    5   18    7     -0.60      0.00 
    6   18    7      0.10      0.00 
    7   18    7      0.09      0.00 
    8   18    7     -0.44      0.00 
    0   19    7     -0.19      0.00 
    1   19    7      0.19      0.00 
    2   19    7      0.94      0.00 
    3   19    7      1.62      0.00 
    4   19    7      1.28      0.00 
    5   19    7      0.09      0.00 
   -1  -14    8     -0.94      0.00 
    0  -14    8     -0.92      0.00 
    1  -14    8     -0.62      0.00 
    2  -14    8      0.00      0.00 
    3  -14    8      0.80      0.00 
    4  -14    8      1.12      0.00 
    5  -14    8      0.78      0.00 
    6  -14    8      0.22      0.00 
    7  -14    8     -0.27      0.00 
   -3  -13    8      0.01      0.00 
   -2  -13    8      0.86      0.00 
   -1  -13    8      1.05      0.00 
    0  -13    8      0.62      0.00 
    1  -13    8      0.19      0.00 
    2  -13    8     -0.19      0.00 
    3  -13    8     -0.29      0.00 
    4  -13    8      0.17      0.00 
    5  -13    8      0.66      0.00 
    6  -13    8      0.73      0.00 
    7  -13    8      0.40      0.00 
    8  -13    8     -0.25      0.00 
    9  -13    8     -0.68      0.00 
   -5  -12    8      0.34      0.00 
   -4  -12    8      0.67      0.00 
   -3  -12    8      0.35      0.00 
   -2  -12    8      0.19      0.00 
   -1  -12    8      0.69      0.00 
    0  -12    8      1.12      0.00 
    1  -12    8      0.90      0.00 
    2  -12    8     -0.04      0.00 
    3  -12    8     -1.62      0.00 
    4  -12    8     -2.71      0.00 
    5  -12    8     -2.19      0.00 
    6  -12    8     -0.71      0.00 
    7  -12    8      0.45      0.00 
    8  -12    8      0.89      0.00 
    9  -12    8      0.52      0.00 
   10  -12    8     -0.21      0.00 
   11  -12    8     -0.31      0.00 
   -6  -11    8      1.23      0.00 
   -5  -11    8      0.92      0.00 
   -4  -11    8      0.61      0.00 
   -3  -11    8      0.05      0.00 
   -2  -11    8     -1.23      0.00 
   -1  -11    8     -2.37      0.00 
    0  -11    8     -2.29      0.00 
    1  -11    8     -0.97      0.00 
    2  -11    8      1.20      0.00 
    3  -11    8      3.03      0.00 
    4  -11    8      2.78      0.00 
    5  -11    8      0.69      0.00 
    6  -11    8     -0.99      0.00 
    7  -11    8     -1.13      0.00 
    8  -11    8     -0.28      0.00 
    9  -11    8      0.71      0.00 
   10  -11    8      0.80      0.00 
   11  -11    8     -0.21      0.00 
   12  -11    8     -0.99      0.00 
   -7  -10    8     -0.65      0.00 
   -6  -10    8     -1.14      0.00 
   -5  -10    8     -1.45      0.00 
   -4  -10    8     -1.44      0.00 
   -3  -10    8     -0.43      0.00 
   -2  -10    8      1.24      0.00 
   -1  -10    8      2.03      0.00 
    0  -10    8      1.29      0.00 
    1  -10    8     -0.36      0.00 
    2  -10    8     -1.67      0.00 
    3  -10    8     -1.15      0.00 
    4  -10    8      1.14      0.00 
    5  -10    8      2.80      0.00 
    6  -10    8      2.13      0.00 
    7  -10    8      0.11      0.00 
    8  -10    8     -1.66      0.00 
    9  -10    8     -2.21      0.00 
   10  -10    8     -1.10      0.00 
   11  -10    8      0.57      0.00 
   12  -10    8      1.09      0.00 
   13  -10    8      0.56      0.00 
   -8   -9    8     -0.54      0.00 
   -7   -9    8     -0.48      0.00 
   -6   -9    8     -0.23      0.00 
   -5   -9    8      0.36      0.00 
   -4   -9    8      0.75      0.00 
   -3   -9    8      0.33      0.00 
   -2   -9    8     -0.18      0.00 
   -1   -9    8      0.19      0.00 
    0   -9    8      1.01      0.00 
    1   -9    8      1.03      0.00 
    2   -9    8     -0.76      0.00 
    3   -9    8     -3.82      0.00 
    4   -9    8     -5.59      0.00 
    5   -9    8     -4.09      0.00 
    6   -9    8     -0.70      0.00 
    7   -9    8      1.92      0.00 
    8   -9    8      2.75      0.00 
    9   -9    8      1.94      0.00 
   10   -9    8      0.31      0.00 
   11   -9    8     -0.57      0.00 
   12   -9    8     -0.22      0.00 
   13   -9    8      0.01      0.00 
   14   -9    8     -0.44      0.00 
   -9   -8    8      0.36      0.00 
   -8   -8    8      0.67      0.00 
   -7   -8    8      1.14      0.00 
   -6   -8    8      1.37      0.00 
   -5   -8    8      0.93      0.00 
   -4   -8    8      0.24      0.00 
   -3   -8    8     -0.49      0.00 
   -2   -8    8     -1.69      0.00 
   -1   -8    8     -2.89      0.00 
    0   -8    8     -2.52      0.00 
    1   -8    8      0.32      0.00 
    2   -8    8      4.47      0.00 
    3   -8    8      6.95      0.00 
    4   -8    8      5.44      0.00 
    5   -8    8      1.27      0.00 
    6   -8    8     -1.88      0.00 
    7   -8    8     -2.24      0.00 
    8   -8    8     -0.81      0.00 
    9   -8    8      0.86      0.00 
   10   -8    8      1.47      0.00 
   11   -8    8      0.65      0.00 
   12   -8    8     -0.33      0.00 
   13   -8    8     -0.28      0.00 
   14   -8    8      0.11      0.00 
   15   -8    8      0.07      0.00 
  -10   -7    8     -0.38      0.00 
   -9   -7    8     -0.30      0.00 
   -8   -7    8     -0.31      0.00 
   -7   -7    8     -0.75      0.00 
   -6   -7    8     -1.11      0.00 
   -5   -7    8     -1.06      0.00 
   -4   -7    8     -0.60      0.00 
   -3   -7    8      0.73      0.00 
   -2   -7    8      2.76      0.00 
   -1   -7    8      3.64      0.00 
    0   -7    8      1.78      0.00 
    1   -7    8     -1.80      0.00 
    2   -7    8     -3.97      0.00 
    3   -7    8     -2.53      0.00 
    4   -7    8      1.14      0.00 
    5   -7    8      3.32      0.00 
    6   -7    8      2.14      0.00 
    7   -7    8     -0.89      0.00 
    8   -7    8     -3.36      0.00 
    9   -7    8     -3.92      0.00 
   10   -7    8     -2.55      0.00 
   11   -7    8     -0.66      0.00 
   12   -7    8      0.21      0.00 
   13   -7    8      0.25      0.00 
   14   -7    8      0.46      0.00 
   15   -7    8      0.59      0.00 
   16   -7    8      0.10      0.00 
  -10   -6    8      0.11      0.00 
   -9   -6    8     -0.54      0.00 
   -8   -6    8     -0.77      0.00 
   -7   -6    8     -0.50      0.00 
   -6   -6    8     -0.10      0.00 
   -5   -6    8      0.40      0.00 
   -4   -6    8      0.65      0.00 
   -3   -6    8     -0.06      0.00 
   -2   -6    8     -1.13      0.00 
   -1   -6    8     -0.94      0.00 
    0   -6    8      0.37      0.00 
    1   -6    8      0.13      0.00 
    2   -6    8     -3.42      0.00 
    3   -6    8     -8.01      0.00 
    4   -6    8     -9.14      0.00 
    5   -6    8     -5.20      0.00 
    6   -6    8      0.85      0.00 
    7   -6    8      4.97      0.00 
    8   -6    8      5.62      0.00 
    9   -6    8      3.74      0.00 
   10   -6    8      1.24      0.00 
   11   -6    8     -0.23      0.00 
   12   -6    8     -0.44      0.00 
   13   -6    8     -0.39      0.00 
   14   -6    8     -0.46      0.00 
   15   -6    8     -0.18      0.00 
   16   -6    8      0.32      0.00 
  -11   -5    8      0.19      0.00 
  -10   -5    8      1.09      0.00 
   -9   -5    8      1.81      0.00 
   -8   -5    8      1.78      0.00 
   -7   -5    8      1.39      0.00 
   -6   -5    8      0.93      0.00 
   -5   -5    8      0.27      0.00 
   -4   -5    8     -0.42      0.00 
   -3   -5    8     -1.00      0.00 
   -2   -5    8     -1.93      0.00 
   -1   -5    8     -2.84      0.00 
    0   -5    8     -1.37      0.00 
    1   -5    8      4.07      0.00 
    2   -5    8     10.71      0.00 
    3   -5    8     13.15      0.00 
    4   -5    8      9.12      0.00 
    5   -5    8      1.92      0.00 
    6   -5    8     -3.31      0.00 
    7   -5    8     -4.14      0.00 
    8   -5    8     -1.79      0.00 
    9   -5    8      0.84      0.00 
   10   -5    8      1.88      0.00 
   11   -5    8      1.46      0.00 
   12   -5    8      0.72      0.00 
   13   -5    8      0.22      0.00 
   14   -5    8     -0.27      0.00 
   15   -5    8     -0.67      0.00 
   16   -5    8     -0.52      0.00 
   17   -5    8      0.00      0.00 
  -11   -4    8     -0.85      0.00 
  -10   -4    8     -1.29      0.00 
   -9   -4    8     -1.27      0.00 
   -8   -4    8     -0.92      0.00 
   -7   -4    8     -0.77      0.00 
   -6   -4    8     -0.77      0.00 
   -5   -4    8     -0.64      0.00 
   -4   -4    8     -0.11      0.00 
   -3   -4    8      1.32      0.00 
   -2   -4    8      3.49      0.00 
   -1   -4    8      4.11      0.00 
    0   -4    8      0.81      0.00 
    1   -4    8     -4.59      0.00 
    2   -4    8     -6.82      0.00 
    3   -4    8     -3.62      0.00 
    4   -4    8      1.36      0.00 
    5   -4    8      3.23      0.00 
    6   -4    8      0.85      0.00 
    7   -4    8     -3.35      0.00 
    8   -4    8     -6.13      0.00 
    9   -4    8     -5.83      0.00 
   10   -4    8     -3.35      0.00 
   11   -4    8     -0.77      0.00 
   12   -4    8      0.74      0.00 
   13   -4    8      1.26      0.00 
   14   -4    8      1.27      0.00 
   15   -4    8      0.91      0.00 
   16   -4    8      0.24      0.00 
   17   -4    8     -0.24      0.00 
  -12   -3    8      0.45      0.00 
  -11   -3    8      0.33      0.00 
  -10   -3    8     -0.26      0.00 
   -9   -3    8     -0.95      0.00 
   -8   -3    8     -1.09      0.00 
   -7   -3    8     -0.53      0.00 
   -6   -3    8      0.16      0.00 
   -5   -3    8      0.51      0.00 
   -4   -3    8      0.15      0.00 
   -3   -3    8     -1.23      0.00 
   -2   -3    8     -2.68      0.00 
   -1   -3    8     -2.41      0.00 
    0   -3    8     -1.02      0.00 
    1   -3    8     -2.18      0.00 
    2   -3    8     -7.50      0.00 
    3   -3    8    -12.63      0.00 
    4   -3    8    -11.79      0.00 
    5   -3    8     -4.51      0.00 
    6   -3    8      4.33      0.00 
    7   -3    8      9.46      0.00 
    8   -3    8      9.00      0.00 
    9   -3    8      5.00      0.00 
   10   -3    8      0.75      0.00 
   11   -3    8     -1.99      0.00 
   12   -3    8     -3.00      0.00 
   13   -3    8     -2.61      0.00 
   14   -3    8     -1.49      0.00 
   15   -3    8     -0.43      0.00 
   16   -3    8      0.19      0.00 
   17   -3    8      0.28      0.00 
  -12   -2    8     -0.06      0.00 
  -11   -2    8      0.49      0.00 
  -10   -2    8      1.28      0.00 
   -9   -2    8      1.81      0.00 
   -8   -2    8      1.58      0.00 
   -7   -2    8      0.81      0.00 
   -6   -2    8      0.24      0.00 
   -5   -2    8      0.29      0.00 
   -4   -2    8      0.84      0.00 
   -3   -2    8      1.13      0.00 
   -2   -2    8      0.42      0.00 
   -1   -2    8     -0.20      0.00 
    0   -2    8      2.46      0.00 
    1   -2    8      9.60      0.00 
    2   -2    8     16.86      0.00 
    3   -2    8     17.77      0.00 
    4   -2    8     11.05      0.00 
    5   -2    8      1.67      0.00 
    6   -2    8     -4.47      0.00 
    7   -2    8     -5.07      0.00 
    8   -2    8     -1.95      0.00 
    9   -2    8      1.35      0.00 
   10   -2    8      2.87      0.00 
   11   -2    8      2.86      0.00 
   12   -2    8      2.05      0.00 
   13   -2    8      0.96      0.00 
   14   -2    8      0.09      0.00 
   15   -2    8     -0.38      0.00 
   16   -2    8     -0.49      0.00 
   17   -2    8     -0.26      0.00 
   18   -2    8      0.00      0.00 
  -12   -1    8     -0.33      0.00 
  -11   -1    8     -0.50      0.00 
  -10   -1    8     -0.59      0.00 
   -9   -1    8     -0.53      0.00 
   -8   -1    8     -0.19      0.00 
   -7   -1    8      0.01      0.00 
   -6   -1    8     -0.55      0.00 
   -5   -1    8     -1.67      0.00 
   -4   -1    8     -2.04      0.00 
   -3   -1    8     -0.55      0.00 
   -2   -1    8      1.80      0.00 
   -1   -1    8      1.84      0.00 
    0   -1    8     -2.35      0.00 
    1   -1    8     -8.06      0.00 
    2   -1    8     -9.86      0.00 
    3   -1    8     -6.00      0.00 
    4   -1    8     -0.81      0.00 
    5   -1    8      0.63      0.00 
    6   -1    8     -2.17      0.00 
    7   -1    8     -5.87      0.00 
    8   -1    8     -7.26      0.00 
    9   -1    8     -5.66      0.00 
   10   -1    8     -2.50      0.00 
   11   -1    8      0.61      0.00 
   12   -1    8      2.58      0.00 
   13   -1    8      2.81      0.00 
   14   -1    8      1.82      0.00 
   15   -1    8      0.83      0.00 
   16   -1    8      0.32      0.00 
   17   -1    8      0.08      0.00 
   18   -1    8      0.05      0.00 
  -12    0    8      0.46      0.00 
  -11    0    8      0.05      0.00 
  -10    0    8     -0.39      0.00 
   -9    0    8     -0.78      0.00 
   -8    0    8     -0.98      0.00 
   -7    0    8     -0.35      0.00 
   -6    0    8      1.21      0.00 
   -5    0    8      2.41      0.00 
   -4    0    8      1.65      0.00 
   -3    0    8     -0.82      0.00 
   -2    0    8     -2.62      0.00 
   -1    0    8     -2.07      0.00 
    0    0    8     -0.65      0.00 
    1    0    8     -1.74      0.00 
    2    0    8     -6.30      0.00 
    3    0    8    -10.31      0.00 
    4    0    8     -8.51      0.00 
    5    0    8     -0.89      0.00 
    6    0    8      7.10      0.00 
    7    0    8     10.42      0.00 
    8    0    8      8.40      0.00 
    9    0    8      3.64      0.00 
   10    0    8     -1.16      0.00 
   11    0    8     -4.49      0.00 
   12    0    8     -5.45      0.00 
   13    0    8     -4.11      0.00 
   14    0    8     -1.96      0.00 
   15    0    8     -0.45      0.00 
   16    0    8      0.20      0.00 
   17    0    8      0.30      0.00 
   18    0    8      0.13      0.00 
  -12    1    8     -0.10      0.00 
  -11    1    8      0.24      0.00 
  -10    1    8      0.51      0.00 
   -9    1    8      0.73      0.00 
   -8    1    8      0.45      0.00 
   -7    1    8     -0.58      0.00 
   -6    1    8     -1.43      0.00 
   -5    1    8     -0.81      0.00 
   -4    1    8      1.07      0.00 
   -3    1    8      2.21      0.00 
   -2    1    8      1.58      0.00 
   -1    1    8      0.99      0.00 
    0    1    8      3.29      0.00 
    1    1    8      9.11      0.00 
    2    1    8     15.04      0.00 
    3    1    8     15.77      0.00 
    4    1    8      9.69      0.00 
    5    1    8      1.36      0.00 
    6    1    8     -3.66      0.00 
    7    1    8     -4.07      0.00 
    8    1    8     -1.86      0.00 
    9    1    8      0.87      0.00 
   10    1    8      2.89      0.00 
   11    1    8      3.41      0.00 
   12    1    8      2.39      0.00 
   13    1    8      0.88      0.00 
   14    1    8      0.00      0.00 
   15    1    8     -0.29      0.00 
   16    1    8     -0.47      0.00 
   17    1    8     -0.52      0.00 
   18    1    8     -0.36      0.00 
  -12    2    8     -0.28      0.00 
  -11    2    8     -0.16      0.00 
  -10    2    8     -0.01      0.00 
   -9    2    8      0.24      0.00 
   -8    2    8      0.86      0.00 
   -7    2    8      1.27      0.00 
   -6    2    8      0.30      0.00 
   -5    2    8     -1.84      0.00 
   -4    2    8     -2.89      0.00 
   -3    2    8     -1.26      0.00 
   -2    2    8      1.16      0.00 
   -1    2    8      1.03      0.00 
    0    2    8     -2.63      0.00 
    1    2    8     -7.56      0.00 
    2    2    8     -9.91      0.00 
    3    2    8     -7.62      0.00 
    4    2    8     -3.47      0.00 
    5    2    8     -1.87      0.00 
    6    2    8     -3.17      0.00 
    7    2    8     -4.39      0.00 
    8    2    8     -4.06      0.00 
    9    2    8     -2.64      0.00 
   10    2    8     -0.52      0.00 
   11    2    8      2.01      0.00 
   12    2    8      3.70      0.00 
   13    2    8      3.41      0.00 
   14    2    8      1.79      0.00 
   15    2    8      0.53      0.00 
   16    2    8      0.21      0.00 
   17    2    8      0.15      0.00 
   18    2    8     -0.05      0.00 
  -12    3    8      0.16      0.00 
  -11    3    8     -0.01      0.00 
  -10    3    8     -0.32      0.00 
   -9    3    8     -0.76      0.00 
   -8    3    8     -1.02      0.00 
   -7    3    8     -0.46      0.00 
   -6    3    8      0.94      0.00 
   -5    3    8      1.72      0.00 
   -4    3    8      0.28      0.00 
   -3    3    8     -2.44      0.00 
   -2    3    8     -3.45      0.00 
   -1    3    8     -1.72      0.00 
    0    3    8      0.83      0.00 
    1    3    8      1.46      0.00 
    2    3    8     -1.09      0.00 
    3    3    8     -4.54      0.00 
    4    3    8     -4.53      0.00 
    5    3    8     -0.32      0.00 
    6    3    8      4.08      0.00 
    7    3    8      5.55      0.00 
    8    3    8      4.28      0.00 
    9    3    8      1.21      0.00 
   10    3    8     -2.76      0.00 
   11    3    8     -5.79      0.00 
   12    3    8     -6.09      0.00 
   13    3    8     -3.94      0.00 
   14    3    8     -1.41      0.00 
   15    3    8     -0.09      0.00 
   16    3    8      0.23      0.00 
   17    3    8      0.44      0.00 
   18    3    8      0.66      0.00 
  -12    4    8     -0.02      0.00 
  -11    4    8     -0.07      0.00 
  -10    4    8      0.08      0.00 
   -9    4    8      0.21      0.00 
   -8    4    8     -0.13      0.00 
   -7    4    8     -0.76      0.00 
   -6    4    8     -0.71      0.00 
   -5    4    8      0.94      0.00 
   -4    4    8      3.31      0.00 
   -3    4    8      3.91      0.00 
   -2    4    8      1.96      0.00 
   -1    4    8     -0.24      0.00 
    0    4    8     -0.08      0.00 
    1    4    8      3.19      0.00 
    2    4    8      7.96      0.00 
    3    4    8     10.40      0.00 
    4    4    8      8.28      0.00 
    5    4    8      3.89      0.00 
    6    4    8      0.39      0.00 
    7    4    8     -1.55      0.00 
    8    4    8     -1.75      0.00 
    9    4    8      0.17      0.00 
   10    4    8      2.72      0.00 
   11    4    8      3.56      0.00 
   12    4    8      2.33      0.00 
   13    4    8      0.62      0.00 
   14    4    8     -0.17      0.00 
   15    4    8     -0.13      0.00 
   16    4    8     -0.15      0.00 
   17    4    8     -0.48      0.00 
   18    4    8     -0.63      0.00 
  -12    5    8     -0.03      0.00 
  -11    5    8     -0.04      0.00 
  -10    5    8      0.12      0.00 
   -9    5    8      0.55      0.00 
   -8    5    8      1.00      0.00 
   -7    5    8      0.85      0.00 
   -6    5    8     -0.30      0.00 
   -5    5    8     -1.87      0.00 
   -4    5    8     -2.06      0.00 
   -3    5    8     -0.07      0.00 
   -2    5    8      2.07      0.00 
   -1    5    8      1.84      0.00 
    0    5    8     -0.90      0.00 
    1    5    8     -4.60      0.00 
    2    5    8     -7.07      0.00 
    3    5    8     -6.70      0.00 
    4    5    8     -4.55      0.00 
    5    5    8     -2.69      0.00 
    6    5    8     -1.18      0.00 
    7    5    8      0.25      0.00 
    8    5    8      0.64      0.00 
    9    5    8      0.21      0.00 
   10    5    8      0.58      0.00 
   11    5    8      1.84      0.00 
   12    5    8      2.59      0.00 
   13    5    8      1.95      0.00 
   14    5    8      0.47      0.00 
   15    5    8     -0.49      0.00 
   16    5    8     -0.28      0.00 
   17    5    8      0.27      0.00 
   18    5    8      0.30      0.00 
  -12    6    8      0.45      0.00 
  -11    6    8      0.50      0.00 
  -10    6    8     -0.15      0.00 
   -9    6    8     -0.90      0.00 
   -8    6    8     -0.80      0.00 
   -7    6    8      0.10      0.00 
   -6    6    8      0.78      0.00 
   -5    6    8      0.08      0.00 
   -4    6    8     -2.16      0.00 
   -3    6    8     -4.17      0.00 
   -2    6    8     -3.71      0.00 
   -1    6    8     -1.07      0.00 
    0    6    8      1.50      0.00 
    1    6    8      2.21      0.00 
    2    6    8      0.57      0.00 
    3    6    8     -2.14      0.00 
    4    6    8     -3.69      0.00 
    5    6    8     -3.53      0.00 
    6    6    8     -2.48      0.00 
    7    6    8     -0.82      0.00 
    8    6    8      0.44      0.00 
    9    6    8     -0.43      0.00 
   10    6    8     -2.79      0.00 
   11    6    8     -4.15      0.00 
   12    6    8     -3.46      0.00 
   13    6    8     -1.50      0.00 
   14    6    8      0.32      0.00 
   15    6    8      0.79      0.00 
   16    6    8      0.16      0.00 
   17    6    8     -0.26      0.00 
   18    6    8     -0.11      0.00 
  -12    7    8     -0.65      0.00 
  -11    7    8     -0.23      0.00 
  -10    7    8      0.67      0.00 
   -9    7    8      0.87      0.00 
   -8    7    8     -0.03      0.00 
   -7    7    8     -0.89      0.00 
   -6    7    8     -0.39      0.00 
   -5    7    8      1.63      0.00 
   -4    7    8      3.67      0.00 
   -3    7    8      3.71      0.00 
   -2    7    8      1.72      0.00 
   -1    7    8     -0.15      0.00 
    0    7    8     -0.18      0.00 
    1    7    8      1.89      0.00 
    2    7    8      5.25      0.00 
    3    7    8      7.88      0.00 
    4    7    8      8.10      0.00 
    5    7    8      5.85      0.00 
    6    7    8      1.91      0.00 
    7    7    8     -1.83      0.00 
    8    7    8     -2.66      0.00 
    9    7    8     -0.47      0.00 
   10    7    8      1.78      0.00 
   11    7    8      2.30      0.00 
   12    7    8      1.58      0.00 
   13    7    8      0.52      0.00 
   14    7    8     -0.03      0.00 
   15    7    8      0.23      0.00 
   16    7    8      0.40      0.00 
   17    7    8      0.02      0.00 
   18    7    8     -0.17      0.00 
  -12    8    8      0.09      0.00 
  -11    8    8     -0.62      0.00 
  -10    8    8     -0.96      0.00 
   -9    8    8     -0.32      0.00 
   -8    8    8      0.53      0.00 
   -7    8    8      0.47      0.00 
   -6    8    8     -0.65      0.00 
   -5    8    8     -1.80      0.00 
   -4    8    8     -1.62      0.00 
   -3    8    8      0.02      0.00 
   -2    8    8      1.38      0.00 
   -1    8    8      1.02      0.00 
    0    8    8     -0.82      0.00 
    1    8    8     -3.41      0.00 
    2    8    8     -5.72      0.00 
    3    8    8     -6.22      0.00 
    4    8    8     -4.21      0.00 
    5    8    8     -0.41      0.00 
    6    8    8      3.23      0.00 
    7    8    8      4.20      0.00 
    8    8    8      2.32      0.00 
    9    8    8      0.39      0.00 
   10    8    8      0.03      0.00 
   11    8    8      0.11      0.00 
   12    8    8     -0.14      0.00 
   13    8    8     -0.53      0.00 
   14    8    8     -1.08      0.00 
   15    8    8     -1.27      0.00 
   16    8    8     -0.56      0.00 
   17    8    8      0.22      0.00 
  -11    9    8      0.47      0.00 
  -10    9    8      0.13      0.00 
   -9    9    8     -0.26      0.00 
   -8    9    8     -0.02      0.00 
   -7    9    8      0.76      0.00 
   -6    9    8      1.26      0.00 
   -5    9    8      0.63      0.00 
   -4    9    8     -1.12      0.00 
   -3    9    8     -2.71      0.00 
   -2    9    8     -2.80      0.00 
   -1    9    8     -1.43      0.00 
    0    9    8      0.60      0.00 
    1    9    8      2.35      0.00 
    2    9    8      2.43      0.00 
    3    9    8      0.21      0.00 
    4    9    8     -3.08      0.00 
    5    9    8     -5.26      0.00 
    6    9    8     -4.56      0.00 
    7    9    8     -1.34      0.00 
    8    9    8      1.19      0.00 
    9    9    8      0.78      0.00 
   10    9    8     -0.86      0.00 
   11    9    8     -1.40      0.00 
   12    9    8     -0.83      0.00 
   13    9    8      0.13      0.00 
   14    9    8      0.95      0.00 
   15    9    8      0.96      0.00 
   16    9    8      0.44      0.00 
   17    9    8      0.18      0.00 
  -11   10    8      0.39      0.00 
  -10   10    8      0.63      0.00 
   -9   10    8      0.19      0.00 
   -8   10    8     -0.68      0.00 
   -7   10    8     -1.12      0.00 
   -6   10    8     -0.53      0.00 
   -5   10    8      0.84      0.00 
   -4   10    8      1.95      0.00 
   -3   10    8      1.97      0.00 
   -2   10    8      1.21      0.00 
   -1   10    8      0.24      0.00 
    0   10    8     -0.73      0.00 
    1   10    8     -0.67      0.00 
    2   10    8      1.53      0.00 
    3   10    8      4.79      0.00 
    4   10    8      6.38      0.00 
    5   10    8      4.68      0.00 
    6   10    8      0.59      0.00 
    7   10    8     -2.76      0.00 
    8   10    8     -2.80      0.00 
    9   10    8     -0.58      0.00 
   10   10    8      1.11      0.00 
   11   10    8      1.55      0.00 
   12   10    8      1.38      0.00 
   13   10    8      0.85      0.00 
   14   10    8      0.32      0.00 
   15   10    8      0.07      0.00 
   16   10    8     -0.22      0.00 
  -10   11    8     -0.46      0.00 
   -9   11    8     -0.12      0.00 
   -8   11    8      0.20      0.00 
   -7   11    8      0.07      0.00 
   -6   11    8     -0.55      0.00 
   -5   11    8     -1.02      0.00 
   -4   11    8     -0.58      0.00 
   -3   11    8      0.48      0.00 
   -2   11    8      1.14      0.00 
   -1   11    8      1.05      0.00 
    0   11    8      0.23      0.00 
    1   11    8     -1.67      0.00 
    2   11    8     -4.10      0.00 
    3   11    8     -5.04      0.00 
    4   11    8     -3.25      0.00 
    5   11    8      0.31      0.00 
    6   11    8      3.10      0.00 
    7   11    8      2.96      0.00 
    8   11    8      0.66      0.00 
    9   11    8     -0.88      0.00 
   10   11    8     -0.71      0.00 
   11   11    8     -0.37      0.00 
   12   11    8     -0.65      0.00 
   13   11    8     -1.02      0.00 
   14   11    8     -1.10      0.00 
   15   11    8     -0.83      0.00 
   16   11    8     -0.37      0.00 
  -10   12    8      0.25      0.00 
   -9   12    8      0.60      0.00 
   -8   12    8      0.86      0.00 
   -7   12    8      0.87      0.00 
   -6   12    8      0.65      0.00 
   -5   12    8      0.08      0.00 
   -4   12    8     -0.82      0.00 
   -3   12    8     -1.54      0.00 
   -2   12    8     -1.52      0.00 
   -1   12    8     -0.67      0.00 
    0   12    8      1.00      0.00 
    1   12    8      2.77      0.00 
    2   12    8      2.91      0.00 
    3   12    8      0.66      0.00 
    4   12    8     -2.39      0.00 
    5   12    8     -3.99      0.00 
    6   12    8     -3.03      0.00 
    7   12    8     -0.29      0.00 
    8   12    8      1.69      0.00 
    9   12    8      1.29      0.00 
   10   12    8     -0.22      0.00 
   11   12    8     -0.89      0.00 
   12   12    8     -0.49      0.00 
   13   12    8      0.25      0.00 
   14   12    8      0.79      0.00 
   15   12    8      0.96      0.00 
   -9   13    8     -0.71      0.00 
   -8   13    8     -0.78      0.00 
   -7   13    8     -0.52      0.00 
   -6   13    8     -0.06      0.00 
   -5   13    8      0.54      0.00 
   -4   13    8      1.06      0.00 
   -3   13    8      1.04      0.00 
   -2   13    8      0.52      0.00 
   -1   13    8     -0.19      0.00 
    0   13    8     -0.98      0.00 
    1   13    8     -1.05      0.00 
    2   13    8      0.63      0.00 
    3   13    8      3.14      0.00 
    4   13    8      4.17      0.00 
    5   13    8      2.78      0.00 
    6   13    8      0.10      0.00 
    7   13    8     -1.77      0.00 
    8   13    8     -1.57      0.00 
    9   13    8     -0.19      0.00 
   10   13    8      0.69      0.00 
   11   13    8      0.79      0.00 
   12   13    8      0.70      0.00 
   13   13    8      0.51      0.00 
   14   13    8      0.03      0.00 
   15   13    8     -0.50      0.00 
   -8   14    8     -0.17      0.00 
   -7   14    8     -0.28      0.00 
   -6   14    8     -0.49      0.00 
   -5   14    8     -0.89      0.00 
   -4   14    8     -0.86      0.00 
   -3   14    8      0.00      0.00 
   -2   14    8      0.90      0.00 
   -1   14    8      1.06      0.00 
    0   14    8      0.49      0.00 
    1   14    8     -0.77      0.00 
    2   14    8     -2.30      0.00 
    3   14    8     -2.74      0.00 
    4   14    8     -1.43      0.00 
    5   14    8      0.59      0.00 
    6   14    8      1.75      0.00 
    7   14    8      1.23      0.00 
    8   14    8     -0.23      0.00 
    9   14    8     -0.92      0.00 
   10   14    8     -0.39      0.00 
   11   14    8      0.13      0.00 
   12   14    8     -0.15      0.00 
   13   14    8     -0.60      0.00 
   14   14    8     -0.51      0.00 
   -7   15    8      0.42      0.00 
   -6   15    8      0.79      0.00 
   -5   15    8      1.10      0.00 
   -4   15    8      0.42      0.00 
   -3   15    8     -0.97      0.00 
   -2   15    8     -1.75      0.00 
   -1   15    8     -1.39      0.00 
    0   15    8     -0.21      0.00 
    1   15    8      1.20      0.00 
    2   15    8      1.65      0.00 
    3   15    8      0.48      0.00 
    4   15    8     -1.16      0.00 
    5   15    8     -1.69      0.00 
    6   15    8     -0.82      0.00 
    7   15    8      0.58      0.00 
    8   15    8      1.31      0.00 
    9   15    8      0.80      0.00 
   10   15    8     -0.20      0.00 
   11   15    8     -0.63      0.00 
   12   15    8     -0.34      0.00 
   13   15    8      0.10      0.00 
   -6   16    8     -0.51      0.00 
   -5   16    8     -0.57      0.00 
   -4   16    8     -0.06      0.00 
   -3   16    8      0.33      0.00 
   -2   16    8      0.15      0.00 
   -1   16    8     -0.27      0.00 
    0   16    8     -0.70      0.00 
    1   16    8     -0.86      0.00 
    2   16    8     -0.11      0.00 
    3   16    8      1.31      0.00 
    4   16    8      1.99      0.00 
    5   16    8      1.21      0.00 
    6   16    8     -0.20      0.00 
    7   16    8     -1.03      0.00 
    8   16    8     -0.84      0.00 
    9   16    8     -0.20      0.00 
   10   16    8      0.18      0.00 
   11   16    8      0.27      0.00 
   12   16    8      0.32      0.00 
   -5   17    8     -0.14      0.00 
   -4   17    8      0.28      0.00 
   -3   17    8      1.27      0.00 
   -2   17    8      2.00      0.00 
   -1   17    8      1.72      0.00 
    0   17    8      0.74      0.00 
    1   17    8     -0.37      0.00 
    2   17    8     -1.45      0.00 
    3   17    8     -2.06      0.00 
    4   17    8     -1.67      0.00 
    5   17    8     -0.64      0.00 
    6   17    8      0.18      0.00 
    7   17    8      0.39      0.00 
    8   17    8      0.33      0.00 
    9   17    8      0.42      0.00 
   10   17    8      0.51      0.00 
   -3   18    8     -1.08      0.00 
   -2   18    8     -1.39      0.00 
   -1   18    8     -0.72      0.00 
    0   18    8      0.27      0.00 
    1   18    8      0.97      0.00 
    2   18    8      1.16      0.00 
    3   18    8      0.64      0.00 
    4   18    8     -0.27      0.00 
    5   18    8     -0.66      0.00 
    6   18    8     -0.30      0.00 
    7   18    8     -0.01      0.00 
    8   18    8     -0.32      0.00 
    0   19    8     -0.09      0.00 
    1   19    8      0.03      0.00 
    2   19    8      0.37      0.00 
    3   19    8      1.17      0.00 
    4   19    8      1.71      0.00 
    5   19    8      1.13      0.00 
   -1  -13    9      0.74      0.00 
    0  -13    9      0.76      0.00 
    1  -13    9      0.49      0.00 
    2  -13    9      0.10      0.00 
    3  -13    9     -0.41      0.00 
    4  -13    9     -0.46      0.00 
    5  -13    9      0.05      0.00 
    6  -13    9      0.49      0.00 
    7  -13    9      0.64      0.00 
    8  -13    9      0.52      0.00 
   -3  -12    9      0.59      0.00 
   -2  -12    9      0.23      0.00 
   -1  -12    9      0.27      0.00 
    0  -12    9      0.71      0.00 
    1  -12    9      1.00      0.00 
    2  -12    9      0.87      0.00 
    3  -12    9     -0.06      0.00 
    4  -12    9     -1.61      0.00 
    5  -12    9     -2.40      0.00 
    6  -12    9     -1.81      0.00 
    7  -12    9     -0.77      0.00 
    8  -12    9      0.03      0.00 
    9  -12    9      0.46      0.00 
   10  -12    9      0.27      0.00 
   -5  -11    9      0.98      0.00 
   -4  -11    9      0.82      0.00 
   -3  -11    9      0.61      0.00 
   -2  -11    9     -0.15      0.00 
   -1  -11    9     -1.43      0.00 
    0  -11    9     -2.32      0.00 
    1  -11    9     -2.19      0.00 
    2  -11    9     -0.84      0.00 
    3  -11    9      1.49      0.00 
    4  -11    9      3.10      0.00 
    5  -11    9      2.46      0.00 
    6  -11    9      0.60      0.00 
    7  -11    9     -0.60      0.00 
    8  -11    9     -0.79      0.00 
    9  -11    9     -0.29      0.00 
   10  -11    9      0.41      0.00 
   11  -11    9      0.36      0.00 
   12  -11    9     -0.42      0.00 
   -6  -10    9     -0.68      0.00 
   -5  -10    9     -1.09      0.00 
   -4  -10    9     -1.41      0.00 
   -3  -10    9     -1.20      0.00 
   -2  -10    9      0.03      0.00 
   -1  -10    9      1.56      0.00 
    0  -10    9      2.15      0.00 
    1  -10    9      1.33      0.00 
    2  -10    9     -0.49      0.00 
    3  -10    9     -1.77      0.00 
    4  -10    9     -0.86      0.00 
    5  -10    9      1.44      0.00 
    6  -10    9      2.62      0.00 
    7  -10    9      1.92      0.00 
    8  -10    9      0.35      0.00 
    9  -10    9     -1.13      0.00 
   10  -10    9     -1.57      0.00 
   11  -10    9     -0.55      0.00 
   12  -10    9      0.67      0.00 
   13  -10    9      0.78      0.00 
   -7   -9    9     -0.28      0.00 
   -6   -9    9     -0.32      0.00 
   -5   -9    9     -0.10      0.00 
   -4   -9    9      0.41      0.00 
   -3   -9    9      0.57      0.00 
   -2   -9    9      0.07      0.00 
   -1   -9    9     -0.34      0.00 
    0   -9    9      0.07      0.00 
    1   -9    9      0.94      0.00 
    2   -9    9      0.97      0.00 
    3   -9    9     -1.04      0.00 
    4   -9    9     -4.13      0.00 
    5   -9    9     -5.44      0.00 
    6   -9    9     -3.82      0.00 
    7   -9    9     -0.98      0.00 
    8   -9    9      1.27      0.00 
    9   -9    9      2.19      0.00 
   10   -9    9      1.49      0.00 
   11   -9    9      0.08      0.00 
   12   -9    9     -0.43      0.00 
   13   -9    9     -0.13      0.00 
   14   -9    9     -0.20      0.00 
   -8   -8    9      0.21      0.00 
   -7   -8    9      0.58      0.00 
   -6   -8    9      1.08      0.00 
   -5   -8    9      1.15      0.00 
   -4   -8    9      0.65      0.00 
   -3   -8    9      0.06      0.00 
   -2   -8    9     -0.63      0.00 
   -1   -8    9     -1.84      0.00 
    0   -8    9     -2.97      0.00 
    1   -8    9     -2.48      0.00 
    2   -8    9      0.48      0.00 
    3   -8    9      4.53      0.00 
    4   -8    9      6.47      0.00 
    5   -8    9      4.65      0.00 
    6   -8    9      1.06      0.00 
    7   -8    9     -1.37      0.00 
    8   -8    9     -1.74      0.00 
    9   -8    9     -0.66      0.00 
   10   -8    9      0.76      0.00 
   11   -8    9      1.17      0.00 
   12   -8    9      0.40      0.00 
   13   -8    9     -0.15      0.00 
   14   -8    9      0.04      0.00 
   15   -8    9      0.17      0.00 
   -9   -7    9     -0.35      0.00 
   -8   -7    9     -0.28      0.00 
   -7   -7    9     -0.42      0.00 
   -6   -7    9     -0.79      0.00 
   -5   -7    9     -0.92      0.00 
   -4   -7    9     -0.83      0.00 
   -3   -7    9     -0.38      0.00 
   -2   -7    9      1.09      0.00 
   -1   -7    9      3.21      0.00 
    0   -7    9      3.95      0.00 
    1   -7    9      1.87      0.00 
    2   -7    9     -1.70      0.00 
    3   -7    9     -3.52      0.00 
    4   -7    9     -1.89      0.00 
    5   -7    9      1.35      0.00 
    6   -7    9      2.93      0.00 
    7   -7    9      1.81      0.00 
    8   -7    9     -0.68      0.00 
    9   -7    9     -2.75      0.00 
   10   -7    9     -3.17      0.00 
   11   -7    9     -1.91      0.00 
   12   -7    9     -0.47      0.00 
   13   -7    9      0.08      0.00 
   14   -7    9      0.29      0.00 
   15   -7    9      0.56      0.00 
   -9   -6    9      0.03      0.00 
   -8   -6    9     -0.50      0.00 
   -7   -6    9     -0.63      0.00 
   -6   -6    9     -0.46      0.00 
   -5   -6    9     -0.08      0.00 
   -4   -6    9      0.58      0.00 
   -3   -6    9      0.72      0.00 
   -2   -6    9     -0.39      0.00 
   -1   -6    9     -1.63      0.00 
    0   -6    9     -1.22      0.00 
    1   -6    9      0.24      0.00 
    2   -6    9     -0.05      0.00 
    3   -6    9     -3.35      0.00 
    4   -6    9     -7.09      0.00 
    5   -6    9     -7.56      0.00 
    6   -6    9     -4.09      0.00 
    7   -6    9      0.68      0.00 
    8   -6    9      3.89      0.00 
    9   -6    9      4.43      0.00 
   10   -6    9      2.84      0.00 
   11   -6    9      0.78      0.00 
   12   -6    9     -0.33      0.00 
   13   -6    9     -0.57      0.00 
   14   -6    9     -0.67      0.00 
   15   -6    9     -0.53      0.00 
   16   -6    9      0.02      0.00 
  -10   -5    9      0.30      0.00 
   -9   -5    9      1.22      0.00 
   -8   -5    9      1.78      0.00 
   -7   -5    9      1.70      0.00 
   -6   -5    9      1.29      0.00 
   -5   -5    9      0.62      0.00 
   -4   -5    9     -0.20      0.00 
   -3   -5    9     -0.71      0.00 
   -2   -5    9     -1.07      0.00 
   -1   -5    9     -2.09      0.00 
    0   -5    9     -3.07      0.00 
    1   -5    9     -1.44      0.00 
    2   -5    9      3.77      0.00 
    3   -5    9      9.42      0.00 
    4   -5    9     10.94      0.00 
    5   -5    9      7.18      0.00 
    6   -5    9      1.29      0.00 
    7   -5    9     -2.74      0.00 
    8   -5    9     -3.25      0.00 
    9   -5    9     -1.35      0.00 
   10   -5    9      0.73      0.00 
   11   -5    9      1.61      0.00 
   12   -5    9      1.45      0.00 
   13   -5    9      0.98      0.00 
   14   -5    9      0.42      0.00 
   15   -5    9     -0.23      0.00 
   16   -5    9     -0.54      0.00 
   17   -5    9     -0.24      0.00 
  -10   -4    9     -0.89      0.00 
   -9   -4    9     -1.29      0.00 
   -8   -4    9     -1.23      0.00 
   -7   -4    9     -0.88      0.00 
   -6   -4    9     -0.58      0.00 
   -5   -4    9     -0.37      0.00 
   -4   -4    9     -0.22      0.00 
   -3   -4    9      0.30      0.00 
   -2   -4    9      2.04      0.00 
   -1   -4    9      4.47      0.00 
    0   -4    9      4.75      0.00 
    1   -4    9      1.07      0.00 
    2   -4    9     -3.92      0.00 
    3   -4    9     -5.57      0.00 
    4   -4    9     -2.82      0.00 
    5   -4    9      1.03      0.00 
    6   -4    9      2.44      0.00 
    7   -4    9      0.65      0.00 
    8   -4    9     -2.54      0.00 
    9   -4    9     -4.59      0.00 
   10   -4    9     -4.30      0.00 
   11   -4    9     -2.49      0.00 
   12   -4    9     -0.67      0.00 
   13   -4    9      0.47      0.00 
   14   -4    9      1.02      0.00 
   15   -4    9      1.10      0.00 
   16   -4    9      0.65      0.00 
   17   -4    9     -0.02      0.00 
  -11   -3    9      0.37      0.00 
  -10   -3    9      0.14      0.00 
   -9   -3    9     -0.46      0.00 
   -8   -3    9     -1.04      0.00 
   -7   -3    9     -1.06      0.00 
   -6   -3    9     -0.57      0.00 
   -5   -3    9      0.03      0.00 
   -4   -3    9      0.32      0.00 
   -3   -3    9     -0.35      0.00 
   -2   -3    9     -2.15      0.00 
   -1   -3    9     -3.54      0.00 
    0   -3    9     -2.77      0.00 
    1   -3    9     -1.19      0.00 
    2   -3    9     -2.34      0.00 
    3   -3    9     -6.79      0.00 
    4   -3    9    -10.39      0.00 
    5   -3    9     -9.05      0.00 
    6   -3    9     -3.07      0.00 
    7   -3    9      3.67      0.00 
    8   -3    9      7.27      0.00 
    9   -3    9      6.63      0.00 
   10   -3    9      3.50      0.00 
   11   -3    9      0.21      0.00 
   12   -3    9     -1.98      0.00 
   13   -3    9     -2.75      0.00 
   14   -3    9     -2.34      0.00 
   15   -3    9     -1.37      0.00 
   16   -3    9     -0.43      0.00 
   17   -3    9      0.11      0.00 
  -11   -2    9      0.21      0.00 
  -10   -2    9      0.74      0.00 
   -9   -2    9      1.48      0.00 
   -8   -2    9      1.86      0.00 
   -7   -2    9      1.41      0.00 
   -6   -2    9      0.51      0.00 
   -5   -2    9     -0.03      0.00 
   -4   -2    9      0.27      0.00 
   -3   -2    9      1.11      0.00 
   -2   -2    9      1.34      0.00 
   -1   -2    9      0.23      0.00 
    0   -2    9     -0.53      0.00 
    1   -2    9      2.13      0.00 
    2   -2    9      8.47      0.00 
    3   -2    9     14.11      0.00 
    4   -2    9     14.17      0.00 
    5   -2    9      8.35      0.00 
    6   -2    9      0.80      0.00 
    7   -2    9     -3.90      0.00 
    8   -2    9     -4.08      0.00 
    9   -2    9     -1.46      0.00 
   10   -2    9      1.16      0.00 
   11   -2    9      2.47      0.00 
   12   -2    9      2.59      0.00 
   13   -2    9      1.92      0.00 
   14   -2    9      0.99      0.00 
   15   -2    9      0.24      0.00 
   16   -2    9     -0.18      0.00 
   17   -2    9     -0.22      0.00 
   18   -2    9     -0.04      0.00 
  -11   -1    9     -0.44      0.00 
  -10   -1    9     -0.47      0.00 
   -9   -1    9     -0.59      0.00 
   -8   -1    9     -0.49      0.00 
   -7   -1    9      0.01      0.00 
   -6   -1    9      0.30      0.00 
   -5   -1    9     -0.32      0.00 
   -4   -1    9     -1.45      0.00 
   -3   -1    9     -1.56      0.00 
   -2   -1    9      0.39      0.00 
   -1   -1    9      2.90      0.00 
    0   -1    9      2.77      0.00 
    1   -1    9     -1.27      0.00 
    2   -1    9     -6.18      0.00 
    3   -1    9     -7.46      0.00 
    4   -1    9     -4.30      0.00 
    5   -1    9     -0.34      0.00 
    6   -1    9      0.77      0.00 
    7   -1    9     -1.19      0.00 
    8   -1    9     -3.85      0.00 
    9   -1    9     -4.97      0.00 
   10   -1    9     -3.97      0.00 
   11   -1    9     -1.62      0.00 
   12   -1    9      0.89      0.00 
   13   -1    9      2.36      0.00 
   14   -1    9      2.30      0.00 
   15   -1    9      1.44      0.00 
   16   -1    9      0.68      0.00 
   17   -1    9      0.21      0.00 
   18   -1    9      0.03      0.00 
  -12    0    9      0.40      0.00 
  -11    0    9      0.17      0.00 
  -10    0    9     -0.18      0.00 
   -9    0    9     -0.43      0.00 
   -8    0    9     -0.80      0.00 
   -7    0    9     -0.95      0.00 
   -6    0    9     -0.19      0.00 
   -5    0    9      1.28      0.00 
   -4    0    9      1.96      0.00 
   -3    0    9      0.57      0.00 
   -2    0    9     -2.09      0.00 
   -1    0    9     -3.65      0.00 
    0    0    9     -2.98      0.00 
    1    0    9     -1.67      0.00 
    2    0    9     -2.53      0.00 
    3    0    9     -6.04      0.00 
    4    0    9     -8.72      0.00 
    5    0    9     -6.77      0.00 
    6    0    9     -0.79      0.00 
    7    0    9      4.96      0.00 
    8    0    9      7.19      0.00 
    9    0    9      5.76      0.00 
   10    0    9      2.30      0.00 
   11    0    9     -1.52      0.00 
   12    0    9     -4.20      0.00 
   13    0    9     -4.69      0.00 
   14    0    9     -3.34      0.00 
   15    0    9     -1.58      0.00 
   16    0    9     -0.41      0.00 
   17    0    9      0.06      0.00 
   18    0    9      0.04      0.00 
  -12    1    9     -0.09      0.00 
  -11    1    9      0.19      0.00 
  -10    1    9      0.30      0.00 
   -9    1    9      0.48      0.00 
   -8    1    9      0.66      0.00 
   -7    1    9      0.17      0.00 
   -6    1    9     -0.94      0.00 
   -5    1    9     -1.44      0.00 
   -4    1    9     -0.27      0.00 
   -3    1    9      1.72      0.00 
   -2    1    9      2.49      0.00 
   -1    1    9      1.59      0.00 
    0    1    9      0.99      0.00 
    1    1    9      3.09      0.00 
    2    1    9      8.09      0.00 
    3    1    9     12.78      0.00 
    4    1    9     12.77      0.00 
    5    1    9      7.49      0.00 
    6    1    9      0.97      0.00 
    7    1    9     -2.91      0.00 
    8    1    9     -3.49      0.00 
    9    1    9     -1.91      0.00 
   10    1    9      0.46      0.00 
   11    1    9      2.25      0.00 
   12    1    9      2.54      0.00 
   13    1    9      1.59      0.00 
   14    1    9      0.54      0.00 
   15    1    9      0.01      0.00 
   16    1    9     -0.18      0.00 
   17    1    9     -0.25      0.00 
   18    1    9     -0.23      0.00 
  -12    2    9     -0.32      0.00 
  -11    2    9     -0.26      0.00 
  -10    2    9     -0.03      0.00 
   -9    2    9      0.03      0.00 
   -8    2    9      0.34      0.00 
   -7    2    9      1.10      0.00 
   -6    2    9      1.35      0.00 
   -5    2    9      0.01      0.00 
   -4    2    9     -2.08      0.00 
   -3    2    9     -2.51      0.00 
   -2    2    9     -0.39      0.00 
   -1    2    9      2.07      0.00 
    0    2    9      1.98      0.00 
    1    2    9     -1.39      0.00 
    2    2    9     -5.93      0.00 
    3    2    9     -7.89      0.00 
    4    2    9     -5.73      0.00 
    5    2    9     -2.31      0.00 
    6    2    9     -0.82      0.00 
    7    2    9     -1.05      0.00 
    8    2    9     -1.47      0.00 
    9    2    9     -1.63      0.00 
   10    2    9     -1.22      0.00 
   11    2    9      0.33      0.00 
   12    2    9      2.45      0.00 
   13    2    9      3.49      0.00 
   14    2    9      2.73      0.00 
   15    2    9      1.23      0.00 
   16    2    9      0.34      0.00 
   17    2    9      0.17      0.00 
   18    2    9      0.12      0.00 
  -12    3    9      0.18      0.00 
  -11    3    9      0.01      0.00 
  -10    3    9     -0.17      0.00 
   -9    3    9     -0.38      0.00 
   -8    3    9     -0.80      0.00 
   -7    3    9     -0.99      0.00 
   -6    3    9     -0.24      0.00 
   -5    3    9      1.17      0.00 
   -4    3    9      1.48      0.00 
   -3    3    9     -0.54      0.00 
   -2    3    9     -3.38      0.00 
   -1    3    9     -4.36      0.00 
    0    3    9     -2.82      0.00 
    1    3    9     -0.39      0.00 
    2    3    9      0.34      0.00 
    3    3    9     -1.80      0.00 
    4    3    9     -4.46      0.00 
    5    3    9     -4.26      0.00 
    6    3    9     -1.39      0.00 
    7    3    9      1.46      0.00 
    8    3    9      2.98      0.00 
    9    3    9      2.84      0.00 
   10    3    9      0.67      0.00 
   11    3    9     -2.71      0.00 
   12    3    9     -5.06      0.00 
   13    3    9     -4.87      0.00 
   14    3    9     -2.82      0.00 
   15    3    9     -0.88      0.00 
   16    3    9     -0.08      0.00 
   17    3    9      0.07      0.00 
   18    3    9      0.31      0.00 
  -12    4    9      0.10      0.00 
  -11    4    9      0.04      0.00 
  -10    4    9     -0.03      0.00 
   -9    4    9      0.10      0.00 
   -8    4    9      0.12      0.00 
   -7    4    9     -0.38      0.00 
   -6    4    9     -1.04      0.00 
   -5    4    9     -0.68      0.00 
   -4    4    9      1.36      0.00 
   -3    4    9      3.71      0.00 
   -2    4    9      4.08      0.00 
   -1    4    9      2.25      0.00 
    0    4    9      0.29      0.00 
    1    4    9      0.35      0.00 
    2    4    9      3.22      0.00 
    3    4    9      7.13      0.00 
    4    4    9      8.76      0.00 
    5    4    9      7.04      0.00 
    6    4    9      3.76      0.00 
    7    4    9      0.34      0.00 
    8    4    9     -2.30      0.00 
    9    4    9     -2.61      0.00 
   10    4    9     -0.43      0.00 
   11    4    9      1.96      0.00 
   12    4    9      2.55      0.00 
   13    4    9      1.51      0.00 
   14    4    9      0.29      0.00 
   15    4    9     -0.12      0.00 
   16    4    9     -0.05      0.00 
   17    4    9     -0.21      0.00 
   18    4    9     -0.53      0.00 
  -12    5    9     -0.01      0.00 
  -11    5    9      0.03      0.00 
  -10    5    9      0.12      0.00 
   -9    5    9      0.31      0.00 
   -8    5    9      0.78      0.00 
   -7    5    9      1.28      0.00 
   -6    5    9      1.04      0.00 
   -5    5    9     -0.35      0.00 
   -4    5    9     -1.88      0.00 
   -3    5    9     -1.69      0.00 
   -2    5    9      0.41      0.00 
   -1    5    9      2.27      0.00 
    0    5    9      2.02      0.00 
    1    5    9     -0.32      0.00 
    2    5    9     -3.43      0.00 
    3    5    9     -5.31      0.00 
    4    5    9     -5.02      0.00 
    5    5    9     -3.55      0.00 
    6    5    9     -1.60      0.00 
    7    5    9      0.75      0.00 
    8    5    9      2.16      0.00 
    9    5    9      1.64      0.00 
   10    5    9      0.68      0.00 
   11    5    9      0.90      0.00 
   12    5    9      1.86      0.00 
   13    5    9      2.20      0.00 
   14    5    9      1.37      0.00 
   15    5    9      0.11      0.00 
   16    5    9     -0.31      0.00 
   17    5    9      0.16      0.00 
   18    5    9      0.45      0.00 
  -11    6    9      0.40      0.00 
  -10    6    9      0.24      0.00 
   -9    6    9     -0.47      0.00 
   -8    6    9     -1.07      0.00 
   -7    6    9     -0.79      0.00 
   -6    6    9      0.19      0.00 
   -5    6    9      0.74      0.00 
   -4    6    9     -0.37      0.00 
   -3    6    9     -2.84      0.00 
   -2    6    9     -4.59      0.00 
   -1    6    9     -3.93      0.00 
    0    6    9     -1.55      0.00 
    1    6    9      0.66      0.00 
    2    6    9      1.23      0.00 
    3    6    9     -0.11      0.00 
    4    6    9     -2.13      0.00 
    5    6    9     -3.58      0.00 
    6    6    9     -4.18      0.00 
    7    6    9     -3.37      0.00 
    8    6    9     -1.10      0.00 
    9    6    9      0.46      0.00 
   10    6    9     -0.40      0.00 
   11    6    9     -2.36      0.00 
   12    6    9     -3.30      0.00 
   13    6    9     -2.57      0.00 
   14    6    9     -0.81      0.00 
   15    6    9      0.53      0.00 
   16    6    9      0.48      0.00 
   17    6    9     -0.12      0.00 
   18    6    9     -0.18      0.00 
  -11    7    9     -0.63      0.00 
  -10    7    9     -0.03      0.00 
   -9    7    9      0.79      0.00 
   -8    7    9      0.70      0.00 
   -7    7    9     -0.43      0.00 
   -6    7    9     -1.24      0.00 
   -5    7    9     -0.38      0.00 
   -4    7    9      1.94      0.00 
   -3    7    9      3.80      0.00 
   -2    7    9      3.59      0.00 
   -1    7    9      1.81      0.00 
    0    7    9      0.18      0.00 
    1    7    9     -0.09      0.00 
    2    7    9      1.45      0.00 
    3    7    9      4.20      0.00 
    4    7    9      6.62      0.00 
    5    7    9      7.35      0.00 
    6    7    9      5.47      0.00 
    7    7    9      1.27      0.00 
    8    7    9     -2.40      0.00 
    9    7    9     -2.68      0.00 
   10    7    9     -0.54      0.00 
   11    7    9      1.25      0.00 
   12    7    9      1.70      0.00 
   13    7    9      1.12      0.00 
   14    7    9      0.25      0.00 
   15    7    9      0.00      0.00 
   16    7    9      0.22      0.00 
   17    7    9      0.07      0.00 
   18    7    9     -0.23      0.00 
  -11    8    9     -0.01      0.00 
  -10    8    9     -0.66      0.00 
   -9    8    9     -0.74      0.00 
   -8    8    9      0.09      0.00 
   -7    8    9      0.93      0.00 
   -6    8    9      0.63      0.00 
   -5    8    9     -0.71      0.00 
   -4    8    9     -1.67      0.00 
   -3    8    9     -1.10      0.00 
   -2    8    9      0.39      0.00 
   -1    8    9      1.28      0.00 
    0    8    9      0.98      0.00 
    1    8    9     -0.35      0.00 
    2    8    9     -2.53      0.00 
    3    8    9     -4.68      0.00 
    4    8    9     -5.32      0.00 
    5    8    9     -3.46      0.00 
    6    8    9      0.48      0.00 
    7    8    9      3.94      0.00 
    8    8    9      4.22      0.00 
    9    8    9      2.14      0.00 
   10    8    9      0.55      0.00 
   11    8    9      0.11      0.00 
   12    8    9     -0.09      0.00 
   13    8    9     -0.32      0.00 
   14    8    9     -0.73      0.00 
   15    8    9     -1.19      0.00 
   16    8    9     -0.90      0.00 
   17    8    9     -0.01      0.00 
  -11    9    9      0.38      0.00 
  -10    9    9      0.35      0.00 
   -9    9    9     -0.11      0.00 
   -8    9    9     -0.45      0.00 
   -7    9    9      0.01      0.00 
   -6    9    9      1.04      0.00 
   -5    9    9      1.45      0.00 
   -4    9    9      0.36      0.00 
   -3    9    9     -1.62      0.00 
   -2    9    9     -3.02      0.00 
   -1    9    9     -3.06      0.00 
    0    9    9     -1.86      0.00 
    1    9    9      0.24      0.00 
    2    9    9      2.19      0.00 
    3    9    9      2.31      0.00 
    4    9    9      0.00      0.00 
    5    9    9     -3.50      0.00 
    6    9    9     -5.70      0.00 
    7    9    9     -4.54      0.00 
    8    9    9     -1.14      0.00 
    9    9    9      0.93      0.00 
   10    9    9      0.48      0.00 
   11    9    9     -0.55      0.00 
   12    9    9     -0.78      0.00 
   13    9    9     -0.31      0.00 
   14    9    9      0.49      0.00 
   15    9    9      0.93      0.00 
   16    9    9      0.59      0.00 
   17    9    9      0.16      0.00 
  -10   10    9      0.49      0.00 
   -9   10    9      0.58      0.00 
   -8   10    9     -0.03      0.00 
   -7   10    9     -1.06      0.00 
   -6   10    9     -1.49      0.00 
   -5   10    9     -0.60      0.00 
   -4   10    9      0.98      0.00 
   -3   10    9      2.06      0.00 
   -2   10    9      2.31      0.00 
   -1   10    9      2.02      0.00 
    0   10    9      0.95      0.00 
    1   10    9     -0.63      0.00 
    2   10    9     -0.89      0.00 
    3   10    9      1.37      0.00 
    4   10    9      4.60      0.00 
    5   10    9      6.01      0.00 
    6   10    9      4.10      0.00 
    7   10    9      0.07      0.00 
    8   10    9     -2.70      0.00 
    9   10    9     -2.33      0.00 
   10   10    9     -0.48      0.00 
   11   10    9      0.76      0.00 
   12   10    9      1.19      0.00 
   13   10    9      1.11      0.00 
   14   10    9      0.75      0.00 
   15   10    9      0.47      0.00 
   16   10    9      0.18      0.00 
   17   10    9     -0.21      0.00 
  -10   11    9     -0.45      0.00 
   -9   11    9     -0.29      0.00 
   -8   11    9      0.21      0.00 
   -7   11    9      0.61      0.00 
   -6   11    9      0.28      0.00 
   -5   11    9     -0.57      0.00 
   -4   11    9     -0.93      0.00 
   -3   11    9     -0.40      0.00 
   -2   11    9      0.29      0.00 
   -1   11    9      0.64      0.00 
    0   11    9      0.85      0.00 
    1   11    9      0.40      0.00 
    2   11    9     -1.52      0.00 
    3   11    9     -3.93      0.00 
    4   11    9     -4.58      0.00 
    5   11    9     -2.48      0.00 
    6   11    9      1.14      0.00 
    7   11    9      3.50      0.00 
    8   11    9      2.80      0.00 
    9   11    9      0.57      0.00 
   10   11    9     -0.58      0.00 
   11   11    9     -0.50      0.00 
   12   11    9     -0.48      0.00 
   13   11    9     -0.83      0.00 
   14   11    9     -1.14      0.00 
   15   11    9     -1.08      0.00 
   16   11    9     -0.65      0.00 
   -9   12    9      0.26      0.00 
   -8   12    9      0.47      0.00 
   -7   12    9      0.62      0.00 
   -6   12    9      0.74      0.00 
   -5   12    9      0.58      0.00 
   -4   12    9     -0.11      0.00 
   -3   12    9     -1.05      0.00 
   -2   12    9     -1.70      0.00 
   -1   12    9     -1.84      0.00 
    0   12    9     -1.13      0.00 
    1   12    9      0.73      0.00 
    2   12    9      2.69      0.00 
    3   12    9      2.73      0.00 
    4   12    9      0.48      0.00 
    5   12    9     -2.43      0.00 
    6   12    9     -3.97      0.00 
    7   12    9     -2.95      0.00 
    8   12    9     -0.33      0.00 
    9   12    9      1.32      0.00 
   10   12    9      0.86      0.00 
   11   12    9     -0.23      0.00 
   12   12    9     -0.56      0.00 
   13   12    9     -0.17      0.00 
   14   12    9      0.33      0.00 
   15   12    9      0.63      0.00 
   -8   13    9     -0.71      0.00 
   -7   13    9     -0.81      0.00 
   -6   13    9     -0.63      0.00 
   -5   13    9     -0.10      0.00 
   -4   13    9      0.63      0.00 
   -3   13    9      1.16      0.00 
   -2   13    9      1.32      0.00 
   -1   13    9      1.13      0.00 
    0   13    9      0.36      0.00 
    1   13    9     -0.85      0.00 
    2   13    9     -1.07      0.00 
    3   13    9      0.60      0.00 
    4   13    9      2.78      0.00 
    5   13    9      3.47      0.00 
    6   13    9      2.13      0.00 
    7   13    9     -0.13      0.00 
    8   13    9     -1.50      0.00 
    9   13    9     -1.12      0.00 
   10   13    9     -0.07      0.00 
   11   13    9      0.40      0.00 
   12   13    9      0.44      0.00 
   13   13    9      0.50      0.00 
   14   13    9      0.42      0.00 
   15   13    9      0.00      0.00 
   -8   14    9      0.05      0.00 
   -7   14    9      0.09      0.00 
   -6   14    9      0.03      0.00 
   -5   14    9     -0.40      0.00 
   -4   14    9     -0.95      0.00 
   -3   14    9     -0.92      0.00 
   -2   14    9     -0.24      0.00 
   -1   14    9      0.44      0.00 
    0   14    9      0.76      0.00 
    1   14    9      0.54      0.00 
    2   14    9     -0.57      0.00 
    3   14    9     -1.99      0.00 
    4   14    9     -2.27      0.00 
    5   14    9     -0.97      0.00 
    6   14    9      0.90      0.00 
    7   14    9      1.83      0.00 
    8   14    9      1.08      0.00 
    9   14    9     -0.31      0.00 
   10   14    9     -0.66      0.00 
   11   14    9      0.00      0.00 
   12   14    9      0.30      0.00 
   13   14    9     -0.13      0.00 
   14   14    9     -0.48      0.00 
   -7   15    9      0.19      0.00 
   -6   15    9      0.38      0.00 
   -5   15    9      0.97      0.00 
   -4   15    9      1.23      0.00 
   -3   15    9      0.43      0.00 
   -2   15    9     -0.92      0.00 
   -1   15    9     -1.73      0.00 
    0   15    9     -1.60      0.00 
    1   15    9     -0.57      0.00 
    2   15    9      0.82      0.00 
    3   15    9      1.30      0.00 
    4   15    9      0.40      0.00 
    5   15    9     -0.82      0.00 
    6   15    9     -1.28      0.00 
    7   15    9     -0.69      0.00 
    8   15    9      0.45      0.00 
    9   15    9      1.06      0.00 
   10   15    9      0.59      0.00 
   11   15    9     -0.21      0.00 
   12   15    9     -0.44      0.00 
   13   15    9     -0.15      0.00 
   -6   16    9     -0.34      0.00 
   -5   16    9     -0.73      0.00 
   -4   16    9     -0.57      0.00 
   -3   16    9      0.13      0.00 
   -2   16    9      0.63      0.00 
   -1   16    9      0.66      0.00 
    0   16    9      0.39      0.00 
    1   16    9     -0.21      0.00 
    2   16    9     -0.64      0.00 
    3   16    9     -0.13      0.00 
    4   16    9      0.91      0.00 
    5   16    9      1.24      0.00 
    6   16    9      0.56      0.00 
    7   16    9     -0.41      0.00 
    8   16    9     -0.86      0.00 
    9   16    9     -0.60      0.00 
   10   16    9     -0.17      0.00 
   11   16    9     -0.02      0.00 
   12   16    9      0.02      0.00 
   -4   17    9     -0.24      0.00 
   -3   17    9      0.14      0.00 
   -2   17    9      1.02      0.00 
   -1   17    9      1.56      0.00 
    0   17    9      1.30      0.00 
    1   17    9      0.68      0.00 
    2   17    9     -0.14      0.00 
    3   17    9     -1.15      0.00 
    4   17    9     -1.75      0.00 
    5   17    9     -1.43      0.00 
    6   17    9     -0.56      0.00 
    7   17    9      0.12      0.00 
    8   17    9      0.30      0.00 
    9   17    9      0.27      0.00 
   10   17    9      0.35      0.00 
   -2   18    9     -1.23      0.00 
   -1   18    9     -1.44      0.00 
    0   18    9     -0.85      0.00 
    1   18    9     -0.05      0.00 
    2   18    9      0.69      0.00 
    3   18    9      1.11      0.00 
    4   18    9      0.82      0.00 
    5   18    9      0.17      0.00 
    6   18    9     -0.10      0.00 
    7   18    9     -0.02      0.00 
    8   18    9     -0.14      0.00 
    1   19    9      0.15      0.00 
    2   19    9      0.05      0.00 
    3   19    9      0.32      0.00 
    4   19    9      1.06      0.00 
    5   19    9      1.34      0.00 
    2  -13   10      0.44      0.00 
    3  -13   10      0.03      0.00 
    4  -13   10     -0.46      0.00 
    5  -13   10     -0.39      0.00 
    6  -13   10      0.00      0.00 
   -2  -12   10      0.43      0.00 
   -1  -12   10      0.19      0.00 
    0  -12   10      0.27      0.00 
    1  -12   10      0.50      0.00 
    2  -12   10      0.75      0.00 
    3  -12   10      0.71      0.00 
    4  -12   10     -0.20      0.00 
    5  -12   10     -1.48      0.00 
    6  -12   10     -1.87      0.00 
    7  -12   10     -1.38      0.00 
    8  -12   10     -0.80      0.00 
    9  -12   10     -0.20      0.00 
   -3  -11   10      0.77      0.00 
   -2  -11   10      0.54      0.00 
   -1  -11   10     -0.26      0.00 
    0  -11   10     -1.32      0.00 
    1  -11   10     -2.04      0.00 
    2  -11   10     -1.96      0.00 
    3  -11   10     -0.58      0.00 
    4  -11   10      1.62      0.00 
    5  -11   10      2.71      0.00 
    6  -11   10      1.92      0.00 
    7  -11   10      0.59      0.00 
    8  -11   10     -0.26      0.00 
    9  -11   10     -0.63      0.00 
   10  -11   10     -0.40      0.00 
   11  -11   10      0.10      0.00 
   -5  -10   10     -0.69      0.00 
   -4  -10   10     -1.08      0.00 
   -3  -10   10     -1.31      0.00 
   -2  -10   10     -0.89      0.00 
   -1  -10   10      0.33      0.00 
    0  -10   10      1.66      0.00 
    1  -10   10      2.16      0.00 
    2  -10   10      1.23      0.00 
    3  -10   10     -0.65      0.00 
    4  -10   10     -1.58      0.00 
    5  -10   10     -0.37      0.00 
    6  -10   10      1.55      0.00 
    7  -10   10      2.29      0.00 
    8  -10   10      1.79      0.00 
    9  -10   10      0.64      0.00 
   10  -10   10     -0.63      0.00 
   11  -10   10     -0.97      0.00 
   12  -10   10     -0.17      0.00 
   -6   -9   10      0.03      0.00 
   -5   -9   10     -0.02      0.00 
   -4   -9   10      0.13      0.00 
   -3   -9   10      0.46      0.00 
   -2   -9   10      0.44      0.00 
   -1   -9   10     -0.09      0.00 
    0   -9   10     -0.46      0.00 
    1   -9   10      0.03      0.00 
    2   -9   10      1.02      0.00 
    3   -9   10      0.91      0.00 
    4   -9   10     -1.31      0.00 
    5   -9   10     -4.09      0.00 
    6   -9   10     -4.95      0.00 
    7   -9   10     -3.55      0.00 
    8   -9   10     -1.26      0.00 
    9   -9   10      0.81      0.00 
   10   -9   10      1.74      0.00 
   11   -9   10      1.12      0.00 
   12   -9   10      0.11      0.00 
   13   -9   10     -0.12      0.00 
   -7   -8   10      0.06      0.00 
   -6   -8   10      0.41      0.00 
   -5   -8   10      0.83      0.00 
   -4   -8   10      0.79      0.00 
   -3   -8   10      0.31      0.00 
   -2   -8   10     -0.15      0.00 
   -1   -8   10     -0.77      0.00 
    0   -8   10     -1.95      0.00 
    1   -8   10     -3.05      0.00 
    2   -8   10     -2.44      0.00 
    3   -8   10      0.60      0.00 
    4   -8   10      4.27      0.00 
    5   -8   10      5.61      0.00 
    6   -8   10      3.84      0.00 
    7   -8   10      0.99      0.00 
    8   -8   10     -1.00      0.00 
    9   -8   10     -1.47      0.00 
   10   -8   10     -0.59      0.00 
   11   -8   10      0.60      0.00 
   12   -8   10      0.79      0.00 
   13   -8   10      0.24      0.00 
   14   -8   10      0.06      0.00 
   -8   -7   10     -0.28      0.00 
   -7   -7   10     -0.28      0.00 
   -6   -7   10     -0.51      0.00 
   -5   -7   10     -0.74      0.00 
   -4   -7   10     -0.72      0.00 
   -3   -7   10     -0.64      0.00 
   -2   -7   10     -0.20      0.00 
   -1   -7   10      1.39      0.00 
    0   -7   10      3.51      0.00 
    1   -7   10      4.01      0.00 
    2   -7   10      1.76      0.00 
    3   -7   10     -1.54      0.00 
    4   -7   10     -2.87      0.00 
    5   -7   10     -1.20      0.00 
    6   -7   10      1.47      0.00 
    7   -7   10      2.63      0.00 
    8   -7   10      1.65      0.00 
    9   -7   10     -0.48      0.00 
   10   -7   10     -2.30      0.00 
   11   -7   10     -2.59      0.00 
   12   -7   10     -1.56      0.00 
   13   -7   10     -0.54      0.00 
   14   -7   10     -0.04      0.00 
   15   -7   10      0.35      0.00 
   -8   -6   10     -0.11      0.00 
   -7   -6   10     -0.42      0.00 
   -6   -6   10     -0.44      0.00 
   -5   -6   10     -0.29      0.00 
   -4   -6   10      0.20      0.00 
   -3   -6   10      0.93      0.00 
   -2   -6   10      0.79      0.00 
   -1   -6   10     -0.68      0.00 
    0   -6   10     -1.89      0.00 
    1   -6   10     -1.26      0.00 
    2   -6   10      0.14      0.00 
    3   -6   10     -0.32      0.00 
    4   -6   10     -3.26      0.00 
    5   -6   10     -6.17      0.00 
    6   -6   10     -6.28      0.00 
    7   -6   10     -3.40      0.00 
    8   -6   10      0.45      0.00 
    9   -6   10      3.14      0.00 
   10   -6   10      3.62      0.00 
   11   -6   10      2.30      0.00 
   12   -6   10      0.66      0.00 
   13   -6   10     -0.26      0.00 
   14   -6   10     -0.67      0.00 
   15   -6   10     -0.81      0.00 
   16   -6   10     -0.47      0.00 
   -9   -5   10      0.48      0.00 
   -8   -5   10      1.26      0.00 
   -7   -5   10      1.62      0.00 
   -6   -5   10      1.46      0.00 
   -5   -5   10      0.93      0.00 
   -4   -5   10      0.07      0.00 
   -3   -5   10     -0.71      0.00 
   -2   -5   10     -0.91      0.00 
   -1   -5   10     -1.15      0.00 
    0   -5   10     -2.26      0.00 
    1   -5   10     -3.11      0.00 
    2   -5   10     -1.26      0.00 
    3   -5   10      3.55      0.00 
    4   -5   10      8.15      0.00 
    5   -5   10      9.01      0.00 
    6   -5   10      5.71      0.00 
    7   -5   10      0.91      0.00 
    8   -5   10     -2.30      0.00 
    9   -5   10     -2.71      0.00 
   10   -5   10     -1.21      0.00 
   11   -5   10      0.48      0.00 
   12   -5   10      1.35      0.00 
   13   -5   10      1.44      0.00 
   14   -5   10      1.09      0.00 
   15   -5   10      0.45      0.00 
   16   -5   10     -0.16      0.00 
   -9   -4   10     -0.83      0.00 
   -8   -4   10     -1.17      0.00 
   -7   -4   10     -1.07      0.00 
   -6   -4   10     -0.68      0.00 
   -5   -4   10     -0.27      0.00 
   -4   -4   10     -0.04      0.00 
   -3   -4   10     -0.02      0.00 
   -2   -4   10      0.60      0.00 
   -1   -4   10      2.71      0.00 
    0   -4   10      5.11      0.00 
    1   -4   10      4.84      0.00 
    2   -4   10      0.99      0.00 
    3   -4   10     -3.41      0.00 
    4   -4   10     -4.70      0.00 
    5   -4   10     -2.49      0.00 
    6   -4   10      0.60      0.00 
    7   -4   10      1.89      0.00 
    8   -4   10      0.68      0.00 
    9   -4   10     -1.69      0.00 
   10   -4   10     -3.22      0.00 
   11   -4   10     -3.09      0.00 
   12   -4   10     -1.93      0.00 
   13   -4   10     -0.67      0.00 
   14   -4   10      0.27      0.00 
   15   -4   10      0.84      0.00 
   16   -4   10      0.84      0.00 
   17   -4   10      0.33      0.00 
  -10   -3   10      0.19      0.00 
   -9   -3   10     -0.08      0.00 
   -8   -3   10     -0.63      0.00 
   -7   -3   10     -1.08      0.00 
   -6   -3   10     -1.04      0.00 
   -5   -3   10     -0.53      0.00 
   -4   -3   10      0.14      0.00 
   -3   -3   10      0.35      0.00 
   -2   -3   10     -0.71      0.00 
   -1   -3   10     -2.78      0.00 
    0   -3   10     -3.85      0.00 
    1   -3   10     -2.64      0.00 
    2   -3   10     -1.04      0.00 
    3   -3   10     -2.02      0.00 
    4   -3   10     -5.48      0.00 
    5   -3   10     -7.98      0.00 
    6   -3   10     -6.70      0.00 
    7   -3   10     -2.09      0.00 
    8   -3   10      2.88      0.00 
    9   -3   10      5.39      0.00 
   10   -3   10      4.80      0.00 
   11   -3   10      2.44      0.00 
   12   -3   10     -0.11      0.00 
   13   -3   10     -1.85      0.00 
   14   -3   10     -2.39      0.00 
   15   -3   10     -1.97      0.00 
   16   -3   10     -1.11      0.00 
   17   -3   10     -0.33      0.00 
  -10   -2   10      0.41      0.00 
   -9   -2   10      0.91      0.00 
   -8   -2   10      1.60      0.00 
   -7   -2   10      1.83      0.00 
   -6   -2   10      1.16      0.00 
   -5   -2   10      0.12      0.00 
   -4   -2   10     -0.37      0.00 
   -3   -2   10      0.16      0.00 
   -2   -2   10      1.09      0.00 
   -1   -2   10      1.05      0.00 
    0   -2   10     -0.30      0.00 
    1   -2   10     -0.97      0.00 
    2   -2   10      1.59      0.00 
    3   -2   10      6.94      0.00 
    4   -2   10     11.27      0.00 
    5   -2   10     11.00      0.00 
    6   -2   10      6.21      0.00 
    7   -2   10      0.24      0.00 
    8   -2   10     -3.29      0.00 
    9   -2   10     -3.26      0.00 
   10   -2   10     -1.19      0.00 
   11   -2   10      0.92      0.00 
   12   -2   10      2.15      0.00 
   13   -2   10      2.34      0.00 
   14   -2   10      1.75      0.00 
   15   -2   10      0.91      0.00 
   16   -2   10      0.24      0.00 
   17   -2   10     -0.06      0.00 
   18   -2   10     -0.03      0.00 
  -10   -1   10     -0.39      0.00 
   -9   -1   10     -0.44      0.00 
   -8   -1   10     -0.66      0.00 
   -7   -1   10     -0.43      0.00 
   -6   -1   10      0.28      0.00 
   -5   -1   10      0.61      0.00 
   -4   -1   10     -0.08      0.00 
   -3   -1   10     -1.10      0.00 
   -2   -1   10     -0.78      0.00 
   -1   -1   10      1.52      0.00 
    0   -1   10      3.89      0.00 
    1   -1   10      3.42      0.00 
    2   -1   10     -0.40      0.00 
    3   -1   10     -4.60      0.00 
    4   -1   10     -5.64      0.00 
    5   -1   10     -3.21      0.00 
    6   -1   10     -0.17      0.00 
    7   -1   10      0.80      0.00 
    8   -1   10     -0.48      0.00 
    9   -1   10     -2.39      0.00 
   10   -1   10     -3.33      0.00 
   11   -1   10     -2.74      0.00 
   12   -1   10     -0.95      0.00 
   13   -1   10      1.00      0.00 
   14   -1   10      1.99      0.00 
   15   -1   10      1.82      0.00 
   16   -1   10      1.12      0.00 
   17   -1   10      0.45      0.00 
   18   -1   10      0.06      0.00 
  -11    0   10      0.14      0.00 
  -10    0   10     -0.19      0.00 
   -9    0   10     -0.31      0.00 
   -8    0   10     -0.46      0.00 
   -7    0   10     -0.89      0.00 
   -6    0   10     -0.98      0.00 
   -5    0   10     -0.09      0.00 
   -4    0   10      1.19      0.00 
   -3    0   10      1.32      0.00 
   -2    0   10     -0.50      0.00 
   -1    0   10     -3.07      0.00 
    0    0   10     -4.29      0.00 
    1    0   10     -3.45      0.00 
    2    0   10     -2.10      0.00 
    3    0   10     -2.62      0.00 
    4    0   10     -5.20      0.00 
    5    0   10     -6.90      0.00 
    6    0   10     -5.04      0.00 
    7    0   10     -0.58      0.00 
    8    0   10      3.40      0.00 
    9    0   10      4.91      0.00 
   10    0   10      3.92      0.00 
   11    0   10      1.26      0.00 
   12    0   10     -1.83      0.00 
   13    0   10     -3.84      0.00 
   14    0   10     -3.90      0.00 
   15    0   10     -2.60      0.00 
   16    0   10     -1.13      0.00 
   17    0   10     -0.24      0.00 
   18    0   10     -0.03      0.00 
  -11    1   10      0.38      0.00 
  -10    1   10      0.46      0.00 
   -9    1   10      0.39      0.00 
   -8    1   10      0.62      0.00 
   -7    1   10      0.73      0.00 
   -6    1   10     -0.01      0.00 
   -5    1   10     -1.14      0.00 
   -4    1   10     -1.29      0.00 
   -3    1   10      0.18      0.00 
   -2    1   10      1.98      0.00 
   -1    1   10      2.34      0.00 
    0    1   10      1.28      0.00 
    1    1   10      0.67      0.00 
    2    1   10      2.48      0.00 
    3    1   10      6.67      0.00 
    4    1   10     10.25      0.00 
    5    1   10      9.77      0.00 
    6    1   10      5.44      0.00 
    7    1   10      0.52      0.00 
    8    1   10     -2.46      0.00 
    9    1   10     -3.00      0.00 
   10    1   10     -1.66      0.00 
   11    1   10      0.43      0.00 
   12    1   10      1.82      0.00 
   13    1   10      1.83      0.00 
   14    1   10      1.01      0.00 
   15    1   10      0.24      0.00 
   16    1   10     -0.09      0.00 
   17    1   10     -0.09      0.00 
   18    1   10      0.01      0.00 
  -11    2   10     -0.52      0.00 
  -10    2   10     -0.19      0.00 
   -9    2   10     -0.03      0.00 
   -8    2   10     -0.09      0.00 
   -7    2   10      0.35      0.00 
   -6    2   10      1.23      0.00 
   -5    2   10      1.30      0.00 
   -4    2   10     -0.17      0.00 
   -3    2   10     -1.91      0.00 
   -2    2   10     -1.72      0.00 
   -1    2   10      0.69      0.00 
    0    2   10      3.07      0.00 
    1    2   10      2.94      0.00 
    2    2   10     -0.31      0.00 
    3    2   10     -4.46      0.00 
    4    2   10     -6.01      0.00 
    5    2   10     -4.20      0.00 
    6    2   10     -1.54      0.00 
    7    2   10     -0.02      0.00 
    8    2   10      0.48      0.00 
    9    2   10      0.25      0.00 
   10    2   10     -0.41      0.00 
   11    2   10     -0.37      0.00 
   12    2   10      1.01      0.00 
   13    2   10      2.66      0.00 
   14    2   10      3.08      0.00 
   15    2   10      2.07      0.00 
   16    2   10      0.74      0.00 
   17    2   10      0.06      0.00 
   18    2   10      0.00      0.00 
  -11    3   10      0.10      0.00 
  -10    3   10     -0.21      0.00 
   -9    3   10     -0.27      0.00 
   -8    3   10     -0.42      0.00 
   -7    3   10     -0.88      0.00 
   -6    3   10     -0.98      0.00 
   -5    3   10     -0.08      0.00 
   -4    3   10      1.18      0.00 
   -3    3   10      0.97      0.00 
   -2    3   10     -1.40      0.00 
   -1    3   10     -4.17      0.00 
    0    3   10     -5.05      0.00 
    1    3   10     -3.49      0.00 
    2    3   10     -1.02      0.00 
    3    3   10     -0.16      0.00 
    4    3   10     -1.74      0.00 
    5    3   10     -3.54      0.00 
    6    3   10     -3.44      0.00 
    7    3   10     -1.92      0.00 
    8    3   10     -0.05      0.00 
    9    3   10      1.59      0.00 
   10    3   10      1.91      0.00 
   11    3   10      0.12      0.00 
   12    3   10     -2.65      0.00 
   13    3   10     -4.23      0.00 
   14    3   10     -3.63      0.00 
   15    3   10     -1.76      0.00 
   16    3   10     -0.33      0.00 
   17    3   10      0.04      0.00 
   18    3   10      0.02      0.00 
  -11    4   10      0.24      0.00 
  -10    4   10      0.18      0.00 
   -9    4   10      0.12      0.00 
   -8    4   10      0.28      0.00 
   -7    4   10      0.19      0.00 
   -6    4   10     -0.50      0.00 
   -5    4   10     -1.16      0.00 
   -4    4   10     -0.56      0.00 
   -3    4   10      1.62      0.00 
   -2    4   10      3.77      0.00 
   -1    4   10      3.96      0.00 
    0    4   10      2.21      0.00 
    1    4   10      0.32      0.00 
    2    4   10      0.25      0.00 
    3    4   10      2.58      0.00 
    4    4   10      5.49      0.00 
    5    4   10      6.60      0.00 
    6    4   10      5.55      0.00 
    7    4   10      3.03      0.00 
    8    4   10     -0.36      0.00 
    9    4   10     -2.91      0.00 
   10    4   10     -2.78      0.00 
   11    4   10     -0.61      0.00 
   12    4   10      1.28      0.00 
   13    4   10      1.60      0.00 
   14    4   10      0.74      0.00 
   15    4   10     -0.07      0.00 
   16    4   10     -0.15      0.00 
   17    4   10      0.02      0.00 
   18    4   10     -0.15      0.00 
  -11    5   10     -0.12      0.00 
  -10    5   10      0.02      0.00 
   -9    5   10      0.10      0.00 
   -8    5   10      0.27      0.00 
   -7    5   10      0.86      0.00 
   -6    5   10      1.47      0.00 
   -5    5   10      1.13      0.00 
   -4    5   10     -0.35      0.00 
   -3    5   10     -1.64      0.00 
   -2    5   10     -1.14      0.00 
   -1    5   10      0.88      0.00 
    0    5   10      2.53      0.00 
    1    5   10      2.38      0.00 
    2    5   10      0.42      0.00 
    3    5   10     -2.11      0.00 
    4    5   10     -3.63      0.00 
    5    5   10     -3.71      0.00 
    6    5   10     -2.57      0.00 
    7    5   10     -0.15      0.00 
    8    5   10      2.43      0.00 
    9    5   10      3.10      0.00 
   10    5   10      1.88      0.00 
   11    5   10      0.86      0.00 
   12    5   10      1.06      0.00 
   13    5   10      1.76      0.00 
   14    5   10      1.79      0.00 
   15    5   10      0.84      0.00 
   16    5   10     -0.16      0.00 
   17    5   10     -0.19      0.00 
   18    5   10      0.27      0.00 
  -11    6   10      0.22      0.00 
  -10    6   10      0.33      0.00 
   -9    6   10      0.02      0.00 
   -8    6   10     -0.71      0.00 
   -7    6   10     -1.22      0.00 
   -6    6   10     -0.79      0.00 
   -5    6   10      0.24      0.00 
   -4    6   10      0.55      0.00 
   -3    6   10     -0.86      0.00 
   -2    6   10     -3.26      0.00 
   -1    6   10     -4.68      0.00 
    0    6   10     -4.00      0.00 
    1    6   10     -1.92      0.00 
    2    6   10      0.01      0.00 
    3    6   10      0.65      0.00 
    4    6   10     -0.11      0.00 
    5    6   10     -1.63      0.00 
    6    6   10     -3.44      0.00 
    7    6   10     -4.56      0.00 
    8    6   10     -3.50      0.00 
    9    6   10     -0.90      0.00 
   10    6   10      0.52      0.00 
   11    6   10     -0.24      0.00 
   12    6   10     -1.74      0.00 
   13    6   10     -2.45      0.00 
   14    6   10     -1.71      0.00 
   15    6   10     -0.16      0.00 
   16    6   10      0.61      0.00 
   17    6   10      0.23      0.00 
   18    6   10     -0.16      0.00 
  -11    7   10     -0.56      0.00 
  -10    7   10     -0.50      0.00 
   -9    7   10      0.24      0.00 
   -8    7   10      0.98      0.00 
   -7    7   10      0.59      0.00 
   -6    7   10     -0.76      0.00 
   -5    7   10     -1.43      0.00 
   -4    7   10     -0.25      0.00 
   -3    7   10      2.04      0.00 
   -2    7   10      3.57      0.00 
   -1    7   10      3.31      0.00 
    0    7   10      1.81      0.00 
    1    7   10      0.23      0.00 
    2    7   10     -0.39      0.00 
    3    7   10      0.55      0.00 
    4    7   10      2.77      0.00 
    5    7   10      5.23      0.00 
    6    7   10      6.32      0.00 
    7    7   10      4.41      0.00 
    8    7   10      0.28      0.00 
    9    7   10     -2.59      0.00 
   10    7   10     -2.35      0.00 
   11    7   10     -0.60      0.00 
   12    7   10      0.76      0.00 
   13    7   10      1.15      0.00 
   14    7   10      0.63      0.00 
   15    7   10      0.04      0.00 
   16    7   10      0.04      0.00 
   17    7   10      0.11      0.00 
   18    7   10     -0.15      0.00 
  -10    8   10     -0.17      0.00 
   -9    8   10     -0.74      0.00 
   -8    8   10     -0.60      0.00 
   -7    8   10      0.44      0.00 
   -6    8   10      1.21      0.00 
   -5    8   10      0.62      0.00 
   -4    8   10     -0.69      0.00 
   -3    8   10     -1.24      0.00 
   -2    8   10     -0.54      0.00 
   -1    8   10      0.54      0.00 
    0    8   10      1.19      0.00 
    1    8   10      1.22      0.00 
    2    8   10      0.34      0.00 
    3    8   10     -1.56      0.00 
    4    8   10     -3.65      0.00 
    5    8   10     -4.34      0.00 
    6    8   10     -2.36      0.00 
    7    8   10      1.53      0.00 
    8    8   10      4.16      0.00 
    9    8   10      3.66      0.00 
   10    8   10      1.71      0.00 
   11    8   10      0.45      0.00 
   12    8   10     -0.04      0.00 
   13    8   10     -0.23      0.00 
   14    8   10     -0.44      0.00 
   15    8   10     -0.94      0.00 
   16    8   10     -1.13      0.00 
   17    8   10     -0.47      0.00 
  -10    9   10      0.46      0.00 
   -9    9   10      0.28      0.00 
   -8    9   10     -0.32      0.00 
   -7    9   10     -0.60      0.00 
   -6    9   10      0.17      0.00 
   -5    9   10      1.35      0.00 
   -4    9   10      1.46      0.00 
   -3    9   10      0.07      0.00 
   -2    9   10     -1.77      0.00 
   -1    9   10     -2.99      0.00 
    0    9   10     -3.21      0.00 
    1    9   10     -2.14      0.00 
    2    9   10      0.11      0.00 
    3    9   10      2.18      0.00 
    4    9   10      2.23      0.00 
    5    9   10     -0.25      0.00 
    6    9   10     -3.81      0.00 
    7    9   10     -5.60      0.00 
    8    9   10     -3.94      0.00 
    9    9   10     -0.83      0.00 
   10    9   10      0.68      0.00 
   11    9   10      0.41      0.00 
   12    9   10     -0.15      0.00 
   13    9   10     -0.28      0.00 
   14    9   10      0.17      0.00 
   15    9   10      0.80      0.00 
   16    9   10      0.83      0.00 
   17    9   10      0.34      0.00 
  -10   10   10      0.10      0.00 
   -9   10   10      0.46      0.00 
   -8   10   10      0.49      0.00 
   -7   10   10     -0.30      0.00 
   -6   10   10     -1.46      0.00 
   -5   10   10     -1.69      0.00 
   -4   10   10     -0.61      0.00 
   -3   10   10      0.82      0.00 
   -2   10   10      1.85      0.00 
   -1   10   10      2.59      0.00 
    0   10   10      2.64      0.00 
    1   10   10      1.18      0.00 
    2   10   10     -0.89      0.00 
    3   10   10     -1.18      0.00 
    4   10   10      1.09      0.00 
    5   10   10      4.08      0.00 
    6   10   10      5.15      0.00 
    7   10   10      3.09      0.00 
    8   10   10     -0.47      0.00 
    9   10   10     -2.37      0.00 
   10   10   10     -1.77      0.00 
   11   10   10     -0.36      0.00 
   12   10   10      0.54      0.00 
   13   10   10      0.86      0.00 
   14   10   10      0.78      0.00 
   15   10   10      0.60      0.00 
   16   10   10      0.43      0.00 
   17   10   10      0.08      0.00 
   -9   11   10     -0.32      0.00 
   -8   11   10     -0.02      0.00 
   -7   11   10      0.61      0.00 
   -6   11   10      0.85      0.00 
   -5   11   10      0.17      0.00 
   -4   11   10     -0.67      0.00 
   -3   11   10     -0.75      0.00 
   -2   11   10     -0.36      0.00 
   -1   11   10     -0.13      0.00 
    0   11   10      0.25      0.00 
    1   11   10      0.92      0.00 
    2   11   10      0.65      0.00 
    3   11   10     -1.30      0.00 
    4   11   10     -3.46      0.00 
    5   11   10     -3.71      0.00 
    6   11   10     -1.39      0.00 
    7   11   10      1.98      0.00 
    8   11   10      3.65      0.00 
    9   11   10      2.50      0.00 
   10   11   10      0.49      0.00 
   11   11   10     -0.41      0.00 
   12   11   10     -0.48      0.00 
   13   11   10     -0.63      0.00 
   14   11   10     -0.94      0.00 
   15   11   10     -1.10      0.00 
   16   11   10     -0.84      0.00 
   -9   12   10      0.03      0.00 
   -8   12   10      0.14      0.00 
   -7   12   10      0.27      0.00 
   -6   12   10      0.59      0.00 
   -5   12   10      0.88      0.00 
   -4   12   10      0.66      0.00 
   -3   12   10     -0.09      0.00 
   -2   12   10     -0.95      0.00 
   -1   12   10     -1.73      0.00 
    0   12   10     -2.20      0.00 
    1   12   10     -1.57      0.00 
    2   12   10      0.47      0.00 
    3   12   10      2.41      0.00 
    4   12   10      2.39      0.00 
    5   12   10      0.32      0.00 
    6   12   10     -2.40      0.00 
    7   12   10     -3.86      0.00 
    8   12   10     -2.83      0.00 
    9   12   10     -0.43      0.00 
   10   12   10      0.89      0.00 
   11   12   10      0.54      0.00 
   12   12   10     -0.09      0.00 
   13   12   10     -0.17      0.00 
   14   12   10      0.09      0.00 
   15   12   10      0.29      0.00 
   -8   13   10     -0.43      0.00 
   -7   13   10     -0.76      0.00 
   -6   13   10     -0.96      0.00 
   -5   13   10     -0.75      0.00 
   -4   13   10     -0.15      0.00 
   -3   13   10      0.55      0.00 
   -2   13   10      1.18      0.00 
   -1   13   10      1.70      0.00 
    0   13   10      1.75      0.00 
    1   13   10      0.72      0.00 
    2   13   10     -0.79      0.00 
    3   13   10     -1.05      0.00 
    4   13   10      0.38      0.00 
    5   13   10      2.07      0.00 
    6   13   10      2.55      0.00 
    7   13   10      1.46      0.00 
    8   13   10     -0.31      0.00 
    9   13   10     -1.20      0.00 
   10   13   10     -0.73      0.00 
   11   13   10     -0.03      0.00 
   12   13   10      0.15      0.00 
   13   13   10      0.20      0.00 
   14   13   10      0.37      0.00 
   15   13   10      0.32      0.00 
   -7   14   10      0.24      0.00 
   -6   14   10      0.39      0.00 
   -5   14   10      0.21      0.00 
   -4   14   10     -0.39      0.00 
   -3   14   10     -0.99      0.00 
   -2   14   10     -1.02      0.00 
   -1   14   10     -0.55      0.00 
    0   14   10      0.09      0.00 
    1   14   10      0.73      0.00 
    2   14   10      0.81      0.00 
    3   14   10     -0.20      0.00 
    4   14   10     -1.50      0.00 
    5   14   10     -1.71      0.00 
    6   14   10     -0.46      0.00 
    7   14   10      1.30      0.00 
    8   14   10      2.02      0.00 
    9   14   10      1.03      0.00 
   10   14   10     -0.30      0.00 
   11   14   10     -0.44      0.00 
   12   14   10      0.14      0.00 
   13   14   10      0.22      0.00 
   14   14   10     -0.16      0.00 
   -6   15   10      0.05      0.00 
   -5   15   10      0.42      0.00 
   -4   15   10      1.12      0.00 
   -3   15   10      1.31      0.00 
   -2   15   10      0.43      0.00 
   -1   15   10     -0.88      0.00 
    0   15   10     -1.80      0.00 
    1   15   10     -1.92      0.00 
    2   15   10     -1.02      0.00 
    3   15   10      0.37      0.00 
    4   15   10      1.05      0.00 
    5   15   10      0.58      0.00 
    6   15   10     -0.43      0.00 
    7   15   10     -1.15      0.00 
    8   15   10     -0.87      0.00 
    9   15   10      0.21      0.00 
   10   15   10      0.85      0.00 
   11   15   10      0.51      0.00 
   12   15   10     -0.05      0.00 
   13   15   10     -0.17      0.00 
   -5   16   10     -0.53      0.00 
   -4   16   10     -0.84      0.00 
   -3   16   10     -0.46      0.00 
   -2   16   10      0.37      0.00 
   -1   16   10      0.97      0.00 
    0   16   10      1.19      0.00 
    1   16   10      0.95      0.00 
    2   16   10      0.13      0.00 
    3   16   10     -0.55      0.00 
    4   16   10     -0.34      0.00 
    5   16   10      0.29      0.00 
    6   16   10      0.50      0.00 
    7   16   10      0.13      0.00 
    8   16   10     -0.45      0.00 
    9   16   10     -0.69      0.00 
   10   16   10     -0.45      0.00 
   11   16   10     -0.19      0.00 
   12   16   10     -0.18      0.00 
   -3   17   10     -0.46      0.00 
   -2   17   10     -0.12      0.00 
   -1   17   10      0.69      0.00 
    0   17   10      1.12      0.00 
    1   17   10      1.05      0.00 
    2   17   10      0.82      0.00 
    3   17   10      0.20      0.00 
    4   17   10     -0.80      0.00 
    5   17   10     -1.43      0.00 
    6   17   10     -1.20      0.00 
    7   17   10     -0.42      0.00 
    8   17   10      0.21      0.00 
    9   17   10      0.28      0.00 
   10   17   10      0.10      0.00 
   -2   18   10     -0.40      0.00 
   -1   18   10     -1.31      0.00 
    0   18   10     -1.49      0.00 
    1   18   10     -1.09      0.00 
    2   18   10     -0.42      0.00 
    3   18   10      0.49      0.00 
    4   18   10      1.17      0.00 
    5   18   10      1.15      0.00 
    6   18   10      0.72      0.00 
    7   18   10      0.34      0.00 
    8   18   10      0.06      0.00 
    2   19   10      0.15      0.00 
    3   19   10     -0.15      0.00 
    4   19   10      0.05      0.00 
    5   19   10      0.62      0.00 
    1  -12   11      0.10      0.00 
    2  -12   11      0.19      0.00 
    3  -12   11      0.48      0.00 
    4  -12   11      0.46      0.00 
    5  -12   11     -0.33      0.00 
    6  -12   11     -1.13      0.00 
    7  -12   11     -1.19      0.00 
   -2  -11   11      0.66      0.00 
   -1  -11   11      0.41      0.00 
    0  -11   11     -0.22      0.00 
    1  -11   11     -1.00      0.00 
    2  -11   11     -1.66      0.00 
    3  -11   11     -1.62      0.00 
    4  -11   11     -0.29      0.00 
    5  -11   11      1.44      0.00 
    6  -11   11      1.98      0.00 
    7  -11   11      1.37      0.00 
    8  -11   11      0.61      0.00 
    9  -11   11     -0.07      0.00 
   10  -11   11     -0.56      0.00 
   -3  -10   11     -1.00      0.00 
   -2  -10   11     -1.09      0.00 
   -1  -10   11     -0.64      0.00 
    0  -10   11      0.42      0.00 
    1  -10   11      1.61      0.00 
    2  -10   11      2.02      0.00 
    3  -10   11      0.97      0.00 
    4  -10   11     -0.73      0.00 
    5  -10   11     -1.18      0.00 
    6  -10   11      0.02      0.00 
    7  -10   11      1.36      0.00 
    8  -10   11      1.87      0.00 
    9  -10   11      1.66      0.00 
   10  -10   11      0.79      0.00 
   11  -10   11     -0.26      0.00 
   12  -10   11     -0.48      0.00 
   -5   -9   11      0.33      0.00 
   -4   -9   11      0.27      0.00 
   -3   -9   11      0.31      0.00 
   -2   -9   11      0.51      0.00 
   -1   -9   11      0.39      0.00 
    0   -9   11     -0.20      0.00 
    1   -9   11     -0.54      0.00 
    2   -9   11      0.12      0.00 
    3   -9   11      1.14      0.00 
    4   -9   11      0.84      0.00 
    5   -9   11     -1.32      0.00 
    6   -9   11     -3.58      0.00 
    7   -9   11     -4.19      0.00 
    8   -9   11     -3.16      0.00 
    9   -9   11     -1.31      0.00 
   10   -9   11      0.54      0.00 
   11   -9   11      1.32      0.00 
   12   -9   11      0.83      0.00 
   13   -9   11      0.26      0.00 
   -6   -8   11     -0.06      0.00 
   -5   -8   11      0.19      0.00 
   -4   -8   11      0.48      0.00 
   -3   -8   11      0.36      0.00 
   -2   -8   11     -0.04      0.00 
   -1   -8   11     -0.30      0.00 
    0   -8   11     -0.81      0.00 
    1   -8   11     -2.01      0.00 
    2   -8   11     -3.06      0.00 
    3   -8   11     -2.30      0.00 
    4   -8   11      0.60      0.00 
    5   -8   11      3.65      0.00 
    6   -8   11      4.53      0.00 
    7   -8   11      3.09      0.00 
    8   -8   11      0.87      0.00 
    9   -8   11     -0.81      0.00 
   10   -8   11     -1.24      0.00 
   11   -8   11     -0.45      0.00 
   12   -8   11      0.40      0.00 
   13   -8   11      0.41      0.00 
   14   -8   11      0.11      0.00 
   -7   -7   11     -0.19      0.00 
   -6   -7   11     -0.28      0.00 
   -5   -7   11     -0.53      0.00 
   -4   -7   11     -0.61      0.00 
   -3   -7   11     -0.53      0.00 
   -2   -7   11     -0.54      0.00 
   -1   -7   11     -0.09      0.00 
    0   -7   11      1.60      0.00 
    1   -7   11      3.62      0.00 
    2   -7   11      3.83      0.00 
    3   -7   11      1.55      0.00 
    4   -7   11     -1.30      0.00 
    5   -7   11     -2.18      0.00 
    6   -7   11     -0.64      0.00 
    7   -7   11      1.52      0.00 
    8   -7   11      2.38      0.00 
    9   -7   11      1.47      0.00 
   10   -7   11     -0.45      0.00 
   11   -7   11     -1.99      0.00 
   12   -7   11     -2.17      0.00 
   13   -7   11     -1.38      0.00 
   14   -7   11     -0.61      0.00 
   15   -7   11     -0.05      0.00 
   -7   -6   11     -0.26      0.00 
   -6   -6   11     -0.33      0.00 
   -5   -6   11     -0.24      0.00 
   -4   -6   11     -0.01      0.00 
   -3   -6   11      0.65      0.00 
   -2   -6   11      1.32      0.00 
   -1   -6   11      0.80      0.00 
    0   -6   11     -0.91      0.00 
    1   -6   11     -1.96      0.00 
    2   -6   11     -1.20      0.00 
    3   -6   11     -0.03      0.00 
    4   -6   11     -0.61      0.00 
    5   -6   11     -3.09      0.00 
    6   -6   11     -5.34      0.00 
    7   -6   11     -5.30      0.00 
    8   -6   11     -2.89      0.00 
    9   -6   11      0.36      0.00 
   10   -6   11      2.65      0.00 
   11   -6   11      3.06      0.00 
   12   -6   11      2.02      0.00 
   13   -6   11      0.74      0.00 
   14   -6   11     -0.13      0.00 
   15   -6   11     -0.65      0.00 
   -8   -5   11      0.63      0.00 
   -7   -5   11      1.22      0.00 
   -6   -5   11      1.37      0.00 
   -5   -5   11      1.07      0.00 
   -4   -5   11      0.38      0.00 
   -3   -5   11     -0.54      0.00 
   -2   -5   11     -1.07      0.00 
   -1   -5   11     -0.99      0.00 
    0   -5   11     -1.22      0.00 
    1   -5   11     -2.31      0.00 
    2   -5   11     -2.83      0.00 
    3   -5   11     -0.83      0.00 
    4   -5   11      3.38      0.00 
    5   -5   11      7.03      0.00 
    6   -5   11      7.46      0.00 
    7   -5   11      4.58      0.00 
    8   -5   11      0.60      0.00 
    9   -5   11     -2.02      0.00 
   10   -5   11     -2.39      0.00 
   11   -5   11     -1.23      0.00 
   12   -5   11      0.20      0.00 
   13   -5   11      1.08      0.00 
   14   -5   11      1.27      0.00 
   15   -5   11      0.95      0.00 
   16   -5   11      0.37      0.00 
   -8   -4   11     -0.68      0.00 
   -7   -4   11     -0.92      0.00 
   -6   -4   11     -0.74      0.00 
   -5   -4   11     -0.32      0.00 
   -4   -4   11      0.01      0.00 
   -3   -4   11      0.01      0.00 
   -2   -4   11     -0.07      0.00 
   -1   -4   11      0.82      0.00 
    0   -4   11      3.18      0.00 
    1   -4   11      5.23      0.00 
    2   -4   11      4.44      0.00 
    3   -4   11      0.73      0.00 
    4   -4   11     -3.04      0.00 
    5   -4   11     -4.11      0.00 
    6   -4   11     -2.28      0.00 
    7   -4   11      0.40      0.00 
    8   -4   11      1.66      0.00 
    9   -4   11      0.85      0.00 
   10   -4   11     -0.90      0.00 
   11   -4   11     -2.10      0.00 
   12   -4   11     -2.22      0.00 
   13   -4   11     -1.56      0.00 
   14   -4   11     -0.66      0.00 
   15   -4   11      0.15      0.00 
   16   -4   11      0.59      0.00 
   17   -4   11      0.48      0.00 
   -9   -3   11      0.01      0.00 
   -8   -3   11     -0.29      0.00 
   -7   -3   11     -0.84      0.00 
   -6   -3   11     -1.22      0.00 
   -5   -3   11     -1.01      0.00 
   -4   -3   11     -0.27      0.00 
   -3   -3   11      0.53      0.00 
   -2   -3   11      0.56      0.00 
   -1   -3   11     -0.89      0.00 
    0   -3   11     -3.00      0.00 
    1   -3   11     -3.69      0.00 
    2   -3   11     -2.28      0.00 
    3   -3   11     -0.79      0.00 
    4   -3   11     -1.53      0.00 
    5   -3   11     -4.15      0.00 
    6   -3   11     -6.01      0.00 
    7   -3   11     -5.02      0.00 
    8   -3   11     -1.55      0.00 
    9   -3   11      2.12      0.00 
   10   -3   11      3.96      0.00 
   11   -3   11      3.59      0.00 
   12   -3   11      1.84      0.00 
   13   -3   11     -0.16      0.00 
   14   -3   11     -1.49      0.00 
   15   -3   11     -1.82      0.00 
   16   -3   11     -1.41      0.00 
   17   -3   11     -0.72      0.00 
   -9   -2   11      0.46      0.00 
   -8   -2   11      1.00      0.00 
   -7   -2   11      1.70      0.00 
   -6   -2   11      1.72      0.00 
   -5   -2   11      0.79      0.00 
   -4   -2   11     -0.34      0.00 
   -3   -2   11     -0.70      0.00 
   -2   -2   11     -0.05      0.00 
   -1   -2   11      0.74      0.00 
    0   -2   11      0.43      0.00 
    1   -2   11     -0.88      0.00 
    2   -2   11     -1.28      0.00 
    3   -2   11      1.08      0.00 
    4   -2   11      5.49      0.00 
    5   -2   11      8.88      0.00 
    6   -2   11      8.53      0.00 
    7   -2   11      4.60      0.00 
    8   -2   11     -0.14      0.00 
    9   -2   11     -2.87      0.00 
   10   -2   11     -2.89      0.00 
   11   -2   11     -1.31      0.00 
   12   -2   11      0.54      0.00 
   13   -2   11      1.74      0.00 
   14   -2   11      1.95      0.00 
   15   -2   11      1.40      0.00 
   16   -2   11      0.65      0.00 
   17   -2   11      0.13      0.00 
  -10   -1   11     -0.39      0.00 
   -9   -1   11     -0.28      0.00 
   -8   -1   11     -0.51      0.00 
   -7   -1   11     -0.72      0.00 
   -6   -1   11     -0.25      0.00 
   -5   -1   11      0.58      0.00 
   -4   -1   11      0.80      0.00 
   -3   -1   11      0.07      0.00 
   -2   -1   11     -0.63      0.00 
   -1   -1   11      0.19      0.00 
    0   -1   11      2.56      0.00 
    1   -1   11      4.45      0.00 
    2   -1   11      3.60      0.00 
    3   -1   11      0.06      0.00 
    4   -1   11     -3.53      0.00 
    5   -1   11     -4.42      0.00 
    6   -1   11     -2.53      0.00 
    7   -1   11     -0.10      0.00 
    8   -1   11      0.88      0.00 
    9   -1   11      0.20      0.00 
   10   -1   11     -1.14      0.00 
   11   -1   11     -2.03      0.00 
   12   -1   11     -1.80      0.00 
   13   -1   11     -0.53      0.00 
   14   -1   11      0.87      0.00 
   15   -1   11      1.54      0.00 
   16   -1   11      1.37      0.00 
   17   -1   11      0.77      0.00 
   18   -1   11      0.17      0.00 
  -10    0   11     -0.20      0.00 
   -9    0   11     -0.36      0.00 
   -8    0   11     -0.29      0.00 
   -7    0   11     -0.56      0.00 
   -6    0   11     -1.07      0.00 
   -5    0   11     -0.97      0.00 
   -4    0   11      0.02      0.00 
   -3    0   11      1.00      0.00 
   -2    0   11      0.63      0.00 
   -1    0   11     -1.35      0.00 
    0    0   11     -3.59      0.00 
    1    0   11     -4.39      0.00 
    2    0   11     -3.37      0.00 
    3    0   11     -1.98      0.00 
    4    0   11     -2.25      0.00 
    5    0   11     -4.12      0.00 
    6    0   11     -5.13      0.00 
    7    0   11     -3.55      0.00 
    8    0   11     -0.43      0.00 
    9    0   11      2.22      0.00 
   10    0   11      3.33      0.00 
   11    0   11      2.69      0.00 
   12    0   11      0.60      0.00 
   13    0   11     -1.85      0.00 
   14    0   11     -3.23      0.00 
   15    0   11     -3.02      0.00 
   16    0   11     -1.82      0.00 
   17    0   11     -0.60      0.00 
   18    0   11     -0.04      0.00 
  -10    1   11      0.72      0.00 
   -9    1   11      0.54      0.00 
   -8    1   11      0.52      0.00 
   -7    1   11      0.88      0.00 
   -6    1   11      0.82      0.00 
   -5    1   11     -0.14      0.00 
   -4    1   11     -1.19      0.00 
   -3    1   11     -1.05      0.00 
   -2    1   11      0.43      0.00 
   -1    1   11      1.85      0.00 
    0    1   11      1.85      0.00 
    1    1   11      0.76      0.00 
    2    1   11      0.20      0.00 
    3    1   11      1.78      0.00 
    4    1   11      5.23      0.00 
    5    1   11      7.82      0.00 
    6    1   11      7.08      0.00 
    7    1   11      3.71      0.00 
    8    1   11      0.10      0.00 
    9    1   11     -2.16      0.00 
   10    1   11     -2.56      0.00 
   11    1   11     -1.33      0.00 
   12    1   11      0.43      0.00 
   13    1   11      1.43      0.00 
   14    1   11      1.29      0.00 
   15    1   11      0.54      0.00 
   16    1   11     -0.09      0.00 
   17    1   11     -0.22      0.00 
   18    1   11      0.04      0.00 
  -10    2   11     -0.48      0.00 
   -9    2   11     -0.12      0.00 
   -8    2   11     -0.20      0.00 
   -7    2   11     -0.28      0.00 
   -6    2   11      0.37      0.00 
   -5    2   11      1.26      0.00 
   -4    2   11      1.17      0.00 
   -3    2   11     -0.19      0.00 
   -2    2   11     -1.42      0.00 
   -1    2   11     -0.74      0.00 
    0    2   11      1.70      0.00 
    1    2   11      3.81      0.00 
    2    2   11      3.45      0.00 
    3    2   11      0.33      0.00 
    4    2   11     -3.25      0.00 
    5    2   11     -4.43      0.00 
    6    2   11     -3.07      0.00 
    7    2   11     -1.04      0.00 
    8    2   11      0.57      0.00 
    9    2   11      1.37      0.00 
   10    2   11      1.00      0.00 
   11    2   11      0.11      0.00 
   12    2   11      0.13      0.00 
   13    2   11      1.33      0.00 
   14    2   11      2.52      0.00 
   15    2   11      2.57      0.00 
   16    2   11      1.51      0.00 
   17    2   11      0.29      0.00 
   18    2   11     -0.24      0.00 
  -10    3   11     -0.14      0.00 
   -9    3   11     -0.35      0.00 
   -8    3   11     -0.27      0.00 
   -7    3   11     -0.49      0.00 
   -6    3   11     -0.98      0.00 
   -5    3   11     -0.96      0.00 
   -4    3   11     -0.01      0.00 
   -3    3   11      0.98      0.00 
   -2    3   11      0.39      0.00 
   -1    3   11     -2.03      0.00 
    0    3   11     -4.54      0.00 
    1    3   11     -5.17      0.00 
    2    3   11     -3.52      0.00 
    3    3   11     -1.13      0.00 
    4    3   11     -0.20      0.00 
    5    3   11     -1.11      0.00 
    6    3   11     -2.21      0.00 
    7    3   11     -2.48      0.00 
    8    3   11     -2.00      0.00 
    9    3   11     -0.70      0.00 
   10    3   11      0.91      0.00 
   11    3   11      1.27      0.00 
   12    3   11     -0.24      0.00 
   13    3   11     -2.37      0.00 
   14    3   11     -3.32      0.00 
   15    3   11     -2.46      0.00 
   16    3   11     -0.80      0.00 
   17    3   11      0.16      0.00 
   18    3   11      0.16      0.00 
  -10    4   11      0.39      0.00 
   -9    4   11      0.30      0.00 
   -8    4   11      0.33      0.00 
   -7    4   11      0.53      0.00 
   -6    4   11      0.28      0.00 
   -5    4   11     -0.54      0.00 
   -4    4   11     -1.12      0.00 
   -3    4   11     -0.39      0.00 
   -2    4   11      1.65      0.00 
   -1    4   11      3.44      0.00 
    0    4   11      3.39      0.00 
    1    4   11      1.69      0.00 
    2    4   11     -0.05      0.00 
    3    4   11     -0.17      0.00 
    4    4   11      1.53      0.00 
    5    4   11      3.52      0.00 
    6    4   11      4.47      0.00 
    7    4   11      4.03      0.00 
    8    4   11      1.96      0.00 
    9    4   11     -1.09      0.00 
   10    4   11     -3.01      0.00 
   11    4   11     -2.53      0.00 
   12    4   11     -0.71      0.00 
   13    4   11      0.68      0.00 
   14    4   11      0.79      0.00 
   15    4   11      0.04      0.00 
   16    4   11     -0.43      0.00 
   17    4   11     -0.19      0.00 
   18    4   11      0.09      0.00 
  -10    5   11     -0.20      0.00 
   -9    5   11     -0.04      0.00 
   -8    5   11     -0.07      0.00 
   -7    5   11      0.14      0.00 
   -6    5   11      0.90      0.00 
   -5    5   11      1.54      0.00 
   -4    5   11      1.11      0.00 
   -3    5   11     -0.26      0.00 
   -2    5   11     -1.22      0.00 
   -1    5   11     -0.52      0.00 
    0    5   11      1.37      0.00 
    1    5   11      2.86      0.00 
    2    5   11      2.76      0.00 
    3    5   11      1.14      0.00 
    4    5   11     -0.93      0.00 
    5    5   11     -2.41      0.00 
    6    5   11     -2.82      0.00 
    7    5   11     -1.57      0.00 
    8    5   11      1.16      0.00 
    9    5   11      3.31      0.00 
   10    5   11      3.18      0.00 
   11    5   11      1.75      0.00 
   12    5   11      0.88      0.00 
   13    5   11      1.07      0.00 
   14    5   11      1.60      0.00 
   15    5   11      1.43      0.00 
   16    5   11      0.43      0.00 
   17    5   11     -0.29      0.00 
   18    5   11     -0.14      0.00 
  -10    6   11      0.30      0.00 
   -9    6   11      0.26      0.00 
   -8    6   11     -0.14      0.00 
   -7    6   11     -0.91      0.00 
   -6    6   11     -1.32      0.00 
   -5    6   11     -0.76      0.00 
   -4    6   11      0.19      0.00 
   -3    6   11      0.23      0.00 
   -2    6   11     -1.23      0.00 
   -1    6   11     -3.35      0.00 
    0    6   11     -4.50      0.00 
    1    6   11     -3.90      0.00 
    2    6   11     -2.12      0.00 
    3    6   11     -0.33      0.00 
    4    6   11      0.60      0.00 
    5    6   11      0.44      0.00 
    6    6   11     -0.95      0.00 
    7    6   11     -3.20      0.00 
    8    6   11     -4.40      0.00 
    9    6   11     -3.07      0.00 
   10    6   11     -0.60      0.00 
   11    6   11      0.62      0.00 
   12    6   11      0.12      0.00 
   13    6   11     -1.10      0.00 
   14    6   11     -1.69      0.00 
   15    6   11     -0.91      0.00 
   16    6   11      0.32      0.00 
   17    6   11      0.57      0.00 
   18    6   11      0.11      0.00 
  -10    7   11     -0.56      0.00 
   -9    7   11     -0.30      0.00 
   -8    7   11      0.60      0.00 
   -7    7   11      1.24      0.00 
   -6    7   11      0.53      0.00 
   -5    7   11     -0.91      0.00 
   -4    7   11     -1.31      0.00 
   -3    7   11     -0.04      0.00 
   -2    7   11      1.90      0.00 
   -1    7   11      3.11      0.00 
    0    7   11      2.93      0.00 
    1    7   11      1.62      0.00 
    2    7   11     -0.03      0.00 
    3    7   11     -1.01      0.00 
    4    7   11     -0.57      0.00 
    5    7   11      1.38      0.00 
    6    7   11      3.94      0.00 
    7    7   11      5.00      0.00 
    8    7   11      3.01      0.00 
    9    7   11     -0.45      0.00 
   10    7   11     -2.35      0.00 
   11    7   11     -2.03      0.00 
   12    7   11     -0.77      0.00 
   13    7   11      0.35      0.00 
   14    7   11      0.66      0.00 
   15    7   11      0.21      0.00 
   16    7   11     -0.09      0.00 
   17    7   11      0.01      0.00 
   18    7   11     -0.05      0.00 
  -10    8   11      0.15      0.00 
   -9    8   11     -0.39      0.00 
   -8    8   11     -0.92      0.00 
   -7    8   11     -0.54      0.00 
   -6    8   11      0.63      0.00 
   -5    8   11      1.17      0.00 
   -4    8   11      0.44      0.00 
   -3    8   11     -0.53      0.00 
   -2    8   11     -0.71      0.00 
   -1    8   11     -0.16      0.00 
    0    8   11      0.59      0.00 
    1    8   11      1.32      0.00 
    2    8   11      1.70      0.00 
    3    8   11      1.07      0.00 
    4    8   11     -0.75      0.00 
    5    8   11     -2.81      0.00 
    6    8   11     -3.33      0.00 
    7    8   11     -1.16      0.00 
    8    8   11      2.21      0.00 
    9    8   11      3.79      0.00 
   10    8   11      2.87      0.00 
   11    8   11      1.27      0.00 
   12    8   11      0.24      0.00 
   13    8   11     -0.20      0.00 
   14    8   11     -0.29      0.00 
   15    8   11     -0.56      0.00 
   16    8   11     -1.02      0.00 
   17    8   11     -0.86      0.00 
   -9    9   11      0.59      0.00 
   -8    9   11      0.25      0.00 
   -7    9   11     -0.51      0.00 
   -6    9   11     -0.62      0.00 
   -5    9   11      0.42      0.00 
   -4    9   11      1.47      0.00 
   -3    9   11      1.24      0.00 
   -2    9   11     -0.07      0.00 
   -1    9   11     -1.62      0.00 
    0    9   11     -2.87      0.00 
    1    9   11     -3.31      0.00 
    2    9   11     -2.19      0.00 
    3    9   11      0.26      0.00 
    4    9   11      2.31      0.00 
    5    9   11      2.18      0.00 
    6    9   11     -0.43      0.00 
    7    9   11     -3.73      0.00 
    8    9   11     -4.90      0.00 
    9    9   11     -3.12      0.00 
   10    9   11     -0.64      0.00 
   11    9   11      0.51      0.00 
   12    9   11      0.52      0.00 
   13    9   11      0.20      0.00 
   14    9   11      0.15      0.00 
   15    9   11      0.61      0.00 
   16    9   11      0.98      0.00 
   17    9   11      0.70      0.00 
   -9   10   11      0.00      0.00 
   -8   10   11      0.43      0.00 
   -7   10   11      0.44      0.00 
   -6   10   11     -0.48      0.00 
   -5   10   11     -1.55      0.00 
   -4   10   11     -1.56      0.00 
   -3   10   11     -0.65      0.00 
   -2   10   11      0.40      0.00 
   -1   10   11      1.57      0.00 
    0   10   11      2.79      0.00 
    1   10   11      2.79      0.00 
    2   10   11      0.84      0.00 
    3   10   11     -1.39      0.00 
    4   10   11     -1.53      0.00 
    5   10   11      0.64      0.00 
    6   10   11      3.23      0.00 
    7   10   11      3.94      0.00 
    8   10   11      2.00      0.00 
    9   10   11     -0.73      0.00 
   10   10   11     -1.84      0.00 
   11   10   11     -1.23      0.00 
   12   10   11     -0.28      0.00 
   13   10   11      0.31      0.00 
   14   10   11      0.47      0.00 
   15   10   11      0.40      0.00 
   16   10   11      0.33      0.00 
   17   10   11      0.17      0.00 
   -8   11   11     -0.18      0.00 
   -7   11   11      0.21      0.00 
   -6   11   11      0.76      0.00 
   -5   11   11      0.63      0.00 
   -4   11   11     -0.16      0.00 
   -3   11   11     -0.62      0.00 
   -2   11   11     -0.52      0.00 
   -1   11   11     -0.50      0.00 
    0   11   11     -0.51      0.00 
    1   11   11      0.24      0.00 
    2   11   11      1.27      0.00 
    3   11   11      0.96      0.00 
    4   11   11     -0.94      0.00 
    5   11   11     -2.73      0.00 
    6   11   11     -2.65      0.00 
    7   11   11     -0.35      0.00 
    8   11   11      2.52      0.00 
    9   11   11      3.47      0.00 
   10   11   11      2.12      0.00 
   11   11   11      0.42      0.00 
   12   11   11     -0.33      0.00 
   13   11   11     -0.50      0.00 
   14   11   11     -0.67      0.00 
   15   11   11     -0.88      0.00 
   16   11   11     -0.84      0.00 
   -8   12   11      0.01      0.00 
   -7   12   11      0.03      0.00 
   -6   12   11      0.27      0.00 
   -5   12   11      0.78      0.00 
   -4   12   11      1.07      0.00 
   -3   12   11      0.78      0.00 
   -2   12   11      0.13      0.00 
   -1   12   11     -0.71      0.00 
    0   12   11     -1.79      0.00 
    1   12   11     -2.54      0.00 
    2   12   11     -1.87      0.00 
    3   12   11      0.21      0.00 
    4   12   11      2.01      0.00 
    5   12   11      2.06      0.00 
    6   12   11      0.28      0.00 
    7   12   11     -2.28      0.00 
    8   12   11     -3.65      0.00 
    9   12   11     -2.64      0.00 
   10   12   11     -0.58      0.00 
   11   12   11      0.45      0.00 
   12   12   11      0.35      0.00 
   13   12   11      0.14      0.00 
   14   12   11      0.16      0.00 
   15   12   11      0.21      0.00 
   -7   13   11     -0.50      0.00 
   -6   13   11     -0.86      0.00 
   -5   13   11     -0.99      0.00 
   -4   13   11     -0.73      0.00 
   -3   13   11     -0.23      0.00 
   -2   13   11      0.42      0.00 
   -1   13   11      1.26      0.00 
    0   13   11      2.10      0.00 
    1   13   11      2.11      0.00 
    2   13   11      0.81      0.00 
    3   13   11     -0.78      0.00 
    4   13   11     -1.09      0.00 
    5   13   11     -0.05      0.00 
    6   13   11      1.23      0.00 
    7   13   11      1.73      0.00 
    8   13   11      0.95      0.00 
    9   13   11     -0.38      0.00 
   10   13   11     -0.86      0.00 
   11   13   11     -0.41      0.00 
   12   13   11     -0.05      0.00 
   13   13   11     -0.05      0.00 
   14   13   11      0.06      0.00 
   15   13   11      0.24      0.00 
   -6   14   11      0.43      0.00 
   -5   14   11      0.49      0.00 
   -4   14   11      0.21      0.00 
   -3   14   11     -0.45      0.00 
   -2   14   11     -1.07      0.00 
   -1   14   11     -1.17      0.00 
    0   14   11     -0.79      0.00 
    1   14   11      0.00      0.00 
    2   14   11      0.97      0.00 
    3   14   11      1.21      0.00 
    4   14   11      0.23      0.00 
    5   14   11     -1.03      0.00 
    6   14   11     -1.26      0.00 
    7   14   11     -0.02      0.00 
    8   14   11      1.72      0.00 
    9   14   11      2.17      0.00 
   10   14   11      0.96      0.00 
   11   14   11     -0.25      0.00 
   12   14   11     -0.28      0.00 
   13   14   11      0.09      0.00 
   14   14   11      0.07      0.00 
   -5   15   11     -0.03      0.00 
   -4   15   11      0.44      0.00 
   -3   15   11      1.19      0.00 
   -2   15   11      1.27      0.00 
   -1   15   11      0.35      0.00 
    0   15   11     -0.92      0.00 
    1   15   11     -1.95      0.00 
    2   15   11     -2.27      0.00 
    3   15   11     -1.44      0.00 
    4   15   11      0.08      0.00 
    5   15   11      1.09      0.00 
    6   15   11      0.93      0.00 
    7   15   11     -0.25      0.00 
    8   15   11     -1.36      0.00 
    9   15   11     -1.17      0.00 
   10   15   11      0.01      0.00 
   11   15   11      0.71      0.00 
   12   15   11      0.53      0.00 
   13   15   11      0.17      0.00 
   -4   16   11     -0.61      0.00 
   -3   16   11     -0.78      0.00 
   -2   16   11     -0.21      0.00 
   -1   16   11      0.65      0.00 
    0   16   11      1.25      0.00 
    1   16   11      1.56      0.00 
    2   16   11      1.26      0.00 
    3   16   11      0.24      0.00 
    4   16   11     -0.62      0.00 
    5   16   11     -0.67      0.00 
    6   16   11     -0.26      0.00 
    7   16   11      0.07      0.00 
    8   16   11     -0.01      0.00 
    9   16   11     -0.40      0.00 
   10   16   11     -0.57      0.00 
   11   16   11     -0.38      0.00 
   12   16   11     -0.26      0.00 
   -3   17   11     -0.43      0.00 
   -2   17   11     -0.75      0.00 
   -1   17   11     -0.36      0.00 
    0   17   11      0.38      0.00 
    1   17   11      0.77      0.00 
    2   17   11      0.98      0.00 
    3   17   11      1.06      0.00 
    4   17   11      0.48      0.00 
    5   17   11     -0.58      0.00 
    6   17   11     -1.23      0.00 
    7   17   11     -0.96      0.00 
    8   17   11     -0.11      0.00 
    9   17   11      0.45      0.00 
   10   17   11      0.25      0.00 
   -1   18   11     -0.47      0.00 
    0   18   11     -1.30      0.00 
    1   18   11     -1.49      0.00 
    2   18   11     -1.30      0.00 
    3   18   11     -0.65      0.00 
    4   18   11      0.45      0.00 
    5   18   11      1.33      0.00 
    6   18   11      1.48      0.00 
    7   18   11      1.02      0.00 
    8   18   11      0.37      0.00 
    1  -11   12     -0.10      0.00 
    2  -11   12     -0.69      0.00 
    3  -11   12     -1.28      0.00 
    4  -11   12     -1.16      0.00 
    5  -11   12     -0.07      0.00 
    6  -11   12      0.99      0.00 
    7  -11   12      1.18      0.00 
    8  -11   12      0.92      0.00 
   -1  -10   12     -0.83      0.00 
    0  -10   12     -0.50      0.00 
    1  -10   12      0.39      0.00 
    2  -10   12      1.45      0.00 
    3  -10   12      1.66      0.00 
    4  -10   12      0.58      0.00 
    5  -10   12     -0.71      0.00 
    6  -10   12     -0.79      0.00 
    7  -10   12      0.15      0.00 
    8  -10   12      0.98      0.00 
    9  -10   12      1.39      0.00 
   10  -10   12      1.35      0.00 
   -3   -9   12      0.38      0.00 
   -2   -9   12      0.41      0.00 
   -1   -9   12      0.60      0.00 
    0   -9   12      0.40      0.00 
    1   -9   12     -0.27      0.00 
    2   -9   12     -0.50      0.00 
    3   -9   12      0.30      0.00 
    4   -9   12      1.24      0.00 
    5   -9   12      0.82      0.00 
    6   -9   12     -1.02      0.00 
    7   -9   12     -2.75      0.00 
    8   -9   12     -3.25      0.00 
    9   -9   12     -2.55      0.00 
   10   -9   12     -1.08      0.00 
   11   -9   12      0.35      0.00 
   12   -9   12      0.84      0.00 
   -4   -8   12     -0.01      0.00 
   -3   -8   12      0.14      0.00 
   -2   -8   12     -0.07      0.00 
   -1   -8   12     -0.32      0.00 
    0   -8   12     -0.35      0.00 
    1   -8   12     -0.78      0.00 
    2   -8   12     -1.99      0.00 
    3   -8   12     -2.90      0.00 
    4   -8   12     -2.05      0.00 
    5   -8   12      0.47      0.00 
    6   -8   12      2.84      0.00 
    7   -8   12      3.45      0.00 
    8   -8   12      2.35      0.00 
    9   -8   12      0.64      0.00 
   10   -8   12     -0.65      0.00 
   11   -8   12     -0.85      0.00 
   12   -8   12     -0.22      0.00 
   13   -8   12      0.22      0.00 
   -5   -7   12     -0.25      0.00 
   -4   -7   12     -0.41      0.00 
   -3   -7   12     -0.37      0.00 
   -2   -7   12     -0.35      0.00 
   -1   -7   12     -0.52      0.00 
    0   -7   12     -0.03      0.00 
    1   -7   12      1.72      0.00 
    2   -7   12      3.52      0.00 
    3   -7   12      3.44      0.00 
    4   -7   12      1.29      0.00 
    5   -7   12     -1.07      0.00 
    6   -7   12     -1.62      0.00 
    7   -7   12     -0.22      0.00 
    8   -7   12      1.51      0.00 
    9   -7   12      2.03      0.00 
   10   -7   12      1.05      0.00 
   11   -7   12     -0.60      0.00 
   12   -7   12     -1.73      0.00 
   13   -7   12     -1.76      0.00 
   14   -7   12     -1.13      0.00 
   -6   -6   12     -0.40      0.00 
   -5   -6   12     -0.33      0.00 
   -4   -6   12     -0.13      0.00 
   -3   -6   12      0.29      0.00 
   -2   -6   12      1.11      0.00 
   -1   -6   12      1.61      0.00 
    0   -6   12      0.71      0.00 
    1   -6   12     -1.07      0.00 
    2   -6   12     -1.91      0.00 
    3   -6   12     -1.16      0.00 
    4   -6   12     -0.23      0.00 
    5   -6   12     -0.80      0.00 
    6   -6   12     -2.85      0.00 
    7   -6   12     -4.64      0.00 
    8   -6   12     -4.47      0.00 
    9   -6   12     -2.31      0.00 
   10   -6   12      0.44      0.00 
   11   -6   12      2.26      0.00 
   12   -6   12      2.53      0.00 
   13   -6   12      1.74      0.00 
   14   -6   12      0.75      0.00 
   15   -6   12     -0.03      0.00 
   -7   -5   12      0.74      0.00 
   -6   -5   12      1.15      0.00 
   -5   -5   12      1.10      0.00 
   -4   -5   12      0.60      0.00 
   -3   -5   12     -0.23      0.00 
   -2   -5   12     -1.05      0.00 
   -1   -5   12     -1.27      0.00 
    0   -5   12     -1.01      0.00 
    1   -5   12     -1.24      0.00 
    2   -5   12     -2.14      0.00 
    3   -5   12     -2.31      0.00 
    4   -5   12     -0.34      0.00 
    5   -5   12      3.24      0.00 
    6   -5   12      6.11      0.00 
    7   -5   12      6.21      0.00 
    8   -5   12      3.61      0.00 
    9   -5   12      0.32      0.00 
   10   -5   12     -1.75      0.00 
   11   -5   12     -2.05      0.00 
   12   -5   12     -1.14      0.00 
   13   -5   12      0.04      0.00 
   14   -5   12      0.78      0.00 
   15   -5   12      0.92      0.00 
   16   -5   12      0.65      0.00 
   -7   -4   12     -0.47      0.00 
   -6   -4   12     -0.52      0.00 
   -5   -4   12     -0.22      0.00 
   -4   -4   12      0.11      0.00 
   -3   -4   12      0.16      0.00 
   -2   -4   12     -0.13      0.00 
   -1   -4   12     -0.19      0.00 
    0   -4   12      0.99      0.00 
    1   -4   12      3.33      0.00 
    2   -4   12      4.92      0.00 
    3   -4   12      3.85      0.00 
    4   -4   12      0.48      0.00 
    5   -4   12     -2.73      0.00 
    6   -4   12     -3.58      0.00 
    7   -4   12     -1.92      0.00 
    8   -4   12      0.43      0.00 
    9   -4   12      1.52      0.00 
   10   -4   12      0.96      0.00 
   11   -4   12     -0.31      0.00 
   12   -4   12     -1.32      0.00 
   13   -4   12     -1.60      0.00 
   14   -4   12     -1.22      0.00 
   15   -4   12     -0.55      0.00 
   16   -4   12      0.04      0.00 
   -8   -3   12     -0.13      0.00 
   -7   -3   12     -0.56      0.00 
   -6   -3   12     -1.21      0.00 
   -5   -3   12     -1.45      0.00 
   -4   -3   12     -0.90      0.00 
   -3   -3   12      0.18      0.00 
   -2   -3   12      1.07      0.00 
   -1   -3   12      0.83      0.00 
    0   -3   12     -0.87      0.00 
    1   -3   12     -2.86      0.00 
    2   -3   12     -3.30      0.00 
    3   -3   12     -1.95      0.00 
    4   -3   12     -0.65      0.00 
    5   -3   12     -1.20      0.00 
    6   -3   12     -3.25      0.00 
    7   -3   12     -4.70      0.00 
    8   -3   12     -3.89      0.00 
    9   -3   12     -1.22      0.00 
   10   -3   12      1.54      0.00 
   11   -3   12      2.99      0.00 
   12   -3   12      2.81      0.00 
   13   -3   12      1.49      0.00 
   14   -3   12     -0.03      0.00 
   15   -3   12     -0.95      0.00 
   16   -3   12     -1.11      0.00 
   17   -3   12     -0.78      0.00 
   -8   -2   12      0.43      0.00 
   -7   -2   12      1.13      0.00 
   -6   -2   12      1.79      0.00 
   -5   -2   12      1.50      0.00 
   -4   -2   12      0.32      0.00 
   -3   -2   12     -0.78      0.00 
   -2   -2   12     -1.02      0.00 
   -1   -2   12     -0.41      0.00 
    0   -2   12      0.15      0.00 
    1   -2   12     -0.22      0.00 
    2   -2   12     -1.23      0.00 
    3   -2   12     -1.34      0.00 
    4   -2   12      0.77      0.00 
    5   -2   12      4.46      0.00 
    6   -2   12      7.17      0.00 
    7   -2   12      6.71      0.00 
    8   -2   12      3.39      0.00 
    9   -2   12     -0.46      0.00 
   10   -2   12     -2.74      0.00 
   11   -2   12     -2.93      0.00 
   12   -2   12     -1.64      0.00 
   13   -2   12      0.08      0.00 
   14   -2   12      1.21      0.00 
   15   -2   12      1.38      0.00 
   16   -2   12      0.91      0.00 
   17   -2   12      0.33      0.00 
   -9   -1   12     -0.21      0.00 
   -8   -1   12     -0.25      0.00 
   -7   -1   12     -0.61      0.00 
   -6   -1   12     -0.60      0.00 
   -5   -1   12      0.11      0.00 
   -4   -1   12      0.84      0.00 
   -3   -1   12      0.86      0.00 
   -2   -1   12      0.23      0.00 
   -1   -1   12     -0.02      0.00 
    0   -1   12      1.10      0.00 
    1   -1   12      3.19      0.00 
    2   -1   12      4.46      0.00 
    3   -1   12      3.33      0.00 
    4   -1   12      0.12      0.00 
    5   -1   12     -2.92      0.00 
    6   -1   12     -3.63      0.00 
    7   -1   12     -2.07      0.00 
    8   -1   12     -0.01      0.00 
    9   -1   12      1.11      0.00 
   10   -1   12      0.97      0.00 
   11   -1   12     -0.01      0.00 
   12   -1   12     -0.99      0.00 
   13   -1   12     -1.11      0.00 
   14   -1   12     -0.33      0.00 
   15   -1   12      0.61      0.00 
   16   -1   12      1.07      0.00 
   17   -1   12      0.91      0.00 
   -9    0   12     -0.36      0.00 
   -8    0   12     -0.26      0.00 
   -7    0   12     -0.26      0.00 
   -6    0   12     -0.79      0.00 
   -5    0   12     -1.24      0.00 
   -4    0   12     -0.87      0.00 
   -3    0   12      0.11      0.00 
   -2    0   12      0.72      0.00 
   -1    0   12      0.04      0.00 
    0    0   12     -1.80      0.00 
    1    0   12     -3.55      0.00 
    2    0   12     -3.95      0.00 
    3    0   12     -2.81      0.00 
    4    0   12     -1.51      0.00 
    5    0   12     -1.72      0.00 
    6    0   12     -3.09      0.00 
    7    0   12     -3.62      0.00 
    8    0   12     -2.45      0.00 
    9    0   12     -0.46      0.00 
   10    0   12      1.32      0.00 
   11    0   12      2.30      0.00 
   12    0   12      1.96      0.00 
   13    0   12      0.35      0.00 
   14    0   12     -1.49      0.00 
   15    0   12     -2.41      0.00 
   16    0   12     -2.07      0.00 
   17    0   12     -1.01      0.00 
   18    0   12     -0.13      0.00 
   -9    1   12      0.70      0.00 
   -8    1   12      0.47      0.00 
   -7    1   12      0.70      0.00 
   -6    1   12      1.09      0.00 
   -5    1   12      0.75      0.00 
   -4    1   12     -0.32      0.00 
   -3    1   12     -1.15      0.00 
   -2    1   12     -0.85      0.00 
   -1    1   12      0.40      0.00 
    0    1   12      1.34      0.00 
    1    1   12      1.13      0.00 
    2    1   12      0.15      0.00 
    3    1   12     -0.24      0.00 
    4    1   12      1.20      0.00 
    5    1   12      3.99      0.00 
    6    1   12      5.73      0.00 
    7    1   12      4.92      0.00 
    8    1   12      2.44      0.00 
    9    1   12     -0.19      0.00 
   10    1   12     -1.98      0.00 
   11    1   12     -2.27      0.00 
   12    1   12     -1.14      0.00 
   13    1   12      0.32      0.00 
   14    1   12      1.06      0.00 
   15    1   12      0.83      0.00 
   16    1   12      0.12      0.00 
   17    1   12     -0.36      0.00 
   18    1   12     -0.21      0.00 
   -9    2   12     -0.26      0.00 
   -8    2   12     -0.13      0.00 
   -7    2   12     -0.42      0.00 
   -6    2   12     -0.30      0.00 
   -5    2   12      0.52      0.00 
   -4    2   12      1.27      0.00 
   -3    2   12      1.07      0.00 
   -2    2   12     -0.05      0.00 
   -1    2   12     -0.77      0.00 
    0    2   12      0.18      0.00 
    1    2   12      2.39      0.00 
    2    2   12      4.05      0.00 
    3    2   12      3.42      0.00 
    4    2   12      0.57      0.00 
    5    2   12     -2.31      0.00 
    6    2   12     -3.20      0.00 
    7    2   12     -2.31      0.00 
    8    2   12     -0.69      0.00 
    9    2   12      0.97      0.00 
   10    2   12      1.77      0.00 
   11    2   12      1.21      0.00 
   12    2   12      0.27      0.00 
   13    2   12      0.30      0.00 
   14    2   12      1.28      0.00 
   15    2   12      2.16      0.00 
   16    2   12      2.05      0.00 
   17    2   12      0.99      0.00 
   18    2   12     -0.09      0.00 
   -9    3   12     -0.35      0.00 
   -8    3   12     -0.33      0.00 
   -7    3   12     -0.24      0.00 
   -6    3   12     -0.59      0.00 
   -5    3   12     -1.05      0.00 
   -4    3   12     -0.91      0.00 
   -3    3   12     -0.03      0.00 
   -2    3   12      0.70      0.00 
   -1    3   12     -0.04      0.00 
    0    3   12     -2.24      0.00 
    1    3   12     -4.30      0.00 
    2    3   12     -4.65      0.00 
    3    3   12     -3.07      0.00 
    4    3   12     -0.97      0.00 
    5    3   12     -0.02      0.00 
    6    3   12     -0.30      0.00 
    7    3   12     -0.96      0.00 
    8    3   12     -1.66      0.00 
    9    3   12     -1.86      0.00 
   10    3   12     -0.86      0.00 
   11    3   12      0.60      0.00 
   12    3   12      0.92      0.00 
   13    3   12     -0.30      0.00 
   14    3   12     -1.92      0.00 
   15    3   12     -2.44      0.00 
   16    3   12     -1.46      0.00 
   17    3   12     -0.08      0.00 
   18    3   12      0.42      0.00 
   -9    4   12      0.41      0.00 
   -8    4   12      0.31      0.00 
   -7    4   12      0.47      0.00 
   -6    4   12      0.61      0.00 
   -5    4   12      0.24      0.00 
   -4    4   12     -0.54      0.00 
   -3    4   12     -1.00      0.00 
   -2    4   12     -0.31      0.00 
   -1    4   12      1.38      0.00 
    0    4   12      2.68      0.00 
    1    4   12      2.43      0.00 
    2    4   12      0.91      0.00 
    3    4   12     -0.49      0.00 
    4    4   12     -0.62      0.00 
    5    4   12      0.43      0.00 
    6    4   12      1.77      0.00 
    7    4   12      2.75      0.00 
    8    4   12      2.70      0.00 
    9    4   12      0.99      0.00 
   10    4   12     -1.47      0.00 
   11    4   12     -2.76      0.00 
   12    4   12     -2.21      0.00 
   13    4   12     -0.76      0.00 
   14    4   12      0.26      0.00 
   15    4   12      0.16      0.00 
   16    4   12     -0.51      0.00 
   17    4   12     -0.64      0.00 
   18    4   12     -0.15      0.00 
   -9    5   12     -0.13      0.00 
   -8    5   12     -0.05      0.00 
   -7    5   12     -0.16      0.00 
   -6    5   12      0.18      0.00 
   -5    5   12      1.01      0.00 
   -4    5   12      1.51      0.00 
   -3    5   12      1.04      0.00 
   -2    5   12     -0.10      0.00 
   -1    5   12     -0.71      0.00 
    0    5   12      0.10      0.00 
    1    5   12      1.82      0.00 
    2    5   12      3.09      0.00 
    3    5   12      2.99      0.00 
    4    5   12      1.68      0.00 
    5    5   12     -0.14      0.00 
    6    5   12     -1.74      0.00 
    7    5   12     -2.23      0.00 
    8    5   12     -0.71      0.00 
    9    5   12      1.96      0.00 
   10    5   12      3.45      0.00 
   11    5   12      2.86      0.00 
   12    5   12      1.48      0.00 
   13    5   12      0.74      0.00 
   14    5   12      0.97      0.00 
   15    5   12      1.43      0.00 
   16    5   12      1.11      0.00 
   17    5   12      0.16      0.00 
   18    5   12     -0.31      0.00 
   -9    6   12      0.26      0.00 
   -8    6   12      0.15      0.00 
   -7    6   12     -0.33      0.00 
   -6    6   12     -1.10      0.00 
   -5    6   12     -1.33      0.00 
   -4    6   12     -0.71      0.00 
   -3    6   12      0.03      0.00 
   -2    6   12     -0.08      0.00 
   -1    6   12     -1.37      0.00 
    0    6   12     -3.12      0.00 
    1    6   12     -4.08      0.00 
    2    6   12     -3.61      0.00 
    3    6   12     -2.11      0.00 
    4    6   12     -0.36      0.00 
    5    6   12      0.98      0.00 
    6    6   12      1.21      0.00 
    7    6   12     -0.32      0.00 
    8    6   12     -2.78      0.00 
    9    6   12     -3.84      0.00 
   10    6   12     -2.51      0.00 
   11    6   12     -0.33      0.00 
   12    6   12      0.85      0.00 
   13    6   12      0.51      0.00 
   14    6   12     -0.63      0.00 
   15    6   12     -1.08      0.00 
   16    6   12     -0.27      0.00 
   17    6   12      0.54      0.00 
   18    6   12      0.43      0.00 
   -9    7   12     -0.50      0.00 
   -8    7   12     -0.06      0.00 
   -7    7   12      0.96      0.00 
   -6    7   12      1.37      0.00 
   -5    7   12      0.42      0.00 
   -4    7   12     -0.81      0.00 
   -3    7   12     -0.95      0.00 
   -2    7   12      0.11      0.00 
   -1    7   12      1.58      0.00 
    0    7   12      2.57      0.00 
    1    7   12      2.45      0.00 
    2    7   12      1.22      0.00 
    3    7   12     -0.48      0.00 
    4    7   12     -1.70      0.00 
    5    7   12     -1.54      0.00 
    6    7   12      0.30      0.00 
    7    7   12      2.77      0.00 
    8    7   12      3.58      0.00 
    9    7   12      1.81      0.00 
   10    7   12     -0.73      0.00 
   11    7   12     -2.05      0.00 
   12    7   12     -1.91      0.00 
   13    7   12     -0.92      0.00 
   14    7   12      0.09      0.00 
   15    7   12      0.27      0.00 
   16    7   12     -0.09      0.00 
   17    7   12     -0.17      0.00 
   18    7   12     -0.09      0.00 
   -9    8   12      0.02      0.00 
   -8    8   12     -0.59      0.00 
   -7    8   12     -1.05      0.00 
   -6    8   12     -0.46      0.00 
   -5    8   12      0.61      0.00 
   -4    8   12      0.85      0.00 
   -3    8   12      0.26      0.00 
   -2    8   12     -0.25      0.00 
   -1    8   12     -0.28      0.00 
    0    8   12      0.03      0.00 
    1    8   12      0.70      0.00 
    2    8   12      1.65      0.00 
    3    8   12      2.21      0.00 
    4    8   12      1.58      0.00 
    5    8   12     -0.26      0.00 
    6    8   12     -2.19      0.00 
    7    8   12     -2.39      0.00 
    8    8   12     -0.24      0.00 
    9    8   12      2.36      0.00 
   10    8   12      3.15      0.00 
   11    8   12      2.21      0.00 
   12    8   12      0.89      0.00 
   13    8   12     -0.02      0.00 
   14    8   12     -0.31      0.00 
   15    8   12     -0.32      0.00 
   16    8   12     -0.64      0.00 
   17    8   12     -0.88      0.00 
   -8    9   12      0.68      0.00 
   -7    9   12      0.14      0.00 
   -6    9   12     -0.63      0.00 
   -5    9   12     -0.46      0.00 
   -4    9   12      0.61      0.00 
   -3    9   12      1.30      0.00 
   -2    9   12      0.96      0.00 
   -1    9   12     -0.04      0.00 
    0    9   12     -1.40      0.00 
    1    9   12     -2.82      0.00 
    2    9   12     -3.30      0.00 
    3    9   12     -1.96      0.00 
    4    9   12      0.58      0.00 
    5    9   12      2.46      0.00 
    6    9   12      2.13      0.00 
    7    9   12     -0.41      0.00 
    8    9   12     -3.22      0.00 
    9    9   12     -3.94      0.00 
   10    9   12     -2.43      0.00 
   11    9   12     -0.53      0.00 
   12    9   12      0.54      0.00 
   13    9   12      0.74      0.00 
   14    9   12      0.49      0.00 
   15    9   12      0.50      0.00 
   16    9   12      0.90      0.00 
   17    9   12      0.97      0.00 
   -8   10   12     -0.10      0.00 
   -7   10   12      0.45      0.00 
   -6   10   12      0.43      0.00 
   -5   10   12     -0.45      0.00 
   -4   10   12     -1.24      0.00 
   -3   10   12     -1.25      0.00 
   -2   10   12     -0.83      0.00 
   -1   10   12     -0.06      0.00 
    0   10   12      1.40      0.00 
    1   10   12      2.79      0.00 
    2   10   12      2.39      0.00 
    3   10   12      0.12      0.00 
    4   10   12     -1.93      0.00 
    5   10   12     -1.89      0.00 
    6   10   12      0.06      0.00 
    7   10   12      2.25      0.00 
    8   10   12      2.74      0.00 
    9   10   12      1.18      0.00 
   10   10   12     -0.70      0.00 
   11   10   12     -1.32      0.00 
   12   10   12     -0.91      0.00 
   13   10   12     -0.33      0.00 
   14   10   12      0.02      0.00 
   15   10   12      0.08      0.00 
   16   10   12      0.04      0.00 
   -8   11   12     -0.06      0.00 
   -7   11   12     -0.07      0.00 
   -6   11   12      0.25      0.00 
   -5   11   12      0.47      0.00 
   -4   11   12      0.11      0.00 
   -3   11   12     -0.37      0.00 
   -2   11   12     -0.40      0.00 
   -1   11   12     -0.39      0.00 
    0   11   12     -0.70      0.00 
    1   11   12     -0.56      0.00 
    2   11   12      0.62      0.00 
    3   11   12      1.72      0.00 
    4   11   12      1.28      0.00 
    5   11   12     -0.46      0.00 
    6   11   12     -1.94      0.00 
    7   11   12     -1.74      0.00 
    8   11   12      0.34      0.00 
    9   11   12      2.62      0.00 
   10   11   12      3.06      0.00 
   11   11   12      1.74      0.00 
   12   11   12      0.37      0.00 
   13   11   12     -0.26      0.00 
   14   11   12     -0.46      0.00 
   15   11   12     -0.58      0.00 
   16   11   12     -0.64      0.00 
   -7   12   12      0.00      0.00 
   -6   12   12      0.07      0.00 
   -5   12   12      0.44      0.00 
   -4   12   12      0.94      0.00 
   -3   12   12      1.11      0.00 
   -2   12   12      0.90      0.00 
   -1   12   12      0.41      0.00 
    0   12   12     -0.52      0.00 
    1   12   12     -1.87      0.00 
    2   12   12     -2.73      0.00 
    3   12   12     -2.01      0.00 
    4   12   12     -0.04      0.00 
    5   12   12      1.67      0.00 
    6   12   12      1.94      0.00 
    7   12   12      0.39      0.00 
    8   12   12     -2.07      0.00 
    9   12   12     -3.31      0.00 
   10   12   12     -2.37      0.00 
   11   12   12     -0.73      0.00 
   12   12   12      0.11      0.00 
   13   12   12      0.29      0.00 
   14   12   12      0.35      0.00 
   15   12   12      0.33      0.00 
   -6   13   12     -0.60      0.00 
   -5   13   12     -0.79      0.00 
   -4   13   12     -0.79      0.00 
   -3   13   12     -0.63      0.00 
   -2   13   12     -0.30      0.00 
   -1   13   12      0.37      0.00 
    0   13   12      1.41      0.00 
    1   13   12      2.30      0.00 
    2   13   12      2.13      0.00 
    3   13   12      0.69      0.00 
    4   13   12     -0.82      0.00 
    5   13   12     -1.25      0.00 
    6   13   12     -0.58      0.00 
    7   13   12      0.56      0.00 
    8   13   12      1.17      0.00 
    9   13   12      0.61      0.00 
   10   13   12     -0.32      0.00 
   11   13   12     -0.48      0.00 
   12   13   12     -0.18      0.00 
   13   13   12     -0.14      0.00 
   14   13   12     -0.19      0.00 
   15   13   12     -0.03      0.00 
   -6   14   12      0.30      0.00 
   -5   14   12      0.40      0.00 
   -4   14   12      0.41      0.00 
   -3   14   12      0.10      0.00 
   -2   14   12     -0.59      0.00 
   -1   14   12     -1.19      0.00 
    0   14   12     -1.28      0.00 
    1   14   12     -0.86      0.00 
    2   14   12      0.14      0.00 
    3   14   12      1.34      0.00 
    4   14   12      1.59      0.00 
    5   14   12      0.52      0.00 
    6   14   12     -0.82      0.00 
    7   14   12     -1.05      0.00 
    8   14   12      0.31      0.00 
    9   14   12      1.97      0.00 
   10   14   12      2.07      0.00 
   11   14   12      0.79      0.00 
   12   14   12     -0.15      0.00 
   13   14   12     -0.17      0.00 
   14   14   12      0.01      0.00 
   -5   15   12     -0.14      0.00 
   -4   15   12     -0.14      0.00 
   -3   15   12      0.44      0.00 
   -2   15   12      1.17      0.00 
   -1   15   12      1.10      0.00 
    0   15   12      0.20      0.00 
    1   15   12     -0.95      0.00 
    2   15   12     -2.08      0.00 
    3   15   12     -2.54      0.00 
    4   15   12     -1.64      0.00 
    5   15   12      0.13      0.00 
    6   15   12      1.43      0.00 
    7   15   12      1.21      0.00 
    8   15   12     -0.38      0.00 
    9   15   12     -1.67      0.00 
   10   15   12     -1.31      0.00 
   11   15   12     -0.08      0.00 
   12   15   12      0.59      0.00 
   13   15   12      0.55      0.00 
   -3   16   12     -0.56      0.00 
   -2   16   12     -0.53      0.00 
   -1   16   12      0.16      0.00 
    0   16   12      0.86      0.00 
    1   16   12      1.37      0.00 
    2   16   12      1.70      0.00 
    3   16   12      1.28      0.00 
    4   16   12      0.13      0.00 
    5   16   12     -0.80      0.00 
    6   16   12     -0.95      0.00 
    7   16   12     -0.49      0.00 
    8   16   12      0.02      0.00 
    9   16   12      0.02      0.00 
   10   16   12     -0.34      0.00 
   11   16   12     -0.46      0.00 
   12   16   12     -0.35      0.00 
   -2   17   12     -0.69      0.00 
   -1   17   12     -0.98      0.00 
    0   17   12     -0.48      0.00 
    1   17   12      0.14      0.00 
    2   17   12      0.55      0.00 
    3   17   12      1.04      0.00 
    4   17   12      1.22      0.00 
    5   17   12      0.53      0.00 
    6   17   12     -0.57      0.00 
    7   17   12     -1.12      0.00 
    8   17   12     -0.63      0.00 
    9   17   12      0.33      0.00 
   10   17   12      0.65      0.00 
    1   18   12     -1.14      0.00 
    2   18   12     -1.40      0.00 
    3   18   12     -1.35      0.00 
    4   18   12     -0.66      0.00 
    5   18   12      0.55      0.00 
    6   18   12      1.48      0.00 
    7   18   12      1.56      0.00 
    8   18   12      0.86      0.00 
    1  -10   13     -0.44      0.00 
    2  -10   13      0.32      0.00 
    3  -10   13      1.14      0.00 
    4  -10   13      1.09      0.00 
    5  -10   13      0.15      0.00 
    6  -10   13     -0.63      0.00 
    7  -10   13     -0.51      0.00 
    8  -10   13      0.08      0.00 
    9  -10   13      0.54      0.00 
   -1   -9   13      0.45      0.00 
    0   -9   13      0.71      0.00 
    1   -9   13      0.41      0.00 
    2   -9   13     -0.26      0.00 
    3   -9   13     -0.34      0.00 
    4   -9   13      0.49      0.00 
    5   -9   13      1.25      0.00 
    6   -9   13      0.82      0.00 
    7   -9   13     -0.58      0.00 
    8   -9   13     -1.83      0.00 
    9   -9   13     -2.21      0.00 
   10   -9   13     -1.73      0.00 
   11   -9   13     -0.72      0.00 
   -3   -8   13     -0.12      0.00 
   -2   -8   13     -0.15      0.00 
   -1   -8   13     -0.42      0.00 
    0   -8   13     -0.47      0.00 
    1   -8   13     -0.33      0.00 
    2   -8   13     -0.74      0.00 
    3   -8   13     -1.84      0.00 
    4   -8   13     -2.49      0.00 
    5   -8   13     -1.66      0.00 
    6   -8   13      0.34      0.00 
    7   -8   13      2.07      0.00 
    8   -8   13      2.42      0.00 
    9   -8   13      1.57      0.00 
   10   -8   13      0.38      0.00 
   11   -8   13     -0.36      0.00 
   12   -8   13     -0.33      0.00 
   -4   -7   13     -0.15      0.00 
   -3   -7   13     -0.17      0.00 
   -2   -7   13     -0.08      0.00 
   -1   -7   13     -0.23      0.00 
    0   -7   13     -0.52      0.00 
    1   -7   13      0.05      0.00 
    2   -7   13      1.76      0.00 
    3   -7   13      3.22      0.00 
    4   -7   13      2.89      0.00 
    5   -7   13      0.93      0.00 
    6   -7   13     -0.95      0.00 
    7   -7   13     -1.16      0.00 
    8   -7   13      0.13      0.00 
    9   -7   13      1.36      0.00 
   10   -7   13      1.43      0.00 
   11   -7   13      0.45      0.00 
   12   -7   13     -0.76      0.00 
   13   -7   13     -1.39      0.00 
   -5   -6   13     -0.55      0.00 
   -4   -6   13     -0.43      0.00 
   -3   -6   13     -0.10      0.00 
   -2   -6   13      0.54      0.00 
   -1   -6   13      1.44      0.00 
    0   -6   13      1.69      0.00 
    1   -6   13      0.52      0.00 
    2   -6   13     -1.18      0.00 
    3   -6   13     -1.83      0.00 
    4   -6   13     -1.13      0.00 
    5   -6   13     -0.35      0.00 
    6   -6   13     -0.90      0.00 
    7   -6   13     -2.66      0.00 
    8   -6   13     -3.99      0.00 
    9   -6   13     -3.52      0.00 
   10   -6   13     -1.58      0.00 
   11   -6   13      0.52      0.00 
   12   -6   13      1.75      0.00 
   13   -6   13      1.86      0.00 
   14   -6   13      1.28      0.00 
   -6   -5   13      0.81      0.00 
   -5   -5   13      1.09      0.00 
   -4   -5   13      0.83      0.00 
   -3   -5   13      0.13      0.00 
   -2   -5   13     -0.76      0.00 
   -1   -5   13     -1.39      0.00 
    0   -5   13     -1.34      0.00 
    1   -5   13     -0.97      0.00 
    2   -5   13     -1.15      0.00 
    3   -5   13     -1.83      0.00 
    4   -5   13     -1.77      0.00 
    5   -5   13      0.08      0.00 
    6   -5   13      3.12      0.00 
    7   -5   13      5.30      0.00 
    8   -5   13      5.01      0.00 
    9   -5   13      2.71      0.00 
   10   -5   13      0.18      0.00 
   11   -5   13     -1.30      0.00 
   12   -5   13     -1.49      0.00 
   13   -5   13     -0.80      0.00 
   14   -5   13      0.02      0.00 
   15   -5   13      0.46      0.00 
   -6   -4   13     -0.22      0.00 
   -5   -4   13     -0.03      0.00 
   -4   -4   13      0.34      0.00 
   -3   -4   13      0.48      0.00 
   -2   -4   13      0.20      0.00 
   -1   -4   13     -0.29      0.00 
    0   -4   13     -0.25      0.00 
    1   -4   13      1.06      0.00 
    2   -4   13      3.22      0.00 
    3   -4   13      4.45      0.00 
    4   -4   13      3.33      0.00 
    5   -4   13      0.34      0.00 
    6   -4   13     -2.36      0.00 
    7   -4   13     -2.90      0.00 
    8   -4   13     -1.39      0.00 
    9   -4   13      0.44      0.00 
   10   -4   13      1.21      0.00 
   11   -4   13      0.84      0.00 
   12   -4   13     -0.05      0.00 
   13   -4   13     -0.83      0.00 
   14   -4   13     -1.08      0.00 
   15   -4   13     -0.82      0.00 
   16   -4   13     -0.39      0.00 
   -7   -3   13     -0.27      0.00 
   -6   -3   13     -0.94      0.00 
   -5   -3   13     -1.68      0.00 
   -4   -3   13     -1.67      0.00 
   -3   -3   13     -0.70      0.00 
   -2   -3   13      0.66      0.00 
   -1   -3   13      1.54      0.00 
    0   -3   13      1.10      0.00 
    1   -3   13     -0.70      0.00 
    2   -3   13     -2.57      0.00 
    3   -3   13     -2.96      0.00 
    4   -3   13     -1.80      0.00 
    5   -3   13     -0.72      0.00 
    6   -3   13     -1.21      0.00 
    7   -3   13     -2.84      0.00 
    8   -3   13     -3.80      0.00 
    9   -3   13     -2.99      0.00 
   10   -3   13     -0.92      0.00 
   11   -3   13      1.16      0.00 
   12   -3   13      2.29      0.00 
   13   -3   13      2.17      0.00 
   14   -3   13      1.17      0.00 
   15   -3   13      0.15      0.00 
   16   -3   13     -0.39      0.00 
   -7   -2   13      0.46      0.00 
   -6   -2   13      1.32      0.00 
   -5   -2   13      1.79      0.00 
   -4   -2   13      1.15      0.00 
   -3   -2   13     -0.14      0.00 
   -2   -2   13     -1.15      0.00 
   -1   -2   13     -1.35      0.00 
    0   -2   13     -0.87      0.00 
    1   -2   13     -0.41      0.00 
    2   -2   13     -0.61      0.00 
    3   -2   13     -1.29      0.00 
    4   -2   13     -1.21      0.00 
    5   -2   13      0.74      0.00 
    6   -2   13      3.89      0.00 
    7   -2   13      5.95      0.00 
    8   -2   13      5.28      0.00 
    9   -2   13      2.44      0.00 
   10   -2   13     -0.73      0.00 
   11   -2   13     -2.74      0.00 
   12   -2   13     -3.00      0.00 
   13   -2   13     -1.85      0.00 
   14   -2   13     -0.32      0.00 
   15   -2   13      0.63      0.00 
   16   -2   13      0.78      0.00 
   17   -2   13      0.46      0.00 
   -8   -1   13     -0.09      0.00 
   -7   -1   13     -0.34      0.00 
   -6   -1   13     -0.60      0.00 
   -5   -1   13     -0.24      0.00 
   -4   -1   13      0.55      0.00 
   -3   -1   13      1.06      0.00 
   -2   -1   13      0.93      0.00 
   -1   -1   13      0.48      0.00 
    0   -1   13      0.54      0.00 
    1   -1   13      1.63      0.00 
    2   -1   13      3.26      0.00 
    3   -1   13      4.04      0.00 
    4   -1   13      2.82      0.00 
    5   -1   13     -0.04      0.00 
    6   -1   13     -2.53      0.00 
    7   -1   13     -3.03      0.00 
    8   -1   13     -1.73      0.00 
    9   -1   13      0.11      0.00 
   10   -1   13      1.45      0.00 
   11   -1   13      1.68      0.00 
   12   -1   13      0.84      0.00 
   13   -1   13     -0.24      0.00 
   14   -1   13     -0.63      0.00 
   15   -1   13     -0.26      0.00 
   16   -1   13      0.32      0.00 
   17   -1   13      0.62      0.00 
   -8    0   13     -0.22      0.00 
   -7    0   13     -0.05      0.00 
   -6    0   13     -0.38      0.00 
   -5    0   13     -1.09      0.00 
   -4    0   13     -1.31      0.00 
   -3    0   13     -0.76      0.00 
   -2    0   13      0.09      0.00 
   -1    0   13      0.44      0.00 
    0    0   13     -0.25      0.00 
    1    0   13     -1.72      0.00 
    2    0   13     -3.02      0.00 
    3    0   13     -3.15      0.00 
    4    0   13     -2.03      0.00 
    5    0   13     -1.01      0.00 
    6    0   13     -1.30      0.00 
    7    0   13     -2.23      0.00 
    8    0   13     -2.44      0.00 
    9    0   13     -1.76      0.00 
   10    0   13     -0.65      0.00 
   11    0   13      0.67      0.00 
   12    0   13      1.68      0.00 
   13    0   13      1.58      0.00 
   14    0   13      0.41      0.00 
   15    0   13     -0.91      0.00 
   16    0   13     -1.53      0.00 
   17    0   13     -1.18      0.00 
   -8    1   13      0.42      0.00 
   -7    1   13      0.39      0.00 
   -6    1   13      0.82      0.00 
   -5    1   13      1.03      0.00 
   -4    1   13      0.48      0.00 
   -3    1   13     -0.49      0.00 
   -2    1   13     -1.11      0.00 
   -1    1   13     -0.84      0.00 
    0    1   13      0.04      0.00 
    1    1   13      0.60      0.00 
    2    1   13      0.34      0.00 
    3    1   13     -0.43      0.00 
    4    1   13     -0.59      0.00 
    5    1   13      0.83      0.00 
    6    1   13      3.02      0.00 
    7    1   13      4.08      0.00 
    8    1   13      3.38      0.00 
    9    1   13      1.66      0.00 
   10    1   13     -0.35      0.00 
   11    1   13     -1.88      0.00 
   12    1   13     -2.11      0.00 
   13    1   13     -1.10      0.00 
   14    1   13      0.12      0.00 
   15    1   13      0.69      0.00 
   16    1   13      0.44      0.00 
   17    1   13     -0.17      0.00 
   -8    2   13     -0.08      0.00 
   -7    2   13     -0.24      0.00 
   -6    2   13     -0.42      0.00 
   -5    2   13     -0.01      0.00 
   -4    2   13      0.79      0.00 
   -3    2   13      1.34      0.00 
   -2    2   13      1.12      0.00 
   -1    2   13      0.28      0.00 
    0    2   13     -0.09      0.00 
    1    2   13      0.87      0.00 
    2    2   13      2.68      0.00 
    3    2   13      3.82      0.00 
    4    2   13      3.01      0.00 
    5    2   13      0.60      0.00 
    6    2   13     -1.56      0.00 
    7    2   13     -2.32      0.00 
    8    2   13     -1.85      0.00 
    9    2   13     -0.46      0.00 
   10    2   13      1.22      0.00 
   11    2   13      1.89      0.00 
   12    2   13      1.17      0.00 
   13    2   13      0.26      0.00 
   14    2   13      0.24      0.00 
   15    2   13      1.02      0.00 
   16    2   13      1.71      0.00 
   17    2   13      1.48      0.00 
   18    2   13      0.47      0.00 
   -8    3   13     -0.34      0.00 
   -7    3   13     -0.19      0.00 
   -6    3   13     -0.27      0.00 
   -5    3   13     -0.70      0.00 
   -4    3   13     -1.07      0.00 
   -3    3   13     -0.90      0.00 
   -2    3   13     -0.11      0.00 
   -1    3   13      0.48      0.00 
    0    3   13     -0.18      0.00 
    1    3   13     -1.97      0.00 
    2    3   13     -3.57      0.00 
    3    3   13     -3.76      0.00 
    4    3   13     -2.46      0.00 
    5    3   13     -0.80      0.00 
    6    3   13      0.18      0.00 
    7    3   13      0.41      0.00 
    8    3   13     -0.10      0.00 
    9    3   13     -1.19      0.00 
   10    3   13     -1.71      0.00 
   11    3   13     -0.84      0.00 
   12    3   13      0.48      0.00 
   13    3   13      0.77      0.00 
   14    3   13     -0.23      0.00 
   15    3   13     -1.48      0.00 
   16    3   13     -1.68      0.00 
   17    3   13     -0.69      0.00 
   18    3   13      0.29      0.00 
   -8    4   13      0.24      0.00 
   -7    4   13      0.20      0.00 
   -6    4   13      0.37      0.00 
   -5    4   13      0.40      0.00 
   -4    4   13      0.06      0.00 
   -3    4   13     -0.54      0.00 
   -2    4   13     -0.93      0.00 
   -1    4   13     -0.46      0.00 
    0    4   13      0.78      0.00 
    1    4   13      1.64      0.00 
    2    4   13      1.34      0.00 
    3    4   13      0.22      0.00 
    4    4   13     -0.76      0.00 
    5    4   13     -0.94      0.00 
    6    4   13     -0.42      0.00 
    7    4   13      0.55      0.00 
    8    4   13      1.62      0.00 
    9    4   13      1.79      0.00 
   10    4   13      0.40      0.00 
   11    4   13     -1.52      0.00 
   12    4   13     -2.39      0.00 
   13    4   13     -1.84      0.00 
   14    4   13     -0.62      0.00 
   15    4   13      0.09      0.00 
   16    4   13     -0.25      0.00 
   17    4   13     -0.77      0.00 
   18    4   13     -0.57      0.00 
   -8    5   13      0.08      0.00 
   -7    5   13      0.08      0.00 
   -6    5   13      0.05      0.00 
   -5    5   13      0.48      0.00 
   -4    5   13      1.15      0.00 
   -3    5   13      1.44      0.00 
   -2    5   13      1.03      0.00 
   -1    5   13      0.16      0.00 
    0    5   13     -0.19      0.00 
    1    5   13      0.62      0.00 
    2    5   13      2.06      0.00 
    3    5   13      3.05      0.00 
    4    5   13      2.99      0.00 
    5    5   13      1.92      0.00 
    6    5   13      0.19      0.00 
    7    5   13     -1.50      0.00 
    8    5   13     -1.83      0.00 
    9    5   13     -0.11      0.00 
   10    5   13      2.26      0.00 
   11    5   13      3.20      0.00 
   12    5   13      2.40      0.00 
   13    5   13      1.09      0.00 
   14    5   13      0.49      0.00 
   15    5   13      0.84      0.00 
   16    5   13      1.23      0.00 
   17    5   13      0.78      0.00 
   18    5   13      0.00      0.00 
   -8    6   13      0.11      0.00 
   -7    6   13     -0.06      0.00 
   -6    6   13     -0.59      0.00 
   -5    6   13     -1.20      0.00 
   -4    6   13     -1.22      0.00 
   -3    6   13     -0.69      0.00 
   -2    6   13     -0.17      0.00 
   -1    6   13     -0.25      0.00 
    0    6   13     -1.23      0.00 
    1    6   13     -2.63      0.00 
    2    6   13     -3.45      0.00 
    3    6   13     -3.17      0.00 
    4    6   13     -1.93      0.00 
    5    6   13     -0.14      0.00 
    6    6   13      1.52      0.00 
    7    6   13      1.87      0.00 
    8    6   13      0.17      0.00 
    9    6   13     -2.31      0.00 
   10    6   13     -3.24      0.00 
   11    6   13     -2.03      0.00 
   12    6   13     -0.05      0.00 
   13    6   13      1.09      0.00 
   14    6   13      0.67      0.00 
   15    6   13     -0.42      0.00 
   16    6   13     -0.60      0.00 
   17    6   13      0.13      0.00 
   18    6   13      0.49      0.00 
   -8    7   13     -0.42      0.00 
   -7    7   13      0.17      0.00 
   -6    7   13      1.11      0.00 
   -5    7   13      1.20      0.00 
   -4    7   13      0.28      0.00 
   -3    7   13     -0.56      0.00 
   -2    7   13     -0.61      0.00 
   -1    7   13      0.08      0.00 
    0    7   13      1.15      0.00 
    1    7   13      2.00      0.00 
    2    7   13      1.92      0.00 
    3    7   13      0.77      0.00 
    4    7   13     -0.92      0.00 
    5    7   13     -2.24      0.00 
    6    7   13     -2.18      0.00 
    7    7   13     -0.40      0.00 
    8    7   13      1.80      0.00 
    9    7   13      2.39      0.00 
   10    7   13      1.04      0.00 
   11    7   13     -0.81      0.00 
   12    7   13     -1.89      0.00 
   13    7   13     -1.82      0.00 
   14    7   13     -0.84      0.00 
   15    7   13     -0.01      0.00 
   16    7   13     -0.01      0.00 
   17    7   13     -0.25      0.00 
   -8    8   13     -0.01      0.00 
   -7    8   13     -0.64      0.00 
   -6    8   13     -0.93      0.00 
   -5    8   13     -0.32      0.00 
   -4    8   13      0.41      0.00 
   -3    8   13      0.48      0.00 
   -2    8   13      0.23      0.00 
   -1    8   13      0.06      0.00 
    0    8   13     -0.05      0.00 
    1    8   13      0.11      0.00 
    2    8   13      0.88      0.00 
    3    8   13      1.96      0.00 
    4    8   13      2.50      0.00 
    5    8   13      1.79      0.00 
    6    8   13     -0.05      0.00 
    7    8   13     -1.75      0.00 
    8    8   13     -1.68      0.00 
    9    8   13      0.26      0.00 
   10    8   13      2.18      0.00 
   11    8   13      2.58      0.00 
   12    8   13      1.70      0.00 
   13    8   13      0.49      0.00 
   14    8   13     -0.26      0.00 
   15    8   13     -0.32      0.00 
   16    8   13     -0.32      0.00 
   17    8   13     -0.58      0.00 
   -8    9   13      0.59      0.00 
   -7    9   13      0.58      0.00 
   -6    9   13     -0.05      0.00 
   -5    9   13     -0.57      0.00 
   -4    9   13     -0.19      0.00 
   -3    9   13      0.60      0.00 
   -2    9   13      0.93      0.00 
   -1    9   13      0.74      0.00 
    0    9   13      0.06      0.00 
    1    9   13     -1.28      0.00 
    2    9   13     -2.76      0.00 
    3    9   13     -3.06      0.00 
    4    9   13     -1.54      0.00 
    5    9   13      0.90      0.00 
    6    9   13      2.54      0.00 
    7    9   13      2.11      0.00 
    8    9   13     -0.19      0.00 
    9    9   13     -2.52      0.00 
   10    9   13     -3.07      0.00 
   11    9   13     -1.88      0.00 
   12    9   13     -0.26      0.00 
   13    9   13      0.79      0.00 
   14    9   13      0.93      0.00 
   15    9   13      0.64      0.00 
   16    9   13      0.69      0.00 
   17    9   13      0.91      0.00 
   -7   10   13     -0.11      0.00 
   -6   10   13      0.46      0.00 
   -5   10   13      0.42      0.00 
   -4   10   13     -0.23      0.00 
   -3   10   13     -0.76      0.00 
   -2   10   13     -1.03      0.00 
   -1   10   13     -1.07      0.00 
    0   10   13     -0.32      0.00 
    1   10   13      1.33      0.00 
    2   10   13      2.49      0.00 
    3   10   13      1.65      0.00 
    4   10   13     -0.63      0.00 
    5   10   13     -2.34      0.00 
    6   10   13     -2.21      0.00 
    7   10   13     -0.49      0.00 
    8   10   13      1.40      0.00 
    9   10   13      1.82      0.00 
   10   10   13      0.66      0.00 
   11   10   13     -0.62      0.00 
   12   10   13     -1.05      0.00 
   13   10   13     -0.83      0.00 
   14   10   13     -0.45      0.00 
   15   10   13     -0.22      0.00 
   16   10   13     -0.19      0.00 
   -7   11   13      0.06      0.00 
   -6   11   13     -0.01      0.00 
   -5   11   13      0.05      0.00 
   -4   11   13     -0.05      0.00 
   -3   11   13     -0.30      0.00 
   -2   11   13     -0.29      0.00 
   -1   11   13     -0.13      0.00 
    0   11   13     -0.37      0.00 
    1   11   13     -0.76      0.00 
    2   11   13     -0.30      0.00 
    3   11   13      1.11      0.00 
    4   11   13      2.09      0.00 
    5   11   13      1.57      0.00 
    6   11   13      0.00      0.00 
    7   11   13     -1.35      0.00 
    8   11   13     -1.20      0.00 
    9   11   13      0.62      0.00 
   10   11   13      2.41      0.00 
   11   11   13      2.53      0.00 
   12   11   13      1.40      0.00 
   13   11   13      0.33      0.00 
   14   11   13     -0.18      0.00 
   15   11   13     -0.35      0.00 
   16   11   13     -0.39      0.00 
   -6   12   13      0.08      0.00 
   -5   12   13      0.24      0.00 
   -4   12   13      0.57      0.00 
   -3   12   13      0.88      0.00 
   -2   12   13      1.03      0.00 
   -1   12   13      1.01      0.00 
    0   12   13      0.61      0.00 
    1   12   13     -0.42      0.00 
    2   12   13     -1.87      0.00 
    3   12   13     -2.71      0.00 
    4   12   13     -2.04      0.00 
    5   12   13     -0.22      0.00 
    6   12   13      1.55      0.00 
    7   12   13      2.01      0.00 
    8   12   13      0.52      0.00 
    9   12   13     -1.81      0.00 
   10   12   13     -2.82      0.00 
   11   12   13     -2.00      0.00 
   12   12   13     -0.78      0.00 
   13   12   13     -0.04      0.00 
   14   12   13      0.33      0.00 
   15   12   13      0.43      0.00 
   -5   13   13     -0.56      0.00 
   -4   13   13     -0.48      0.00 
   -3   13   13     -0.48      0.00 
   -2   13   13     -0.54      0.00 
   -1   13   13     -0.32      0.00 
    0   13   13      0.39      0.00 
    1   13   13      1.43      0.00 
    2   13   13      2.21      0.00 
    3   13   13      1.91      0.00 
    4   13   13      0.51      0.00 
    5   13   13     -0.94      0.00 
    6   13   13     -1.52      0.00 
    7   13   13     -0.97      0.00 
    8   13   13      0.23      0.00 
    9   13   13      0.87      0.00 
   10   13   13      0.42      0.00 
   11   13   13     -0.15      0.00 
   12   13   13     -0.16      0.00 
   13   13   13     -0.12      0.00 
   14   13   13     -0.25      0.00 
   15   13   13     -0.22      0.00 
   -5   14   13      0.22      0.00 
   -4   14   13      0.23      0.00 
   -3   14   13      0.28      0.00 
   -2   14   13     -0.06      0.00 
   -1   14   13     -0.77      0.00 
    0   14   13     -1.26      0.00 
    1   14   13     -1.30      0.00 
    2   14   13     -0.84      0.00 
    3   14   13      0.36      0.00 
    4   14   13      1.66      0.00 
    5   14   13      1.77      0.00 
    6   14   13      0.51      0.00 
    7   14   13     -0.90      0.00 
    8   14   13     -0.97      0.00 
    9   14   13      0.50      0.00 
   10   14   13      1.87      0.00 
   11   14   13      1.66      0.00 
   12   14   13      0.59      0.00 
   13   14   13     -0.02      0.00 
   14   14   13     -0.08      0.00 
   -4   15   13     -0.27      0.00 
   -3   15   13     -0.24      0.00 
   -2   15   13      0.45      0.00 
   -1   15   13      1.04      0.00 
    0   15   13      0.82      0.00 
    1   15   13      0.12      0.00 
    2   15   13     -0.87      0.00 
    3   15   13     -2.09      0.00 
    4   15   13     -2.56      0.00 
    5   15   13     -1.44      0.00 
    6   15   13      0.57      0.00 
    7   15   13      1.83      0.00 
    8   15   13      1.21      0.00 
    9   15   13     -0.66      0.00 
   10   15   13     -1.74      0.00 
   11   15   13     -1.19      0.00 
   12   15   13     -0.12      0.00 
   13   15   13      0.44      0.00 
   -2   16   13     -0.41      0.00 
   -1   16   13     -0.13      0.00 
    0   16   13      0.49      0.00 
    1   16   13      0.89      0.00 
    2   16   13      1.31      0.00 
    3   16   13      1.59      0.00 
    4   16   13      1.00      0.00 
    5   16   13     -0.17      0.00 
    6   16   13     -0.99      0.00 
    7   16   13     -1.01      0.00 
    8   16   13     -0.40      0.00 
    9   16   13      0.14      0.00 
   10   16   13      0.08      0.00 
   11   16   13     -0.24      0.00 
   -1   17   13     -0.92      0.00 
    0   17   13     -1.02      0.00 
    1   17   13     -0.50      0.00 
    2   17   13     -0.05      0.00 
    3   17   13      0.46      0.00 
    4   17   13      1.13      0.00 
    5   17   13      1.19      0.00 
    6   17   13      0.33      0.00 
    7   17   13     -0.72      0.00 
    8   17   13     -0.98      0.00 
    9   17   13     -0.22      0.00 
   10   17   13      0.65      0.00 
    2   18   13     -0.87      0.00 
    3   18   13     -1.21      0.00 
    4   18   13     -1.22      0.00 
    5   18   13     -0.47      0.00 
    6   18   13      0.69      0.00 
    7   18   13      1.45      0.00 
    1   -9   14      0.75      0.00 
    2   -9   14      0.39      0.00 
    3   -9   14     -0.18      0.00 
    4   -9   14     -0.14      0.00 
    5   -9   14      0.57      0.00 
    6   -9   14      1.12      0.00 
    7   -9   14      0.77      0.00 
    8   -9   14     -0.21      0.00 
    9   -9   14     -0.99      0.00 
   -1   -8   14     -0.33      0.00 
    0   -8   14     -0.59      0.00 
    1   -8   14     -0.48      0.00 
    2   -8   14     -0.27      0.00 
    3   -8   14     -0.65      0.00 
    4   -8   14     -1.48      0.00 
    5   -8   14     -1.86      0.00 
    6   -8   14     -1.14      0.00 
    7   -8   14      0.31      0.00 
    8   -8   14      1.40      0.00 
    9   -8   14      1.46      0.00 
   10   -8   14      0.84      0.00 
   11   -8   14      0.23      0.00 
   -2   -7   14      0.07      0.00 
   -1   -7   14      0.13      0.00 
    0   -7   14     -0.18      0.00 
    1   -7   14     -0.48      0.00 
    2   -7   14      0.18      0.00 
    3   -7   14      1.70      0.00 
    4   -7   14      2.73      0.00 
    5   -7   14      2.19      0.00 
    6   -7   14      0.49      0.00 
    7   -7   14     -0.83      0.00 
    8   -7   14     -0.66      0.00 
    9   -7   14      0.41      0.00 
   10   -7   14      1.01      0.00 
   11   -7   14      0.70      0.00 
   12   -7   14     -0.08      0.00 
   -3   -6   14     -0.53      0.00 
   -2   -6   14     -0.09      0.00 
   -1   -6   14      0.70      0.00 
    0   -6   14      1.55      0.00 
    1   -6   14      1.52      0.00 
    2   -6   14      0.23      0.00 
    3   -6   14     -1.28      0.00 
    4   -6   14     -1.72      0.00 
    5   -6   14     -1.02      0.00 
    6   -6   14     -0.41      0.00 
    7   -6   14     -1.04      0.00 
    8   -6   14     -2.50      0.00 
    9   -6   14     -3.21      0.00 
   10   -6   14     -2.42      0.00 
   11   -6   14     -0.87      0.00 
   12   -6   14      0.44      0.00 
   13   -6   14      1.08      0.00 
   14   -6   14      1.06      0.00 
   -4   -5   14      1.02      0.00 
   -3   -5   14      0.57      0.00 
   -2   -5   14     -0.25      0.00 
   -1   -5   14     -1.09      0.00 
    0   -5   14     -1.50      0.00 
    1   -5   14     -1.23      0.00 
    2   -5   14     -0.82      0.00 
    3   -5   14     -0.99      0.00 
    4   -5   14     -1.53      0.00 
    5   -5   14     -1.31      0.00 
    6   -5   14      0.44      0.00 
    7   -5   14      2.95      0.00 
    8   -5   14      4.37      0.00 
    9   -5   14      3.74      0.00 
   10   -5   14      1.93      0.00 
   11   -5   14      0.25      0.00 
   12   -5   14     -0.66      0.00 
   13   -5   14     -0.74      0.00 
   14   -5   14     -0.31      0.00 
   -5   -4   14      0.00      0.00 
   -4   -4   14      0.40      0.00 
   -3   -4   14      0.78      0.00 
   -2   -4   14      0.71      0.00 
   -1   -4   14      0.18      0.00 
    0   -4   14     -0.39      0.00 
    1   -4   14     -0.27      0.00 
    2   -4   14      1.05      0.00 
    3   -4   14      3.01      0.00 
    4   -4   14      4.02      0.00 
    5   -4   14      2.92      0.00 
    6   -4   14      0.30      0.00 
    7   -4   14     -1.80      0.00 
    8   -4   14     -2.01      0.00 
    9   -4   14     -0.87      0.00 
   10   -4   14      0.25      0.00 
   11   -4   14      0.69      0.00 
   12   -4   14      0.49      0.00 
   13   -4   14     -0.06      0.00 
   14   -4   14     -0.52      0.00 
   15   -4   14     -0.60      0.00 
   -5   -3   14     -1.34      0.00 
   -4   -3   14     -2.05      0.00 
   -3   -3   14     -1.73      0.00 
   -2   -3   14     -0.47      0.00 
   -1   -3   14      1.02      0.00 
    0   -3   14      1.82      0.00 
    1   -3   14      1.25      0.00 
    2   -3   14     -0.56      0.00 
    3   -3   14     -2.33      0.00 
    4   -3   14     -2.71      0.00 
    5   -3   14     -1.77      0.00 
    6   -3   14     -1.02      0.00 
    7   -3   14     -1.52      0.00 
    8   -3   14     -2.61      0.00 
    9   -3   14     -2.97      0.00 
   10   -3   14     -2.12      0.00 
   11   -3   14     -0.59      0.00 
   12   -3   14      0.88      0.00 
   13   -3   14      1.65      0.00 
   14   -3   14      1.48      0.00 
   15   -3   14      0.81      0.00 
   16   -3   14      0.24      0.00 
   -6   -2   14      0.58      0.00 
   -5   -2   14      1.46      0.00 
   -4   -2   14      1.62      0.00 
   -3   -2   14      0.75      0.00 
   -2   -2   14     -0.51      0.00 
   -1   -2   14     -1.42      0.00 
    0   -2   14     -1.61      0.00 
    1   -2   14     -1.16      0.00 
    2   -2   14     -0.63      0.00 
    3   -2   14     -0.68      0.00 
    4   -2   14     -1.19      0.00 
    5   -2   14     -0.97      0.00 
    6   -2   14      0.91      0.00 
    7   -2   14      3.50      0.00 
    8   -2   14      4.84      0.00 
    9   -2   14      4.03      0.00 
   10   -2   14      1.73      0.00 
   11   -2   14     -0.86      0.00 
   12   -2   14     -2.56      0.00 
   13   -2   14     -2.74      0.00 
   14   -2   14     -1.73      0.00 
   15   -2   14     -0.54      0.00 
   16   -2   14      0.18      0.00 
   -6   -1   14     -0.43      0.00 
   -5   -1   14     -0.39      0.00 
   -4   -1   14      0.23      0.00 
   -3   -1   14      0.94      0.00 
   -2   -1   14      1.24      0.00 
   -1   -1   14      1.04      0.00 
    0   -1   14      0.69      0.00 
    1   -1   14      0.75      0.00 
    2   -1   14      1.62      0.00 
    3   -1   14      2.91      0.00 
    4   -1   14      3.48      0.00 
    5   -1   14      2.30      0.00 
    6   -1   14     -0.13      0.00 
    7   -1   14     -2.08      0.00 
    8   -1   14     -2.47      0.00 
    9   -1   14     -1.50      0.00 
   10   -1   14      0.17      0.00 
   11   -1   14      1.68      0.00 
   12   -1   14      2.06      0.00 
   13   -1   14      1.26      0.00 
   14   -1   14      0.19      0.00 
   15   -1   14     -0.33      0.00 
   16   -1   14     -0.25      0.00 
   17   -1   14      0.08      0.00 
   -7    0   14      0.09      0.00 
   -6    0   14      0.07      0.00 
   -5    0   14     -0.61      0.00 
   -4    0   14     -1.29      0.00 
   -3    0   14     -1.32      0.00 
   -2    0   14     -0.73      0.00 
   -1    0   14      0.01      0.00 
    0    0   14      0.34      0.00 
    1    0   14     -0.14      0.00 
    2    0   14     -1.27      0.00 
    3    0   14     -2.28      0.00 
    4    0   14     -2.28      0.00 
    5    0   14     -1.37      0.00 
    6    0   14     -0.78      0.00 
    7    0   14     -1.06      0.00 
    8    0   14     -1.46      0.00 
    9    0   14     -1.51      0.00 
   10    0   14     -1.38      0.00 
   11    0   14     -0.84      0.00 
   12    0   14      0.28      0.00 
   13    0   14      1.27      0.00 
   14    0   14      1.34      0.00 
   15    0   14      0.57      0.00 
   16    0   14     -0.36      0.00 
   17    0   14     -0.80      0.00 
   -7    1   14      0.12      0.00 
   -6    1   14      0.33      0.00 
   -5    1   14      0.75      0.00 
   -4    1   14      0.73      0.00 
   -3    1   14      0.15      0.00 
   -2    1   14     -0.66      0.00 
   -1    1   14     -1.20      0.00 
    0    1   14     -1.08      0.00 
    1    1   14     -0.51      0.00 
    2    1   14     -0.12      0.00 
    3    1   14     -0.33      0.00 
    4    1   14     -0.88      0.00 
    5    1   14     -0.75      0.00 
    6    1   14      0.62      0.00 
    7    1   14      2.20      0.00 
    8    1   14      2.79      0.00 
    9    1   14      2.39      0.00 
   10    1   14      1.27      0.00 
   11    1   14     -0.42      0.00 
   12    1   14     -1.79      0.00 
   13    1   14     -1.94      0.00 
   14    1   14     -1.08      0.00 
   15    1   14     -0.09      0.00 
   16    1   14      0.38      0.00 
   17    1   14      0.17      0.00 
   -7    2   14     -0.08      0.00 
   -6    2   14     -0.28      0.00 
   -5    2   14     -0.14      0.00 
   -4    2   14      0.43      0.00 
   -3    2   14      1.09      0.00 
   -2    2   14      1.53      0.00 
   -1    2   14      1.36      0.00 
    0    2   14      0.71      0.00 
    1    2   14      0.46      0.00 
    2    2   14      1.25      0.00 
    3    2   14      2.61      0.00 
    4    2   14      3.32      0.00 
    5    2   14      2.48      0.00 
    6    2   14      0.64      0.00 
    7    2   14     -0.94      0.00 
    8    2   14     -1.77      0.00 
    9    2   14     -1.62      0.00 
   10    2   14     -0.27      0.00 
   11    2   14      1.37      0.00 
   12    2   14      1.82      0.00 
   13    2   14      1.01      0.00 
   14    2   14      0.17      0.00 
   15    2   14      0.11      0.00 
   16    2   14      0.72      0.00 
   17    2   14      1.21      0.00 
   -7    3   14     -0.14      0.00 
   -6    3   14     -0.07      0.00 
   -5    3   14     -0.34      0.00 
   -4    3   14     -0.77      0.00 
   -3    3   14     -1.10      0.00 
   -2    3   14     -0.94      0.00 
   -1    3   14     -0.17      0.00 
    0    3   14      0.44      0.00 
    1    3   14     -0.04      0.00 
    2    3   14     -1.43      0.00 
    3    3   14     -2.67      0.00 
    4    3   14     -2.84      0.00 
    5    3   14     -1.95      0.00 
    6    3   14     -0.73      0.00 
    7    3   14      0.34      0.00 
    8    3   14      0.90      0.00 
    9    3   14      0.32      0.00 
   10    3   14     -1.04      0.00 
   11    3   14     -1.62      0.00 
   12    3   14     -0.77      0.00 
   13    3   14      0.39      0.00 
   14    3   14      0.61      0.00 
   15    3   14     -0.22      0.00 
   16    3   14     -1.11      0.00 
   17    3   14     -1.04      0.00 
   -7    4   14      0.00      0.00 
   -6    4   14     -0.02      0.00 
   -5    4   14      0.04      0.00 
   -4    4   14      0.04      0.00 
   -3    4   14     -0.12      0.00 
   -2    4   14     -0.58      0.00 
   -1    4   14     -1.07      0.00 
    0    4   14     -0.85      0.00 
    1    4   14      0.01      0.00 
    2    4   14      0.63      0.00 
    3    4   14      0.49      0.00 
    4    4   14     -0.16      0.00 
    5    4   14     -0.80      0.00 
    6    4   14     -1.10      0.00 
    7    4   14     -0.94      0.00 
    8    4   14     -0.10      0.00 
    9    4   14      1.06      0.00 
   10    4   14      1.30      0.00 
   11    4   14      0.14      0.00 
   12    4   14     -1.35      0.00 
   13    4   14     -1.89      0.00 
   14    4   14     -1.27      0.00 
   15    4   14     -0.26      0.00 
   16    4   14      0.05      0.00 
   17    4   14     -0.42      0.00 
   -7    5   14      0.34      0.00 
   -6    5   14      0.39      0.00 
   -5    5   14      0.51      0.00 
   -4    5   14      0.86      0.00 
   -3    5   14      1.24      0.00 
   -2    5   14      1.43      0.00 
   -1    5   14      1.14      0.00 
    0    5   14      0.48      0.00 
    1    5   14      0.23      0.00 
    2    5   14      0.86      0.00 
    3    5   14      1.93      0.00 
    4    5   14      2.71      0.00 
    5    5   14      2.77      0.00 
    6    5   14      1.90      0.00 
    7    5   14      0.19      0.00 
    8    5   14     -1.47      0.00 
    9    5   14     -1.56      0.00 
   10    5   14      0.26      0.00 
   11    5   14      2.27      0.00 
   12    5   14      2.78      0.00 
   13    5   14      1.83      0.00 
   14    5   14      0.63      0.00 
   15    5   14      0.26      0.00 
   16    5   14      0.73      0.00 
   17    5   14      0.95      0.00 
   -7    6   14     -0.12      0.00 
   -6    6   14     -0.35      0.00 
   -5    6   14     -0.82      0.00 
   -4    6   14     -1.16      0.00 
   -3    6   14     -1.09      0.00 
   -2    6   14     -0.73      0.00 
   -1    6   14     -0.29      0.00 
    0    6   14     -0.20      0.00 
    1    6   14     -0.86      0.00 
    2    6   14     -1.95      0.00 
    3    6   14     -2.71      0.00 
    4    6   14     -2.65      0.00 
    5    6   14     -1.64      0.00 
    6    6   14      0.19      0.00 
    7    6   14      2.01      0.00 
    8    6   14      2.28      0.00 
    9    6   14      0.44      0.00 
   10    6   14     -1.94      0.00 
   11    6   14     -2.75      0.00 
   12    6   14     -1.60      0.00 
   13    6   14      0.22      0.00 
   14    6   14      1.07      0.00 
   15    6   14      0.46      0.00 
   16    6   14     -0.36      0.00 
   17    6   14     -0.24      0.00 
   -7    7   14     -0.32      0.00 
   -6    7   14      0.29      0.00 
   -5    7   14      0.95      0.00 
   -4    7   14      0.83      0.00 
   -3    7   14      0.20      0.00 
   -2    7   14     -0.31      0.00 
   -1    7   14     -0.49      0.00 
    0    7   14     -0.17      0.00 
    1    7   14      0.68      0.00 
    2    7   14      1.46      0.00 
    3    7   14      1.44      0.00 
    4    7   14      0.41      0.00 
    5    7   14     -1.21      0.00 
    6    7   14     -2.53      0.00 
    7    7   14     -2.46      0.00 
    8    7   14     -0.80      0.00 
    9    7   14      1.08      0.00 
   10    7   14      1.57      0.00 
   11    7   14      0.58      0.00 
   12    7   14     -0.86      0.00 
   13    7   14     -1.72      0.00 
   14    7   14     -1.44      0.00 
   15    7   14     -0.52      0.00 
   16    7   14     -0.06      0.00 
   17    7   14     -0.19      0.00 
   -7    8   14      0.09      0.00 
   -6    8   14     -0.45      0.00 
   -5    8   14     -0.61      0.00 
   -4    8   14     -0.20      0.00 
   -3    8   14      0.16      0.00 
   -2    8   14      0.31      0.00 
   -1    8   14      0.42      0.00 
    0    8   14      0.32      0.00 
    1    8   14      0.04      0.00 
    2    8   14      0.15      0.00 
    3    8   14      0.96      0.00 
    4    8   14      2.03      0.00 
    5    8   14      2.51      0.00 
    6    8   14      1.75      0.00 
    7    8   14     -0.02      0.00 
    8    8   14     -1.47      0.00 
    9    8   14     -1.21      0.00 
   10    8   14      0.48      0.00 
   11    8   14      1.93      0.00 
   12    8   14      2.06      0.00 
   13    8   14      1.13      0.00 
   14    8   14      0.06      0.00 
   15    8   14     -0.35      0.00 
   16    8   14     -0.22      0.00 
   17    8   14     -0.25      0.00 
   -7    9   14      0.41      0.00 
   -6    9   14      0.31      0.00 
   -5    9   14     -0.15      0.00 
   -4    9   14     -0.33      0.00 
   -3    9   14      0.00      0.00 
   -2    9   14      0.35      0.00 
   -1    9   14      0.53      0.00 
    0    9   14      0.61      0.00 
    1    9   14      0.11      0.00 
    2    9   14     -1.22      0.00 
    3    9   14     -2.56      0.00 
    4    9   14     -2.64      0.00 
    5    9   14     -1.11      0.00 
    6    9   14      1.11      0.00 
    7    9   14      2.54      0.00 
    8    9   14      2.11      0.00 
    9    9   14      0.07      0.00 
   10    9   14     -1.89      0.00 
   11    9   14     -2.30      0.00 
   12    9   14     -1.24      0.00 
   13    9   14      0.23      0.00 
   14    9   14      1.02      0.00 
   15    9   14      0.88      0.00 
   16    9   14      0.58      0.00 
   17    9   14      0.64      0.00 
   -6   10   14     -0.10      0.00 
   -5   10   14      0.37      0.00 
   -4   10   14      0.41      0.00 
   -3   10   14      0.09      0.00 
   -2   10   14     -0.38      0.00 
   -1   10   14     -0.99      0.00 
    0   10   14     -1.24      0.00 
    1   10   14     -0.39      0.00 
    2   10   14      1.22      0.00 
    3   10   14      2.01      0.00 
    4   10   14      0.97      0.00 
    5   10   14     -1.10      0.00 
    6   10   14     -2.56      0.00 
    7   10   14     -2.41      0.00 
    8   10   14     -0.82      0.00 
    9   10   14      0.85      0.00 
   10   10   14      1.16      0.00 
   11   10   14      0.24      0.00 
   12   10   14     -0.70      0.00 
   13   10   14     -1.00      0.00 
   14   10   14     -0.82      0.00 
   15   10   14     -0.50      0.00 
   16   10   14     -0.32      0.00 
   -6   11   14      0.20      0.00 
   -5   11   14     -0.05      0.00 
   -4   11   14     -0.30      0.00 
   -3   11   14     -0.47      0.00 
   -2   11   14     -0.35      0.00 
   -1   11   14      0.00      0.00 
    0   11   14      0.09      0.00 
    1   11   14     -0.34      0.00 
    2   11   14     -0.66      0.00 
    3   11   14      0.01      0.00 
    4   11   14      1.41      0.00 
    5   11   14      2.27      0.00 
    6   11   14      1.78      0.00 
    7   11   14      0.27      0.00 
    8   11   14     -1.09      0.00 
    9   11   14     -0.93      0.00 
   10   11   14      0.70      0.00 
   11   11   14      2.05      0.00 
   12   11   14      1.95      0.00 
   13   11   14      1.04      0.00 
   14   11   14      0.25      0.00 
   15   11   14     -0.12      0.00 
   16   11   14     -0.20      0.00 
   -5   12   14      0.22      0.00 
   -4   12   14      0.38      0.00 
   -3   12   14      0.49      0.00 
   -2   12   14      0.65      0.00 
   -1   12   14      0.90      0.00 
    0   12   14      1.02      0.00 
    1   12   14      0.70      0.00 
    2   12   14     -0.29      0.00 
    3   12   14     -1.71      0.00 
    4   12   14     -2.58      0.00 
    5   12   14     -2.01      0.00 
    6   12   14     -0.22      0.00 
    7   12   14      1.63      0.00 
    8   12   14      2.06      0.00 
    9   12   14      0.52      0.00 
   10   12   14     -1.50      0.00 
   11   12   14     -2.15      0.00 
   12   12   14     -1.50      0.00 
   13   12   14     -0.63      0.00 
   14   12   14      0.02      0.00 
   15   12   14      0.34      0.00 
   -5   13   14     -0.58      0.00 
   -4   13   14     -0.29      0.00 
   -3   13   14     -0.09      0.00 
   -2   13   14     -0.27      0.00 
   -1   13   14     -0.49      0.00 
    0   13   14     -0.30      0.00 
    1   13   14      0.33      0.00 
    2   13   14      1.25      0.00 
    3   13   14      1.98      0.00 
    4   13   14      1.69      0.00 
    5   13   14      0.33      0.00 
    6   13   14     -1.15      0.00 
    7   13   14     -1.74      0.00 
    8   13   14     -1.05      0.00 
    9   13   14      0.18      0.00 
   10   13   14      0.64      0.00 
   11   13   14      0.28      0.00 
   12   13   14      0.02      0.00 
   13   13   14     -0.02      0.00 
   14   13   14     -0.17      0.00 
   -4   14   14     -0.01      0.00 
   -3   14   14      0.09      0.00 
   -2   14   14      0.17      0.00 
   -1   14   14     -0.26      0.00 
    0   14   14     -0.87      0.00 
    1   14   14     -1.20      0.00 
    2   14   14     -1.31      0.00 
    3   14   14     -0.86      0.00 
    4   14   14      0.50      0.00 
    5   14   14      1.79      0.00 
    6   14   14      1.67      0.00 
    7   14   14      0.23      0.00 
    8   14   14     -1.07      0.00 
    9   14   14     -0.87      0.00 
   10   14   14      0.53      0.00 
   11   14   14      1.43      0.00 
   12   14   14      1.11      0.00 
   13   14   14      0.44      0.00 
   -3   15   14     -0.43      0.00 
   -2   15   14     -0.24      0.00 
   -1   15   14      0.46      0.00 
    0   15   14      0.78      0.00 
    1   15   14      0.62      0.00 
    2   15   14      0.27      0.00 
    3   15   14     -0.64      0.00 
    4   15   14     -1.95      0.00 
    5   15   14     -2.23      0.00 
    6   15   14     -0.85      0.00 
    7   15   14      1.12      0.00 
    8   15   14      1.97      0.00 
    9   15   14      0.94      0.00 
   10   15   14     -0.77      0.00 
   11   15   14     -1.45      0.00 
   12   15   14     -0.93      0.00 
   -1   16   14     -0.16      0.00 
    0   16   14      0.27      0.00 
    1   16   14      0.58      0.00 
    2   16   14      0.70      0.00 
    3   16   14      1.10      0.00 
    4   16   14      1.23      0.00 
    5   16   14      0.50      0.00 
    6   16   14     -0.53      0.00 
    7   16   14     -1.06      0.00 
    8   16   14     -0.84      0.00 
    9   16   14     -0.18      0.00 
   10   16   14      0.23      0.00 
   11   16   14      0.13      0.00 
    1   17   14     -0.85      0.00 
    2   17   14     -0.48      0.00 
    3   17   14     -0.15      0.00 
    4   17   14      0.50      0.00 
    5   17   14      1.15      0.00 
    6   17   14      0.95      0.00 
    7   17   14     -0.01      0.00 
    8   17   14     -0.81      0.00 
    9   17   14     -0.70      0.00 
    2   -8   15     -0.36      0.00 
    3   -8   15     -0.18      0.00 
    4   -8   15     -0.44      0.00 
    5   -8   15     -0.94      0.00 
    6   -8   15     -1.12      0.00 
    7   -8   15     -0.59      0.00 
    8   -8   15      0.32      0.00 
    9   -8   15      0.82      0.00 
    0   -7   15      0.18      0.00 
    1   -7   15     -0.19      0.00 
    2   -7   15     -0.38      0.00 
    3   -7   15      0.32      0.00 
    4   -7   15      1.52      0.00 
    5   -7   15      2.10      0.00 
    6   -7   15      1.43      0.00 
    7   -7   15      0.09      0.00 
    8   -7   15     -0.59      0.00 
    9   -7   15     -0.14      0.00 
   10   -7   15      0.52      0.00 
   11   -7   15      0.56      0.00 
   -1   -6   15     -0.03      0.00 
    0   -6   15      0.73      0.00 
    1   -6   15      1.37      0.00 
    2   -6   15      1.10      0.00 
    3   -6   15     -0.13      0.00 
    4   -6   15     -1.31      0.00 
    5   -6   15     -1.49      0.00 
    6   -6   15     -0.83      0.00 
    7   -6   15     -0.49      0.00 
    8   -6   15     -1.22      0.00 
    9   -6   15     -2.22      0.00 
   10   -6   15     -2.27      0.00 
   11   -6   15     -1.39      0.00 
   12   -6   15     -0.41      0.00 
   -3   -5   15      0.86      0.00 
   -2   -5   15      0.32      0.00 
   -1   -5   15     -0.47      0.00 
    0   -5   15     -1.13      0.00 
    1   -5   15     -1.30      0.00 
    2   -5   15     -0.94      0.00 
    3   -5   15     -0.62      0.00 
    4   -5   15     -0.87      0.00 
    5   -5   15     -1.31      0.00 
    6   -5   15     -0.91      0.00 
    7   -5   15      0.73      0.00 
    8   -5   15      2.58      0.00 
    9   -5   15      3.22      0.00 
   10   -5   15      2.49      0.00 
   11   -5   15      1.33      0.00 
   12   -5   15      0.43      0.00 
   13   -5   15     -0.03      0.00 
   14   -5   15     -0.04      0.00 
   -3   -4   15      0.64      0.00 
   -2   -4   15      0.94      0.00 
   -1   -4   15      0.72      0.00 
    0   -4   15      0.11      0.00 
    1   -4   15     -0.45      0.00 
    2   -4   15     -0.27      0.00 
    3   -4   15      1.04      0.00 
    4   -4   15      2.83      0.00 
    5   -4   15      3.59      0.00 
    6   -4   15      2.48      0.00 
    7   -4   15      0.38      0.00 
    8   -4   15     -1.02      0.00 
    9   -4   15     -1.10      0.00 
   10   -4   15     -0.55      0.00 
   11   -4   15     -0.07      0.00 
   12   -4   15      0.15      0.00 
   13   -4   15      0.08      0.00 
   14   -4   15     -0.17      0.00 
   -4   -3   15     -1.54      0.00 
   -3   -3   15     -2.08      0.00 
   -2   -3   15     -1.56      0.00 
   -1   -3   15     -0.23      0.00 
    0   -3   15      1.16      0.00 
    1   -3   15      1.83      0.00 
    2   -3   15      1.18      0.00 
    3   -3   15     -0.55      0.00 
    4   -3   15     -2.13      0.00 
    5   -3   15     -2.42      0.00 
    6   -3   15     -1.77      0.00 
    7   -3   15     -1.43      0.00 
    8   -3   15     -1.81      0.00 
    9   -3   15     -2.22      0.00 
   10   -3   15     -2.06      0.00 
   11   -3   15     -1.34      0.00 
   12   -3   15     -0.33      0.00 
   13   -3   15      0.60      0.00 
   14   -3   15      0.99      0.00 
   15   -3   15      0.80      0.00 
   -5   -2   15      0.70      0.00 
   -4   -2   15      1.41      0.00 
   -3   -2   15      1.32      0.00 
   -2   -2   15      0.42      0.00 
   -1   -2   15     -0.71      0.00 
    0   -2   15     -1.47      0.00 
    1   -2   15     -1.56      0.00 
    2   -2   15     -1.03      0.00 
    3   -2   15     -0.49      0.00 
    4   -2   15     -0.62      0.00 
    5   -2   15     -1.08      0.00 
    6   -2   15     -0.64      0.00 
    7   -2   15      1.08      0.00 
    8   -2   15      2.94      0.00 
    9   -2   15      3.65      0.00 
   10   -2   15      2.97      0.00 
   11   -2   15      1.25      0.00 
   12   -2   15     -0.76      0.00 
   13   -2   15     -2.05      0.00 
   14   -2   15     -2.09      0.00 
   15   -2   15     -1.34      0.00 
   16   -2   15     -0.53      0.00 
   -5   -1   15     -0.41      0.00 
   -4   -1   15     -0.10      0.00 
   -3   -1   15      0.58      0.00 
   -2   -1   15      1.14      0.00 
   -1   -1   15      1.30      0.00 
    0   -1   15      1.02      0.00 
    1   -1   15      0.56      0.00 
    2   -1   15      0.48      0.00 
    3   -1   15      1.21      0.00 
    4   -1   15      2.44      0.00 
    5   -1   15      2.95      0.00 
    6   -1   15      1.92      0.00 
    7   -1   15      0.03      0.00 
    8   -1   15     -1.47      0.00 
    9   -1   15     -2.01      0.00 
   10   -1   15     -1.41      0.00 
   11   -1   15      0.15      0.00 
   12   -1   15      1.64      0.00 
   13   -1   15      1.97      0.00 
   14   -1   15      1.25      0.00 
   15   -1   15      0.35      0.00 
   16   -1   15     -0.16      0.00 
   -6    0   15      0.34      0.00 
   -5    0   15      0.05      0.00 
   -4    0   15     -0.73      0.00 
   -3    0   15     -1.30      0.00 
   -2    0   15     -1.26      0.00 
   -1    0   15     -0.70      0.00 
    0    0   15      0.07      0.00 
    1    0   15      0.52      0.00 
    2    0   15      0.22      0.00 
    3    0   15     -0.74      0.00 
    4    0   15     -1.59      0.00 
    5    0   15     -1.59      0.00 
    6    0   15     -1.08      0.00 
    7    0   15     -0.86      0.00 
    8    0   15     -0.83      0.00 
    9    0   15     -0.68      0.00 
   10    0   15     -0.79      0.00 
   11    0   15     -1.14      0.00 
   12    0   15     -0.91      0.00 
   13    0   15      0.07      0.00 
   14    0   15      0.94      0.00 
   15    0   15      1.10      0.00 
   16    0   15      0.63      0.00 
   -6    1   15     -0.07      0.00 
   -5    1   15      0.22      0.00 
   -4    1   15      0.48      0.00 
   -3    1   15      0.38      0.00 
   -2    1   15     -0.11      0.00 
   -1    1   15     -0.87      0.00 
    0    1   15     -1.44      0.00 
    1    1   15     -1.40      0.00 
    2    1   15     -0.92      0.00 
    3    1   15     -0.56      0.00 
    4    1   15     -0.74      0.00 
    5    1   15     -1.07      0.00 
    6    1   15     -0.66      0.00 
    7    1   15      0.48      0.00 
    8    1   15      1.38      0.00 
    9    1   15      1.77      0.00 
   10    1   15      1.79      0.00 
   11    1   15      1.03      0.00 
   12    1   15     -0.45      0.00 
   13    1   15     -1.59      0.00 
   14    1   15     -1.65      0.00 
   15    1   15     -0.98      0.00 
   16    1   15     -0.20      0.00 
   17    1   15      0.19      0.00 
   -6    2   15     -0.17      0.00 
   -5    2   15     -0.16      0.00 
   -4    2   15      0.22      0.00 
   -3    2   15      0.76      0.00 
   -2    2   15      1.35      0.00 
   -1    2   15      1.80      0.00 
    0    2   15      1.63      0.00 
    1    2   15      1.01      0.00 
    2    2   15      0.74      0.00 
    3    2   15      1.30      0.00 
    4    2   15      2.28      0.00 
    5    2   15      2.68      0.00 
    6    2   15      2.02      0.00 
    7    2   15      0.82      0.00 
    8    2   15     -0.44      0.00 
    9    2   15     -1.48      0.00 
   10    2   15     -1.48      0.00 
   11    2   15     -0.08      0.00 
   12    2   15      1.40      0.00 
   13    2   15      1.60      0.00 
   14    2   15      0.82      0.00 
   15    2   15      0.09      0.00 
   16    2   15      0.01      0.00 
   17    2   15      0.45      0.00 
   -6    3   15      0.10      0.00 
   -5    3   15     -0.02      0.00 
   -4    3   15     -0.36      0.00 
   -3    3   15     -0.79      0.00 
   -2    3   15     -1.16      0.00 
   -1    3   15     -0.96      0.00 
    0    3   15     -0.09      0.00 
    1    3   15      0.55      0.00 
    2    3   15      0.21      0.00 
    3    3   15     -0.86      0.00 
    4    3   15     -1.83      0.00 
    5    3   15     -2.09      0.00 
    6    3   15     -1.65      0.00 
    7    3   15     -0.74      0.00 
    8    3   15      0.50      0.00 
    9    3   15      1.20      0.00 
   10    3   15      0.42      0.00 
   11    3   15     -1.06      0.00 
   12    3   15     -1.52      0.00 
   13    3   15     -0.72      0.00 
   14    3   15      0.20      0.00 
   15    3   15      0.33      0.00 
   16    3   15     -0.27      0.00 
   17    3   15     -0.78      0.00 
   -6    4   15     -0.22      0.00 
   -5    4   15     -0.31      0.00 
   -4    4   15     -0.32      0.00 
   -3    4   15     -0.17      0.00 
   -2    4   15     -0.19      0.00 
   -1    4   15     -0.76      0.00 
    0    4   15     -1.40      0.00 
    1    4   15     -1.32      0.00 
    2    4   15     -0.62      0.00 
    3    4   15     -0.03      0.00 
    4    4   15      0.08      0.00 
    5    4   15     -0.20      0.00 
    6    4   15     -0.67      0.00 
    7    4   15     -1.16      0.00 
    8    4   15     -1.22      0.00 
    9    4   15     -0.35      0.00 
   10    4   15      0.85      0.00 
   11    4   15      1.05      0.00 
   12    4   15      0.06      0.00 
   13    4   15     -0.99      0.00 
   14    4   15     -1.17      0.00 
   15    4   15     -0.53      0.00 
   16    4   15      0.10      0.00 
   17    4   15      0.03      0.00 
   -6    5   15      0.55      0.00 
   -5    5   15      0.74      0.00 
   -4    5   15      0.90      0.00 
   -3    5   15      1.02      0.00 
   -2    5   15      1.26      0.00 
   -1    5   15      1.51      0.00 
    0    5   15      1.32      0.00 
    1    5   15      0.73      0.00 
    2    5   15      0.41      0.00 
    3    5   15      0.73      0.00 
    4    5   15      1.45      0.00 
    5    5   15      2.16      0.00 
    6    5   15      2.42      0.00 
    7    5   15      1.72      0.00 
    8    5   15      0.03      0.00 
    9    5   15     -1.50      0.00 
   10    5   15     -1.31      0.00 
   11    5   15      0.49      0.00 
   12    5   15      2.09      0.00 
   13    5   15      2.20      0.00 
   14    5   15      1.18      0.00 
   15    5   15      0.22      0.00 
   16    5   15      0.17      0.00 
   17    5   15      0.60      0.00 
   -6    6   15     -0.34      0.00 
   -5    6   15     -0.58      0.00 
   -4    6   15     -0.87      0.00 
   -3    6   15     -1.02      0.00 
   -2    6   15     -1.03      0.00 
   -1    6   15     -0.79      0.00 
    0    6   15     -0.27      0.00 
    1    6   15      0.04      0.00 
    2    6   15     -0.35      0.00 
    3    6   15     -1.20      0.00 
    4    6   15     -1.95      0.00 
    5    6   15     -2.12      0.00 
    6    6   15     -1.29      0.00 
    7    6   15      0.54      0.00 
    8    6   15      2.33      0.00 
    9    6   15      2.42      0.00 
   10    6   15      0.50      0.00 
   11    6   15     -1.70      0.00 
   12    6   15     -2.31      0.00 
   13    6   15     -1.19      0.00 
   14    6   15      0.27      0.00 
   15    6   15      0.66      0.00 
   16    6   15      0.06      0.00 
   17    6   15     -0.29      0.00 
   -6    7   15     -0.21      0.00 
   -5    7   15      0.25      0.00 
   -4    7   15      0.61      0.00 
   -3    7   15      0.53      0.00 
   -2    7   15      0.22      0.00 
   -1    7   15     -0.22      0.00 
    0    7   15     -0.65      0.00 
    1    7   15     -0.53      0.00 
    2    7   15      0.25      0.00 
    3    7   15      1.05      0.00 
    4    7   15      1.13      0.00 
    5    7   15      0.24      0.00 
    6    7   15     -1.32      0.00 
    7    7   15     -2.60      0.00 
    8    7   15     -2.50      0.00 
    9    7   15     -0.98      0.00 
   10    7   15      0.62      0.00 
   11    7   15      1.02      0.00 
   12    7   15      0.26      0.00 
   13    7   15     -0.81      0.00 
   14    7   15     -1.25      0.00 
   15    7   15     -0.80      0.00 
   16    7   15     -0.21      0.00 
   17    7   15     -0.14      0.00 
   -6    8   15      0.24      0.00 
   -5    8   15     -0.16      0.00 
   -4    8   15     -0.31      0.00 
   -3    8   15     -0.19      0.00 
   -2    8   15      0.05      0.00 
   -1    8   15      0.47      0.00 
    0    8   15      0.77      0.00 
    1    8   15      0.52      0.00 
    2    8   15      0.04      0.00 
    3    8   15      0.06      0.00 
    4    8   15      0.80      0.00 
    5    8   15      1.81      0.00 
    6    8   15      2.29      0.00 
    7    8   15      1.56      0.00 
    8    8   15     -0.09      0.00 
    9    8   15     -1.29      0.00 
   10    8   15     -0.88      0.00 
   11    8   15      0.58      0.00 
   12    8   15      1.60      0.00 
   13    8   15      1.42      0.00 
   14    8   15      0.49      0.00 
   15    8   15     -0.20      0.00 
   16    8   15     -0.19      0.00 
   17    8   15     -0.03      0.00 
   -6    9   15      0.13      0.00 
   -5    9   15      0.09      0.00 
   -4    9   15     -0.05      0.00 
   -3    9   15     -0.07      0.00 
   -2    9   15     -0.07      0.00 
   -1    9   15     -0.07      0.00 
    0    9   15      0.21      0.00 
    1    9   15      0.52      0.00 
    2    9   15      0.13      0.00 
    3    9   15     -1.08      0.00 
    4    9   15     -2.20      0.00 
    5    9   15     -2.18      0.00 
    6    9   15     -0.80      0.00 
    7    9   15      1.20      0.00 
    8    9   15      2.50      0.00 
    9    9   15      2.06      0.00 
   10    9   15      0.25      0.00 
   11    9   15     -1.33      0.00 
   12    9   15     -1.48      0.00 
   13    9   15     -0.43      0.00 
   14    9   15      0.68      0.00 
   15    9   15      0.94      0.00 
   16    9   15      0.58      0.00 
   -5   10   15     -0.16      0.00 
   -4   10   15      0.23      0.00 
   -3   10   15      0.46      0.00 
   -2   10   15      0.37      0.00 
   -1   10   15     -0.21      0.00 
    0   10   15     -1.06      0.00 
    1   10   15     -1.32      0.00 
    2   10   15     -0.40      0.00 
    3   10   15      1.07      0.00 
    4   10   15      1.65      0.00 
    5   10   15      0.62      0.00 
    6   10   15     -1.28      0.00 
    7   10   15     -2.62      0.00 
    8   10   15     -2.41      0.00 
    9   10   15     -0.88      0.00 
   10   10   15      0.50      0.00 
   11   10   15      0.58      0.00 
   12   10   15     -0.21      0.00 
   13   10   15     -0.84      0.00 
   14   10   15     -0.94      0.00 
   15   10   15     -0.69      0.00 
   16   10   15     -0.41      0.00 
   -5   11   15      0.27      0.00 
   -4   11   15     -0.22      0.00 
   -3   11   15     -0.62      0.00 
   -2   11   15     -0.58      0.00 
   -1   11   15     -0.10      0.00 
    0   11   15      0.36      0.00 
    1   11   15      0.31      0.00 
    2   11   15     -0.24      0.00 
    3   11   15     -0.57      0.00 
    4   11   15      0.09      0.00 
    5   11   15      1.44      0.00 
    6   11   15      2.30      0.00 
    7   11   15      1.84      0.00 
    8   11   15      0.29      0.00 
    9   11   15     -0.99      0.00 
   10   11   15     -0.69      0.00 
   11   11   15      0.71      0.00 
   12   11   15      1.58      0.00 
   13   11   15      1.32      0.00 
   14   11   15      0.63      0.00 
   15   11   15      0.14      0.00 
   -4   12   15      0.37      0.00 
   -3   12   15      0.35      0.00 
   -2   12   15      0.26      0.00 
   -1   12   15      0.40      0.00 
    0   12   15      0.72      0.00 
    1   12   15      0.93      0.00 
    2   12   15      0.78      0.00 
    3   12   15     -0.08      0.00 
    4   12   15     -1.52      0.00 
    5   12   15     -2.46      0.00 
    6   12   15     -1.88      0.00 
    7   12   15     -0.03      0.00 
    8   12   15      1.72      0.00 
    9   12   15      1.84      0.00 
   10   12   15      0.35      0.00 
   11   12   15     -1.09      0.00 
   12   12   15     -1.35      0.00 
   13   12   15     -0.89      0.00 
   14   12   15     -0.32      0.00 
   15   12   15      0.12      0.00 
   -3   13   15      0.09      0.00 
   -2   13   15      0.15      0.00 
   -1   13   15     -0.21      0.00 
    0   13   15     -0.44      0.00 
    1   13   15     -0.34      0.00 
    2   13   15      0.10      0.00 
    3   13   15      1.04      0.00 
    4   13   15      1.88      0.00 
    5   13   15      1.56      0.00 
    6   13   15      0.10      0.00 
    7   13   15     -1.37      0.00 
    8   13   15     -1.70      0.00 
    9   13   15     -0.81      0.00 
   10   13   15      0.19      0.00 
   11   13   15      0.38      0.00 
   12   13   15      0.15      0.00 
   13   13   15      0.07      0.00 
   14   13   15     -0.04      0.00 
   -3   14   15     -0.17      0.00 
   -2   14   15      0.06      0.00 
   -1   14   15      0.06      0.00 
    0   14   15     -0.38      0.00 
    1   14   15     -0.77      0.00 
    2   14   15     -1.12      0.00 
    3   14   15     -1.47      0.00 
    4   14   15     -0.99      0.00 
    5   14   15      0.55      0.00 
    6   14   15      1.73      0.00 
    7   14   15      1.35      0.00 
    8   14   15     -0.08      0.00 
    9   14   15     -1.03      0.00 
   10   14   15     -0.63      0.00 
   11   14   15      0.41      0.00 
   12   14   15      0.84      0.00 
   13   14   15      0.62      0.00 
   -1   15   15     -0.13      0.00 
    0   15   15      0.38      0.00 
    1   15   15      0.52      0.00 
    2   15   15      0.69      0.00 
    3   15   15      0.64      0.00 
    4   15   15     -0.38      0.00 
    5   15   15     -1.66      0.00 
    6   15   15     -1.63      0.00 
    7   15   15     -0.17      0.00 
    8   15   15      1.39      0.00 
    9   15   15      1.66      0.00 
   10   15   15      0.58      0.00 
   11   15   15     -0.63      0.00 
   12   15   15     -0.97      0.00 
    0   16   15      0.14      0.00 
    1   16   15      0.45      0.00 
    2   16   15      0.37      0.00 
    3   16   15      0.43      0.00 
    4   16   15      0.81      0.00 
    5   16   15      0.72      0.00 
    6   16   15     -0.05      0.00 
    7   16   15     -0.76      0.00 
    8   16   15     -0.93      0.00 
    9   16   15     -0.57      0.00 
   10   16   15     -0.04      0.00 
    3   17   15     -0.47      0.00 
    4   17   15     -0.14      0.00 
    5   17   15      0.61      0.00 
    6   17   15      1.02      0.00 
    7   17   15      0.56      0.00 
    8   17   15     -0.27      0.00 
    3   -7   16     -0.23      0.00 
    4   -7   16      0.40      0.00 
    5   -7   16      1.21      0.00 
    6   -7   16      1.42      0.00 
    7   -7   16      0.75      0.00 
    8   -7   16     -0.11      0.00 
    9   -7   16     -0.24      0.00 
    1   -6   16      0.61      0.00 
    2   -6   16      0.96      0.00 
    3   -6   16      0.57      0.00 
    4   -6   16     -0.43      0.00 
    5   -6   16     -1.20      0.00 
    6   -6   16     -1.13      0.00 
    7   -6   16     -0.61      0.00 
    8   -6   16     -0.59      0.00 
    9   -6   16     -1.27      0.00 
   10   -6   16     -1.72      0.00 
   11   -6   16     -1.35      0.00 
   -1   -5   16      0.10      0.00 
    0   -5   16     -0.46      0.00 
    1   -5   16     -0.85      0.00 
    2   -5   16     -0.85      0.00 
    3   -5   16     -0.55      0.00 
    4   -5   16     -0.46      0.00 
    5   -5   16     -0.83      0.00 
    6   -5   16     -1.11      0.00 
    7   -5   16     -0.53      0.00 
    8   -5   16      0.83      0.00 
    9   -5   16      1.91      0.00 
   10   -5   16      2.00      0.00 
   11   -5   16      1.45      0.00 
   12   -5   16      0.90      0.00 
   -2   -4   16      0.63      0.00 
   -1   -4   16      0.79      0.00 
    0   -4   16      0.51      0.00 
    1   -4   16     -0.05      0.00 
    2   -4   16     -0.50      0.00 
    3   -4   16     -0.22      0.00 
    4   -4   16      1.06      0.00 
    5   -4   16      2.56      0.00 
    6   -4   16      2.98      0.00 
    7   -4   16      1.96      0.00 
    8   -4   16      0.55      0.00 
    9   -4   16     -0.25      0.00 
   10   -4   16     -0.42      0.00 
   11   -4   16     -0.39      0.00 
   12   -4   16     -0.29      0.00 
   13   -4   16     -0.18      0.00 
   -3   -3   16     -1.40      0.00 
   -2   -3   16     -1.73      0.00 
   -1   -3   16     -1.17      0.00 
    0   -3   16     -0.05      0.00 
    1   -3   16      1.07      0.00 
    2   -3   16      1.55      0.00 
    3   -3   16      0.89      0.00 
    4   -3   16     -0.59      0.00 
    5   -3   16     -1.77      0.00 
    6   -3   16     -1.98      0.00 
    7   -3   16     -1.74      0.00 
    8   -3   16     -1.70      0.00 
    9   -3   16     -1.76      0.00 
   10   -3   16     -1.60      0.00 
   11   -3   16     -1.26      0.00 
   12   -3   16     -0.80      0.00 
   13   -3   16     -0.19      0.00 
   14   -3   16      0.33      0.00 
   -3   -2   16      1.13      0.00 
   -2   -2   16      0.95      0.00 
   -1   -2   16      0.20      0.00 
    0   -2   16     -0.65      0.00 
    1   -2   16     -1.17      0.00 
    2   -2   16     -1.09      0.00 
    3   -2   16     -0.56      0.00 
    4   -2   16     -0.26      0.00 
    5   -2   16     -0.61      0.00 
    6   -2   16     -0.92      0.00 
    7   -2   16     -0.27      0.00 
    8   -2   16      1.05      0.00 
    9   -2   16      2.12      0.00 
   10   -2   16      2.52      0.00 
   11   -2   16      2.15      0.00 
   12   -2   16      0.95      0.00 
   13   -2   16     -0.51      0.00 
   14   -2   16     -1.33      0.00 
   15   -2   16     -1.28      0.00 
   -4   -1   16     -0.28      0.00 
   -3   -1   16      0.10      0.00 
   -2   -1   16      0.65      0.00 
   -1   -1   16      1.06      0.00 
    0   -1   16      1.08      0.00 
    1   -1   16      0.64      0.00 
    2   -1   16      0.04      0.00 
    3   -1   16     -0.09      0.00 
    4   -1   16      0.72      0.00 
    5   -1   16      1.96      0.00 
    6   -1   16      2.42      0.00 
    7   -1   16      1.68      0.00 
    8   -1   16      0.38      0.00 
    9   -1   16     -0.91      0.00 
   10   -1   16     -1.72      0.00 
   11   -1   16     -1.35      0.00 
   12   -1   16      0.09      0.00 
   13   -1   16      1.34      0.00 
   14   -1   16      1.52      0.00 
   15   -1   16      0.96      0.00 
   -4    0   16      0.05      0.00 
   -3    0   16     -0.63      0.00 
   -2    0   16     -1.08      0.00 
   -1    0   16     -1.04      0.00 
    0    0   16     -0.46      0.00 
    1    0   16      0.35      0.00 
    2    0   16      0.82      0.00 
    3    0   16      0.53      0.00 
    4    0   16     -0.35      0.00 
    5    0   16     -1.07      0.00 
    6    0   16     -1.22      0.00 
    7    0   16     -1.18      0.00 
    8    0   16     -1.02      0.00 
    9    0   16     -0.42      0.00 
   10    0   16      0.07      0.00 
   11    0   16     -0.31      0.00 
   12    0   16     -0.95      0.00 
   13    0   16     -0.81      0.00 
   14    0   16     -0.02      0.00 
   15    0   16      0.65      0.00 
   16    0   16      0.82      0.00 
   -5    1   16     -0.20      0.00 
   -4    1   16      0.02      0.00 
   -3    1   16      0.20      0.00 
   -2    1   16      0.14      0.00 
   -1    1   16     -0.34      0.00 
    0    1   16     -1.12      0.00 
    1    1   16     -1.62      0.00 
    2    1   16     -1.47      0.00 
    3    1   16     -0.94      0.00 
    4    1   16     -0.63      0.00 
    5    1   16     -0.80      0.00 
    6    1   16     -0.87      0.00 
    7    1   16     -0.37      0.00 
    8    1   16      0.22      0.00 
    9    1   16      0.54      0.00 
   10    1   16      1.01      0.00 
   11    1   16      1.37      0.00 
   12    1   16      0.78      0.00 
   13    1   16     -0.45      0.00 
   14    1   16     -1.25      0.00 
   15    1   16     -1.25      0.00 
   16    1   16     -0.76      0.00 
   -5    2   16     -0.17      0.00 
   -4    2   16      0.01      0.00 
   -3    2   16      0.37      0.00 
   -2    2   16      0.83      0.00 
   -1    2   16      1.48      0.00 
    0    2   16      1.92      0.00 
    1    2   16      1.67      0.00 
    2    2   16      1.00      0.00 
    3    2   16      0.67      0.00 
    4    2   16      1.04      0.00 
    5    2   16      1.72      0.00 
    6    2   16      1.99      0.00 
    7    2   16      1.74      0.00 
    8    2   16      1.10      0.00 
    9    2   16     -0.11      0.00 
   10    2   16     -1.35      0.00 
   11    2   16     -1.28      0.00 
   12    2   16      0.13      0.00 
   13    2   16      1.29      0.00 
   14    2   16      1.28      0.00 
   15    2   16      0.61      0.00 
   16    2   16      0.04      0.00 
   -5    3   16      0.24      0.00 
   -4    3   16      0.05      0.00 
   -3    3   16     -0.29      0.00 
   -2    3   16     -0.78      0.00 
   -1    3   16     -1.14      0.00 
    0    3   16     -0.76      0.00 
    1    3   16      0.15      0.00 
    2    3   16      0.70      0.00 
    3    3   16      0.41      0.00 
    4    3   16     -0.40      0.00 
    5    3   16     -1.16      0.00 
    6    3   16     -1.60      0.00 
    7    3   16     -1.57      0.00 
    8    3   16     -0.73      0.00 
    9    3   16      0.73      0.00 
   10    3   16      1.35      0.00 
   11    3   16      0.34      0.00 
   12    3   16     -1.04      0.00 
   13    3   16     -1.34      0.00 
   14    3   16     -0.71      0.00 
   15    3   16     -0.07      0.00 
   16    3   16      0.04      0.00 
   17    3   16     -0.28      0.00 
   -5    4   16     -0.39      0.00 
   -4    4   16     -0.52      0.00 
   -3    4   16     -0.40      0.00 
   -2    4   16     -0.10      0.00 
   -1    4   16     -0.25      0.00 
    0    4   16     -1.06      0.00 
    1    4   16     -1.74      0.00 
    2    4   16     -1.59      0.00 
    3    4   16     -0.89      0.00 
    4    4   16     -0.23      0.00 
    5    4   16      0.08      0.00 
    6    4   16      0.02      0.00 
    7    4   16     -0.47      0.00 
    8    4   16     -1.20      0.00 
    9    4   16     -1.35      0.00 
   10    4   16     -0.40      0.00 
   11    4   16      0.73      0.00 
   12    4   16      0.82      0.00 
   13    4   16      0.08      0.00 
   14    4   16     -0.48      0.00 
   15    4   16     -0.37      0.00 
   16    4   16      0.08      0.00 
   17    4   16      0.27      0.00 
   -5    5   16      0.67      0.00 
   -4    5   16      0.90      0.00 
   -3    5   16      0.89      0.00 
   -2    5   16      0.89      0.00 
   -1    5   16      1.22      0.00 
    0    5   16      1.59      0.00 
    1    5   16      1.41      0.00 
    2    5   16      0.78      0.00 
    3    5   16      0.28      0.00 
    4    5   16      0.26      0.00 
    5    5   16      0.72      0.00 
    6    5   16      1.50      0.00 
    7    5   16      2.01      0.00 
    8    5   16      1.45      0.00 
    9    5   16     -0.18      0.00 
   10    5   16     -1.47      0.00 
   11    5   16     -1.01      0.00 
   12    5   16      0.64      0.00 
   13    5   16      1.74      0.00 
   14    5   16      1.50      0.00 
   15    5   16      0.57      0.00 
   16    5   16      0.02      0.00 
   17    5   16      0.17      0.00 
   -5    6   16     -0.44      0.00 
   -4    6   16     -0.62      0.00 
   -3    6   16     -0.75      0.00 
   -2    6   16     -0.90      0.00 
   -1    6   16     -1.01      0.00 
    0    6   16     -0.74      0.00 
    1    6   16     -0.09      0.00 
    2    6   16      0.35      0.00 
    3    6   16      0.18      0.00 
    4    6   16     -0.46      0.00 
    5    6   16     -1.22      0.00 
    6    6   16     -1.61      0.00 
    7    6   16     -0.94      0.00 
    8    6   16      0.85      0.00 
    9    6   16      2.50      0.00 
   10    6   16      2.34      0.00 
   11    6   16      0.41      0.00 
   12    6   16     -1.48      0.00 
   13    6   16     -1.84      0.00 
   14    6   16     -0.88      0.00 
   15    6   16      0.04      0.00 
   16    6   16      0.10      0.00 
   17    6   16     -0.21      0.00 
   -5    7   16     -0.15      0.00 
   -4    7   16      0.14      0.00 
   -3    7   16      0.39      0.00 
   -2    7   16      0.47      0.00 
   -1    7   16      0.27      0.00 
    0    7   16     -0.35      0.00 
    1    7   16     -0.96      0.00 
    2    7   16     -0.86      0.00 
    3    7   16     -0.05      0.00 
    4    7   16      0.81      0.00 
    5    7   16      1.02      0.00 
    6    7   16      0.24      0.00 
    7    7   16     -1.28      0.00 
    8    7   16     -2.51      0.00 
    9    7   16     -2.37      0.00 
   10    7   16     -1.01      0.00 
   11    7   16      0.31      0.00 
   12    7   16      0.63      0.00 
   13    7   16      0.09      0.00 
   14    7   16     -0.52      0.00 
   15    7   16     -0.55      0.00 
   16    7   16     -0.21      0.00 
   -5    8   16      0.33      0.00 
   -4    8   16      0.01      0.00 
   -3    8   16     -0.24      0.00 
   -2    8   16     -0.24      0.00 
   -1    8   16      0.18      0.00 
    0    8   16      0.85      0.00 
    1    8   16      1.11      0.00 
    2    8   16      0.63      0.00 
    3    8   16     -0.04      0.00 
    4    8   16     -0.22      0.00 
    5    8   16      0.36      0.00 
    6    8   16      1.37      0.00 
    7    8   16      1.93      0.00 
    8    8   16      1.28      0.00 
    9    8   16     -0.22      0.00 
   10    8   16     -1.13      0.00 
   11    8   16     -0.60      0.00 
   12    8   16      0.57      0.00 
   13    8   16      1.11      0.00 
   14    8   16      0.67      0.00 
   15    8   16      0.00      0.00 
   16    8   16     -0.14      0.00 
   -4    9   16      0.09      0.00 
   -3    9   16      0.13      0.00 
   -2    9   16     -0.05      0.00 
   -1    9   16     -0.40      0.00 
    0    9   16     -0.47      0.00 
    1    9   16      0.00      0.00 
    2    9   16      0.46      0.00 
    3    9   16      0.18      0.00 
    4    9   16     -0.81      0.00 
    5    9   16     -1.76      0.00 
    6    9   16     -1.77      0.00 
    7    9   16     -0.55      0.00 
    8    9   16      1.28      0.00 
    9    9   16      2.39      0.00 
   10    9   16      1.89      0.00 
   11    9   16      0.35      0.00 
   12    9   16     -0.74      0.00 
   13    9   16     -0.59      0.00 
   14    9   16      0.25      0.00 
   15    9   16      0.75      0.00 
   16    9   16      0.55      0.00 
   -4   10   16     -0.23      0.00 
   -3   10   16      0.21      0.00 
   -2   10   16      0.62      0.00 
   -1   10   16      0.53      0.00 
    0   10   16     -0.24      0.00 
    1   10   16     -1.18      0.00 
    2   10   16     -1.37      0.00 
    3   10   16     -0.40      0.00 
    4   10   16      1.03      0.00 
    5   10   16      1.59      0.00 
    6   10   16      0.57      0.00 
    7   10   16     -1.30      0.00 
    8   10   16     -2.54      0.00 
    9   10   16     -2.18      0.00 
   10   10   16     -0.77      0.00 
   11   10   16      0.17      0.00 
   12   10   16      0.02      0.00 
   13   10   16     -0.56      0.00 
   14   10   16     -0.83      0.00 
   15   10   16     -0.71      0.00 
   -4   11   16      0.16      0.00 
   -3   11   16     -0.49      0.00 
   -2   11   16     -0.77      0.00 
   -1   11   16     -0.40      0.00 
    0   11   16      0.28      0.00 
    1   11   16      0.73      0.00 
    2   11   16      0.57      0.00 
    3   11   16     -0.18      0.00 
    4   11   16     -0.70      0.00 
    5   11   16     -0.09      0.00 
    6   11   16      1.31      0.00 
    7   11   16      2.21      0.00 
    8   11   16      1.69      0.00 
    9   11   16      0.16      0.00 
   10   11   16     -0.83      0.00 
   11   11   16     -0.38      0.00 
   12   11   16      0.64      0.00 
   13   11   16      0.99      0.00 
   14   11   16      0.66      0.00 
   15   11   16      0.26      0.00 
   -3   12   16      0.41      0.00 
   -2   12   16      0.19      0.00 
   -1   12   16      0.02      0.00 
    0   12   16      0.17      0.00 
    1   12   16      0.47      0.00 
    2   12   16      0.81      0.00 
    3   12   16      0.92      0.00 
    4   12   16      0.11      0.00 
    5   12   16     -1.44      0.00 
    6   12   16     -2.34      0.00 
    7   12   16     -1.60      0.00 
    8   12   16      0.22      0.00 
    9   12   16      1.54      0.00 
   10   12   16      1.32      0.00 
   11   12   16      0.18      0.00 
   12   12   16     -0.56      0.00 
   13   12   16     -0.57      0.00 
   14   12   16     -0.31      0.00 
   -2   13   16      0.34      0.00 
   -1   13   16      0.19      0.00 
    0   13   16     -0.18      0.00 
    1   13   16     -0.43      0.00 
    2   13   16     -0.56      0.00 
    3   13   16     -0.16      0.00 
    4   13   16      1.04      0.00 
    5   13   16      1.97      0.00 
    6   13   16      1.41      0.00 
    7   13   16     -0.20      0.00 
    8   13   16     -1.42      0.00 
    9   13   16     -1.36      0.00 
   10   13   16     -0.48      0.00 
   11   13   16      0.09      0.00 
   12   13   16      0.08      0.00 
   13   13   16      0.03      0.00 
   -1   14   16      0.07      0.00 
    0   14   16     -0.04      0.00 
    1   14   16     -0.31      0.00 
    2   14   16     -0.54      0.00 
    3   14   16     -1.18      0.00 
    4   14   16     -1.76      0.00 
    5   14   16     -1.07      0.00 
    6   14   16      0.59      0.00 
    7   14   16      1.52      0.00 
    8   14   16      0.98      0.00 
    9   14   16     -0.18      0.00 
   10   14   16     -0.70      0.00 
   11   14   16     -0.31      0.00 
   12   14   16      0.22      0.00 
    0   15   16     -0.02      0.00 
    1   15   16      0.20      0.00 
    2   15   16      0.47      0.00 
    3   15   16      1.04      0.00 
    4   15   16      0.96      0.00 
    5   15   16     -0.26      0.00 
    6   15   16     -1.30      0.00 
    7   15   16     -0.97      0.00 
    8   15   16      0.24      0.00 
    9   15   16      1.14      0.00 
   10   15   16      1.05      0.00 
   11   15   16      0.29      0.00 
    2   16   16      0.31      0.00 
    3   16   16      0.06      0.00 
    4   16   16      0.25      0.00 
    5   16   16      0.55      0.00 
    6   16   16      0.22      0.00 
    7   16   16     -0.41      0.00 
    8   16   16     -0.71      0.00 
    9   16   16     -0.64      0.00 
    5   -6   17     -0.56      0.00 
    6   -6   17     -0.91      0.00 
    7   -6   17     -0.69      0.00 
    8   -6   17     -0.38      0.00 
    2   -5   17     -0.40      0.00 
    3   -5   17     -0.34      0.00 
    4   -5   17     -0.23      0.00 
    5   -5   17     -0.41      0.00 
    6   -5   17     -0.80      0.00 
    7   -5   17     -0.86      0.00 
    8   -5   17     -0.23      0.00 
    9   -5   17      0.66      0.00 
   10   -5   17      1.10      0.00 
    0   -4   17      0.45      0.00 
    1   -4   17      0.18      0.00 
    2   -4   17     -0.24      0.00 
    3   -4   17     -0.51      0.00 
    4   -4   17     -0.12      0.00 
    5   -4   17      1.03      0.00 
    6   -4   17      2.07      0.00 
    7   -4   17      2.14      0.00 
    8   -4   17      1.42      0.00 
    9   -4   17      0.69      0.00 
   10   -4   17      0.25      0.00 
   11   -4   17     -0.06      0.00 
   12   -4   17     -0.25      0.00 
   -1   -3   17     -1.14      0.00 
    0   -3   17     -0.71      0.00 
    1   -3   17      0.04      0.00 
    2   -3   17      0.78      0.00 
    3   -3   17      1.06      0.00 
    4   -3   17      0.53      0.00 
    5   -3   17     -0.47      0.00 
    6   -3   17     -1.19      0.00 
    7   -3   17     -1.44      0.00 
    8   -3   17     -1.58      0.00 
    9   -3   17     -1.60      0.00 
   10   -3   17     -1.33      0.00 
   11   -3   17     -0.97      0.00 
   12   -3   17     -0.75      0.00 
   13   -3   17     -0.50      0.00 
   -1   -2   17      0.62      0.00 
    0   -2   17      0.16      0.00 
    1   -2   17     -0.34      0.00 
    2   -2   17     -0.56      0.00 
    3   -2   17     -0.38      0.00 
    4   -2   17     -0.07      0.00 
    5   -2   17     -0.18      0.00 
    6   -2   17     -0.62      0.00 
    7   -2   17     -0.63      0.00 
    8   -2   17      0.01      0.00 
    9   -2   17      0.73      0.00 
   10   -2   17      1.27      0.00 
   11   -2   17      1.66      0.00 
   12   -2   17      1.54      0.00 
   13   -2   17      0.69      0.00 
   14   -2   17     -0.25      0.00 
   -2   -1   17      0.09      0.00 
   -1   -1   17      0.45      0.00 
    0   -1   17      0.68      0.00 
    1   -1   17      0.55      0.00 
    2   -1   17      0.01      0.00 
    3   -1   17     -0.58      0.00 
    4   -1   17     -0.57      0.00 
    5   -1   17      0.33      0.00 
    6   -1   17      1.42      0.00 
    7   -1   17      1.83      0.00 
    8   -1   17      1.52      0.00 
    9   -1   17      0.66      0.00 
   10   -1   17     -0.63      0.00 
   11   -1   17     -1.54      0.00 
   12   -1   17     -1.15      0.00 
   13   -1   17      0.09      0.00 
   14   -1   17      0.92      0.00 
   -3    0   17      0.13      0.00 
   -2    0   17     -0.34      0.00 
   -1    0   17     -0.67      0.00 
    0    0   17     -0.57      0.00 
    1    0   17     -0.02      0.00 
    2    0   17      0.65      0.00 
    3    0   17      0.97      0.00 
    4    0   17      0.63      0.00 
    5    0   17     -0.09      0.00 
    6    0   17     -0.70      0.00 
    7    0   17     -1.14      0.00 
    8    0   17     -1.40      0.00 
    9    0   17     -0.94      0.00 
   10    0   17      0.13      0.00 
   11    0   17      0.56      0.00 
   12    0   17     -0.11      0.00 
   13    0   17     -0.75      0.00 
   14    0   17     -0.60      0.00 
   15    0   17     -0.03      0.00 
   -3    1   17     -0.16      0.00 
   -2    1   17      0.03      0.00 
   -1    1   17     -0.03      0.00 
    0    1   17     -0.57      0.00 
    1    1   17     -1.24      0.00 
    2    1   17     -1.48      0.00 
    3    1   17     -1.12      0.00 
    4    1   17     -0.60      0.00 
    5    1   17     -0.42      0.00 
    6    1   17     -0.51      0.00 
    7    1   17     -0.35      0.00 
    8    1   17     -0.08      0.00 
    9    1   17     -0.17      0.00 
   10    1   17     -0.14      0.00 
   11    1   17      0.53      0.00 
   12    1   17      0.99      0.00 
   13    1   17      0.46      0.00 
   14    1   17     -0.42      0.00 
   15    1   17     -0.85      0.00 
   -3    2   17      0.03      0.00 
   -2    2   17      0.23      0.00 
   -1    2   17      0.69      0.00 
    0    2   17      1.36      0.00 
    1    2   17      1.68      0.00 
    2    2   17      1.30      0.00 
    3    2   17      0.65      0.00 
    4    2   17      0.32      0.00 
    5    2   17      0.53      0.00 
    6    2   17      0.96      0.00 
    7    2   17      1.34      0.00 
    8    2   17      1.63      0.00 
    9    2   17      1.31      0.00 
   10    2   17     -0.01      0.00 
   11    2   17     -1.21      0.00 
   12    2   17     -0.91      0.00 
   13    2   17      0.35      0.00 
   14    2   17      1.07      0.00 
   15    2   17      0.91      0.00 
   16    2   17      0.39      0.00 
   -4    3   17      0.31      0.00 
   -3    3   17      0.17      0.00 
   -2    3   17     -0.17      0.00 
   -1    3   17     -0.67      0.00 
    0    3   17     -0.84      0.00 
    1    3   17     -0.31      0.00 
    2    3   17      0.45      0.00 
    3    3   17      0.77      0.00 
    4    3   17      0.53      0.00 
    5    3   17     -0.01      0.00 
    6    3   17     -0.67      0.00 
    7    3   17     -1.38      0.00 
    8    3   17     -1.60      0.00 
    9    3   17     -0.59      0.00 
   10    3   17      0.97      0.00 
   11    3   17      1.32      0.00 
   12    3   17      0.19      0.00 
   13    3   17     -0.92      0.00 
   14    3   17     -1.09      0.00 
   15    3   17     -0.68      0.00 
   16    3   17     -0.26      0.00 
   -4    4   17     -0.46      0.00 
   -3    4   17     -0.48      0.00 
   -2    4   17     -0.16      0.00 
   -1    4   17      0.09      0.00 
    0    4   17     -0.39      0.00 
    1    4   17     -1.34      0.00 
    2    4   17     -1.82      0.00 
    3    4   17     -1.52      0.00 
    4    4   17     -0.80      0.00 
    5    4   17     -0.10      0.00 
    6    4   17      0.37      0.00 
    7    4   17      0.40      0.00 
    8    4   17     -0.27      0.00 
    9    4   17     -1.23      0.00 
   10    4   17     -1.35      0.00 
   11    4   17     -0.38      0.00 
   12    4   17      0.52      0.00 
   13    4   17      0.53      0.00 
   14    4   17      0.14      0.00 
   15    4   17      0.03      0.00 
   16    4   17      0.22      0.00 
   -4    5   17      0.63      0.00 
   -3    5   17      0.69      0.00 
   -2    5   17      0.51      0.00 
   -1    5   17      0.57      0.00 
    0    5   17      1.09      0.00 
    1    5   17      1.49      0.00 
    2    5   17      1.27      0.00 
    3    5   17      0.60      0.00 
    4    5   17     -0.08      0.00 
    5    5   17     -0.41      0.00 
    6    5   17     -0.08      0.00 
    7    5   17      0.85      0.00 
    8    5   17      1.58      0.00 
    9    5   17      1.11      0.00 
   10    5   17     -0.39      0.00 
   11    5   17     -1.31      0.00 
   12    5   17     -0.64      0.00 
   13    5   17      0.70      0.00 
   14    5   17      1.27      0.00 
   15    5   17      0.82      0.00 
   16    5   17      0.17      0.00 
   -4    6   17     -0.37      0.00 
   -3    6   17     -0.47      0.00 
   -2    6   17     -0.59      0.00 
   -1    6   17     -0.80      0.00 
    0    6   17     -0.89      0.00 
    1    6   17     -0.51      0.00 
    2    6   17      0.16      0.00 
    3    6   17      0.63      0.00 
    4    6   17      0.65      0.00 
    5    6   17      0.20      0.00 
    6    6   17     -0.61      0.00 
    7    6   17     -1.17      0.00 
    8    6   17     -0.60      0.00 
    9    6   17      1.11      0.00 
   10    6   17      2.49      0.00 
   11    6   17      2.07      0.00 
   12    6   17      0.26      0.00 
   13    6   17     -1.21      0.00 
   14    6   17     -1.35      0.00 
   15    6   17     -0.71      0.00 
   16    6   17     -0.29      0.00 
   -4    7   17     -0.13      0.00 
   -3    7   17      0.11      0.00 
   -2    7   17      0.42      0.00 
   -1    7   17      0.57      0.00 
    0    7   17      0.23      0.00 
    1    7   17     -0.59      0.00 
    2    7   17     -1.20      0.00 
    3    7   17     -1.02      0.00 
    4    7   17     -0.19      0.00 
    5    7   17      0.73      0.00 
    6    7   17      1.08      0.00 
    7    7   17      0.37      0.00 
    8    7   17     -1.13      0.00 
    9    7   17     -2.29      0.00 
   10    7   17     -2.12      0.00 
   11    7   17     -0.93      0.00 
   12    7   17      0.10      0.00 
   13    7   17      0.34      0.00 
   14    7   17      0.08      0.00 
   15    7   17     -0.06      0.00 
   16    7   17      0.05      0.00 
   -3    8   17     -0.05      0.00 
   -2    8   17     -0.34      0.00 
   -1    8   17     -0.23      0.00 
    0    8   17      0.45      0.00 
    1    8   17      1.20      0.00 
    2    8   17      1.30      0.00 
    3    8   17      0.65      0.00 
    4    8   17     -0.22      0.00 
    5    8   17     -0.67      0.00 
    6    8   17     -0.24      0.00 
    7    8   17      0.81      0.00 
    8    8   17      1.46      0.00 
    9    8   17      0.89      0.00 
   10    8   17     -0.36      0.00 
   11    8   17     -0.93      0.00 
   12    8   17     -0.36      0.00 
   13    8   17      0.43      0.00 
   14    8   17      0.52      0.00 
   15    8   17      0.07      0.00 
   16    8   17     -0.14      0.00 
   -3    9   17      0.22      0.00 
   -2    9   17      0.18      0.00 
   -1    9   17     -0.28      0.00 
    0    9   17     -0.77      0.00 
    1    9   17     -0.72      0.00 
    2    9   17     -0.11      0.00 
    3    9   17      0.41      0.00 
    4    9   17      0.29      0.00 
    5    9   17     -0.47      0.00 
    6    9   17     -1.31      0.00 
    7    9   17     -1.36      0.00 
    8    9   17     -0.25      0.00 
    9    9   17      1.36      0.00 
   10    9   17      2.19      0.00 
   11    9   17      1.61      0.00 
   12    9   17      0.41      0.00 
   13    9   17     -0.19      0.00 
   14    9   17      0.09      0.00 
   15    9   17      0.52      0.00 
   -3   10   17     -0.19      0.00 
   -2   10   17      0.38      0.00 
   -1   10   17      0.81      0.00 
    0   10   17      0.55      0.00 
    1   10   17     -0.38      0.00 
    2   10   17     -1.30      0.00 
    3   10   17     -1.38      0.00 
    4   10   17     -0.32      0.00 
    5   10   17      1.19      0.00 
    6   10   17      1.71      0.00 
    7   10   17      0.57      0.00 
    8   10   17     -1.31      0.00 
    9   10   17     -2.31      0.00 
   10   10   17     -1.79      0.00 
   11   10   17     -0.64      0.00 
   12   10   17     -0.12      0.00 
   13   10   17     -0.35      0.00 
   14   10   17     -0.62      0.00 
   15   10   17     -0.59      0.00 
   -2   11   17     -0.73      0.00 
   -1   11   17     -0.71      0.00 
    0   11   17     -0.10      0.00 
    1   11   17      0.65      0.00 
    2   11   17      1.11      0.00 
    3   11   17      0.77      0.00 
    4   11   17     -0.31      0.00 
    5   11   17     -1.02      0.00 
    6   11   17     -0.35      0.00 
    7   11   17      1.16      0.00 
    8   11   17      2.00      0.00 
    9   11   17      1.39      0.00 
   10   11   17      0.06      0.00 
   11   11   17     -0.56      0.00 
   12   11   17     -0.13      0.00 
   13   11   17      0.39      0.00 
   14   11   17      0.39      0.00 
   -2   12   17      0.32      0.00 
   -1   12   17      0.00      0.00 
    0   12   17     -0.14      0.00 
    1   12   17     -0.07      0.00 
    2   12   17      0.20      0.00 
    3   12   17      0.79      0.00 
    4   12   17      1.06      0.00 
    5   12   17      0.12      0.00 
    6   12   17     -1.47      0.00 
    7   12   17     -2.10      0.00 
    8   12   17     -1.17      0.00 
    9   12   17      0.34      0.00 
   10   12   17      1.10      0.00 
   11   12   17      0.75      0.00 
   12   12   17      0.14      0.00 
   13   12   17     -0.05      0.00 
   14   12   17      0.00      0.00 
   -1   13   17      0.38      0.00 
    0   13   17      0.14      0.00 
    1   13   17     -0.15      0.00 
    2   13   17     -0.54      0.00 
    3   13   17     -0.85      0.00 
    4   13   17     -0.20      0.00 
    5   13   17      1.31      0.00 
    6   13   17      2.03      0.00 
    7   13   17      1.09      0.00 
    8   13   17     -0.46      0.00 
    9   13   17     -1.21      0.00 
   10   13   17     -0.88      0.00 
   11   13   17     -0.26      0.00 
   12   13   17     -0.08      0.00 
   13   13   17     -0.11      0.00 
    0   14   17      0.03      0.00 
    1   14   17     -0.06      0.00 
    2   14   17     -0.06      0.00 
    3   14   17     -0.40      0.00 
    4   14   17     -1.42      0.00 
    5   14   17     -1.94      0.00 
    6   14   17     -0.93      0.00 
    7   14   17      0.64      0.00 
    8   14   17      1.23      0.00 
    9   14   17      0.71      0.00 
   10   14   17     -0.01      0.00 
   11   14   17     -0.23      0.00 
   12   14   17     -0.06      0.00 
    2   15   17      0.10      0.00 
    3   15   17      0.68      0.00 
    4   15   17      1.35      0.00 
    5   15   17      0.94      0.00 
    6   15   17     -0.31      0.00 
    7   15   17     -0.93      0.00 
    8   15   17     -0.50      0.00 
    9   15   17      0.21      0.00 
   10   15   17      0.55      0.00 
    5   16   17      0.27      0.00 
    6   16   17      0.33      0.00 
    7   16   17     -0.11      0.00 
    4   -4   18     -0.44      0.00 
    5   -4   18      0.01      0.00 
    6   -4   18      0.84      0.00 
    7   -4   18      1.35      0.00 
    8   -4   18      1.25      0.00 
    9   -4   18      0.92      0.00 
   10   -4   18      0.65      0.00 
    2   -3   18      0.00      0.00 
    3   -3   18      0.40      0.00 
    4   -3   18      0.57      0.00 
    5   -3   18      0.30      0.00 
    6   -3   18     -0.17      0.00 
    7   -3   18     -0.54      0.00 
    8   -3   18     -0.89      0.00 
    9   -3   18     -1.19      0.00 
   10   -3   18     -1.10      0.00 
   11   -3   18     -0.74      0.00 
    1   -2   18      0.23      0.00 
    2   -2   18      0.09      0.00 
    3   -2   18      0.08      0.00 
    4   -2   18      0.19      0.00 
    5   -2   18      0.15      0.00 
    6   -2   18     -0.23      0.00 
    7   -2   18     -0.51      0.00 
    8   -2   18     -0.29      0.00 
    9   -2   18      0.08      0.00 
   10   -2   18      0.31      0.00 
   11   -2   18      0.67      0.00 
   12   -2   18      1.10      0.00 
    0   -1   18      0.11      0.00 
    1   -1   18      0.16      0.00 
    2   -1   18     -0.05      0.00 
    3   -1   18     -0.53      0.00 
    4   -1   18     -0.96      0.00 
    5   -1   18     -0.79      0.00 
    6   -1   18      0.01      0.00 
    7   -1   18      0.81      0.00 
    8   -1   18      1.26      0.00 
    9   -1   18      1.30      0.00 
   10   -1   18      0.63      0.00 
   11   -1   18     -0.61      0.00 
   12   -1   18     -1.26      0.00 
   13   -1   18     -0.73      0.00 
   -1    0   18      0.00      0.00 
    0    0   18     -0.16      0.00 
    1    0   18     -0.02      0.00 
    2    0   18      0.35      0.00 
    3    0   18      0.72      0.00 
    4    0   18      0.84      0.00 
    5    0   18      0.58      0.00 
    6    0   18      0.12      0.00 
    7    0   18     -0.45      0.00 
    8    0   18     -1.16      0.00 
    9    0   18     -1.40      0.00 
   10    0   18     -0.55      0.00 
   11    0   18      0.57      0.00 
   12    0   18      0.62      0.00 
   13    0   18     -0.14      0.00 
   14    0   18     -0.54      0.00 
   -1    1   18     -0.04      0.00 
    0    1   18     -0.20      0.00 
    1    1   18     -0.69      0.00 
    2    1   18     -1.05      0.00 
    3    1   18     -0.96      0.00 
    4    1   18     -0.51      0.00 
    5    1   18     -0.14      0.00 
    6    1   18     -0.08      0.00 
    7    1   18     -0.01      0.00 
    8    1   18      0.22      0.00 
    9    1   18      0.03      0.00 
   10    1   18     -0.53      0.00 
   11    1   18     -0.45      0.00 
   12    1   18      0.31      0.00 
   13    1   18      0.59      0.00 
   14    1   18      0.12      0.00 
   -2    2   18     -0.12      0.00 
   -1    2   18     -0.04      0.00 
    0    2   18      0.40      0.00 
    1    2   18      0.94      0.00 
    2    2   18      1.06      0.00 
    3    2   18      0.68      0.00 
    4    2   18      0.14      0.00 
    5    2   18     -0.16      0.00 
    6    2   18     -0.11      0.00 
    7    2   18      0.21      0.00 
    8    2   18      0.87      0.00 
    9    2   18      1.55      0.00 
   10    2   18      1.26      0.00 
   11    2   18     -0.10      0.00 
   12    2   18     -0.94      0.00 
   13    2   18     -0.41      0.00 
   14    2   18      0.49      0.00 
   15    2   18      0.76      0.00 
   -2    3   18      0.25      0.00 
   -1    3   18     -0.03      0.00 
    0    3   18     -0.34      0.00 
    1    3   18     -0.25      0.00 
    2    3   18      0.23      0.00 
    3    3   18      0.65      0.00 
    4    3   18      0.76      0.00 
    5    3   18      0.64      0.00 
    6    3   18      0.31      0.00 
    7    3   18     -0.41      0.00 
    8    3   18     -1.38      0.00 
    9    3   18     -1.55      0.00 
   10    3   18     -0.30      0.00 
   11    3   18      1.10      0.00 
   12    3   18      1.09      0.00 
   13    3   18      0.06      0.00 
   14    3   18     -0.67      0.00 
   15    3   18     -0.76      0.00 
   -2    4   18     -0.19      0.00 
   -1    4   18      0.18      0.00 
    0    4   18      0.14      0.00 
    1    4   18     -0.58      0.00 
    2    4   18     -1.38      0.00 
    3    4   18     -1.58      0.00 
    4    4   18     -1.20      0.00 
    5    4   18     -0.54      0.00 
    6    4   18      0.20      0.00 
    7    4   18      0.81      0.00 
    8    4   18      0.80      0.00 
    9    4   18     -0.12      0.00 
   10    4   18     -1.18      0.00 
   11    4   18     -1.20      0.00 
   12    4   18     -0.35      0.00 
   13    4   18      0.22      0.00 
   14    4   18      0.21      0.00 
   15    4   18      0.19      0.00 
   -2    5   18      0.26      0.00 
   -1    5   18      0.03      0.00 
    0    5   18      0.24      0.00 
    1    5   18      0.80      0.00 
    2    5   18      1.14      0.00 
    3    5   18      0.94      0.00 
    4    5   18      0.31      0.00 
    5    5   18     -0.52      0.00 
    6    5   18     -1.07      0.00 
    7    5   18     -0.78      0.00 
    8    5   18      0.30      0.00 
    9    5   18      1.15      0.00 
   10    5   18      0.71      0.00 
   11    5   18     -0.54      0.00 
   12    5   18     -1.01      0.00 
   13    5   18     -0.23      0.00 
   14    5   18      0.67      0.00 
   15    5   18      0.77      0.00 
   -2    6   18     -0.31      0.00 
   -1    6   18     -0.44      0.00 
    0    6   18     -0.60      0.00 
    1    6   18     -0.56      0.00 
    2    6   18     -0.18      0.00 
    3    6   18      0.34      0.00 
    4    6   18      0.79      0.00 
    5    6   18      1.01      0.00 
    6    6   18      0.69      0.00 
    7    6   18     -0.18      0.00 
    8    6   18     -0.84      0.00 
    9    6   18     -0.28      0.00 
   10    6   18      1.28      0.00 
   11    6   18      2.29      0.00 
   12    6   18      1.64      0.00 
   13    6   18      0.09      0.00 
   14    6   18     -0.91      0.00 
   15    6   18     -0.93      0.00 
   -2    7   18      0.22      0.00 
   -1    7   18      0.57      0.00 
    0    7   18      0.61      0.00 
    1    7   18      0.08      0.00 
    2    7   18     -0.74      0.00 
    3    7   18     -1.22      0.00 
    4    7   18     -1.02      0.00 
    5    7   18     -0.21      0.00 
    6    7   18      0.79      0.00 
    7    7   18      1.23      0.00 
    8    7   18      0.55      0.00 
    9    7   18     -0.91      0.00 
   10    7   18     -1.95      0.00 
   11    7   18     -1.75      0.00 
   12    7   18     -0.77      0.00 
   13    7   18     -0.01      0.00 
   14    7   18      0.18      0.00 
   15    7   18      0.20      0.00 
   -2    8   18     -0.21      0.00 
   -1    8   18     -0.44      0.00 
    0    8   18     -0.14      0.00 
    1    8   18      0.64      0.00 
    2    8   18      1.30      0.00 
    3    8   18      1.30      0.00 
    4    8   18      0.58      0.00 
    5    8   18     -0.49      0.00 
    6    8   18     -1.19      0.00 
    7    8   18     -0.86      0.00 
    8    8   18      0.23      0.00 
    9    8   18      0.92      0.00 
   10    8   18      0.47      0.00 
   11    8   18     -0.45      0.00 
   12    8   18     -0.69      0.00 
   13    8   18     -0.17      0.00 
   14    8   18      0.24      0.00 
   15    8   18      0.06      0.00 
   -2    9   18      0.27      0.00 
   -1    9   18      0.02      0.00 
    0    9   18     -0.56      0.00 
    1    9   18     -0.95      0.00 
    2    9   18     -0.77      0.00 
    3    9   18     -0.19      0.00 
    4    9   18      0.36      0.00 
    5    9   18      0.44      0.00 
    6    9   18     -0.11      0.00 
    7    9   18     -0.84      0.00 
    8    9   18     -0.88      0.00 
    9    9   18      0.10      0.00 
   10    9   18      1.38      0.00 
   11    9   18      1.85      0.00 
   12    9   18      1.22      0.00 
   13    9   18      0.39      0.00 
   14    9   18      0.16      0.00 
   15    9   18      0.36      0.00 
   -1   10   18      0.62      0.00 
    0   10   18      0.88      0.00 
    1   10   18      0.43      0.00 
    2   10   18     -0.52      0.00 
    3   10   18     -1.33      0.00 
    4   10   18     -1.29      0.00 
    5   10   18     -0.09      0.00 
    6   10   18      1.42      0.00 
    7   10   18      1.72      0.00 
    8   10   18      0.41      0.00 
    9   10   18     -1.30      0.00 
   10   10   18     -1.94      0.00 
   11   10   18     -1.31      0.00 
   12   10   18     -0.47      0.00 
   13   10   18     -0.25      0.00 
   14   10   18     -0.41      0.00 
   -1   11   18     -0.78      0.00 
    0   11   18     -0.51      0.00 
    1   11   18      0.17      0.00 
    2   11   18      0.95      0.00 
    3   11   18      1.37      0.00 
    4   11   18      0.76      0.00 
    5   11   18     -0.62      0.00 
    6   11   18     -1.32      0.00 
    7   11   18     -0.47      0.00 
    8   11   18      1.03      0.00 
    9   11   18      1.67      0.00 
   10   11   18      1.02      0.00 
   11   11   18     -0.01      0.00 
   12   11   18     -0.34      0.00 
   13   11   18     -0.07      0.00 
   14   11   18      0.08      0.00 
    0   12   18     -0.10      0.00 
    1   12   18     -0.24      0.00 
    2   12   18     -0.30      0.00 
    3   12   18      0.04      0.00 
    4   12   18      0.84      0.00 
    5   12   18      1.04      0.00 
    6   12   18     -0.07      0.00 
    7   12   18     -1.44      0.00 
    8   12   18     -1.67      0.00 
    9   12   18     -0.74      0.00 
   10   12   18      0.29      0.00 
   11   12   18      0.60      0.00 
   12   12   18      0.36      0.00 
   13   12   18      0.20      0.00 
    1   13   18      0.13      0.00 
    2   13   18     -0.15      0.00 
    3   13   18     -0.75      0.00 
    4   13   18     -0.98      0.00 
    5   13   18      0.08      0.00 
    6   13   18      1.58      0.00 
    7   13   18      1.80      0.00 
    8   13   18      0.63      0.00 
    9   13   18     -0.56      0.00 
   10   13   18     -0.84      0.00 
   11   13   18     -0.45      0.00 
   12   13   18     -0.16      0.00 
    2   14   18      0.04      0.00 
    3   14   18      0.17      0.00 
    4   14   18     -0.45      0.00 
    5   14   18     -1.59      0.00 
    6   14   18     -1.74      0.00 
    7   14   18     -0.56      0.00 
    8   14   18      0.63      0.00 
    9   14   18      0.91      0.00 
   10   14   18      0.57      0.00 
    5   15   18      1.29      0.00 
    6   15   18      0.55      0.00 
    7   15   18     -0.39      0.00 
    8   15   18     -0.59      0.00 
    4   -2   19      0.46      0.00 
    5   -2   19      0.43      0.00 
    6   -2   19      0.12      0.00 
    7   -2   19     -0.28      0.00 
    8   -2   19     -0.32      0.00 
    9   -2   19     -0.09      0.00 
   10   -2   19     -0.03      0.00 
    2   -1   19     -0.21      0.00 
    3   -1   19     -0.38      0.00 
    4   -1   19     -0.71      0.00 
    5   -1   19     -0.96      0.00 
    6   -1   19     -0.76      0.00 
    7   -1   19     -0.24      0.00 
    8   -1   19      0.29      0.00 
    9   -1   19      0.78      0.00 
   10   -1   19      0.95      0.00 
   11   -1   19      0.32      0.00 
    1    0   19      0.24      0.00 
    2    0   19      0.32      0.00 
    3    0   19      0.39      0.00 
    4    0   19      0.49      0.00 
    5    0   19      0.57      0.00 
    6    0   19      0.51      0.00 
    7    0   19      0.28      0.00 
    8    0   19     -0.31      0.00 
    9    0   19     -1.07      0.00 
   10    0   19     -1.05      0.00 
   11    0   19     -0.06      0.00 
   12    0   19      0.65      0.00 
    1    1   19     -0.32      0.00 
    2    1   19     -0.58      0.00 
    3    1   19     -0.59      0.00 
    4    1   19     -0.32      0.00 
    5    1   19      0.03      0.00 
    6    1   19      0.18      0.00 
    7    1   19      0.20      0.00 
    8    1   19      0.42      0.00 
    9    1   19      0.52      0.00 
   10    1   19     -0.05      0.00 
   11    1   19     -0.64      0.00 
   12    1   19     -0.37      0.00 
   13    1   19      0.20      0.00 
    0    2   19     -0.25      0.00 
    1    2   19      0.06      0.00 
    2    2   19      0.34      0.00 
    3    2   19      0.36      0.00 
    4    2   19      0.09      0.00 
    5    2   19     -0.30      0.00 
    6    2   19     -0.57      0.00 
    7    2   19     -0.62      0.00 
    8    2   19     -0.28      0.00 
    9    2   19      0.62      0.00 
   10    2   19      1.34      0.00 
   11    2   19      0.88      0.00 
   12    2   19     -0.23      0.00 
   13    2   19     -0.54      0.00 
   14    2   19      0.03      0.00 
    0    3   19      0.13      0.00 
    1    3   19      0.13      0.00 
    2    3   19      0.35      0.00 
    3    3   19      0.59      0.00 
    4    3   19      0.68      0.00 
    5    3   19      0.71      0.00 
    6    3   19      0.73      0.00 
    7    3   19      0.47      0.00 
    8    3   19     -0.40      0.00 
    9    3   19     -1.39      0.00 
   10    3   19     -1.27      0.00 
   11    3   19      0.04      0.00 
   12    3   19      1.00      0.00 
   13    3   19      0.72      0.00 
   14    3   19      0.00      0.00 
    0    4   19      0.34      0.00 
    1    4   19      0.02      0.00 
    2    4   19     -0.67      0.00 
    3    4   19     -1.15      0.00 
    4    4   19     -1.17      0.00 
    5    4   19     -0.85      0.00 
    6    4   19     -0.26      0.00 
    7    4   19      0.54      0.00 
    8    4   19      1.19      0.00 
    9    4   19      1.02      0.00 
   10    4   19     -0.06      0.00 
   11    4   19     -1.00      0.00 
   12    4   19     -0.91      0.00 
   13    4   19     -0.34      0.00 
   14    4   19     -0.09      0.00 
   -1    5   19     -0.11      0.00 
    0    5   19     -0.29      0.00 
    1    5   19     -0.06      0.00 
    2    5   19      0.37      0.00 
    3    5   19      0.66      0.00 
    4    5   19      0.59      0.00 
    5    5   19      0.04      0.00 
    6    5   19     -0.88      0.00 
    7    5   19     -1.51      0.00 
    8    5   19     -1.17      0.00 
    9    5   19     -0.04      0.00 
   10    5   19      0.72      0.00 
   11    5   19      0.29      0.00 
   12    5   19     -0.57      0.00 
   13    5   19     -0.61      0.00 
   14    5   19      0.10      0.00 
   -1    6   19     -0.23      0.00 
    0    6   19     -0.27      0.00 
    1    6   19     -0.26      0.00 
    2    6   19     -0.13      0.00 
    3    6   19      0.08      0.00 
    4    6   19      0.38      0.00 
    5    6   19      0.84      0.00 
    6    6   19      1.19      0.00 
    7    6   19      0.91      0.00 
    8    6   19      0.01      0.00 
    9    6   19     -0.59      0.00 
   10    6   19      0.01      0.00 
   11    6   19      1.32      0.00 
   12    6   19      1.88      0.00 
   13    6   19      1.11      0.00 
   14    6   19     -0.06      0.00 
   -1    7   19      0.34      0.00 
    0    7   19      0.60      0.00 
    1    7   19      0.48      0.00 
    2    7   19     -0.05      0.00 
    3    7   19     -0.68      0.00 
    4    7   19     -1.03      0.00 
    5    7   19     -0.89      0.00 
    6    7   19     -0.13      0.00 
    7    7   19      0.91      0.00 
    8    7   19      1.36      0.00 
    9    7   19      0.66      0.00 
   10    7   19     -0.69      0.00 
   11    7   19     -1.54      0.00 
   12    7   19     -1.30      0.00 
   13    7   19     -0.54      0.00 
   14    7   19     -0.06      0.00 
    0    8   19     -0.40      0.00 
    1    8   19     -0.05      0.00 
    2    8   19      0.62      0.00 
    3    8   19      1.15      0.00 
    4    8   19      1.16      0.00 
    5    8   19      0.43      0.00 
    6    8   19     -0.80      0.00 
    7    8   19     -1.62      0.00 
    8    8   19     -1.30      0.00 
    9    8   19     -0.22      0.00 
   10    8   19      0.43      0.00 
   11    8   19      0.12      0.00 
   12    8   19     -0.44      0.00 
   13    8   19     -0.42      0.00 
   14    8   19      0.00      0.00 
    0    9   19     -0.18      0.00 
    1    9   19     -0.66      0.00 
    2    9   19     -0.88      0.00 
    3    9   19     -0.72      0.00 
    4    9   19     -0.26      0.00 
    5    9   19      0.33      0.00 
    6    9   19      0.59      0.00 
    7    9   19      0.22      0.00 
    8    9   19     -0.37      0.00 
    9    9   19     -0.38      0.00 
   10    9   19      0.39      0.00 
   11    9   19      1.25      0.00 
   12    9   19      1.35      0.00 
   13    9   19      0.74      0.00 
   14    9   19      0.24      0.00 
    0   10   19      0.71      0.00 
    1   10   19      0.76      0.00 
    2   10   19      0.26      0.00 
    3   10   19     -0.54      0.00 
    4   10   19     -1.21      0.00 
    5   10   19     -1.03      0.00 
    6   10   19      0.21      0.00 
    7   10   19      1.48      0.00 
    8   10   19      1.45      0.00 
    9   10   19      0.12      0.00 
   10   10   19     -1.20      0.00 
   11   10   19     -1.44      0.00 
   12   10   19     -0.79      0.00 
   13   10   19     -0.23      0.00 
    1   11   19     -0.29      0.00 
    2   11   19      0.34      0.00 
    3   11   19      1.10      0.00 
    4   11   19      1.39      0.00 
    5   11   19      0.52      0.00 
    6   11   19     -0.91      0.00 
    7   11   19     -1.35      0.00 
    8   11   19     -0.37      0.00 
    9   11   19      0.91      0.00 
   10   11   19      1.27      0.00 
   11   11   19      0.63      0.00 
   12   11   19     -0.09      0.00 
    4   12   19      0.03      0.00 
    5   12   19      0.85      0.00 
    6   12   19      0.80      0.00 
    7   12   19     -0.31      0.00 
    8   12   19     -1.24      0.00 
    9   12   19     -1.14      0.00 
   10   12   19     -0.39      0.00 
   11   12   19      0.19      0.00 
    4   13   19     -0.89      0.00 
    5   13   19     -0.81      0.00 
    6   13   19      0.44      0.00 
    7   13   19      1.53      0.00 
    8   13   19      1.26      0.00 
    9   13   19      0.20      0.00 
   10   13   19     -0.50      0.00 
    6   14   19     -1.42      0.00 
    7   14   19     -1.18      0.00 
    5    0   20      0.16      0.00 
    6    0   20      0.30      0.00 
    7    0   20      0.43      0.00 
    8    0   20      0.34      0.00 
    9    0   20     -0.22      0.00 
   10    0   20     -0.78      0.00 
    3    1   20     -0.30      0.00 
    4    1   20     -0.13      0.00 
    5    1   20      0.13      0.00 
    6    1   20      0.31      0.00 
    7    1   20      0.26      0.00 
    8    1   20      0.30      0.00 
    9    1   20      0.55      0.00 
   10    1   20      0.47      0.00 
   11    1   20     -0.15      0.00 
    3    2   20     -0.11      0.00 
    4    2   20     -0.09      0.00 
    5    2   20     -0.25      0.00 
    6    2   20     -0.50      0.00 
    7    2   20     -0.71      0.00 
    8    2   20     -0.77      0.00 
    9    2   20     -0.37      0.00 
   10    2   20      0.48      0.00 
   11    2   20      0.92      0.00 
   12    2   20      0.38      0.00 
    2    3   20      0.49      0.00 
    3    3   20      0.66      0.00 
    4    3   20      0.66      0.00 
    5    3   20      0.60      0.00 
    6    3   20      0.63      0.00 
    7    3   20      0.69      0.00 
    8    3   20      0.38      0.00 
    9    3   20     -0.49      0.00 
   10    3   20     -1.20      0.00 
   11    3   20     -0.80      0.00 
   12    3   20      0.26      0.00 
    2    4   20     -0.12      0.00 
    3    4   20     -0.57      0.00 
    4    4   20     -0.80      0.00 
    5    4   20     -0.80      0.00 
    6    4   20     -0.57      0.00 
    7    4   20     -0.02      0.00 
    8    4   20      0.77      0.00 
    9    4   20      1.30      0.00 
   10    4   20      0.95      0.00 
   11    4   20     -0.06      0.00 
   12    4   20     -0.69      0.00 
   13    4   20     -0.56      0.00 
    2    5   20     -0.29      0.00 
    3    5   20     -0.02      0.00 
    4    5   20      0.27      0.00 
    5    5   20      0.34      0.00 
    6    5   20     -0.12      0.00 
    7    5   20     -1.00      0.00 
    8    5   20     -1.55      0.00 
    9    5   20     -1.16      0.00 
   10    5   20     -0.18      0.00 
   11    5   20      0.33      0.00 
   12    5   20     -0.04      0.00 
   13    5   20     -0.48      0.00 
    1    6   20     -0.06      0.00 
    2    6   20      0.12      0.00 
    3    6   20      0.20      0.00 
    4    6   20      0.18      0.00 
    5    6   20      0.32      0.00 
    6    6   20      0.77      0.00 
    7    6   20      1.11      0.00 
    8    6   20      0.80      0.00 
    9    6   20      0.01      0.00 
   10    6   20     -0.38      0.00 
   11    6   20      0.23      0.00 
   12    6   20      1.18      0.00 
   13    6   20      1.31      0.00 
    2    7   20      0.26      0.00 
    3    7   20     -0.07      0.00 
    4    7   20     -0.45      0.00 
    5    7   20     -0.76      0.00 
    6    7   20     -0.68      0.00 
    7    7   20      0.03      0.00 
    8    7   20      0.98      0.00 
    9    7   20      1.31      0.00 
   10    7   20      0.61      0.00 
   11    7   20     -0.53      0.00 
   12    7   20     -1.10      0.00 
   13    7   20     -0.81      0.00 
    2    8   20     -0.03      0.00 
    3    8   20      0.42      0.00 
    4    8   20      0.85      0.00 
    5    8   20      0.92      0.00 
    6    8   20      0.21      0.00 
    7    8   20     -1.01      0.00 
    8    8   20     -1.77      0.00 
    9    8   20     -1.41      0.00 
   10    8   20     -0.43      0.00 
   11    8   20      0.12      0.00 
   12    8   20     -0.07      0.00 
   13    8   20     -0.32      0.00 
    2    9   20     -0.53      0.00 
    3    9   20     -0.68      0.00 
    4    9   20     -0.66      0.00 
    5    9   20     -0.30      0.00 
    6    9   20      0.32      0.00 
    7    9   20      0.69      0.00 
    8    9   20      0.45      0.00 
    9    9   20      0.01      0.00 
   10    9   20      0.00      0.00 
   11    9   20      0.52      0.00 
   12    9   20      0.94      0.00 
    3   10   20      0.17      0.00 
    4   10   20     -0.42      0.00 
    5   10   20     -0.93      0.00 
    6   10   20     -0.68      0.00 
    7   10   20      0.41      0.00 
    8   10   20      1.26      0.00 
    9   10   20      0.96      0.00 
   10   10   20     -0.15      0.00 
   11   10   20     -0.96      0.00 
   12   10   20     -0.86      0.00 
    4   11   20      1.05      0.00 
    5   11   20      1.14      0.00 
    6   11   20      0.17      0.00 
    7   11   20     -0.98      0.00 
    8   11   20     -1.07      0.00 
    9   11   20     -0.14      0.00 
   10   11   20      0.76      0.00 
   11   11   20      0.84      0.00 
    5   12   20      0.10      0.00 
    6   12   20      0.71      0.00 
    7   12   20      0.42      0.00 
    8   12   20     -0.45      0.00 
    9   12   20     -0.90      0.00 
    6    3   21      0.44      0.00 
    7    3   21      0.45      0.00 
    8    3   21      0.48      0.00 
    9    3   21      0.18      0.00 
    5    4   21     -0.52      0.00 
    6    4   21     -0.54      0.00 
    7    4   21     -0.36      0.00 
    8    4   21      0.11      0.00 
    9    4   21      0.74      0.00 
   10    4   21      1.05      0.00 
    5    5   21      0.08      0.00 
    6    5   21      0.23      0.00 
    7    5   21     -0.13      0.00 
    8    5   21     -0.81      0.00 
    9    5   21     -1.18      0.00 
   10    5   21     -0.85      0.00 
    4    6   21      0.31      0.00 
    5    6   21      0.14      0.00 
    6    6   21      0.21      0.00 
    7    6   21      0.55      0.00 
    8    6   21      0.77      0.00 
    9    6   21      0.49      0.00 
   10    6   21     -0.04      0.00 
   11    6   21     -0.19      0.00 
    4    7   21      0.01      0.00 
    5    7   21     -0.19      0.00 
    6    7   21     -0.47      0.00 
    7    7   21     -0.42      0.00 
    8    7   21      0.17      0.00 
    9    7   21      0.87      0.00 
   10    7   21      1.02      0.00 
   11    7   21      0.41      0.00 
    5    8   21      0.53      0.00 
    6    8   21      0.62      0.00 
    7    8   21      0.01      0.00 
    8    8   21     -0.99      0.00 
    9    8   21     -1.52      0.00 
   10    8   21     -1.16      0.00 
    6    9   21     -0.26      0.00 
    7    9   21      0.32      0.00 
    8    9   21      0.65      0.00 
    9    9   21      0.51      0.00 
   17    1    0      0.03      0.00 
  -17    2    0      0.17      0.00 
   17    2    0      0.69      0.00 
  -15    9    0      0.29      0.00 
   12   13    0     -0.34      0.00 
   11   14    0      0.50      0.00 
  -10   15    0     -0.50      0.00 
   -4   18    0      0.13      0.00 
    3   18    0      0.24      0.00 
   -1  -18    1      0.70      0.00 
    0  -18    1      0.73      0.00 
    1  -18    1      0.33      0.00 
    2  -18    1     -0.14      0.00 
   -5  -17    1      0.24      0.00 
   -9  -15    1     -0.32      0.00 
   10  -15    1     -0.45      0.00 
  -13  -11    1      0.50      0.00 
   14  -11    1      0.33      0.00 
  -16   -5    1      0.15      0.00 
   17   -4    1     -0.29      0.00 
   17    4    1      0.34      0.00 
  -16    6    1      0.39      0.00 
  -13   12    1     -0.47      0.00 
  -10   15    1     -0.50      0.00 
    9   16    1     -1.05      0.00 
   -7   17    1      0.74      0.00 
   -4   18    1      0.32      0.00 
   -4  -17    2      0.26      0.00 
    8  -16    2      0.26      0.00 
   -8  -15    2     -0.56      0.00 
   14  -11    2      0.30      0.00 
  -13  -10    2     -0.22      0.00 
   17   -5    2      0.61      0.00 
  -16   -3    2     -0.42      0.00 
  -16    4    2     -0.39      0.00 
   17    6    2      0.00      0.00 
  -15    8    2      0.08      0.00 
  -14   10    2      0.05      0.00 
  -12   13    2     -0.39      0.00 
   13   13    2      0.09      0.00 
  -11   14    2      0.25      0.00 
  -10   15    2     -0.33      0.00 
   11   15    2      0.58      0.00 
   -7   17    2      1.03      0.00 
    8   17    2      0.47      0.00 
   -2  -17    3     -0.01      0.00 
   -5  -16    3     -0.37      0.00 
   -7  -15    3     -0.68      0.00 
   11  -14    3      0.62      0.00 
   14  -11    3     -0.01      0.00 
  -13   -9    3     -0.31      0.00 
   16   -8    3      0.31      0.00 
   18   -1    3     -0.16      0.00 
   18    0    3      0.05      0.00 
   18    1    3     -0.26      0.00 
   18    2    3      0.67      0.00 
  -15    7    3     -0.31      0.00 
   17    7    3     -0.14      0.00 
   15   11    3      1.32      0.00 
   -7   17    3      0.89      0.00 
   -5   18    3     -0.42      0.00 
   -1   19    3      0.18      0.00 
    0   19    3      0.24      0.00 
    1   19    3     -0.31      0.00 
    2   19    3     -1.06      0.00 
    3   19    3     -1.28      0.00 
    7  -16    4     -0.40      0.00 
   -6  -15    4     -0.62      0.00 
    9  -15    4     -0.43      0.00 
   12  -13    4     -0.11      0.00 
  -10  -12    4     -0.20      0.00 
   14  -11    4     -0.23      0.00 
  -13   -8    4      0.60      0.00 
   16   -8    4      0.37      0.00 
   17   -6    4     -0.08      0.00 
  -15   -2    4      0.02      0.00 
   18   -2    4      0.25      0.00 
   18    4    4     -0.38      0.00 
  -15    5    4     -0.21      0.00 
   16   10    4     -1.13      0.00 
   14   13    4      0.12      0.00 
   13   14    4      0.14      0.00 
   12   15    4      0.56      0.00 
   -7   17    4      0.47      0.00 
   -5   18    4     -0.78      0.00 
   -1   19    4      0.02      0.00 
    4   19    4     -1.28      0.00 
   -1  -16    5     -0.50      0.00 
   -9  -12    5     -0.17      0.00 
   13  -12    5     -0.15      0.00 
  -10  -11    5      0.41      0.00 
   16   -8    5      0.41      0.00 
   17   -6    5     -0.23      0.00 
  -14   -4    5     -0.44      0.00 
   18   -3    5     -0.24      0.00 
   18    5    5      0.41      0.00 
  -13   10    5     -0.07      0.00 
  -11   13    5     -0.41      0.00 
   -8   16    5     -0.10      0.00 
    8   18    5     -0.35      0.00 
   -2   19    5     -0.39      0.00 
    5   19    5     -1.12      0.00 
   -3  -15    6     -0.20      0.00 
   -5  -14    6      0.08      0.00 
   -8  -12    6     -0.19      0.00 
   -9  -11    6      0.62      0.00 
  -10  -10    6      0.42      0.00 
   16   -8    6      0.34      0.00 
  -12   -7    6     -0.41      0.00 
   17   -6    6     -0.20      0.00 
  -13   -5    6      0.25      0.00 
   18   -3    6     -0.29      0.00 
  -14   -1    6      0.02      0.00 
   18    0    6      0.10      0.00 
  -14    5    6     -0.26      0.00 
   18    6    6     -0.10      0.00 
  -13    9    6      0.30      0.00 
   17    9    6      0.25      0.00 
  -12   11    6     -0.45      0.00 
   16   11    6      0.52      0.00 
    5   19    6     -0.90      0.00 
    0  -15    7      0.49      0.00 
    6  -15    7     -0.29      0.00 
    9  -14    7      0.71      0.00 
   -8  -11    7      0.87      0.00 
   -9  -10    7      0.28      0.00 
   17   -6    7      0.06      0.00 
   18   -3    7     -0.19      0.00 
  -13    7    7     -0.50      0.00 
   18    7    7     -0.05      0.00 
  -12   10    7      0.19      0.00 
   15   13    7     -0.68      0.00 
   12   16    7      0.41      0.00 
   -6   17    7     -0.12      0.00 
   -4   18    7     -0.84      0.00 
   -1   19    7     -0.36      0.00 
    6   19    7     -0.60      0.00 
   -4  -13    8     -0.56      0.00 
   10  -13    8     -0.26      0.00 
   -7  -11    8      0.99      0.00 
   13  -11    8     -0.68      0.00 
   -8  -10    8      0.03      0.00 
   14  -10    8      0.26      0.00 
   18   -3    8      0.05      0.00 
  -13    1    8     -0.39      0.00 
  -13    2    8     -0.08      0.00 
  -13    3    8      0.12      0.00 
  -13    4    8      0.07      0.00 
   17   10    8     -0.46      0.00 
  -11   11    8     -0.49      0.00 
   -8   15    8      0.41      0.00 
    9   18    8     -0.67      0.00 
   -1   19    8     -0.15      0.00 
    6   19    8      0.08      0.00 
    2  -14    9     -0.41      0.00 
    3  -14    9      0.19      0.00 
    4  -14    9      0.82      0.00 
    5  -14    9      0.88      0.00 
   -2  -13    9      0.11      0.00 
    9  -13    9      0.05      0.00 
   -4  -12    9      0.53      0.00 
   11  -12    9     -0.15      0.00 
   16   -7    9      0.38      0.00 
  -10   -6    9      0.41      0.00 
  -11   -4    9     -0.39      0.00 
   18   -3    9      0.18      0.00 
  -12    6    9      0.12      0.00 
   16   12    9      0.71      0.00 
   -9   13    9     -0.41      0.00 
   -5   17    9     -0.14      0.00 
   11   17    9      0.43      0.00 
   -3   18    9     -0.33      0.00 
    9   18    9     -0.47      0.00 
    0   19    9      0.12      0.00 
    6   19    9      0.73      0.00 
    1  -13   10      0.49      0.00 
    7  -13   10      0.24      0.00 
   10  -12   10      0.24      0.00 
   -4  -11   10      0.75      0.00 
   13  -10   10      0.50      0.00 
   14   -9   10     -0.04      0.00 
   15   -8   10      0.22      0.00 
   -9   -6   10      0.23      0.00 
   17   -5   10     -0.25      0.00 
  -10   -4   10     -0.36      0.00 
  -11   -1   10     -0.45      0.00 
   18    8   10      0.23      0.00 
   16   12   10      0.39      0.00 
   -4   17   10     -0.24      0.00 
   11   17   10      0.13      0.00 
    9   18   10     -0.18      0.00 
    1   19   10      0.31      0.00 
    6   19   10      0.73      0.00 
    0  -12   11      0.15      0.00 
    8  -12   11     -0.95      0.00 
   -4  -10   11     -0.67      0.00 
   -8   -6   11     -0.02      0.00 
   16   -6   11     -0.73      0.00 
   -9   -4   11     -0.28      0.00 
   18    8   11     -0.13      0.00 
   -9   11   11     -0.17      0.00 
   16   12   11      0.21      0.00 
   -7   14   11      0.19      0.00 
   -6   15   11     -0.05      0.00 
   -5   16   11     -0.19      0.00 
   11   17   11     -0.11      0.00 
    9   18   11     -0.04      0.00 
    2   19   11      0.33      0.00 
    3   19   11     -0.04      0.00 
    4   19   11     -0.43      0.00 
    5   19   11     -0.29      0.00 
    0  -11   12      0.27      0.00 
    9  -11   12      0.58      0.00 
   -2  -10   12     -0.77      0.00 
   11  -10   12      0.69      0.00 
   -5   -8   12     -0.14      0.00 
   -6   -7   12     -0.13      0.00 
   -8   -4   12     -0.17      0.00 
   18   -1   12      0.37      0.00 
  -10    4   12      0.35      0.00 
   -9    9   12      0.57      0.00 
   17   10   12      0.00      0.00 
   16   12   12      0.23      0.00 
   -7   13   12     -0.35      0.00 
   -4   16   12     -0.15      0.00 
   11   17   12      0.16      0.00 
    0   18   12     -0.50      0.00 
    0  -10   13     -0.61      0.00 
   -2   -9   13      0.31      0.00 
   13   -8   13      0.03      0.00 
   14   -7   13     -1.24      0.00 
   15   -6   13      0.58      0.00 
   18    1   13     -0.39      0.00 
   -9    3   13     -0.22      0.00 
   -9    4   13      0.32      0.00 
   -9    5   13     -0.17      0.00 
   18    7   13     -0.20      0.00 
   17   10   13     -0.21      0.00 
   16   12   13      0.31      0.00 
   -6   13   13     -0.52      0.00 
   -3   16   13     -0.08      0.00 
   12   16   13     -0.32      0.00 
    1   18   13     -0.43      0.00 
    8   18   13      1.26      0.00 
   13   -7   14     -0.75      0.00 
   -4   -6   14     -0.66      0.00 
   15   -5   14      0.07      0.00 
   -6   -3   14     -0.42      0.00 
   -7   -1   14     -0.12      0.00 
   18    2   14      0.86      0.00 
   -8    3   14     -0.23      0.00 
   18    3   14     -0.22      0.00 
   -8    4   14      0.12      0.00 
   18    4   14     -0.66      0.00 
   -8    5   14      0.10      0.00 
   18    5   14      0.45      0.00 
   -8    6   14      0.01      0.00 
   15   13   14     -0.26      0.00 
   14   14   14      0.09      0.00 
   13   15   14     -0.16      0.00 
   -2   16   14     -0.05      0.00 
    0   17   14     -0.95      0.00 
   10   17   14      0.12      0.00 
    3   18   14     -0.56      0.00 
    4   18   14     -0.95      0.00 
    5   18   14     -0.91      0.00 
    6   18   14     -0.17      0.00 
    7   18   14      0.77      0.00 
    1   -8   15     -0.54      0.00 
   10   -8   15      0.66      0.00 
   -2   -6   15     -0.48      0.00 
   13   -6   15      0.21      0.00 
   -4   -4   15      0.15      0.00 
   15   -4   15     -0.29      0.00 
   17    0   15     -0.04      0.00 
   -7    4   15     -0.10      0.00 
   -7    5   15      0.28      0.00 
   16   11   15     -0.04      0.00 
   -4   13   15     -0.40      0.00 
   -2   15   15     -0.49      0.00 
   11   16   15      0.23      0.00 
    2   17   15     -0.59      0.00 
    9   17   15     -0.68      0.00 
    2   -7   16     -0.20      0.00 
    0   -6   16      0.07      0.00 
   13   -5   16      0.52      0.00 
   14   -4   16     -0.20      0.00 
   16   -1   16      0.31      0.00 
   17    2   16     -0.04      0.00 
   17    7   16     -0.10      0.00 
   -5    9   16     -0.04      0.00 
   16   10   16     -0.46      0.00 
   15   12   16     -0.03      0.00 
   -3   13   16     -0.06      0.00 
   14   13   16      0.04      0.00 
   -2   14   16     -0.17      0.00 
   13   14   16      0.34      0.00 
   12   15   16     -0.35      0.00 
    1   16   16      0.32      0.00 
   10   16   16     -0.35      0.00 
    4   17   16     -0.46      0.00 
    5   17   16     -0.02      0.00 
    6   17   16      0.65      0.00 
    7   17   16      0.73      0.00 
    4   -6   17      0.11      0.00 
    9   -6   17     -0.59      0.00 
    1   -5   17     -0.26      0.00 
   11   -5   17      0.99      0.00 
   -2   -2   17      0.75      0.00 
   15   -1   17      0.94      0.00 
   16    1   17     -0.80      0.00 
   -4    2   17     -0.10      0.00 
   -4    8   17      0.28      0.00 
   16    9   17      0.46      0.00 
   -3   11   17     -0.14      0.00 
   15   11   17      0.16      0.00 
    1   15   17     -0.02      0.00 
   11   15   17      0.44      0.00 
    3   16   17      0.02      0.00 
    4   16   17     -0.08      0.00 
    8   16   17     -0.43      0.00 
    3   -4   18     -0.35      0.00 
    1   -3   18     -0.34      0.00 
   12   -3   18     -0.55      0.00 
    0   -2   18      0.40      0.00 
   13   -2   18      1.01      0.00 
   -1   -1   18     -0.05      0.00 
   14   -1   18      0.15      0.00 
   -2    1   18     -0.21      0.00 
   15    1   18     -0.34      0.00 
   -3    4   18     -0.38      0.00 
   -3    5   18      0.43      0.00 
   16    5   18      0.31      0.00 
   -3    6   18     -0.23      0.00 
   -3    7   18     -0.09      0.00 
   -2   10   18      0.01      0.00 
   11   14   18      0.22      0.00 
    4   15   18      0.92      0.00 
    9   15   18     -0.32      0.00 
    5   -3   19      0.22      0.00 
    6   -3   19      0.22      0.00 
    7   -3   19      0.18      0.00 
    8   -3   19     -0.01      0.00 
    9   -3   19     -0.40      0.00 
    3   -2   19      0.39      0.00 
   11   -2   19      0.02      0.00 
   12   -1   19     -0.61      0.00 
   13    0   19      0.34      0.00 
    0    1   19     -0.09      0.00 
   -1    3   19      0.24      0.00 
   -1    4   19      0.15      0.00 
   15    5   19      0.54      0.00 
   15    6   19     -0.60      0.00 
   -1    8   19     -0.29      0.00 
   13   11   19     -0.24      0.00 
    1   12   19     -0.11      0.00 
    2   12   19     -0.32      0.00 
    3   12   19     -0.45      0.00 
   12   12   19      0.28      0.00 
    3   13   19     -0.21      0.00 
   11   13   19     -0.47      0.00 
    5   14   19     -0.57      0.00 
    8   14   19     -0.18      0.00 
    9   14   19      0.52      0.00 
    6   -1   20     -0.72      0.00 
    7   -1   20     -0.59      0.00 
    8   -1   20     -0.33      0.00 
    9   -1   20      0.01      0.00 
    4    0   20      0.14      0.00 
   11    0   20     -0.52      0.00 
   12    1   20     -0.46      0.00 
    2    2   20     -0.22      0.00 
   13    3   20      0.68      0.00 
    1    4   20      0.27      0.00 
    1    5   20     -0.40      0.00 
    1    7   20      0.42      0.00 
    1    8   20     -0.27      0.00 
   13    9   20      0.74      0.00 
    2   10   20      0.53      0.00 
    3   11   20      0.38      0.00 
    4   12   20     -0.46      0.00 
   10   12   20     -0.65      0.00 
    7   13   20      0.62      0.00 
    6    2   21     -0.32      0.00 
    7    2   21     -0.43      0.00 
    8    2   21     -0.52      0.00 
    9    2   21     -0.56      0.00 
    5    3   21      0.53      0.00 
   10    3   21     -0.48      0.00 
    4    4   21     -0.39      0.00 
   11    4   21      0.66      0.00 
    4    5   21     -0.23      0.00 
   11    5   21     -0.18      0.00 
    4    8   21      0.17      0.00 
   11    8   21     -0.39      0.00 
    5    9   21     -0.57      0.00 
   10    9   21      0.20      0.00 
    6   10   21     -0.59      0.00 
    7   10   21     -0.34      0.00 
    8   10   21      0.43      0.00 
    9   10   21      0.85      0.00 
    0    0    0      0.00      0.00 
# SQUEEZE RESULTS (Version =  51222) 
# Note: Data are Listed for all Voids in the P1 Unit Cell 
# i.e. Centre of Gravity, Solvent Accessible Volume, 
# Recovered number of Electrons in the Void and 
# Details about the Squeezed Material 
loop_ 
  _platon_squeeze_void_nr 
  _platon_squeeze_void_average_x 
  _platon_squeeze_void_average_y 
  _platon_squeeze_void_average_z 
  _platon_squeeze_void_volume 
  _platon_squeeze_void_count_electrons 
  _platon_squeeze_void_content 
   1  0.000  0.500  0.000       284        77 ' ' 
_platon_squeeze_void_probe_radius                  1.20 
_platon_squeeze_details 
) 
TITL asb631           P -1         R = 0.14 
CELL   14.5521   15.0662   16.7358     70.97     65.67     82.92 
SPGR P-1 
# Solvent Accessible Volume =       284 
# Electrons Found in S.A.V. =        77 
# Note: Atoms in Void are Labelled as Cxxx and Qxxx for all Others 
C101 0.860 0.341 0.135 !       8.50 eA-3 
Q102 0.748 0.574 0.369 !       7.61 eA-3 
Q103 0.591 0.470 0.381 !       6.17 eA-3 
C104 0.926 0.643 0.066 !       5.52 eA-3 
C105 0.999 0.649 0.053 !       4.74 eA-3 
C106 0.898 0.296 0.098 !       4.67 eA-3 
Q107 0.626 0.422 0.409 !       2.95 eA-3 
Q108 0.646 0.435 0.375 !       2.61 eA-3 
C109 0.817 0.306 0.133 !       2.57 eA-3 
Q110 0.619 0.547 0.409 !       2.52 eA-3 
Q111 0.277 0.579 0.301 !       2.48 eA-3 
Q112 1.000 1.000 0.000 !       2.01 eA-3 
Q113 0.237 0.631 0.341 !       1.92 eA-3 
C114 0.953 0.386-0.006 !       1.88 eA-3 
Q115 0.996 0.934 0.014 !       1.79 eA-3 
Q116 0.046 0.088 0.232 !       1.78 eA-3 
Q117 0.387 0.604 0.310 !       1.59 eA-3 
Q118 0.656 0.591 0.432 !       1.55 eA-3 
Q119 0.689 0.542 0.389 !       1.49 eA-3 
Q120 0.955 0.951 0.161 !       1.42 eA-3 
Q121 0.178 0.655 0.386 !       1.35 eA-3 
Q122 0.205 0.120 0.082 !       1.30 eA-3 
Q123 0.789 0.501 0.385 !       1.27 eA-3 
Q124 0.621 0.386 0.466 !       1.24 eA-3 
Q125 0.722 0.437 0.309 !       1.12 eA-3 
Q126 0.845 1.005 0.088 !       0.96 eA-3 
Q127 0.264 0.905 0.215 !       0.94 eA-3 
Q128 0.062 0.068 0.331 !       0.94 eA-3 
Q129 0.124 0.903 0.299 !       0.93 eA-3 
Q130 0.357 0.708 0.358 !       0.88 eA-3 
Q131 0.406 0.293 0.057 !       0.87 eA-3 
Q132 0.436 0.723 0.318 !       0.87 eA-3 
Q133 0.109 0.341 0.341 !       0.87 eA-3 
Q134 0.169 0.877 0.329 !       0.83 eA-3 
Q135 0.296 0.691 0.403 !       0.82 eA-3 
Q136 0.882 0.936 0.046 !       0.81 eA-3 
Q137 0.150 0.082 0.112 !       0.79 eA-3 
Q138 0.943 0.877 0.065 !       0.79 eA-3 
Q139 0.317 0.223 0.323 !       0.79 eA-3 
Q140 0.108 0.423 0.250 !       0.79 eA-3 
Q141 0.031 0.996 0.337 !       0.78 eA-3 
Q142 0.451 0.104 0.316 !       0.78 eA-3 
Q143 0.390 0.742 0.266 !       0.78 eA-3 
Q144 0.392 0.690 0.280 !       0.77 eA-3 
Q145 0.577 0.202 0.054 !       0.76 eA-3 
Q146 0.638 0.137 0.082 !       0.75 eA-3 
Q147 0.253 0.127 0.300 !       0.72 eA-3 
Q148 0.312 0.627 0.392 !       0.71 eA-3 
Q149 0.388 0.667 0.078 !       0.70 eA-3 
Q150 0.426 0.267 0.149 !       0.70 eA-3 
Q151 0.733 0.498 0.452 !       0.66 eA-3 
Q152 0.592 0.275-0.006 !       0.66 eA-3 
Q153 0.264 0.105 0.212 !       0.65 eA-3 
Q154 0.307 0.065 0.216 !       0.64 eA-3 
Q155 0.343 0.953 0.125 !       0.64 eA-3 
Q156 0.370 0.015 0.264 !       0.64 eA-3 
Q157 0.466 0.409 0.123 !       0.63 eA-3 
Q158 0.284 0.668 0.125 !       0.63 eA-3 
Q159 0.779 0.127 0.368 !       0.63 eA-3 
Q160 0.328 0.401 0.012 !       0.62 eA-3 
Q161 0.553 0.515 0.434 !       0.62 eA-3 
Q162 0.753 0.078 0.396 !       0.62 eA-3 
Q163 0.015 0.635 0.299 !       0.61 eA-3 
C164 0.910 0.574 0.129 !       0.61 eA-3 
Q165 0.543 0.259 0.262 !       0.61 eA-3 
Q166 0.388 0.222 0.289 !       0.61 eA-3 
Q167 0.265 0.655 0.444 !       0.61 eA-3 
Q168 0.262 0.109 0.251 !       0.61 eA-3 
Q169 0.377 0.695 0.019 !       0.60 eA-3 
Q170 0.420 0.282 0.405 !       0.60 eA-3 
Q171 0.229 0.075 0.068 !       0.60 eA-3 
Q172 0.373 0.329 0.015 !       0.60 eA-3 
Q173 0.688 0.532 0.020 !       0.59 eA-3 
Q174 0.253 0.036 0.034 !       0.59 eA-3 
Q175 0.065 0.128 0.262 !       0.59 eA-3 
Q176 0.111 0.248 0.502 !       0.59 eA-3 
Q177 0.707 0.206 0.008 !       0.58 eA-3 
Q178 0.974 0.688 0.301 !       0.57 eA-3 
Q179 0.359 0.969 0.467 !       0.57 eA-3 
Q180 0.938 0.754 0.327 !       0.56 eA-3 
Q181 0.252 0.748 0.076 !       0.56 eA-3 
Q182 0.347 0.964 0.301 !       0.56 eA-3 
Q183 0.547 0.580 0.419 !       0.55 eA-3 
Q184 0.326 0.259 0.277 !       0.54 eA-3 
Q185 0.204 0.998 0.110 !       0.53 eA-3 
Q186 0.374 0.974 0.409 !       0.52 eA-3 
Q187 0.920 0.191 0.102 !       0.52 eA-3 
Q188 0.270 0.263 0.389 !       0.52 eA-3 
Q189 0.922 0.863 0.481 !       0.52 eA-3 
Q190 0.626 0.618 0.032 !       0.52 eA-3 
Q191 0.918 0.667 0.447 !       0.52 eA-3 
Q192 0.355 0.330 0.408 !       0.51 eA-3 
Q193 0.438 0.409 0.249 !       0.50 eA-3 
Q194 0.044 0.316 0.376 !       0.50 eA-3 
) 
;
_shelx_fab_checksum              59607
loop_
_space_group_symop_operation_xyz
'x, y, z'
'-x, -y, -z'
loop_
_atom_site_label
_atom_site_type_symbol
_atom_site_fract_x
_atom_site_fract_y
_atom_site_fract_z
_atom_site_U_iso_or_equiv
_atom_site_adp_type
_atom_site_occupancy
_atom_site_site_symmetry_order
_atom_site_calc_flag
_atom_site_refinement_flags_posn
_atom_site_refinement_flags_adp
_atom_site_refinement_flags_occupancy
_atom_site_disorder_assembly
_atom_site_disorder_group
Fe1 Fe 0.27113(4) 0.07958(4) 0.23410(4) 0.02195(14) Uani 1 1 d . . . . .
Mn1 Mn 0.34605(4) 0.21896(4) 0.30511(4) 0.02480(16) Uani 1 1 d . . . . .
P1 P 0.13156(7) 0.24340(7) 0.46073(7) 0.0245(2) Uani 1 1 d . . . . .
P2 P 0.42619(7) 0.00352(8) 0.33518(8) 0.0269(2) Uani 1 1 d . . . . .
P3 P 0.43200(8) 0.25608(8) 0.08668(8) 0.0311(3) Uani 1 1 d . . . . .
O1 O 0.25282(19) 0.1586(2) 0.30015(19) 0.0250(6) Uani 1 1 d . . . . .
O2 O 0.0931(2) 0.1457(2) 0.4952(2) 0.0310(7) Uani 1 1 d . . . . .
O3 O 0.3689(2) -0.0067(2) 0.2802(2) 0.0276(6) Uani 1 1 d . . . . .
O4 O 0.3786(2) 0.1629(2) 0.1181(2) 0.0304(7) Uani 1 1 d . . . . .
N1 N 0.4513(3) 0.2934(3) 0.3126(3) 0.0314(8) Uani 1 1 d . . . . .
N2 N 0.2540(2) 0.2585(2) 0.4152(2) 0.0267(7) Uani 1 1 d . . . . .
N3 N 0.4487(2) 0.1117(3) 0.3173(3) 0.0298(8) Uani 1 1 d . . . . .
N4 N 0.4108(3) 0.2988(3) 0.1692(2) 0.0300(8) Uani 1 1 d . . . . .
N5 N 0.1452(2) -0.0212(2) 0.3308(2) 0.0244(7) Uani 1 1 d . . . . .
N6 N 0.2803(2) -0.0132(2) 0.1488(2) 0.0252(7) Uani 1 1 d . . . . .
N7 N 0.1515(3) 0.1393(2) 0.1820(2) 0.0276(7) Uani 1 1 d . . . . .
C1 C 0.4120(3) 0.3013(4) 0.4073(3) 0.0376(11) Uani 1 1 d . . . . .
H1A H 0.4249 0.2424 0.4494 0.045 Uiso 1 1 calc R U . . .
H1B H 0.4474 0.3533 0.4074 0.045 Uiso 1 1 calc R U . . .
C2 C 0.3019(3) 0.3193(4) 0.4397(3) 0.0365(11) Uani 1 1 d . . . . .
H2A H 0.2724 0.3066 0.5074 0.044 Uiso 1 1 calc R U . . .
H2B H 0.2900 0.3859 0.4109 0.044 Uiso 1 1 calc R U . . .
C3 C 0.5483(3) 0.2419(4) 0.2912(3) 0.0368(11) Uani 1 1 d . . . . .
H3A H 0.5920 0.2639 0.3133 0.044 Uiso 1 1 calc R U . . .
H3B H 0.5837 0.2549 0.2237 0.044 Uiso 1 1 calc R U . . .
C4 C 0.5291(3) 0.1385(4) 0.3364(4) 0.0381(11) Uani 1 1 d . . . . .
H4A H 0.5913 0.1036 0.3120 0.046 Uiso 1 1 calc R U . . .
H4B H 0.5086 0.1233 0.4037 0.046 Uiso 1 1 calc R U . . .
C5 C 0.4610(3) 0.3872(3) 0.2428(3) 0.0369(11) Uani 1 1 d . . . . .
H5A H 0.5183 0.4225 0.2358 0.044 Uiso 1 1 calc R U . . .
H5B H 0.3988 0.4234 0.2636 0.044 Uiso 1 1 calc R U . . .
C6 C 0.4782(3) 0.3754(3) 0.1514(3) 0.0367(10) Uani 1 1 d . . . . .
H6A H 0.4630 0.4345 0.1111 0.044 Uiso 1 1 calc R U . . .
H6B H 0.5495 0.3595 0.1201 0.044 Uiso 1 1 calc R U . . .
C7 C 0.0827(3) 0.3164(3) 0.3771(3) 0.0295(9) Uani 1 1 d . . . . .
C8 C 0.1413(3) 0.3848(3) 0.2980(3) 0.0321(9) Uani 1 1 d . . . . .
H8A H 0.2087 0.3960 0.2878 0.039 Uiso 1 1 calc R U . . .
C9 C 0.1027(4) 0.4368(3) 0.2340(3) 0.0423(12) Uani 1 1 d . . . . .
H9A H 0.1441 0.4825 0.1798 0.051 Uiso 1 1 calc R U . . .
C10 C 0.0048(5) 0.4227(4) 0.2483(4) 0.0481(13) Uani 1 1 d . . . . .
H10A H -0.0216 0.4587 0.2045 0.058 Uiso 1 1 calc R U . . .
C11 C -0.0544(4) 0.3562(4) 0.3263(5) 0.0526(14) Uani 1 1 d . . . . .
H11A H -0.1220 0.3466 0.3361 0.063 Uiso 1 1 calc R U . . .
C12 C -0.0170(4) 0.3028(3) 0.3910(4) 0.0412(11) Uani 1 1 d . . . . .
H12A H -0.0589 0.2570 0.4446 0.049 Uiso 1 1 calc R U . . .
C13 C 0.0826(3) 0.2934(3) 0.5553(3) 0.0253(8) Uani 1 1 d . . . . .
C14 C 0.0652(3) 0.3888(3) 0.5441(3) 0.0309(9) Uani 1 1 d . . . . .
H14A H 0.0792 0.4316 0.4843 0.037 Uiso 1 1 calc R U . . .
C15 C 0.0277(4) 0.4217(3) 0.6199(3) 0.0353(10) Uani 1 1 d . . . . .
H15A H 0.0154 0.4868 0.6121 0.042 Uiso 1 1 calc R U . . .
C16 C 0.0083(3) 0.3599(3) 0.7067(3) 0.0360(10) Uani 1 1 d . . . . .
H16A H -0.0171 0.3825 0.7585 0.043 Uiso 1 1 calc R U . . .
C17 C 0.0258(3) 0.2646(3) 0.7187(3) 0.0331(9) Uani 1 1 d . . . . .
H17A H 0.0127 0.2222 0.7786 0.040 Uiso 1 1 calc R U . . .
C18 C 0.0625(3) 0.2318(3) 0.6432(3) 0.0282(9) Uani 1 1 d . . . . .
H18A H 0.0740 0.1666 0.6514 0.034 Uiso 1 1 calc R U . . .
C19 C 0.5411(3) -0.0633(3) 0.3055(3) 0.0295(9) Uani 1 1 d . . . . .
C20 C 0.5781(3) -0.0880(3) 0.2248(3) 0.0359(10) Uani 1 1 d . . . . .
H20A H 0.5430 -0.0702 0.1851 0.043 Uiso 1 1 calc R U . . .
C21 C 0.6665(4) -0.1388(4) 0.2021(4) 0.0456(12) Uani 1 1 d . . . . .
H21A H 0.6915 -0.1562 0.1473 0.055 Uiso 1 1 calc R U . . .
C22 C 0.7183(4) -0.1642(4) 0.2593(4) 0.0447(12) Uani 1 1 d . . . . .
H22A H 0.7787 -0.1991 0.2437 0.054 Uiso 1 1 calc R U . . .
C23 C 0.6825(4) -0.1389(4) 0.3387(4) 0.0421(11) Uani 1 1 d . . . . .
H23A H 0.7184 -0.1562 0.3777 0.051 Uiso 1 1 calc R U . . .
C24 C 0.5946(3) -0.0886(4) 0.3621(3) 0.0379(10) Uani 1 1 d . . . . .
H24A H 0.5705 -0.0711 0.4169 0.045 Uiso 1 1 calc R U . . .
C25 C 0.3553(3) -0.0538(3) 0.4562(3) 0.0310(9) Uani 1 1 d . . . . .
C26 C 0.3514(3) -0.1519(4) 0.4918(4) 0.0377(10) Uani 1 1 d . . . . .
H26A H 0.3917 -0.1889 0.4537 0.045 Uiso 1 1 calc R U . . .
C27 C 0.2893(3) -0.1947(4) 0.5819(4) 0.0448(12) Uani 1 1 d . . . . .
H27A H 0.2862 -0.2613 0.6060 0.054 Uiso 1 1 calc R U . . .
C28 C 0.2309(3) -0.1405(4) 0.6378(4) 0.0476(13) Uani 1 1 d . . . . .
H28A H 0.1880 -0.1704 0.6999 0.057 Uiso 1 1 calc R U . . .
C29 C 0.2348(3) -0.0432(4) 0.6037(3) 0.0415(11) Uani 1 1 d . . . . .
H29A H 0.1950 -0.0065 0.6422 0.050 Uiso 1 1 calc R U . . .
C30 C 0.2969(3) -0.0003(4) 0.5133(3) 0.0339(10) Uani 1 1 d . . . . .
H30A H 0.2999 0.0663 0.4896 0.041 Uiso 1 1 calc R U . . .
C31 C 0.3938(4) 0.3372(4) 0.0006(3) 0.0394(11) Uani 1 1 d . . . . .
C32 C 0.4073(5) 0.3167(4) -0.0793(3) 0.0518(14) Uani 1 1 d . . . . .
H32A H 0.4438 0.2625 -0.0916 0.062 Uiso 1 1 calc R U . . .
C33 C 0.3688(5) 0.3737(5) -0.1395(4) 0.0639(17) Uani 1 1 d . . . . .
H33A H 0.3795 0.3597 -0.1940 0.077 Uiso 1 1 calc R U . . .
C34 C 0.3133(5) 0.4528(5) -0.1215(4) 0.0665(18) Uani 1 1 d . . . . .
H34A H 0.2853 0.4917 -0.1631 0.080 Uiso 1 1 calc R U . . .
C35 C 0.2994(4) 0.4742(4) -0.0433(4) 0.0552(15) Uani 1 1 d . . . . .
H35A H 0.2623 0.5281 -0.0310 0.066 Uiso 1 1 calc R U . . .
C36 C 0.3395(4) 0.4170(4) 0.0171(4) 0.0425(12) Uani 1 1 d . . . . .
H36A H 0.3301 0.4322 0.0708 0.051 Uiso 1 1 calc R U . . .
C37 C 0.5663(3) 0.2393(4) 0.0306(3) 0.0380(11) Uani 1 1 d . . . . .
C38 C 0.6087(4) 0.1640(4) 0.0768(4) 0.0437(12) Uani 1 1 d . . . . .
H38A H 0.5664 0.1218 0.1333 0.052 Uiso 1 1 calc R U . . .
C39 C 0.7121(4) 0.1487(5) 0.0420(4) 0.0542(15) Uani 1 1 d . . . . .
H39A H 0.7400 0.0968 0.0748 0.065 Uiso 1 1 calc R U . . .
C40 C 0.7735(4) 0.2089(5) -0.0399(5) 0.0609(18) Uani 1 1 d . . . . .
H40A H 0.8440 0.1980 -0.0643 0.073 Uiso 1 1 calc R U . . .
C41 C 0.7339(4) 0.2850(5) -0.0872(4) 0.065(2) Uani 1 1 d . . . . .
H41A H 0.7772 0.3266 -0.1436 0.078 Uiso 1 1 calc R U . . .
C42 C 0.6289(4) 0.3017(4) -0.0520(4) 0.0504(14) Uani 1 1 d . . . . .
H42A H 0.6014 0.3545 -0.0842 0.060 Uiso 1 1 calc R U . . .
C43 C 0.1749(4) -0.1105(4) 0.3057(4) 0.0501(14) Uani 1 1 d . . . . .
H43A H 0.2264 -0.1419 0.3295 0.060 Uiso 1 1 calc R U . . .
H43B H 0.1152 -0.1527 0.3366 0.060 Uiso 1 1 calc R U . . .
C44 C 0.2149(5) -0.0975(3) 0.2077(4) 0.0496(14) Uani 1 1 d . . . . .
H44A H 0.1576 -0.0935 0.1893 0.060 Uiso 1 1 calc R U . . .
H44B H 0.2541 -0.1537 0.1957 0.060 Uiso 1 1 calc R U . . .
C45 C 0.2430(4) 0.0453(4) 0.0787(4) 0.0495(14) Uani 1 1 d . . . . .
H45A H 0.2981 0.0884 0.0295 0.059 Uiso 1 1 calc R U . . .
H45B H 0.2271 0.0037 0.0508 0.059 Uiso 1 1 calc R U . . .
C46 C 0.1552(5) 0.1002(4) 0.1114(4) 0.0557(16) Uani 1 1 d . . . . .
H46A H 0.0944 0.0604 0.1365 0.067 Uiso 1 1 calc R U . . .
H46B H 0.1523 0.1526 0.0583 0.067 Uiso 1 1 calc R U . . .
C47 C 0.0577(4) 0.1118(4) 0.2685(4) 0.0573(16) Uani 1 1 d . . . . .
H47A H 0.0538 0.1507 0.3075 0.069 Uiso 1 1 calc R U . . .
H47B H -0.0015 0.1269 0.2518 0.069 Uiso 1 1 calc R U . . .
C48 C 0.0506(3) 0.0159(4) 0.3216(3) 0.0497(14) Uani 1 1 d . . . . .
H48A H 0.0305 -0.0217 0.2926 0.060 Uiso 1 1 calc R U . . .
H48B H -0.0030 0.0084 0.3838 0.060 Uiso 1 1 calc R U . . .
C49 C 0.1340(3) -0.0419(3) 0.4268(3) 0.0274(8) Uani 1 1 d . . . . .
H49A H 0.1935 -0.0755 0.4343 0.041 Uiso 1 1 calc R U . . .
H49B H 0.0736 -0.0809 0.4684 0.041 Uiso 1 1 calc R U . . .
H49C H 0.1276 0.0170 0.4416 0.041 Uiso 1 1 calc R U . . .
C50 C 0.3847(3) -0.0401(4) 0.1018(4) 0.0444(13) Uani 1 1 d . . . . .
H50A H 0.4095 -0.0809 0.1476 0.067 Uiso 1 1 calc R U . . .
H50B H 0.4274 0.0164 0.0666 0.067 Uiso 1 1 calc R U . . .
H50C H 0.3868 -0.0738 0.0599 0.067 Uiso 1 1 calc R U . . .
C51 C 0.1561(4) 0.2422(3) 0.1493(3) 0.0353(10) Uani 1 1 d . . . . .
H51A H 0.1628 0.2656 0.1948 0.053 Uiso 1 1 calc R U . . .
H51B H 0.0941 0.2665 0.1406 0.053 Uiso 1 1 calc R U . . .
H51C H 0.2143 0.2632 0.0906 0.053 Uiso 1 1 calc R U . . .
S1 S 0.3759(2) 0.54914(19) 0.6148(2) 0.0317(6) Uani 0.5 1 d . . P A 1
O5 O 0.4016(6) 0.6057(6) 0.5259(6) 0.0557(7) Uani 0.5 1 d . . P A 1
O6 O 0.3026(6) 0.5803(6) 0.6845(6) 0.0557(7) Uani 0.5 1 d . . P A 1
O7 O 0.4586(7) 0.4993(6) 0.6354(6) 0.0557(7) Uani 0.5 1 d . . P A 1
C52 C 0.3184(11) 0.4510(9) 0.6166(9) 0.0557(7) Uani 0.5 1 d . . P A 1
F1 F 0.3708(5) 0.3986(5) 0.5659(5) 0.0557(7) Uani 0.5 1 d . . P A 1
F2 F 0.2702(5) 0.3898(5) 0.7020(5) 0.0557(7) Uani 0.5 1 d . . P A 1
F3 F 0.2423(5) 0.4734(5) 0.5882(5) 0.0557(7) Uani 0.5 1 d . . P A 1
S2 S 0.0365(3) 1.0221(3) -0.0545(3) 0.0534(8) Uani 0.5 1 d D U P . .
O8 O 0.1035(8) 0.9646(7) -0.1017(8) 0.0810(12) Uani 0.5 1 d D . P . .
O9 O 0.0954(8) 1.0984(7) -0.0613(8) 0.0810(12) Uani 0.5 1 d D . P . .
O10 O -0.0294(8) 1.0692(10) -0.0997(10) 0.0810(12) Uani 0.5 1 d D . P . .
C53 C -0.0503(14) 0.9860(13) 0.0638(13) 0.0810(12) Uani 0.5 1 d D U P . .
F4 F -0.0738(7) 1.0717(6) 0.0805(6) 0.0810(12) Uani 0.5 1 d D . P . .
F5 F -0.1255(6) 0.9449(6) 0.0610(7) 0.0810(12) Uani 0.5 1 d D . P . .
F6 F -0.0028(7) 0.9316(8) 0.1151(7) 0.0810(12) Uani 0.5 1 d D . P . .
C54 C 0.3446(8) 0.6129(7) 0.3588(9) 0.079(3) Uiso 0.65 1 d D . P B 1
H54A H 0.3938 0.5626 0.3455 0.095 Uiso 0.65 1 calc R U P B 1
H54B H 0.3159 0.6018 0.4262 0.095 Uiso 0.65 1 calc R U P B 1
Cl1 Cl 0.40831(17) 0.71998(16) 0.30486(17) 0.0726(5) Uani 0.8 1 d D . P B 1
Cl2 Cl 0.2493(2) 0.6040(2) 0.3266(2) 0.0726(5) Uani 0.65 1 d D . P B 1
C54B C 0.3019(8) 0.653(2) 0.3871(13) 0.098(8) Uiso 0.35 1 d D . P C 2
H54C H 0.3015 0.6092 0.4461 0.117 Uiso 0.35 1 calc R U P C 2
H54D H 0.2995 0.7181 0.3894 0.117 Uiso 0.35 1 calc R U P C 2
Cl1B Cl 0.4079(6) 0.6374(8) 0.2962(6) 0.0790(13) Uani 0.2 1 d D . P C 2
Cl2B Cl 0.2014(5) 0.6302(5) 0.3683(4) 0.0790(13) Uani 0.35 1 d D . P C 2
C55 C 0.3842(13) 0.4446(12) 0.5922(12) 0.077(4) Uiso 0.5 1 d . . P D 2
H55A H 0.4162 0.3879 0.6197 0.092 Uiso 0.5 1 calc R U P D 2
H55B H 0.4166 0.4593 0.5244 0.092 Uiso 0.5 1 calc R U P D 2
Cl3 Cl 0.2532(5) 0.4239(4) 0.6314(4) 0.1091(14) Uiso 0.5 1 d . . P D 2
Cl4 Cl 0.3991(6) 0.5325(6) 0.6222(6) 0.1091(14) Uiso 0.5 1 d . . P D 2
loop_
_atom_site_aniso_label
_atom_site_aniso_U_11
_atom_site_aniso_U_22
_atom_site_aniso_U_33
_atom_site_aniso_U_23
_atom_site_aniso_U_13
_atom_site_aniso_U_12
Fe1 0.0150(3) 0.0288(3) 0.0238(3) -0.0140(2) -0.0034(2) -0.0048(2)
Mn1 0.0145(3) 0.0329(3) 0.0298(3) -0.0193(3) -0.0020(2) -0.0065(2)
P1 0.0168(5) 0.0247(5) 0.0313(5) -0.0149(4) -0.0032(4) -0.0024(4)
P2 0.0167(5) 0.0369(6) 0.0343(6) -0.0206(5) -0.0093(4) -0.0002(4)
P3 0.0227(5) 0.0381(6) 0.0286(5) -0.0168(5) 0.0021(4) -0.0121(4)
O1 0.0155(12) 0.0323(15) 0.0291(14) -0.0172(12) -0.0032(11) -0.0047(11)
O2 0.0217(14) 0.0268(15) 0.0417(17) -0.0171(13) -0.0043(12) -0.0021(11)
O3 0.0208(13) 0.0345(16) 0.0352(16) -0.0209(13) -0.0108(12) 0.0011(11)
O4 0.0233(14) 0.0385(17) 0.0278(15) -0.0171(13) -0.0001(12) -0.0108(12)
N1 0.0193(16) 0.043(2) 0.036(2) -0.0246(17) -0.0028(14) -0.0091(15)
N2 0.0172(15) 0.0337(19) 0.0325(18) -0.0213(15) -0.0031(14) -0.0045(13)
N3 0.0162(15) 0.041(2) 0.040(2) -0.0247(17) -0.0078(14) -0.0027(14)
N4 0.0235(17) 0.0330(19) 0.0325(19) -0.0170(16) -0.0014(14) -0.0117(14)
N5 0.0158(15) 0.0325(18) 0.0259(17) -0.0117(14) -0.0053(13) -0.0059(13)
N6 0.0205(16) 0.0303(18) 0.0275(17) -0.0146(14) -0.0067(13) -0.0031(13)
N7 0.0230(17) 0.0293(18) 0.0314(18) -0.0119(15) -0.0085(14) -0.0033(14)
C1 0.026(2) 0.056(3) 0.038(2) -0.030(2) -0.0027(18) -0.016(2)
C2 0.025(2) 0.050(3) 0.040(2) -0.029(2) -0.0035(18) -0.0107(19)
C3 0.0181(19) 0.053(3) 0.048(3) -0.030(2) -0.0092(19) -0.0057(18)
C4 0.022(2) 0.052(3) 0.051(3) -0.027(2) -0.013(2) -0.0051(19)
C5 0.023(2) 0.042(3) 0.047(3) -0.026(2) -0.0003(19) -0.0131(18)
C6 0.030(2) 0.036(2) 0.040(2) -0.018(2) -0.0010(19) -0.0144(19)
C7 0.025(2) 0.030(2) 0.039(2) -0.0203(19) -0.0114(18) 0.0021(16)
C8 0.033(2) 0.031(2) 0.034(2) -0.0187(19) -0.0091(19) 0.0025(18)
C9 0.055(3) 0.036(3) 0.036(3) -0.020(2) -0.014(2) 0.010(2)
C10 0.067(4) 0.036(3) 0.064(4) -0.025(3) -0.044(3) 0.014(2)
C11 0.046(3) 0.042(3) 0.089(4) -0.024(3) -0.043(3) 0.004(2)
C12 0.032(2) 0.033(2) 0.062(3) -0.016(2) -0.020(2) -0.0029(19)
C13 0.0174(18) 0.026(2) 0.030(2) -0.0128(16) -0.0036(15) 0.0009(15)
C14 0.031(2) 0.027(2) 0.031(2) -0.0103(17) -0.0082(18) 0.0011(17)
C15 0.041(3) 0.026(2) 0.036(2) -0.0136(19) -0.012(2) 0.0070(18)
C16 0.034(2) 0.038(2) 0.032(2) -0.019(2) -0.0043(19) 0.0045(19)
C17 0.026(2) 0.035(2) 0.026(2) -0.0047(18) -0.0017(17) -0.0014(17)
C18 0.0197(18) 0.023(2) 0.037(2) -0.0109(17) -0.0048(17) 0.0000(15)
C19 0.0191(18) 0.034(2) 0.039(2) -0.0172(19) -0.0099(17) 0.0003(16)
C20 0.026(2) 0.043(3) 0.042(3) -0.021(2) -0.0117(19) 0.0028(19)
C21 0.036(3) 0.051(3) 0.048(3) -0.026(2) -0.010(2) 0.012(2)
C22 0.031(2) 0.044(3) 0.055(3) -0.017(2) -0.015(2) 0.014(2)
C23 0.029(2) 0.051(3) 0.045(3) -0.010(2) -0.016(2) 0.002(2)
C24 0.024(2) 0.052(3) 0.039(3) -0.019(2) -0.0113(19) 0.0030(19)
C25 0.0183(19) 0.045(3) 0.038(2) -0.019(2) -0.0127(17) -0.0020(17)
C26 0.023(2) 0.046(3) 0.052(3) -0.020(2) -0.018(2) -0.0024(19)
C27 0.024(2) 0.050(3) 0.058(3) -0.008(3) -0.019(2) -0.006(2)
C28 0.020(2) 0.073(4) 0.042(3) -0.008(3) -0.011(2) -0.009(2)
C29 0.022(2) 0.065(3) 0.039(3) -0.020(2) -0.0105(19) 0.000(2)
C30 0.0193(19) 0.050(3) 0.040(2) -0.022(2) -0.0123(18) -0.0009(18)
C31 0.033(2) 0.045(3) 0.031(2) -0.009(2) 0.0004(19) -0.017(2)
C32 0.061(3) 0.053(3) 0.028(2) -0.008(2) -0.002(2) -0.018(3)
C33 0.077(4) 0.070(4) 0.032(3) -0.005(3) -0.012(3) -0.018(4)
C34 0.066(4) 0.065(4) 0.047(3) 0.013(3) -0.016(3) -0.026(3)
C35 0.048(3) 0.049(3) 0.052(3) -0.003(3) -0.008(3) -0.017(3)
C36 0.033(2) 0.044(3) 0.040(3) -0.010(2) -0.003(2) -0.015(2)
C37 0.025(2) 0.052(3) 0.037(2) -0.028(2) 0.0039(18) -0.017(2)
C38 0.027(2) 0.068(3) 0.043(3) -0.036(3) -0.006(2) -0.004(2)
C39 0.027(2) 0.093(5) 0.058(3) -0.052(3) -0.009(2) -0.001(3)
C40 0.025(2) 0.101(5) 0.072(4) -0.062(4) -0.003(3) -0.007(3)
C41 0.036(3) 0.090(5) 0.058(4) -0.049(4) 0.023(3) -0.035(3)
C42 0.037(3) 0.056(3) 0.049(3) -0.028(3) 0.007(2) -0.019(2)
C43 0.060(3) 0.041(3) 0.041(3) -0.024(2) 0.004(2) -0.024(2)
C44 0.062(3) 0.031(2) 0.042(3) -0.016(2) 0.001(2) -0.011(2)
C45 0.059(3) 0.070(4) 0.035(3) -0.032(3) -0.027(2) 0.020(3)
C46 0.085(4) 0.055(3) 0.067(4) -0.040(3) -0.058(4) 0.025(3)
C47 0.017(2) 0.053(3) 0.070(4) 0.004(3) -0.004(2) -0.003(2)
C48 0.020(2) 0.082(4) 0.034(3) -0.001(3) -0.0097(19) -0.001(2)
C49 0.025(2) 0.033(2) 0.025(2) -0.0074(17) -0.0101(16) -0.0070(16)
C50 0.025(2) 0.067(3) 0.054(3) -0.046(3) -0.007(2) 0.002(2)
C51 0.041(3) 0.029(2) 0.036(2) -0.0058(19) -0.017(2) -0.0046(19)
S1 0.0367(14) 0.0293(12) 0.0394(13) -0.0154(10) -0.0191(11) -0.0069(10)
O5 0.0600(18) 0.0556(17) 0.0600(18) -0.0177(14) -0.0270(15) -0.0167(14)
O6 0.0600(18) 0.0556(17) 0.0600(18) -0.0177(14) -0.0270(15) -0.0167(14)
O7 0.0600(18) 0.0556(17) 0.0600(18) -0.0177(14) -0.0270(15) -0.0167(14)
C52 0.0600(18) 0.0556(17) 0.0600(18) -0.0177(14) -0.0270(15) -0.0167(14)
F1 0.0600(18) 0.0556(17) 0.0600(18) -0.0177(14) -0.0270(15) -0.0167(14)
F2 0.0600(18) 0.0556(17) 0.0600(18) -0.0177(14) -0.0270(15) -0.0167(14)
F3 0.0600(18) 0.0556(17) 0.0600(18) -0.0177(14) -0.0270(15) -0.0167(14)
S2 0.0434(16) 0.0621(19) 0.0644(19) -0.0124(15) -0.0334(15) -0.0082(14)
O8 0.080(3) 0.076(3) 0.091(3) -0.001(2) -0.051(3) -0.018(2)
O9 0.080(3) 0.076(3) 0.091(3) -0.001(2) -0.051(3) -0.018(2)
O10 0.080(3) 0.076(3) 0.091(3) -0.001(2) -0.051(3) -0.018(2)
C53 0.080(3) 0.076(3) 0.091(3) -0.001(2) -0.051(3) -0.018(2)
F4 0.080(3) 0.076(3) 0.091(3) -0.001(2) -0.051(3) -0.018(2)
F5 0.080(3) 0.076(3) 0.091(3) -0.001(2) -0.051(3) -0.018(2)
F6 0.080(3) 0.076(3) 0.091(3) -0.001(2) -0.051(3) -0.018(2)
Cl1 0.0683(10) 0.0650(10) 0.0785(12) -0.0071(9) -0.0328(9) -0.0050(8)
Cl2 0.0683(10) 0.0650(10) 0.0785(12) -0.0071(9) -0.0328(9) -0.0050(8)
Cl1B 0.087(3) 0.088(3) 0.059(3) -0.010(2) -0.031(2) -0.015(3)
Cl2B 0.087(3) 0.088(3) 0.059(3) -0.010(2) -0.031(2) -0.015(3)
loop_
_atom_type_symbol
_atom_type_description
_atom_type_scat_dispersion_real
_atom_type_scat_dispersion_imag
_atom_type_scat_source
C C 0.0033 0.0016 'International Tables Vol C Tables 4.2.6.8 and 6.1.1.4'
H H 0.0000 0.0000 'International Tables Vol C Tables 4.2.6.8 and 6.1.1.4'
N N 0.0061 0.0033 'International Tables Vol C Tables 4.2.6.8 and 6.1.1.4'
O O 0.0106 0.0060 'International Tables Vol C Tables 4.2.6.8 and 6.1.1.4'
F F 0.0171 0.0103 'International Tables Vol C Tables 4.2.6.8 and 6.1.1.4'
P P 0.1023 0.0942 'International Tables Vol C Tables 4.2.6.8 and 6.1.1.4'
S S 0.1246 0.1234 'International Tables Vol C Tables 4.2.6.8 and 6.1.1.4'
Cl Cl 0.1484 0.1585 'International Tables Vol C Tables 4.2.6.8 and 6.1.1.4'
Mn Mn 0.3368 0.7283 'International Tables Vol C Tables 4.2.6.8 and 6.1.1.4'
Fe Fe 0.3463 0.8444 'International Tables Vol C Tables 4.2.6.8 and 6.1.1.4'
loop_
_geom_angle_atom_site_label_1
_geom_angle_atom_site_label_2
_geom_angle_atom_site_label_3
_geom_angle
_geom_angle_site_symmetry_1
_geom_angle_site_symmetry_3
_geom_angle_publ_flag
O1 Fe1 O3 96.71(12) . . ?
O1 Fe1 O4 93.98(12) . . ?
O3 Fe1 O4 96.08(12) . . ?
O1 Fe1 N5 99.80(12) . . ?
O3 Fe1 N5 90.77(12) . . ?
O4 Fe1 N5 163.79(12) . . ?
O1 Fe1 N7 96.09(13) . . ?
O3 Fe1 N7 164.81(12) . . ?
O4 Fe1 N7 91.16(13) . . ?
N5 Fe1 N7 79.00(13) . . ?
O1 Fe1 N6 174.29(13) . . ?
O3 Fe1 N6 88.80(12) . . ?
O4 Fe1 N6 86.91(12) . . ?
N5 Fe1 N6 78.54(12) . . ?
N7 Fe1 N6 78.24(13) . . ?
O1 Mn1 N2 96.04(12) . . ?
O1 Mn1 N4 99.65(13) . . ?
N2 Mn1 N4 129.26(15) . . ?
O1 Mn1 N1 177.85(14) . . ?
N2 Mn1 N1 82.20(13) . . ?
N4 Mn1 N1 80.60(14) . . ?
O1 Mn1 N3 100.22(13) . . ?
N2 Mn1 N3 120.53(15) . . ?
N4 Mn1 N3 103.63(15) . . ?
N1 Mn1 N3 81.77(14) . . ?
O2 P1 N2 117.09(17) . . ?
O2 P1 C13 108.92(18) . . ?
N2 P1 C13 106.49(17) . . ?
O2 P1 C7 110.50(19) . . ?
N2 P1 C7 107.8(2) . . ?
C13 P1 C7 105.32(19) . . ?
O3 P2 N3 112.01(19) . . ?
O3 P2 C25 109.27(17) . . ?
N3 P2 C25 110.8(2) . . ?
O3 P2 C19 107.89(18) . . ?
N3 P2 C19 111.91(18) . . ?
C25 P2 C19 104.7(2) . . ?
O4 P3 N4 113.56(17) . . ?
O4 P3 C31 108.2(2) . . ?
N4 P3 C31 110.4(2) . . ?
O4 P3 C37 108.3(2) . . ?
N4 P3 C37 109.52(19) . . ?
C31 P3 C37 106.6(2) . . ?
Mn1 O1 Fe1 127.80(15) . . ?
P2 O3 Fe1 131.46(17) . . ?
P3 O4 Fe1 138.51(17) . . ?
C1 N1 C3 111.2(4) . . ?
C1 N1 C5 111.4(4) . . ?
C3 N1 C5 111.6(3) . . ?
C1 N1 Mn1 108.0(2) . . ?
C3 N1 Mn1 108.5(2) . . ?
C5 N1 Mn1 105.9(3) . . ?
C2 N2 P1 121.4(3) . . ?
C2 N2 Mn1 114.2(2) . . ?
P1 N2 Mn1 123.25(18) . . ?
C4 N3 P2 121.4(3) . . ?
C4 N3 Mn1 112.3(3) . . ?
P2 N3 Mn1 123.83(18) . . ?
C6 N4 P3 117.8(3) . . ?
C6 N4 Mn1 114.5(3) . . ?
P3 N4 Mn1 121.64(19) . . ?
C48 N5 C49 110.2(3) . . ?
C48 N5 C43 111.9(4) . . ?
C49 N5 C43 107.4(4) . . ?
C48 N5 Fe1 110.3(3) . . ?
C49 N5 Fe1 111.3(2) . . ?
C43 N5 Fe1 105.6(3) . . ?
C50 N6 C45 108.7(4) . . ?
C50 N6 C44 110.9(4) . . ?
C45 N6 C44 110.6(4) . . ?
C50 N6 Fe1 111.7(3) . . ?
C45 N6 Fe1 104.9(3) . . ?
C44 N6 Fe1 109.9(3) . . ?
C46 N7 C51 111.7(4) . . ?
C46 N7 C47 113.3(5) . . ?
C51 N7 C47 106.8(4) . . ?
C46 N7 Fe1 111.4(3) . . ?
C51 N7 Fe1 111.6(3) . . ?
C47 N7 Fe1 101.7(3) . . ?
C2 C1 N1 109.9(4) . . ?
N2 C2 C1 109.4(3) . . ?
N1 C3 C4 110.2(3) . . ?
N3 C4 C3 108.2(4) . . ?
N1 C5 C6 109.8(4) . . ?
N4 C6 C5 108.1(4) . . ?
C8 C7 C12 118.2(4) . . ?
C8 C7 P1 122.4(3) . . ?
C12 C7 P1 119.3(4) . . ?
C9 C8 C7 120.9(4) . . ?
C10 C9 C8 120.3(5) . . ?
C11 C10 C9 119.7(5) . . ?
C10 C11 C12 120.9(5) . . ?
C11 C12 C7 119.9(5) . . ?
C18 C13 C14 119.2(4) . . ?
C18 C13 P1 117.1(3) . . ?
C14 C13 P1 123.7(3) . . ?
C15 C14 C13 120.3(4) . . ?
C16 C15 C14 120.0(4) . . ?
C15 C16 C17 120.3(4) . . ?
C18 C17 C16 119.7(4) . . ?
C17 C18 C13 120.6(4) . . ?
C20 C19 C24 119.3(4) . . ?
C20 C19 P2 120.2(3) . . ?
C24 C19 P2 120.5(3) . . ?
C21 C20 C19 119.9(5) . . ?
C22 C21 C20 120.2(5) . . ?
C23 C22 C21 120.0(4) . . ?
C22 C23 C24 120.3(5) . . ?
C23 C24 C19 120.2(5) . . ?
C30 C25 C26 119.4(4) . . ?
C30 C25 P2 119.7(4) . . ?
C26 C25 P2 120.6(3) . . ?
C27 C26 C25 119.9(5) . . ?
C26 C27 C28 120.0(5) . . ?
C29 C28 C27 120.6(5) . . ?
C30 C29 C28 119.3(5) . . ?
C29 C30 C25 120.6(5) . . ?
C36 C31 C32 118.5(5) . . ?
C36 C31 P3 120.2(4) . . ?
C32 C31 P3 120.9(4) . . ?
C33 C32 C31 120.6(6) . . ?
C32 C33 C34 120.4(6) . . ?
C35 C34 C33 119.8(6) . . ?
C36 C35 C34 119.7(6) . . ?
C35 C36 C31 121.0(5) . . ?
C38 C37 C42 119.2(5) . . ?
C38 C37 P3 117.1(4) . . ?
C42 C37 P3 123.6(5) . . ?
C37 C38 C39 121.3(5) . . ?
C40 C39 C38 119.6(6) . . ?
C39 C40 C41 120.5(5) . . ?
C40 C41 C42 120.3(6) . . ?
C37 C42 C41 119.0(6) . . ?
C44 C43 N5 114.2(4) . . ?
C43 C44 N6 115.1(4) . . ?
C46 C45 N6 115.7(4) . . ?
C45 C46 N7 115.1(4) . . ?
C48 C47 N7 115.3(5) . . ?
C47 C48 N5 113.4(4) . . ?
O5 S1 O6 118.1(5) . . ?
O5 S1 O7 115.1(5) . . ?
O6 S1 O7 115.7(5) . . ?
O5 S1 C52 102.6(5) . . ?
O6 S1 C52 104.0(6) . . ?
O7 S1 C52 96.9(6) . . ?
F1 C52 F3 100.0(9) . . ?
F1 C52 F2 104.9(10) . . ?
F3 C52 F2 100.4(10) . . ?
F1 C52 S1 120.1(10) . . ?
F3 C52 S1 113.9(9) . . ?
F2 C52 S1 114.9(8) . . ?
C53 S2 F6 99(5) 2_575 2_575 ?
C53 S2 O8 9(5) 2_575 . ?
F6 S2 O8 99.3(8) 2_575 . ?
C53 S2 F5 74(5) 2_575 2_575 ?
F6 S2 F5 117.0(7) 2_575 2_575 ?
O8 S2 F5 81.8(6) . 2_575 ?
C53 S2 O10 112(5) 2_575 . ?
F6 S2 O10 16.9(8) 2_575 . ?
O8 S2 O10 111.2(7) . . ?
F5 S2 O10 128.9(7) 2_575 . ?
C53 S2 O9 99(5) 2_575 . ?
F6 S2 O9 97.4(8) 2_575 . ?
O8 S2 O9 107.5(6) . . ?
F5 S2 O9 29.9(5) 2_575 . ?
O10 S2 O9 104.0(6) . . ?
C53 S2 F4 33(5) 2_575 2_575 ?
F6 S2 F4 102.8(7) 2_575 2_575 ?
O8 S2 F4 24.0(5) . 2_575 ?
F5 S2 F4 101.1(5) 2_575 2_575 ?
O10 S2 F4 108.6(7) . 2_575 ?
O9 S2 F4 129.5(6) . 2_575 ?
C53 S2 S2 126(6) 2_575 2_575 ?
F6 S2 S2 122.9(6) 2_575 2_575 ?
O8 S2 S2 119.8(6) . 2_575 ?
F5 S2 S2 108.9(5) 2_575 2_575 ?
O10 S2 S2 106.0(6) . 2_575 ?
O9 S2 S2 107.1(6) . 2_575 ?
F4 S2 S2 99.7(5) 2_575 2_575 ?
C53 S2 C53 133(5) 2_575 . ?
F6 S2 C53 118.4(7) 2_575 . ?
O8 S2 C53 126.1(7) . . ?
F5 S2 C53 109.5(6) 2_575 . ?
O10 S2 C53 101.5(7) . . ?
O9 S2 C53 104.4(7) . . ?
F4 S2 C53 105.5(6) 2_575 . ?
S2 S2 C53 6.3(7) 2_575 . ?
F4 O8 C53 96.8(18) 2_575 2_575 ?
F4 O8 S2 94.9(16) 2_575 . ?
C53 O8 S2 1.9(11) 2_575 . ?
F5 O9 S2 69.9(11) 2_575 . ?
F5 O9 C53 62.4(12) 2_575 2_575 ?
S2 O9 C53 9.2(8) . 2_575 ?
F6 O10 S2 59(2) 2_575 . ?
F6 O10 C53 52(2) 2_575 2_575 ?
S2 O10 C53 8.4(8) . 2_575 ?
S2 C53 O8 169(6) 2_575 2_575 ?
S2 C53 F6 71(5) 2_575 . ?
O8 C53 F6 109.6(17) 2_575 . ?
S2 C53 F5 96(5) 2_575 . ?
O8 C53 F5 93.5(14) 2_575 . ?
F6 C53 F5 116.2(14) . . ?
S2 C53 F4 141(6) 2_575 . ?
O8 C53 F4 27.7(7) 2_575 . ?
F6 C53 F4 111.2(13) . . ?
F5 C53 F4 114.9(14) . . ?
S2 C53 O9 72(5) 2_575 2_575 ?
O8 C53 O9 118.6(16) 2_575 2_575 ?
F6 C53 O9 92.2(12) . 2_575 ?
F5 C53 O9 29.1(6) . 2_575 ?
F4 C53 O9 143.2(15) . 2_575 ?
S2 C53 O10 59(5) 2_575 2_575 ?
O8 C53 O10 119.1(16) 2_575 2_575 ?
F6 C53 O10 14.9(9) . 2_575 ?
F5 C53 O10 123.8(15) . 2_575 ?
F4 C53 O10 113.6(14) . 2_575 ?
O9 C53 O10 96.4(12) 2_575 2_575 ?
S2 C53 S2 47(5) 2_575 . ?
O8 C53 S2 124.7(14) 2_575 . ?
F6 C53 S2 109.2(12) . . ?
F5 C53 S2 102.9(11) . . ?
F4 C53 S2 100.8(11) . . ?
O9 C53 S2 97.5(11) 2_575 . ?
O10 C53 S2 94.5(10) 2_575 . ?
S2 C53 C53 42(5) 2_575 2_575 ?
O8 C53 C53 129.8(19) 2_575 2_575 ?
F6 C53 C53 105.0(16) . 2_575 ?
F5 C53 C53 102.5(15) . 2_575 ?
F4 C53 C53 105.5(16) . 2_575 ?
O9 C53 C53 94.6(14) 2_575 2_575 ?
O10 C53 C53 90.4(13) 2_575 2_575 ?
S2 C53 C53 5.3(6) . 2_575 ?
O8 F4 C53 55.5(15) 2_575 . ?
O8 F4 S2 61.1(14) 2_575 2_575 ?
C53 F4 S2 5.6(9) . 2_575 ?
O9 F5 C53 88.5(14) 2_575 . ?
O9 F5 S2 80.3(11) 2_575 2_575 ?
C53 F5 S2 10.1(9) . 2_575 ?
O10 F6 S2 104(3) 2_575 2_575 ?
O10 F6 C53 113(3) 2_575 . ?
S2 F6 C53 10.5(9) 2_575 . ?
Cl2 C54 Cl1 114.6(5) . . ?
Cl2B C54B Cl1B 105.9(7) . . ?
Cl4 C55 Cl3 108.6(10) . . ?
loop_
_geom_bond_atom_site_label_1
_geom_bond_atom_site_label_2
_geom_bond_distance
_geom_bond_site_symmetry_2
_geom_bond_publ_flag
Fe1 O1 1.802(3) . ?
Fe1 O3 2.026(3) . ?
Fe1 O4 2.046(3) . ?
Fe1 N5 2.219(3) . ?
Fe1 N7 2.225(4) . ?
Fe1 N6 2.261(3) . ?
Mn1 O1 1.767(3) . ?
Mn1 N2 2.008(3) . ?
Mn1 N4 2.058(4) . ?
Mn1 N1 2.071(3) . ?
Mn1 N3 2.079(4) . ?
P1 O2 1.482(3) . ?
P1 N2 1.635(3) . ?
P1 C13 1.816(4) . ?
P1 C7 1.816(5) . ?
P2 O3 1.523(3) . ?
P2 N3 1.608(4) . ?
P2 C25 1.809(5) . ?
P2 C19 1.812(4) . ?
P3 O4 1.517(3) . ?
P3 N4 1.612(4) . ?
P3 C31 1.795(5) . ?
P3 C37 1.812(5) . ?
N1 C1 1.487(5) . ?
N1 C3 1.489(6) . ?
N1 C5 1.489(6) . ?
N2 C2 1.460(5) . ?
N3 C4 1.465(5) . ?
N4 C6 1.482(5) . ?
N5 C48 1.468(5) . ?
N5 C49 1.476(5) . ?
N5 C43 1.500(6) . ?
N6 C50 1.471(5) . ?
N6 C45 1.476(6) . ?
N6 C44 1.482(6) . ?
N7 C46 1.463(6) . ?
N7 C51 1.466(6) . ?
N7 C47 1.501(6) . ?
C1 C2 1.486(6) . ?
C3 C4 1.497(7) . ?
C5 C6 1.512(6) . ?
C7 C8 1.392(6) . ?
C7 C12 1.402(6) . ?
C8 C9 1.385(7) . ?
C9 C10 1.375(8) . ?
C10 C11 1.372(8) . ?
C11 C12 1.388(8) . ?
C13 C18 1.390(6) . ?
C13 C14 1.392(6) . ?
C14 C15 1.388(6) . ?
C15 C16 1.379(7) . ?
C16 C17 1.389(6) . ?
C17 C18 1.384(6) . ?
C19 C20 1.390(6) . ?
C19 C24 1.395(6) . ?
C20 C21 1.388(6) . ?
C21 C22 1.384(8) . ?
C22 C23 1.376(8) . ?
C23 C24 1.381(7) . ?
C25 C30 1.396(6) . ?
C25 C26 1.401(7) . ?
C26 C27 1.377(7) . ?
C27 C28 1.391(8) . ?
C28 C29 1.388(8) . ?
C29 C30 1.380(7) . ?
C31 C36 1.396(7) . ?
C31 C32 1.399(7) . ?
C32 C33 1.360(9) . ?
C33 C34 1.400(10) . ?
C34 C35 1.378(9) . ?
C35 C36 1.377(8) . ?
C37 C38 1.384(8) . ?
C37 C42 1.397(7) . ?
C38 C39 1.392(7) . ?
C39 C40 1.371(9) . ?
C40 C41 1.376(10) . ?
C41 C42 1.416(8) . ?
C43 C44 1.448(7) . ?
C45 C46 1.440(8) . ?
C47 C48 1.419(8) . ?
S1 O5 1.369(9) . ?
S1 O6 1.388(9) . ?
S1 O7 1.443(10) . ?
S1 C52 1.772(12) . ?
C52 F1 1.296(15) . ?
C52 F3 1.343(15) . ?
C52 F2 1.363(15) . ?
S2 C53 0.25(2) 2_575 ?
S2 F6 1.274(12) 2_575 ?
S2 O8 1.389(11) . ?
S2 F5 1.394(10) 2_575 ?
S2 O10 1.442(10) . ?
S2 O9 1.463(9) . ?
S2 F4 1.581(11) 2_575 ?
S2 S2 1.638(9) 2_575 ?
S2 C53 1.794(17) . ?
O8 F4 0.646(11) 2_575 ?
O8 C53 1.15(2) 2_575 ?
O9 F5 0.739(12) 2_575 ?
O9 C53 1.52(2) 2_575 ?
O10 F6 0.433(18) 2_575 ?
O10 C53 1.55(2) 2_575 ?
C53 S2 0.25(2) 2_575 ?
C53 O8 1.15(2) 2_575 ?
C53 F6 1.333(17) . ?
C53 F5 1.347(17) . ?
C53 F4 1.382(17) . ?
C53 O9 1.52(2) 2_575 ?
C53 O10 1.55(2) 2_575 ?
C53 C53 1.97(4) 2_575 ?
F4 O8 0.646(11) 2_575 ?
F4 S2 1.581(11) 2_575 ?
F5 O9 0.739(12) 2_575 ?
F5 S2 1.394(10) 2_575 ?
F6 O10 0.433(18) 2_575 ?
F6 S2 1.274(12) 2_575 ?
C54 Cl2 1.715(8) . ?
C54 Cl1 1.734(8) . ?
C54B Cl2B 1.710(10) . ?
C54B Cl1B 1.720(10) . ?
C55 Cl4 1.627(18) . ?
C55 Cl3 1.774(18) . ?
