#------------------------------------------------------------------------------
#$Date: 2024-02-04 12:57:32 +0200 (Sun, 04 Feb 2024) $
#$Revision: 289310 $
#$URL: file:///home/coder/svn-repositories/cod/cif/1/57/00/1570095.cif $
#------------------------------------------------------------------------------
#
# This file is available in the Crystallography Open Database (COD),
# http://www.crystallography.net/
#
# All data on this site have been placed in the public domain by the
# contributors.
#
data_1570095
loop_
_publ_author_name
'Tan, Yi Zhen'
'Wu, Xiangyang'
'Lu, Yunpeng'
'Chiba, Shunsuke'
'Yeow, Edwin K. L.'
_publ_section_title
;
 Towards catalytic redox-active iridium polypyridyl complex by in situ
 photosubstitution
;
_journal_issue                   1
_journal_name_full               'Catalysis Science &amp; Technology'
_journal_page_first              66
_journal_page_last               75
_journal_paper_doi               10.1039/D3CY00942D
_journal_volume                  14
_journal_year                    2024
_chemical_formula_sum            'C53 H52 F10 Ir N5 O4'
_chemical_formula_weight         1205.19
_space_group_crystal_system      orthorhombic
_space_group_IT_number           60
_space_group_name_Hall           '-P 2n 2ab'
_space_group_name_H-M_alt        'P b c n'
_atom_sites_solution_hydrogens   geom
_atom_sites_solution_primary     dual
_audit_update_record
;
2023-02-09 deposited with the CCDC.	2023-09-27 downloaded from the CCDC.
;
_cell_angle_alpha                90
_cell_angle_beta                 90
_cell_angle_gamma                90
_cell_formula_units_Z            8
_cell_length_a                   25.7551(5)
_cell_length_b                   19.7204(4)
_cell_length_c                   22.7890(4)
_cell_measurement_reflns_used    9416
_cell_measurement_temperature    100.(2)
_cell_measurement_theta_max      24.8878
_cell_measurement_theta_min      2.3855
_cell_volume                     11574.6(4)
_computing_cell_refinement       'SAINT V8.40B (Bruker AXS LLC, 2019)'
_computing_data_collection       'APEX4 (Ver 2021.4-0, Bruker AXS Inc., 2021)'
_computing_data_reduction        'SAINT V8.40B (Bruker AXS LLC, 2019)'
_computing_molecular_graphics    'shelXle (C.B. Huebschle, rev 1242)'
_computing_publication_material  'APEX4 (Ver 2021.4-0, Bruker AXS Inc., 2021)'
_computing_structure_refinement  'SHELXL-2018/3 (Sheldrick, 2018)'
_computing_structure_solution    'XT, VERSION 2018/2'
_diffrn_ambient_temperature      100.(2)
_diffrn_detector_area_resol_mean 7.3910
_diffrn_measured_fraction_theta_full 0.998
_diffrn_measured_fraction_theta_max 0.998
_diffrn_measurement_device       'four-circle diffractometer'
_diffrn_measurement_device_type  'Bruker D8 Quest'
_diffrn_measurement_method       'phi and omega scans'
_diffrn_radiation_monochromator  'Multilayer Mirror'
_diffrn_radiation_probe          x-ray
_diffrn_radiation_type           MoK\a
_diffrn_radiation_wavelength     0.71073
_diffrn_reflns_av_R_equivalents  0.0516
_diffrn_reflns_av_unetI/netI     0.0274
_diffrn_reflns_limit_h_max       30
_diffrn_reflns_limit_h_min       -28
_diffrn_reflns_limit_k_max       23
_diffrn_reflns_limit_k_min       -23
_diffrn_reflns_limit_l_max       27
_diffrn_reflns_limit_l_min       -22
_diffrn_reflns_number            89115
_diffrn_reflns_theta_full        25.02
_diffrn_reflns_theta_max         25.02
_diffrn_reflns_theta_min         2.09
_diffrn_source                   'Incoatec microfocus source'
_diffrn_source_current           1.4
_diffrn_source_type              'Incoatec I\mS 3.0'
_diffrn_source_voltage           50
_exptl_absorpt_coefficient_mu    2.384
_exptl_absorpt_correction_T_max  0.95
_exptl_absorpt_correction_T_min  0.12
_exptl_absorpt_correction_type   multi-scan
_exptl_absorpt_process_details
;
Krause, L., Herbst-Irmer, R., Sheldrick, G. M., Stalke, D. (2015).
"Comparison of silver and molybdenum microfocus X-ray sources for
single-crystal structure determination"
J. Appl. Cryst. 48, 3-10.
doi:10.1107/S1600576714022985
;
_exptl_crystal_colour            orange
_exptl_crystal_density_diffrn    1.383
_exptl_crystal_density_method    'not measured'
_exptl_crystal_description       plate
_exptl_crystal_F_000             4832
_exptl_crystal_size_max          0.220
_exptl_crystal_size_mid          0.200
_exptl_crystal_size_min          0.020
_refine_diff_density_max         2.170
_refine_diff_density_min         -2.132
_refine_ls_extinction_method     none
_refine_ls_goodness_of_fit_ref   1.115
_refine_ls_hydrogen_treatment    constr
_refine_ls_matrix_type           full
_refine_ls_number_parameters     728
_refine_ls_number_reflns         10205
_refine_ls_number_restraints     331
_refine_ls_restrained_S_all      1.105
_refine_ls_R_factor_all          0.1087
_refine_ls_R_factor_gt           0.0851
_refine_ls_shift/su_max          0.001
_refine_ls_shift/su_mean         0.000
_refine_ls_structure_factor_coef Fsqd
_refine_ls_weighting_details
'w=1/[\s^2^(Fo^2^)+(0.1164P)^2^+66.0654P] where P=(Fo^2^+2Fc^2^)/3'
_refine_ls_weighting_scheme      calc
_refine_ls_wR_factor_gt          0.2300
_refine_ls_wR_factor_ref         0.2591
_reflns_Friedel_coverage         0.000
_reflns_number_gt                7312
_reflns_number_total             10205
_reflns_threshold_expression     'I > 2\s(I)'
_cod_data_source_file            d3cy00942d2.cif
_cod_data_source_block           ey9m_sq
_cod_depositor_comments
;
The following automatic conversions were performed:

data item '_diffrn_radiation_probe' value 'X-ray' was changed to
'x-ray' in accordance with the
/home/data/users/saulius/crontab/automatic-downloads/rss-feeds/RSC/lib/dictionaries/cif_core.dic
dictionary named 'cif_core.dic' version 2.4.2 last updated on
2011-04-26.

data item '_exptl_absorpt_correction_type' value 'Multi-Scan' was
changed to 'multi-scan' in accordance with the
/home/data/users/saulius/crontab/automatic-downloads/rss-feeds/RSC/lib/dictionaries/cif_core.dic
dictionary named 'cif_core.dic' version 2.4.2 last updated on
2011-04-26.

Automatic conversion script
Id: cif_fix_values 8170 2020-07-09 18:12:32Z antanas 

 Adding full bibliography for 1570094--1570095.cif.
;
_cod_database_code               1570095
_shelx_res_file
;

TITL ey9m in Pbcn
    ey9m_sq.res
    created by SHELXL-2018/3 at 10:47:27 on 09-Feb-2023
CELL 0.71073  25.75510  19.72040  22.78900  90.0000  90.0000  90.0000
ZERR    8.00   0.00050   0.00040   0.00040   0.0000   0.0000   0.0000
LATT 1
SYMM 1/2-X, 1/2-Y, 1/2+Z
SYMM -X, Y, 1/2-Z
SYMM 1/2+X, 1/2-Y, -Z
SFAC C  H  F  Ir N  O
UNIT 424  416  80  8  40  32
LIST 4
L.S. 15 0   82
BOND
ACTA
omit  1   3   0
omit  1   5   1
omit  0   2   0
omit  3   3   0
FMAP 2
SADI c10 c12 c10 c12a
SIMU 0.01 c12 > F5a
ISOR 0.01 c12 > F5a  o3 > C55
RIGU 0.01 c12 > F5a o3 > C55
SIMU 0.01 o3 > C55
PLAN 10
SIZE 0.02 0.20 0.22
TEMP -173.0
ABIN
WGHT    0.116400   66.065384
FVAR       0.03714   0.65718
IR1   4    0.734267    0.562866    0.329510    11.00000    0.08804    0.07382 =
         0.05765    0.00147   -0.00200   -0.00614
C1    1    0.776544    0.577120    0.403129    11.00000    0.10194    0.08392 =
         0.04703    0.00134   -0.01500   -0.02023
C2    1    0.762959    0.616768    0.451326    11.00000    0.10558    0.07445 =
         0.06402    0.00127   -0.00549   -0.00624
AFIX  43
H2    2    0.731749    0.642445    0.451298    11.00000   -1.20000
AFIX   0
C3    1    0.795747    0.617911    0.498968    11.00000    0.11066    0.09077 =
         0.06850    0.00805   -0.00832   -0.02501
C4    1    0.841618    0.582237    0.501470    11.00000    0.11588    0.10581 =
         0.07588    0.01060   -0.03173   -0.02959
AFIX  43
H4    2    0.863455    0.584190    0.535023    11.00000   -1.20000
AFIX   0
C5    1    0.854347    0.544178    0.454039    11.00000    0.09424    0.09528 =
         0.09223    0.01638   -0.01999   -0.01662
C6    1    0.823928    0.540582    0.404049    11.00000    0.09441    0.08886 =
         0.07654    0.01278   -0.00756   -0.00957
C7    1    0.835216    0.500398    0.352161    11.00000    0.08180    0.10127 =
         0.08280    0.00260   -0.00482   -0.01152
C8    1    0.878526    0.461423    0.338841    11.00000    0.09264    0.11806 =
         0.11977    0.00612   -0.00234    0.00908
AFIX  43
H8    2    0.904814    0.456609    0.367786    11.00000   -1.20000
AFIX   0
C9    1    0.884994    0.430400    0.287324    11.00000    0.10914    0.12026 =
         0.11031   -0.00991    0.01308    0.01013
AFIX  43
H9    2    0.915686    0.405405    0.279152    11.00000   -1.20000
AFIX   0
C10   1    0.845669    0.435680    0.246088    11.00000    0.11399    0.09391 =
         0.09548   -0.01316    0.02695   -0.00278
C11   1    0.803440    0.472487    0.258295    11.00000    0.09600    0.08069 =
         0.07592   -0.00453    0.00915   -0.00760
AFIX  43
H11   2    0.777291    0.477198    0.229178    11.00000   -1.20000
AFIX   0
PART 1 21
C12   1    0.853536    0.403052    0.186974    21.00000    0.16018    0.14427 =
         0.13529   -0.01365    0.01417    0.00911
F3    3    0.806477    0.387156    0.165071    21.00000    0.17147    0.16417 =
         0.12116   -0.03312    0.00627    0.00642
F4    3    0.875586    0.441488    0.148721    21.00000    0.17887    0.13996 =
         0.11772   -0.01446    0.03244    0.00797
F5    3    0.876421    0.344165    0.190255    21.00000    0.18713    0.14224 =
         0.14876   -0.02557    0.01275    0.02660
PART 2 -21
SAME 0.01 c12 > F5
C12A  1    0.845599    0.403660    0.184262   -21.00000    0.16194    0.14620 =
         0.13623   -0.01372    0.01280    0.00825
F3A   3    0.821420    0.442520    0.143529   -21.00000    0.17534    0.14182 =
         0.12065   -0.02009    0.01274    0.01374
F4A   3    0.891803    0.393958    0.163598   -21.00000    0.16951    0.15916 =
         0.14084   -0.01735    0.02651    0.01336
F5A   3    0.818530    0.347588    0.179257   -21.00000    0.17626    0.14546 =
         0.13011   -0.01676    0.01093    0.00641
PART 0

C13   1    0.764635    0.646905    0.292510    11.00000    0.09204    0.07059 =
         0.05843    0.01789   -0.01253   -0.00846
C14   1    0.810370    0.650339    0.258180    11.00000    0.09910    0.09156 =
         0.06506    0.00192    0.00093   -0.01084
AFIX  43
H14   2    0.830835    0.610918    0.251922    11.00000   -1.20000
AFIX   0
C15   1    0.824849    0.711367    0.233988    11.00000    0.10201    0.12217 =
         0.07512   -0.01318    0.00323   -0.02667
C16   1    0.797311    0.770205    0.242921    11.00000    0.12341    0.08749 =
         0.07714    0.01028   -0.01333   -0.02688
AFIX  43
H16   2    0.808345    0.811884    0.226143    11.00000   -1.20000
AFIX   0
C17   1    0.753458    0.766777    0.276791    11.00000    0.11889    0.10044 =
         0.08871    0.00020   -0.02124   -0.00181
C18   1    0.734821    0.705559    0.301019    11.00000    0.09426    0.07101 =
         0.06469    0.00587   -0.01325   -0.01019
C19   1    0.687173    0.697837    0.333652    11.00000    0.09484    0.07564 =
         0.07028    0.00130   -0.00924    0.00512
C20   1    0.651830    0.747353    0.347333    11.00000    0.10926    0.09399 =
         0.09563   -0.00821   -0.00507    0.00823
AFIX  43
H20   2    0.658464    0.792914    0.336055    11.00000   -1.20000
AFIX   0
C21   1    0.607413    0.732203    0.376812    11.00000    0.10760    0.11744 =
         0.09529   -0.02073   -0.01786    0.01446
AFIX  43
H21   2    0.582983    0.766902    0.385412    11.00000   -1.20000
AFIX   0
C22   1    0.597798    0.665772    0.394368    11.00000    0.07335    0.13596 =
         0.08634   -0.01987   -0.00984   -0.00083
C23   1    0.634536    0.616820    0.379721    11.00000    0.08585    0.11195 =
         0.06875   -0.00017   -0.01085   -0.01462
AFIX  43
H23   2    0.628283    0.570989    0.390443    11.00000   -1.20000
AFIX   0
C24   1    0.550929    0.647411    0.426099    11.00000    0.08136    0.15048 =
         0.10162   -0.01508   -0.01597   -0.00049
C25   1    0.698917    0.452054    0.416169    11.00000    0.09702    0.08716 =
         0.06070    0.00297   -0.00740   -0.01302
AFIX  43
H25   2    0.719555    0.476151    0.443719    11.00000   -1.20000
AFIX   0
C26   1    0.672855    0.393543    0.434510    11.00000    0.09989    0.07964 =
         0.06602    0.00285   -0.00417    0.00313
AFIX  43
H26   2    0.677052    0.377538    0.473542    11.00000   -1.20000
AFIX   0
C27   1    0.641002    0.358972    0.395926    11.00000    0.09733    0.08280 =
         0.06008   -0.00071    0.01870   -0.00178
C28   1    0.637518    0.383990    0.339002    11.00000    0.09382    0.07244 =
         0.07046   -0.01289    0.00592   -0.00690
AFIX  43
H28   2    0.616868    0.360993    0.310768    11.00000   -1.20000
AFIX   0
C29   1    0.663908    0.441993    0.323445    11.00000    0.08259    0.07602 =
         0.06580   -0.00538    0.00755   -0.00359
C30   1    0.610256    0.295719    0.414639    11.00000    0.10221    0.08209 =
         0.07003   -0.00359    0.01051   -0.00533
C31   1    0.629820    0.266617    0.472449    11.00000    0.15345    0.11705 =
         0.10844    0.03363   -0.02134   -0.02763
AFIX 137
H31A  2    0.612976    0.222875    0.479809    11.00000   -1.50000
H31B  2    0.621570    0.298042    0.504430    11.00000   -1.50000
H31C  2    0.667505    0.260203    0.470311    11.00000   -1.50000
AFIX   0
C32   1    0.618112    0.238762    0.370656    11.00000    0.14601    0.09530 =
         0.10038   -0.01049    0.02986   -0.02572
AFIX 137
H32A  2    0.655356    0.231101    0.364858    11.00000   -1.50000
H32B  2    0.602090    0.251244    0.333175    11.00000   -1.50000
H32C  2    0.601957    0.197194    0.385556    11.00000   -1.50000
AFIX   0
C33   1    0.554657    0.317955    0.423460    11.00000    0.10341    0.10147 =
         0.15687    0.02124    0.02368   -0.00986
AFIX 137
H33A  2    0.534223    0.279863    0.438608    11.00000   -1.50000
H33B  2    0.540115    0.332919    0.385890    11.00000   -1.50000
H33C  2    0.553573    0.355503    0.451603    11.00000   -1.50000
AFIX   0
C34   1    0.662054    0.472379    0.263439    11.00000    0.08009    0.08829 =
         0.06093   -0.00364   -0.00042   -0.00459
C35   1    0.635911    0.443550    0.216730    11.00000    0.07894    0.08548 =
         0.06433   -0.00004    0.00007    0.00149
AFIX  43
H35   2    0.618824    0.401268    0.221838    11.00000   -1.20000
AFIX   0
C36   1    0.634211    0.476032    0.161448    11.00000    0.07562    0.09305 =
         0.05666   -0.00360   -0.00069   -0.00057
C37   1    0.657749    0.539188    0.157562    11.00000    0.07631    0.09721 =
         0.06298   -0.00031    0.00249    0.00197
C38   1    0.686195    0.562417    0.205321    11.00000    0.09235    0.07758 =
         0.06328    0.00043    0.00306   -0.00104
AFIX  43
H38   2    0.704679    0.603805    0.200997    11.00000   -1.20000
AFIX   0
C39   1    0.607128    0.438697    0.109623    11.00000    0.07811    0.10589 =
         0.05670    0.00040   -0.00784   -0.00061
C40   1    0.585339    0.368969    0.127755    11.00000    0.10193    0.09501 =
         0.06559   -0.00312   -0.00514   -0.02607
AFIX 137
H40A  2    0.567261    0.348433    0.094347    11.00000   -1.50000
H40B  2    0.560968    0.374724    0.160402    11.00000   -1.50000
H40C  2    0.613937    0.339422    0.140041    11.00000   -1.50000
AFIX   0
C41   1    0.560705    0.479444    0.085866    11.00000    0.08627    0.11350 =
         0.07897    0.00335   -0.00771    0.00314
AFIX 137
H41A  2    0.544476    0.454457    0.053533    11.00000   -1.50000
H41B  2    0.572804    0.523592    0.071626    11.00000   -1.50000
H41C  2    0.535273    0.486229    0.117309    11.00000   -1.50000
AFIX   0
C42   1    0.649891    0.424130    0.062970    11.00000    0.08688    0.13436 =
         0.05878   -0.01048    0.00292   -0.01137
AFIX 137
H42A  2    0.676056    0.393681    0.079722    11.00000   -1.50000
H42B  2    0.666412    0.466827    0.051330    11.00000   -1.50000
H42C  2    0.634112    0.402716    0.028505    11.00000   -1.50000
AFIX   0
C43   1    0.650666    0.587399    0.107070    11.00000    0.08304    0.09971 =
         0.07244    0.00581   -0.00880   -0.00549
AFIX  13
H43   2    0.644700    0.562168    0.069609    11.00000   -1.20000
AFIX   0
C44   1    0.604880    0.638650    0.119530    11.00000    0.10224    0.10979 =
         0.08603    0.00829   -0.00294    0.00215
AFIX  23
H44A  2    0.588513    0.653785    0.082470    11.00000   -1.20000
H44B  2    0.578060    0.617626    0.144778    11.00000   -1.20000
AFIX   0
C45   1    0.631147    0.697777    0.150853    11.00000    0.11869    0.11680 =
         0.09985   -0.00159    0.00767    0.02064
AFIX  23
H45A  2    0.634129    0.688435    0.193403    11.00000   -1.20000
H45B  2    0.610911    0.739990    0.145394    11.00000   -1.20000
AFIX   0
C46   1    0.685563    0.704752    0.122850    11.00000    0.12861    0.09632 =
         0.07141    0.00763   -0.00615    0.01060
AFIX  23
H46A  2    0.685450    0.738001    0.090302    11.00000   -1.20000
H46B  2    0.711890    0.718305    0.152251    11.00000   -1.20000
AFIX   0
C47   1    0.737878    0.615060    0.071869    11.00000    0.10575    0.06402 =
         0.05607   -0.00285   -0.00726   -0.00213
C48   1    0.822965    0.654635    0.039458    11.00000    0.10780    0.09712 =
         0.08959    0.00308    0.00447   -0.01120
C49   1    0.855042    0.600629    0.071586    11.00000    0.11255    0.11679 =
         0.10651   -0.01158    0.00316   -0.01056
AFIX 137
H49A  2    0.834893    0.558601    0.074409    11.00000   -1.50000
H49B  2    0.863563    0.616792    0.111095    11.00000   -1.50000
H49C  2    0.887165    0.591992    0.049781    11.00000   -1.50000
AFIX   0
C50   1    0.815184    0.637110   -0.024418    11.00000    0.11765    0.10082 =
         0.08317   -0.00261    0.01110   -0.01170
AFIX 137
H50A  2    0.801938    0.590677   -0.027683    11.00000   -1.50000
H50B  2    0.848401    0.640625   -0.045173    11.00000   -1.50000
H50C  2    0.790161    0.668652   -0.041869    11.00000   -1.50000
AFIX   0
C51   1    0.848095    0.725238    0.046019    11.00000    0.12018    0.10026 =
         0.11342   -0.00400    0.02579   -0.02044
AFIX 137
H51A  2    0.883151    0.724383    0.029313    11.00000   -1.50000
H51B  2    0.850048    0.737234    0.087692    11.00000   -1.50000
H51C  2    0.827049    0.758949    0.025221    11.00000   -1.50000
AFIX   0
F1    3    0.782022    0.654810    0.545907    11.00000    0.15293    0.11218 =
         0.07014   -0.00974   -0.01558   -0.01193
F2    3    0.898884    0.507634    0.457199    11.00000    0.10607    0.13854 =
         0.11292    0.01585   -0.02356    0.00307
F6    3    0.868400    0.714028    0.201084    11.00000    0.12625    0.11786 =
         0.09080    0.01327    0.01100   -0.03111
F7    3    0.727860    0.824825    0.286368    11.00000    0.14542    0.07672 =
         0.12447    0.01150   -0.00638    0.00703
F8    3    0.547919    0.675054    0.478856    11.00000    0.11660    0.17490 =
         0.08545   -0.01298    0.00884    0.01055
F9    3    0.545546    0.580165    0.436653    11.00000    0.11789    0.19271 =
         0.12781   -0.03712    0.03319   -0.04268
F10   3    0.508004    0.665092    0.398238    11.00000    0.09001    0.35660 =
         0.11653    0.02429   -0.01494    0.00202

N1    5    0.796908    0.502687    0.309896    11.00000    0.10969    0.06302 =
         0.07759   -0.00165    0.01012   -0.00451
N2    5    0.678239    0.632064    0.351132    11.00000    0.08803    0.09986 =
         0.06202    0.00089   -0.00858   -0.00058
N3    5    0.695789    0.474769    0.362103    11.00000    0.09777    0.08986 =
         0.05515   -0.00184    0.00053   -0.01627
N4    5    0.689332    0.530226    0.257327    11.00000    0.09773    0.08300 =
         0.05721    0.00118   -0.00400   -0.00792
N5    5    0.694858    0.635200    0.101224    11.00000    0.09326    0.08492 =
         0.06725    0.00097   -0.00030   -0.00441
O1    6    0.772097    0.665845    0.068532    11.00000    0.10782    0.07870 =
         0.08588   -0.00473    0.00408   -0.00803
O2    6    0.743230    0.558142    0.051927    11.00000    0.09618    0.09839 =
         0.07021    0.00433    0.00331    0.00364
PART -1 10.5
O3    6   10.535625   10.367126   10.269691    10.50000    0.18551    0.19349 =
         0.14610   -0.00249    0.02029   -0.04232
O4    6   10.464362   10.367126   10.230309    10.50000    0.18317    0.19308 =
         0.14739    0.00223    0.02307    0.04289
C52   1   10.500000   10.331349   10.250000    10.50000    0.15251    0.16445 =
         0.14309   -0.00005    0.00900   -0.00001
C53   1   10.500000   10.260762   10.250000    10.50000    0.15441    0.18009 =
         0.16059   -0.00016   -0.00407    0.00016
AFIX  33
H53A  2    0.467773    0.244197    0.232187    10.50000   -1.50000
H53B  2    0.529763    0.244197    0.227364    10.50000   -1.50000
H53C  2    0.502464    0.244197    0.290448    10.50000   -1.50000
AFIX   0
PART -1 10.5
SAME 0.01 o3 > C53
O6    6    0.556429    0.592580    0.272132    10.50000    0.17012    0.15594 =
         0.13257   -0.02698   -0.00433    0.00101
O7    6    0.552546    0.498151    0.309863    10.50000    0.15796    0.17557 =
         0.14795   -0.00175    0.01713    0.01927
C54   1    0.532079    0.538152    0.274676    10.50000    0.15669    0.16189 =
         0.14986   -0.00459    0.00612    0.00310
C55   1    0.493878    0.517204    0.235105    10.50000    0.14670    0.17164 =
         0.14766   -0.01157    0.01486   -0.00535
AFIX  33
H55A  2    0.482721    0.555940    0.211300    10.50000   -1.50000
H55B  2    0.508033    0.481858    0.209456    10.50000   -1.50000
H55C  2    0.464086    0.499120    0.256800    10.50000   -1.50000
PART 0
AFIX   0
HKLF 4




REM  ey9m in Pbcn
REM wR2 = 0.259070, GooF = S = 1.11525, Restrained GooF = 1.10480 for all data
REM R1 = 0.085061 for 7312 Fo > 4sig(Fo) and 0.108704 for all 10205 data
REM 728 parameters refined using 331 restraints

END

WGHT      0.1157     66.4539

REM Highest difference peak  2.170,  deepest hole -2.132,  1-sigma level  0.163
Q1    1   0.6997  0.5715  0.3230  11.00000  0.05    2.17
Q2    1   0.7245  0.5761  0.2954  11.00000  0.05    2.13
Q3    1   0.7303  0.6008  0.3513  11.00000  0.05    2.12
Q4    1   0.5000  0.4196  0.2500  10.50000  0.05    1.82
Q5    1   0.7334  0.5195  0.3384  11.00000  0.05    1.78
Q6    1   0.7838  0.5574  0.3260  11.00000  0.05    1.32
Q7    1   0.7328  0.6020  0.0129  11.00000  0.05    1.13
Q8    1   0.7333  0.4387  0.1480  11.00000  0.05    1.07
Q9    1   0.7985  0.4342  0.1445  11.00000  0.05    0.70
Q10   1   0.9031  0.4409  0.1672  11.00000  0.05    0.63
;
_shelx_res_checksum              72771
_shelx_fab_file
;
    4    0    0    434.37      0.00
    6    0    0    267.54      0.00
    8    0    0    138.56      0.00
   10    0    0     66.29      0.00
   12    0    0     36.79      0.00
   14    0    0     27.55      0.00
   16    0    0     23.79      0.00
   18    0    0     19.81      0.00
   20    0    0     14.34      0.00
   22    0    0      7.93      0.00
   24    0    0      2.41      0.00
   26    0    0     -0.57      0.00
   28    0    0     -0.91      0.00
   30    0    0     -0.02      0.00
    3    1    0   -300.82      0.00
    5    1    0   -207.95      0.00
    7    1    0   -118.60      0.00
    9    1    0    -57.09      0.00
   11    1    0    -27.20      0.00
   13    1    0    -18.35      0.00
   15    1    0    -17.35      0.00
   17    1    0    -16.06      0.00
   19    1    0    -12.35      0.00
   21    1    0     -7.41      0.00
   23    1    0     -3.00      0.00
   25    1    0     -0.18      0.00
   27    1    0      0.82      0.00
   29    1    0      0.50      0.00
    0    2    0    -78.81      0.00
    2    2    0    -66.37      0.00
    4    2    0    -38.42      0.00
    6    2    0    -13.56      0.00
    8    2    0     -2.34      0.00
   10    2    0     -1.09      0.00
   12    2    0     -0.82      0.00
   14    2    0      1.97      0.00
   16    2    0      4.50      0.00
   18    2    0      4.06      0.00
   20    2    0      1.69      0.00
   22    2    0     -0.07      0.00
   24    2    0     -0.37      0.00
   26    2    0     -0.03      0.00
   28    2    0      0.22      0.00
   30    2    0      0.29      0.00
    1    3    0    229.73      0.00
    3    3    0    182.73      0.00
    5    3    0    113.79      0.00
    7    3    0     53.68      0.00
    9    3    0     18.60      0.00
   11    3    0      5.91      0.00
   13    3    0      4.33      0.00
   15    3    0      5.16      0.00
   17    3    0      5.51      0.00
   19    3    0      5.27      0.00
   21    3    0      4.36      0.00
   23    3    0      2.47      0.00
   25    3    0      0.07      0.00
   27    3    0     -1.68      0.00
   29    3    0     -1.92      0.00
    0    4    0   -162.93      0.00
    2    4    0   -149.79      0.00
    4    4    0   -114.81      0.00
    6    4    0    -70.07      0.00
    8    4    0    -30.83      0.00
   10    4    0     -8.14      0.00
   12    4    0     -3.08      0.00
   14    4    0     -7.70      0.00
   16    4    0    -12.38      0.00
   18    4    0    -12.57      0.00
   20    4    0     -9.29      0.00
   22    4    0     -5.15      0.00
   24    4    0     -1.44      0.00
   26    4    0      1.31      0.00
   28    4    0      2.40      0.00
   30    4    0      1.65      0.00
    1    5    0     75.37      0.00
    3    5    0     66.94      0.00
    5    5    0     50.47      0.00
    7    5    0     29.73      0.00
    9    5    0     12.26      0.00
   11    5    0      4.48      0.00
   13    5    0      6.30      0.00
   15    5    0     11.57      0.00
   17    5    0     13.86      0.00
   19    5    0     11.33      0.00
   21    5    0      6.36      0.00
   23    5    0      2.02      0.00
   25    5    0     -0.27      0.00
   27    5    0     -0.71      0.00
   29    5    0     -0.17      0.00
    0    6    0    -17.72      0.00
    2    6    0    -14.57      0.00
    4    6    0     -7.17      0.00
    6    6    0      0.07      0.00
    8    6    0      3.58      0.00
   10    6    0      2.62      0.00
   12    6    0     -1.25      0.00
   14    6    0     -5.55      0.00
   16    6    0     -7.98      0.00
   18    6    0     -7.28      0.00
   20    6    0     -4.04      0.00
   22    6    0     -0.56      0.00
   24    6    0      0.95      0.00
   26    6    0      0.23      0.00
   28    6    0     -1.11      0.00
    1    7    0    -14.67      0.00
    3    7    0    -18.34      0.00
    5    7    0    -21.64      0.00
    7    7    0    -20.59      0.00
    9    7    0    -14.85      0.00
   11    7    0     -7.30      0.00
   13    7    0     -1.11      0.00
   15    7    0      2.26      0.00
   17    7    0      2.81      0.00
   19    7    0      1.31      0.00
   21    7    0     -0.84      0.00
   23    7    0     -1.99      0.00
   25    7    0     -1.42      0.00
   27    7    0     -0.01      0.00
   29    7    0      0.79      0.00
    0    8    0     13.01      0.00
    2    8    0     13.02      0.00
    4    8    0     13.00      0.00
    6    8    0     12.64      0.00
    8    8    0     11.26      0.00
   10    8    0      8.47      0.00
   12    8    0      4.86      0.00
   14    8    0      1.74      0.00
   16    8    0      0.19      0.00
   18    8    0      0.30      0.00
   20    8    0      1.25      0.00
   22    8    0      2.04      0.00
   24    8    0      2.11      0.00
   26    8    0      1.50      0.00
   28    8    0      0.72      0.00
    1    9    0      1.18      0.00
    3    9    0      1.94      0.00
    5    9    0      2.13      0.00
    7    9    0      0.85      0.00
    9    9    0     -1.18      0.00
   11    9    0     -2.61      0.00
   13    9    0     -2.96      0.00
   15    9    0     -2.73      0.00
   17    9    0     -2.47      0.00
   19    9    0     -2.21      0.00
   21    9    0     -1.82      0.00
   23    9    0     -1.37      0.00
   25    9    0     -1.00      0.00
   27    9    0     -0.74      0.00
    0   10    0    -12.56      0.00
    2   10    0    -12.31      0.00
    4   10    0    -11.27      0.00
    6   10    0     -9.05      0.00
    8   10    0     -5.90      0.00
   10   10    0     -2.70      0.00
   12   10    0     -0.26      0.00
   14   10    0      1.21      0.00
   16   10    0      1.84      0.00
   18   10    0      1.67      0.00
   20   10    0      0.75      0.00
   22   10    0     -0.52      0.00
   24   10    0     -1.40      0.00
   26   10    0     -1.37      0.00
    1   11    0      9.22      0.00
    3   11    0     10.40      0.00
    5   11    0     11.47      0.00
    7   11    0     11.07      0.00
    9   11    0      8.92      0.00
   11   11    0      5.99      0.00
   13   11    0      3.53      0.00
   15   11    0      2.03      0.00
   17   11    0      1.34      0.00
   19   11    0      1.26      0.00
   21   11    0      1.66      0.00
   23   11    0      2.21      0.00
   25   11    0      2.31      0.00
   27   11    0      1.64      0.00
    0   12    0      7.57      0.00
    2   12    0      4.85      0.00
    4   12    0     -1.69      0.00
    6   12    0     -8.27      0.00
    8   12    0    -11.40      0.00
   10   12    0    -10.21      0.00
   12   12    0     -6.66      0.00
   14   12    0     -3.46      0.00
   16   12    0     -1.85      0.00
   18   12    0     -1.32      0.00
   20   12    0     -0.96      0.00
   22   12    0     -0.47      0.00
   24   12    0     -0.11      0.00
   26   12    0     -0.07      0.00
    1   13    0    -12.79      0.00
    3   13    0     -8.24      0.00
    5   13    0     -1.12      0.00
    7   13    0      5.17      0.00
    9   13    0      7.61      0.00
   11   13    0      5.74      0.00
   13   13    0      1.89      0.00
   15   13    0     -0.93      0.00
   17   13    0     -1.58      0.00
   19   13    0     -1.01      0.00
   21   13    0     -0.60      0.00
   23   13    0     -0.77      0.00
   25   13    0     -1.01      0.00
    0   14    0      6.10      0.00
    2   14    0      5.60      0.00
    4   14    0      3.90      0.00
    6   14    0      1.00      0.00
    8   14    0     -2.01      0.00
   10   14    0     -3.32      0.00
   12   14    0     -2.06      0.00
   14   14    0      0.70      0.00
   16   14    0      2.80      0.00
   18   14    0      2.89      0.00
   20   14    0      1.46      0.00
   22   14    0      0.04      0.00
   24   14    0     -0.34      0.00
    1   15    0     -0.83      0.00
    3   15    0     -1.01      0.00
    5   15    0     -0.81      0.00
    7   15    0      0.31      0.00
    9   15    0      2.04      0.00
   11   15    0      3.02      0.00
   13   15    0      2.10      0.00
   15   15    0     -0.22      0.00
   17   15    0     -2.03      0.00
   19   15    0     -1.99      0.00
   21   15    0     -0.66      0.00
   23   15    0      0.39      0.00
    0   16    0     -2.53      0.00
    2   16    0     -2.48      0.00
    4   16    0     -2.14      0.00
    6   16    0     -1.28      0.00
    8   16    0     -0.27      0.00
   10   16    0      0.27      0.00
   12   16    0      0.24      0.00
   14   16    0      0.06      0.00
   16   16    0     -0.03      0.00
   18   16    0     -0.10      0.00
   20   16    0     -0.21      0.00
   22   16    0     -0.25      0.00
    1   17    0      4.97      0.00
    3   17    0      4.54      0.00
    5   17    0      3.03      0.00
    7   17    0      0.28      0.00
    9   17    0     -2.52      0.00
   11   17    0     -3.62      0.00
   13   17    0     -2.35      0.00
   15   17    0      0.13      0.00
   17   17    0      1.89      0.00
   19   17    0      1.99      0.00
   21   17    0      1.15      0.00
    0   18    0     -2.18      0.00
    2   18    0     -2.19      0.00
    4   18    0     -1.97      0.00
    6   18    0     -1.16      0.00
    8   18    0      0.11      0.00
   10   18    0      1.06      0.00
   12   18    0      0.92      0.00
   14   18    0     -0.10      0.00
   16   18    0     -0.90      0.00
   18   18    0     -0.75      0.00
    1   19    0     -0.78      0.00
    3   19    0     -0.99      0.00
    5   19    0     -1.01      0.00
    7   19    0     -0.64      0.00
    9   19    0     -0.23      0.00
   11   19    0     -0.28      0.00
   13   19    0     -0.91      0.00
   15   19    0     -1.63      0.00
   17   19    0     -1.84      0.00
    0   20    0     -1.14      0.00
    2   20    0     -0.66      0.00
    4   20    0      0.38      0.00
    6   20    0      1.18      0.00
    8   20    0      1.50      0.00
   10   20    0      1.82      0.00
   12   20    0      2.46      0.00
   14   20    0      2.95      0.00
   16   20    0      2.50      0.00
    1   21    0      1.97      0.00
    3   21    0      2.11      0.00
    5   21    0      2.15      0.00
    7   21    0      1.86      0.00
    9   21    0      1.19      0.00
   11   21    0      0.40      0.00
   13   21    0     -0.15      0.00
    0   22    0      0.27      0.00
    2   22    0     -0.37      0.00
    4   22    0     -1.77      0.00
    6   22    0     -2.91      0.00
    8   22    0     -3.18      0.00
   10   22    0     -2.81      0.00
    1   23    0      0.16      0.00
    3   23    0      0.09      0.00
    5   23    0     -0.02      0.00
    2    1    1     -0.78      0.00
    3    1    1   -122.90      0.00
    4    1    1     -0.81      0.00
    5    1    1   -100.17      0.00
    6    1    1      0.85      0.00
    7    1    1    -75.77      0.00
    8    1    1      4.17      0.00
    9    1    1    -52.70      0.00
   10    1    1      7.34      0.00
   11    1    1    -31.76      0.00
   12    1    1      8.13      0.00
   13    1    1    -14.93      0.00
   14    1    1      6.17      0.00
   15    1    1     -4.89      0.00
   16    1    1      3.28      0.00
   17    1    1     -1.67      0.00
   18    1    1      1.35      0.00
   19    1    1     -1.89      0.00
   20    1    1      0.70      0.00
   21    1    1     -1.98      0.00
   22    1    1      0.45      0.00
   23    1    1     -1.14      0.00
   24    1    1      0.09      0.00
   25    1    1     -0.43      0.00
   26    1    1     -0.19      0.00
   27    1    1     -0.27      0.00
   28    1    1     -0.21      0.00
   29    1    1      0.00      0.00
   30    1    1     -0.17      0.00
    1    2    1      1.73      0.00
    2    2    1     45.82      0.00
    3    2    1      3.90      0.00
    4    2    1     52.23      0.00
    5    2    1      2.52      0.00
    6    2    1     55.29      0.00
    7    2    1     -2.48      0.00
    8    2    1     49.82      0.00
    9    2    1     -8.50      0.00
   10    2    1     35.94      0.00
   11    2    1    -11.87      0.00
   12    2    1     18.84      0.00
   13    2    1    -10.80      0.00
   14    2    1      5.07      0.00
   15    2    1     -6.73      0.00
   16    2    1     -1.71      0.00
   17    2    1     -2.69      0.00
   18    2    1     -2.31      0.00
   19    2    1     -0.53      0.00
   20    2    1     -0.22      0.00
   21    2    1      0.06      0.00
   22    2    1      1.42      0.00
   23    2    1      0.21      0.00
   24    2    1      1.52      0.00
   25    2    1      0.48      0.00
   26    2    1      0.59      0.00
   27    2    1      0.69      0.00
   28    2    1     -0.47      0.00
   29    2    1      0.63      0.00
   30    2    1     -1.02      0.00
    1    3    1     91.39      0.00
    2    3    1     -3.36      0.00
    3    3    1     64.17      0.00
    4    3    1     -3.49      0.00
    5    3    1     26.12      0.00
    6    3    1      0.23      0.00
    7    3    1     -3.27      0.00
    8    3    1      5.52      0.00
    9    3    1    -14.88      0.00
   10    3    1      9.32      0.00
   11    3    1    -12.00      0.00
   12    3    1      9.92      0.00
   13    3    1     -3.27      0.00
   14    3    1      7.60      0.00
   15    3    1      4.16      0.00
   16    3    1      3.92      0.00
   17    3    1      6.94      0.00
   18    3    1      0.73      0.00
   19    3    1      5.00      0.00
   20    3    1     -0.78      0.00
   21    3    1      0.87      0.00
   22    3    1     -0.67      0.00
   23    3    1     -2.03      0.00
   24    3    1     -0.01      0.00
   25    3    1     -1.97      0.00
   26    3    1      0.21      0.00
   27    3    1     -0.13      0.00
   28    3    1     -0.06      0.00
   29    3    1      1.12      0.00
   30    3    1     -0.28      0.00
    0    4    1    -88.32      0.00
    1    4    1     -1.10      0.00
    2    4    1    -77.91      0.00
    3    4    1     -3.58      0.00
    4    4    1    -51.93      0.00
    5    4    1     -5.81      0.00
    6    4    1    -22.50      0.00
    7    4    1     -6.78      0.00
    8    4    1     -1.00      0.00
    9    4    1     -6.18      0.00
   10    4    1      7.64      0.00
   11    4    1     -4.94      0.00
   12    4    1      5.54      0.00
   13    4    1     -3.97      0.00
   14    4    1     -1.16      0.00
   15    4    1     -3.13      0.00
   16    4    1     -6.38      0.00
   17    4    1     -1.88      0.00
   18    4    1     -6.97      0.00
   19    4    1     -0.59      0.00
   20    4    1     -3.74      0.00
   21    4    1     -0.29      0.00
   22    4    1      0.14      0.00
   23    4    1     -1.19      0.00
   24    4    1      2.00      0.00
   25    4    1     -2.22      0.00
   26    4    1      1.58      0.00
   27    4    1     -2.23      0.00
   28    4    1      0.45      0.00
   29    4    1     -1.30      0.00
   30    4    1     -0.05      0.00
    1    5    1     33.25      0.00
    2    5    1      9.53      0.00
    3    5    1     31.11      0.00
    4    5    1     14.75      0.00
    5    5    1     24.62      0.00
    6    5    1     13.85      0.00
    7    5    1     13.80      0.00
    8    5    1      8.59      0.00
    9    5    1      3.11      0.00
   10    5    1      2.80      0.00
   11    5    1     -2.16      0.00
   12    5    1     -0.39      0.00
   13    5    1     -1.04      0.00
   14    5    1     -0.46      0.00
   15    5    1      2.78      0.00
   16    5    1      0.93      0.00
   17    5    1      5.06      0.00
   18    5    1      2.02      0.00
   19    5    1      4.51      0.00
   20    5    1      2.28      0.00
   21    5    1      2.43      0.00
   22    5    1      2.26      0.00
   23    5    1      0.38      0.00
   24    5    1      2.40      0.00
   25    5    1     -0.92      0.00
   26    5    1      2.50      0.00
   27    5    1     -1.33      0.00
   28    5    1      2.07      0.00
   29    5    1     -0.97      0.00
    0    6    1     -8.26      0.00
    1    6    1     -5.22      0.00
    2    6    1    -10.34      0.00
    3    6    1    -12.85      0.00
    4    6    1    -14.35      0.00
    5    6    1    -14.32      0.00
    6    6    1    -16.03      0.00
    7    6    1    -10.38      0.00
    8    6    1    -13.43      0.00
    9    6    1     -4.53      0.00
   10    6    1     -8.27      0.00
   11    6    1      0.03      0.00
   12    6    1     -3.52      0.00
   13    6    1      1.92      0.00
   14    6    1     -0.82      0.00
   15    6    1      1.44      0.00
   16    6    1     -0.12      0.00
   17    6    1     -0.21      0.00
   18    6    1     -0.56      0.00
   19    6    1     -1.53      0.00
   20    6    1     -1.14      0.00
   21    6    1     -1.52      0.00
   22    6    1     -1.11      0.00
   23    6    1     -0.44      0.00
   24    6    1     -0.41      0.00
   25    6    1      0.54      0.00
   26    6    1      0.35      0.00
   27    6    1      0.63      0.00
   28    6    1      0.58      0.00
   29    6    1      0.17      0.00
    1    7    1    -10.34      0.00
    2    7    1      1.54      0.00
    3    7    1     -6.72      0.00
    4    7    1      2.03      0.00
    5    7    1     -0.38      0.00
    6    7    1      1.55      0.00
    7    7    1      6.25      0.00
    8    7    1      0.91      0.00
    9    7    1      9.78      0.00
   10    7    1      0.50      0.00
   11    7    1      8.25      0.00
   12    7    1      0.04      0.00
   13    7    1      3.07      0.00
   14    7    1     -0.65      0.00
   15    7    1     -2.03      0.00
   16    7    1     -1.20      0.00
   17    7    1     -4.14      0.00
   18    7    1     -1.36      0.00
   19    7    1     -3.25      0.00
   20    7    1     -1.51      0.00
   21    7    1     -1.31      0.00
   22    7    1     -2.14      0.00
   23    7    1      0.03      0.00
   24    7    1     -2.98      0.00
   25    7    1      0.43      0.00
   26    7    1     -3.17      0.00
   27    7    1      0.22      0.00
   28    7    1     -2.28      0.00
   29    7    1     -0.24      0.00
    0    8    1     21.41      0.00
    1    8    1      3.70      0.00
    2    8    1     18.39      0.00
    3    8    1      9.42      0.00
    4    8    1     10.32      0.00
    5    8    1     11.14      0.00
    6    8    1      0.19      0.00
    7    8    1      8.95      0.00
    8    8    1     -7.75      0.00
    9    8    1      4.84      0.00
   10    8    1    -10.17      0.00
   11    8    1      1.14      0.00
   12    8    1     -6.92      0.00
   13    8    1     -0.65      0.00
   14    8    1     -1.09      0.00
   15    8    1     -0.29      0.00
   16    8    1      3.46      0.00
   17    8    1      1.36      0.00
   18    8    1      4.72      0.00
   19    8    1      3.03      0.00
   20    8    1      3.21      0.00
   21    8    1      3.82      0.00
   22    8    1      0.86      0.00
   23    8    1      3.65      0.00
   24    8    1     -0.61      0.00
   25    8    1      2.97      0.00
   26    8    1     -0.59      0.00
   27    8    1      2.09      0.00
   28    8    1      0.34      0.00
    1    9    1    -19.43      0.00
    2    9    1     -8.78      0.00
    3    9    1    -10.95      0.00
    4    9    1    -13.54      0.00
    5    9    1      1.12      0.00
    6    9    1    -13.13      0.00
    7    9    1     10.46      0.00
    8    9    1     -9.36      0.00
    9    9    1     13.34      0.00
   10    9    1     -4.87      0.00
   11    9    1     10.22      0.00
   12    9    1     -1.35      0.00
   13    9    1      4.32      0.00
   14    9    1      0.45      0.00
   15    9    1     -0.96      0.00
   16    9    1      0.38      0.00
   17    9    1     -3.66      0.00
   18    9    1     -1.04      0.00
   19    9    1     -3.56      0.00
   20    9    1     -2.60      0.00
   21    9    1     -1.85      0.00
   22    9    1     -3.15      0.00
   23    9    1     -0.28      0.00
   24    9    1     -2.55      0.00
   25    9    1      0.05      0.00
   26    9    1     -1.50      0.00
   27    9    1     -0.57      0.00
   28    9    1     -0.63      0.00
    0   10    1     16.31      0.00
    1   10    1      2.34      0.00
    2   10    1     12.37      0.00
    3   10    1      5.92      0.00
    4   10    1      2.99      0.00
    5   10    1      7.01      0.00
    6   10    1     -6.31      0.00
    7   10    1      5.89      0.00
    8   10    1    -10.72      0.00
    9   10    1      3.90      0.00
   10   10    1     -9.17      0.00
   11   10    1      2.11      0.00
   12   10    1     -4.18      0.00
   13   10    1      0.79      0.00
   14   10    1      0.64      0.00
   15   10    1     -0.12      0.00
   16   10    1      3.11      0.00
   17   10    1     -0.46      0.00
   18   10    1      3.23      0.00
   19   10    1     -0.02      0.00
   20   10    1      2.18      0.00
   21   10    1      0.92      0.00
   22   10    1      1.21      0.00
   23   10    1      1.65      0.00
   24   10    1      0.86      0.00
   25   10    1      1.64      0.00
   26   10    1      0.92      0.00
   27   10    1      1.01      0.00
    1   11    1     -4.13      0.00
    2   11    1      1.54      0.00
    3   11    1     -2.21      0.00
    4   11    1      2.13      0.00
    5   11    1      0.50      0.00
    6   11    1      1.79      0.00
    7   11    1      2.36      0.00
    8   11    1      1.12      0.00
    9   11    1      2.28      0.00
   10   11    1      0.48      0.00
   11   11    1      0.60      0.00
   12   11    1     -0.13      0.00
   13   11    1     -1.16      0.00
   14   11    1     -0.51      0.00
   15   11    1     -1.72      0.00
   16   11    1     -0.33      0.00
   17   11    1     -1.05      0.00
   18   11    1      0.31      0.00
   19   11    1     -0.09      0.00
   20   11    1      0.76      0.00
   21   11    1      0.36      0.00
   22   11    1      0.56      0.00
   23   11    1      0.26      0.00
   24   11    1      0.01      0.00
   25   11    1     -0.02      0.00
   26   11    1     -0.31      0.00
   27   11    1     -0.23      0.00
    0   12    1     -5.34      0.00
    1   12    1     -2.67      0.00
    2   12    1     -4.33      0.00
    3   12    1     -6.39      0.00
    4   12    1     -1.86      0.00
    5   12    1     -6.89      0.00
    6   12    1      0.70      0.00
    7   12    1     -4.93      0.00
    8   12    1      2.13      0.00
    9   12    1     -2.46      0.00
   10   12    1      2.10      0.00
   11   12    1     -0.68      0.00
   12   12    1      1.08      0.00
   13   12    1      0.32      0.00
   14   12    1     -0.24      0.00
   15   12    1      0.77      0.00
   16   12    1     -1.37      0.00
   17   12    1      0.63      0.00
   18   12    1     -2.07      0.00
   19   12    1     -0.16      0.00
   20   12    1     -2.21      0.00
   21   12    1     -1.20      0.00
   22   12    1     -1.78      0.00
   23   12    1     -1.86      0.00
   24   12    1     -1.05      0.00
   25   12    1     -1.80      0.00
   26   12    1     -0.37      0.00
    1   13    1      4.89      0.00
    2   13    1      3.88      0.00
    3   13    1      2.75      0.00
    4   13    1      5.76      0.00
    5   13    1     -0.22      0.00
    6   13    1      5.02      0.00
    7   13    1     -2.32      0.00
    8   13    1      2.71      0.00
    9   13    1     -2.61      0.00
   10   13    1      0.61      0.00
   11   13    1     -1.55      0.00
   12   13    1     -0.22      0.00
   13   13    1     -0.21      0.00
   14   13    1     -0.09      0.00
   15   13    1      0.70      0.00
   16   13    1      0.16      0.00
   17   13    1      1.18      0.00
   18   13    1      0.25      0.00
   19   13    1      1.35      0.00
   20   13    1      0.54      0.00
   21   13    1      1.06      0.00
   22   13    1      1.21      0.00
   23   13    1      0.32      0.00
   24   13    1      1.78      0.00
   25   13    1     -0.39      0.00
    0   14    1     -5.13      0.00
    1   14    1     -0.16      0.00
    2   14    1     -4.02      0.00
    3   14    1     -0.75      0.00
    4   14    1     -1.32      0.00
    5   14    1     -1.46      0.00
    6   14    1      1.62      0.00
    7   14    1     -1.70      0.00
    8   14    1      3.52      0.00
    9   14    1     -1.31      0.00
   10   14    1      3.90      0.00
   11   14    1     -0.93      0.00
   12   14    1      3.15      0.00
   13   14    1     -1.13      0.00
   14   14    1      1.99      0.00
   15   14    1     -1.62      0.00
   16   14    1      0.99      0.00
   17   14    1     -1.69      0.00
   18   14    1      0.45      0.00
   19   14    1     -1.14      0.00
   20   14    1      0.43      0.00
   21   14    1     -0.49      0.00
   22   14    1      0.70      0.00
   23   14    1     -0.16      0.00
   24   14    1      0.86      0.00
    1   15    1      5.53      0.00
    2   15    1     -1.34      0.00
    3   15    1      3.79      0.00
    4   15    1     -1.33      0.00
    5   15    1      0.99      0.00
    6   15    1     -0.08      0.00
    7   15    1     -1.72      0.00
    8   15    1      1.40      0.00
    9   15    1     -3.14      0.00
   10   15    1      2.19      0.00
   11   15    1     -2.87      0.00
   12   15    1      2.16      0.00
   13   15    1     -1.62      0.00
   14   15    1      1.77      0.00
   15   15    1     -0.70      0.00
   16   15    1      1.44      0.00
   17   15    1     -0.82      0.00
   18   15    1      1.13      0.00
   19   15    1     -1.54      0.00
   20   15    1      0.67      0.00
   21   15    1     -1.83      0.00
   22   15    1      0.05      0.00
   23   15    1     -1.20      0.00
    0   16    1     -3.01      0.00
    1   16    1     -0.07      0.00
    2   16    1     -2.70      0.00
    3   16    1     -0.08      0.00
    4   16    1     -1.87      0.00
    5   16    1     -0.11      0.00
    6   16    1     -0.89      0.00
    7   16    1     -0.45      0.00
    8   16    1     -0.37      0.00
    9   16    1     -0.98      0.00
   10   16    1     -0.63      0.00
   11   16    1     -1.10      0.00
   12   16    1     -1.19      0.00
   13   16    1     -0.45      0.00
   14   16    1     -1.04      0.00
   15   16    1      0.45      0.00
   16   16    1      0.24      0.00
   17   16    1      0.79      0.00
   18   16    1      1.92      0.00
   19   16    1      0.37      0.00
   20   16    1      2.75      0.00
   21   16    1     -0.23      0.00
   22   16    1      2.19      0.00
    1   17    1      1.48      0.00
    2   17    1      1.49      0.00
    3   17    1      1.02      0.00
    4   17    1      1.44      0.00
    5   17    1      0.43      0.00
    6   17    1      0.38      0.00
    7   17    1      0.11      0.00
    8   17    1     -0.65      0.00
    9   17    1      0.12      0.00
   10   17    1     -1.10      0.00
   11   17    1      0.14      0.00
   12   17    1     -1.27      0.00
   13   17    1     -0.15      0.00
   14   17    1     -1.54      0.00
   15   17    1     -0.75      0.00
   16   17    1     -1.70      0.00
   17   17    1     -1.28      0.00
   18   17    1     -1.31      0.00
   19   17    1     -1.44      0.00
   20   17    1     -0.41      0.00
   21   17    1     -1.22      0.00
    0   18    1     -1.63      0.00
    1   18    1     -0.17      0.00
    2   18    1     -1.35      0.00
    3   18    1     -0.09      0.00
    4   18    1     -0.62      0.00
    5   18    1      0.26      0.00
    6   18    1      0.21      0.00
    7   18    1      0.75      0.00
    8   18    1      0.92      0.00
    9   18    1      1.18      0.00
   10   18    1      1.37      0.00
   11   18    1      1.32      0.00
   12   18    1      1.35      0.00
   13   18    1      1.11      0.00
   14   18    1      0.77      0.00
   15   18    1      0.72      0.00
   16   18    1     -0.06      0.00
   17   18    1      0.39      0.00
   18   18    1     -0.59      0.00
   19   18    1      0.16      0.00
    1   19    1     -0.05      0.00
    2   19    1     -1.59      0.00
    3   19    1      0.33      0.00
    4   19    1     -1.81      0.00
    5   19    1      0.78      0.00
    6   19    1     -0.93      0.00
    7   19    1      0.94      0.00
    8   19    1      0.01      0.00
    9   19    1      0.77      0.00
   10   19    1      0.31      0.00
   11   19    1      0.64      0.00
   12   19    1      0.22      0.00
   13   19    1      0.87      0.00
   14   19    1      0.24      0.00
   15   19    1      1.17      0.00
   16   19    1      0.40      0.00
   17   19    1      1.01      0.00
    0   20    1      1.29      0.00
    1   20    1      0.48      0.00
    2   20    1      1.07      0.00
    3   20    1      1.01      0.00
    4   20    1      0.52      0.00
    5   20    1      0.61      0.00
    6   20    1     -0.06      0.00
    7   20    1     -0.30      0.00
    8   20    1     -0.41      0.00
    9   20    1     -0.95      0.00
   10   20    1     -0.42      0.00
   11   20    1     -0.93      0.00
   12   20    1     -0.17      0.00
   13   20    1     -0.48      0.00
   14   20    1      0.15      0.00
   15   20    1     -0.05      0.00
    1   21    1     -0.92      0.00
    2   21    1      0.53      0.00
    3   21    1     -1.23      0.00
    4   21    1      0.50      0.00
    5   21    1     -1.51      0.00
    6   21    1      0.22      0.00
    7   21    1     -1.48      0.00
    8   21    1      0.06      0.00
    9   21    1     -1.24      0.00
   10   21    1      0.08      0.00
   11   21    1     -1.15      0.00
   12   21    1      0.02      0.00
   13   21    1     -1.29      0.00
    0   22    1      1.67      0.00
    1   22    1      0.02      0.00
    2   22    1      1.66      0.00
    3   22    1     -0.07      0.00
    4   22    1      1.51      0.00
    5   22    1      0.27      0.00
    6   22    1      1.12      0.00
    7   22    1      0.75      0.00
    8   22    1      0.45      0.00
    9   22    1      0.91      0.00
   10   22    1     -0.24      0.00
    1   23    1     -1.72      0.00
    2   23    1     -0.58      0.00
    3   23    1     -1.48      0.00
    4   23    1     -0.70      0.00
    5   23    1     -1.12      0.00
    2    0    2    -48.57      0.00
    3    0    2     29.11      0.00
    4    0    2    -37.41      0.00
    5    0    2     32.92      0.00
    6    0    2    -25.68      0.00
    7    0    2     26.75      0.00
    8    0    2    -17.38      0.00
    9    0    2     19.66      0.00
   10    0    2    -12.77      0.00
   11    0    2     17.11      0.00
   12    0    2    -10.36      0.00
   13    0    2     17.48      0.00
   14    0    2     -9.01      0.00
   15    0    2     16.36      0.00
   16    0    2     -7.84      0.00
   17    0    2     11.96      0.00
   18    0    2     -5.86      0.00
   19    0    2      6.07      0.00
   20    0    2     -2.84      0.00
   21    0    2      1.27      0.00
   22    0    2     -0.11      0.00
   23    0    2     -1.39      0.00
   24    0    2      0.54      0.00
   25    0    2     -2.32      0.00
   26    0    2     -0.95      0.00
   27    0    2     -2.23      0.00
   28    0    2     -2.59      0.00
   29    0    2     -1.55      0.00
   30    0    2     -2.48      0.00
    1    1    2      9.27      0.00
    2    1    2    -11.68      0.00
    3    1    2      5.25      0.00
    4    1    2    -18.46      0.00
    5    1    2     -0.55      0.00
    6    1    2    -19.17      0.00
    7    1    2     -4.96      0.00
    8    1    2    -16.52      0.00
    9    1    2     -5.74      0.00
   10    1    2    -13.99      0.00
   11    1    2     -2.83      0.00
   12    1    2    -12.82      0.00
   13    1    2      1.68      0.00
   14    1    2    -11.92      0.00
   15    1    2      4.90      0.00
   16    1    2     -9.88      0.00
   17    1    2      5.11      0.00
   18    1    2     -6.57      0.00
   19    1    2      2.85      0.00
   20    1    2     -2.96      0.00
   21    1    2      0.18      0.00
   22    1    2     -0.12      0.00
   23    1    2     -1.09      0.00
   24    1    2      1.45      0.00
   25    1    2     -0.66      0.00
   26    1    2      1.75      0.00
   27    1    2      0.44      0.00
   28    1    2      1.16      0.00
   29    1    2      1.03      0.00
   30    1    2      0.25      0.00
    0    2    2      2.91      0.00
    1    2    2     -1.91      0.00
    2    2    2      5.30      0.00
    3    2    2     -3.17      0.00
    4    2    2     11.64      0.00
    5    2    2      0.46      0.00
    6    2    2     19.05      0.00
    7    2    2      5.97      0.00
    8    2    2     22.99      0.00
    9    2    2      8.55      0.00
   10    2    2     20.09      0.00
   11    2    2      6.77      0.00
   12    2    2     11.42      0.00
   13    2    2      3.23      0.00
   14    2    2      2.12      0.00
   15    2    2      1.11      0.00
   16    2    2     -2.96      0.00
   17    2    2      1.05      0.00
   18    2    2     -3.06      0.00
   19    2    2      1.55      0.00
   20    2    2     -0.94      0.00
   21    2    2      1.33      0.00
   22    2    2      0.71      0.00
   23    2    2      0.56      0.00
   24    2    2      1.37      0.00
   25    2    2      0.15      0.00
   26    2    2      1.65      0.00
   27    2    2      0.51      0.00
   28    2    2      1.68      0.00
   29    2    2      1.19      0.00
   30    2    2      1.15      0.00
    1    3    2     66.98      0.00
    2    3    2      1.15      0.00
    3    3    2     52.85      0.00
    4    3    2     -1.16      0.00
    5    3    2     31.45      0.00
    6    3    2     -5.98      0.00
    7    3    2     11.87      0.00
    8    3    2     -8.80      0.00
    9    3    2      0.15      0.00
   10    3    2     -6.66      0.00
   11    3    2     -3.14      0.00
   12    3    2     -1.23      0.00
   13    3    2     -1.30      0.00
   14    3    2      3.23      0.00
   15    3    2      1.73      0.00
   16    3    2      4.15      0.00
   17    3    2      3.53      0.00
   18    3    2      2.28      0.00
   19    3    2      3.51      0.00
   20    3    2     -0.17      0.00
   21    3    2      2.16      0.00
   22    3    2     -1.84      0.00
   23    3    2      0.39      0.00
   24    3    2     -2.69      0.00
   25    3    2     -1.03      0.00
   26    3    2     -3.04      0.00
   27    3    2     -1.67      0.00
   28    3    2     -2.99      0.00
   29    3    2     -1.51      0.00
   30    3    2     -2.50      0.00
    0    4    2    -70.50      0.00
    1    4    2      5.56      0.00
    2    4    2    -65.77      0.00
    3    4    2     14.26      0.00
    4    4    2    -54.19      0.00
    5    4    2     17.51      0.00
    6    4    2    -40.95      0.00
    7    4    2     15.40      0.00
    8    4    2    -29.27      0.00
    9    4    2     10.24      0.00
   10    4    2    -19.23      0.00
   11    4    2      4.55      0.00
   12    4    2    -10.34      0.00
   13    4    2      0.01      0.00
   14    4    2     -3.74      0.00
   15    4    2     -2.50      0.00
   16    4    2     -0.97      0.00
   17    4    2     -2.78      0.00
   18    4    2     -1.43      0.00
   19    4    2     -1.29      0.00
   20    4    2     -2.56      0.00
   21    4    2      0.99      0.00
   22    4    2     -2.42      0.00
   23    4    2      2.95      0.00
   24    4    2     -1.22      0.00
   25    4    2      3.83      0.00
   26    4    2     -0.15      0.00
   27    4    2      3.52      0.00
   28    4    2      0.30      0.00
   29    4    2      2.51      0.00
   30    4    2      0.47      0.00
    1    5    2    -10.58      0.00
    2    5    2    -10.78      0.00
    3    5    2      0.69      0.00
    4    5    2    -15.63      0.00
    5    5    2     16.24      0.00
    6    5    2    -13.94      0.00
    7    5    2     27.14      0.00
    8    5    2     -9.69      0.00
    9    5    2     28.37      0.00
   10    5    2     -6.57      0.00
   11    5    2     20.94      0.00
   12    5    2     -4.94      0.00
   13    5    2     10.03      0.00
   14    5    2     -3.33      0.00
   15    5    2      1.22      0.00
   16    5    2     -1.30      0.00
   17    5    2     -2.49      0.00
   18    5    2      0.13      0.00
   19    5    2     -1.64      0.00
   20    5    2      0.20      0.00
   21    5    2      0.96      0.00
   22    5    2     -0.65      0.00
   23    5    2      2.59      0.00
   24    5    2     -1.33      0.00
   25    5    2      2.33      0.00
   26    5    2     -1.27      0.00
   27    5    2      1.00      0.00
   28    5    2     -0.69      0.00
   29    5    2     -0.13      0.00
    0    6    2     53.06      0.00
    1    6    2     -0.79      0.00
    2    6    2     41.99      0.00
    3    6    2     -2.00      0.00
    4    6    2     15.90      0.00
    5    6    2     -2.13      0.00
    6    6    2     -9.96      0.00
    7    6    2     -0.30      0.00
    8    6    2    -23.72      0.00
    9    6    2      3.31      0.00
   10    6    2    -23.46      0.00
   11    6    2      6.89      0.00
   12    6    2    -14.84      0.00
   13    6    2      8.20      0.00
   14    6    2     -4.80      0.00
   15    6    2      6.53      0.00
   16    6    2      2.10      0.00
   17    6    2      3.23      0.00
   18    6    2      4.20      0.00
   19    6    2      0.38      0.00
   20    6    2      2.31      0.00
   21    6    2     -0.94      0.00
   22    6    2     -0.93      0.00
   23    6    2     -1.04      0.00
   24    6    2     -2.78      0.00
   25    6    2     -0.77      0.00
   26    6    2     -2.37      0.00
   27    6    2     -0.63      0.00
   28    6    2     -1.00      0.00
   29    6    2     -0.60      0.00
    1    7    2    -42.75      0.00
    2    7    2     10.27      0.00
    3    7    2    -29.58      0.00
    4    7    2     14.58      0.00
    5    7    2    -10.13      0.00
    6    7    2     11.43      0.00
    7    7    2      6.19      0.00
    8    7    2      3.92      0.00
    9    7    2     13.20      0.00
   10    7    2     -3.43      0.00
   11    7    2     10.93      0.00
   12    7    2     -7.65      0.00
   13    7    2      4.11      0.00
   14    7    2     -8.03      0.00
   15    7    2     -1.98      0.00
   16    7    2     -5.48      0.00
   17    7    2     -4.67      0.00
   18    7    2     -1.89      0.00
   19    7    2     -4.17      0.00
   20    7    2      0.73      0.00
   21    7    2     -2.09      0.00
   22    7    2      1.38      0.00
   23    7    2      0.06      0.00
   24    7    2      0.58      0.00
   25    7    2      1.42      0.00
   26    7    2     -0.43      0.00
   27    7    2      1.81      0.00
   28    7    2     -0.82      0.00
   29    7    2      1.56      0.00
    0    8    2     31.32      0.00
    1    8    2     -4.65      0.00
    2    8    2     29.64      0.00
    3    8    2    -11.26      0.00
    4    8    2     24.19      0.00
    5    8    2    -11.99      0.00
    6    8    2     15.49      0.00
    7    8    2     -8.04      0.00
    8    8    2      6.62      0.00
    9    8    2     -2.84      0.00
   10    8    2      1.51      0.00
   11    8    2      1.03      0.00
   12    8    2      1.23      0.00
   13    8    2      2.82      0.00
   14    8    2      3.24      0.00
   15    8    2      2.73      0.00
   16    8    2      4.45      0.00
   17    8    2      1.34      0.00
   18    8    2      4.04      0.00
   19    8    2     -0.29      0.00
   20    8    2      2.97      0.00
   21    8    2     -1.04      0.00
   22    8    2      1.93      0.00
   23    8    2     -0.50      0.00
   24    8    2      0.81      0.00
   25    8    2      0.71      0.00
   26    8    2     -0.35      0.00
   27    8    2      1.65      0.00
   28    8    2     -0.99      0.00
    1    9    2     -9.36      0.00
    2    9    2      3.32      0.00
    3    9    2    -11.59      0.00
    4    9    2      5.49      0.00
    5    9    2    -13.60      0.00
    6    9    2      6.15      0.00
    7    9    2    -13.00      0.00
    8    9    2      5.72      0.00
    9    9    2     -9.72      0.00
   10    9    2      4.86      0.00
   11    9    2     -5.67      0.00
   12    9    2      3.96      0.00
   13    9    2     -2.77      0.00
   14    9    2      2.98      0.00
   15    9    2     -1.53      0.00
   16    9    2      1.84      0.00
   17    9    2     -1.30      0.00
   18    9    2      0.75      0.00
   19    9    2     -1.29      0.00
   20    9    2      0.10      0.00
   21    9    2     -1.17      0.00
   22    9    2      0.03      0.00
   23    9    2     -1.02      0.00
   24    9    2      0.12      0.00
   25    9    2     -0.98      0.00
   26    9    2     -0.11      0.00
   27    9    2     -0.98      0.00
   28    9    2     -0.66      0.00
    0   10    2    -13.84      0.00
    1   10    2     -0.06      0.00
    2   10    2    -11.44      0.00
    3   10    2     -0.65      0.00
    4   10    2     -5.21      0.00
    5   10    2     -2.19      0.00
    6   10    2      1.99      0.00
    7   10    2     -3.92      0.00
    8   10    2      6.50      0.00
    9   10    2     -4.97      0.00
   10   10    2      6.34      0.00
   11   10    2     -5.25      0.00
   12   10    2      2.84      0.00
   13   10    2     -4.91      0.00
   14   10    2     -0.64      0.00
   15   10    2     -3.75      0.00
   16   10    2     -1.84      0.00
   17   10    2     -1.68      0.00
   18   10    2     -1.15      0.00
   19   10    2      0.47      0.00
   20   10    2     -0.05      0.00
   21   10    2      1.49      0.00
   22   10    2      0.77      0.00
   23   10    2      1.04      0.00
   24   10    2      1.50      0.00
   25   10    2      0.06      0.00
   26   10    2      2.04      0.00
   27   10    2     -0.40      0.00
    1   11    2     19.73      0.00
    2   11    2     -0.98      0.00
    3   11    2     14.42      0.00
    4   11    2     -0.61      0.00
    5   11    2      5.90      0.00
    6   11    2      0.95      0.00
    7   11    2     -2.24      0.00
    8   11    2      2.44      0.00
    9   11    2     -6.58      0.00
   10   11    2      2.98      0.00
   11   11    2     -6.01      0.00
   12   11    2      2.68      0.00
   13   11    2     -2.40      0.00
   14   11    2      2.04      0.00
   15   11    2      1.13      0.00
   16   11    2      1.20      0.00
   17   11    2      2.52      0.00
   18   11    2      0.14      0.00
   19   11    2      1.75      0.00
   20   11    2     -0.92      0.00
   21   11    2      0.06      0.00
   22   11    2     -1.52      0.00
   23   11    2     -1.28      0.00
   24   11    2     -1.41      0.00
   25   11    2     -1.67      0.00
   26   11    2     -0.76      0.00
    0   12    2    -15.36      0.00
    1   12    2      0.44      0.00
    2   12    2    -12.62      0.00
    3   12    2      0.74      0.00
    4   12    2     -5.84      0.00
    5   12    2     -0.11      0.00
    6   12    2      1.65      0.00
    7   12    2     -1.52      0.00
    8   12    2      6.76      0.00
    9   12    2     -2.23      0.00
   10   12    2      8.01      0.00
   11   12    2     -1.53      0.00
   12   12    2      5.79      0.00
   13   12    2     -0.02      0.00
   14   12    2      1.87      0.00
   15   12    2      0.94      0.00
   16   12    2     -1.49      0.00
   17   12    2      0.64      0.00
   18   12    2     -2.71      0.00
   19   12    2     -0.23      0.00
   20   12    2     -1.90      0.00
   21   12    2     -0.47      0.00
   22   12    2     -0.62      0.00
   23   12    2      0.18      0.00
   24   12    2     -0.23      0.00
   25   12    2      0.82      0.00
   26   12    2     -0.62      0.00
    1   13    2      4.85      0.00
    2   13    2      0.77      0.00
    3   13    2      2.12      0.00
    4   13    2      1.47      0.00
    5   13    2     -1.45      0.00
    6   13    2      2.09      0.00
    7   13    2     -3.71      0.00
    8   13    2      2.34      0.00
    9   13    2     -3.87      0.00
   10   13    2      1.68      0.00
   11   13    2     -2.58      0.00
   12   13    2     -0.05      0.00
   13   13    2     -0.99      0.00
   14   13    2     -1.93      0.00
   15   13    2      0.14      0.00
   16   13    2     -2.58      0.00
   17   13    2      0.62      0.00
   18   13    2     -1.55      0.00
   19   13    2      0.69      0.00
   20   13    2      0.06      0.00
   21   13    2      0.74      0.00
   22   13    2      0.91      0.00
   23   13    2      1.01      0.00
   24   13    2      0.68      0.00
   25   13    2      1.26      0.00
    0   14    2      2.60      0.00
    1   14    2     -0.84      0.00
    2   14    2      2.46      0.00
    3   14    2     -1.99      0.00
    4   14    2      1.94      0.00
    5   14    2     -2.06      0.00
    6   14    2      0.91      0.00
    7   14    2     -1.35      0.00
    8   14    2     -0.48      0.00
    9   14    2     -0.46      0.00
   10   14    2     -1.58      0.00
   11   14    2      0.34      0.00
   12   14    2     -1.55      0.00
   13   14    2      1.18      0.00
   14   14    2     -0.27      0.00
   15   14    2      2.05      0.00
   16   14    2      1.33      0.00
   17   14    2      2.52      0.00
   18   14    2      2.02      0.00
   19   14    2      2.15      0.00
   20   14    2      1.48      0.00
   21   14    2      1.05      0.00
   22   14    2      0.51      0.00
   23   14    2     -0.08      0.00
   24   14    2      0.01      0.00
    1   15    2     -3.79      0.00
    2   15    2      0.56      0.00
    3   15    2     -2.41      0.00
    4   15    2      0.64      0.00
    5   15    2     -0.78      0.00
    6   15    2      0.10      0.00
    7   15    2      0.04      0.00
    8   15    2     -0.68      0.00
    9   15    2     -0.04      0.00
   10   15    2     -1.03      0.00
   11   15    2     -0.40      0.00
   12   15    2     -0.70      0.00
   13   15    2     -0.63      0.00
   14   15    2     -0.21      0.00
   15   15    2     -0.75      0.00
   16   15    2     -0.29      0.00
   17   15    2     -0.89      0.00
   18   15    2     -0.95      0.00
   19   15    2     -0.93      0.00
   20   15    2     -1.40      0.00
   21   15    2     -0.79      0.00
   22   15    2     -1.03      0.00
   23   15    2     -0.59      0.00
    0   16    2      3.58      0.00
    1   16    2      0.37      0.00
    2   16    2      2.98      0.00
    3   16    2      1.03      0.00
    4   16    2      1.82      0.00
    5   16    2      1.13      0.00
    6   16    2      1.25      0.00
    7   16    2      0.89      0.00
    8   16    2      1.61      0.00
    9   16    2      0.65      0.00
   10   16    2      1.94      0.00
   11   16    2      0.34      0.00
   12   16    2      1.17      0.00
   13   16    2     -0.25      0.00
   14   16    2     -0.53      0.00
   15   16    2     -0.90      0.00
   16   16    2     -1.81      0.00
   17   16    2     -1.11      0.00
   18   16    2     -1.70      0.00
   19   16    2     -0.67      0.00
   20   16    2     -0.63      0.00
   21   16    2     -0.06      0.00
   22   16    2      0.20      0.00
    1   17    2     -1.23      0.00
    2   17    2     -1.21      0.00
    3   17    2     -1.37      0.00
    4   17    2     -2.14      0.00
    5   17    2     -1.33      0.00
    6   17    2     -2.04      0.00
    7   17    2     -0.93      0.00
    8   17    2     -1.18      0.00
    9   17    2     -0.34      0.00
   10   17    2     -0.27      0.00
   11   17    2      0.23      0.00
   12   17    2      0.24      0.00
   13   17    2      0.76      0.00
   14   17    2      0.46      0.00
   15   17    2      1.20      0.00
   16   17    2      0.63      0.00
   17   17    2      1.28      0.00
   18   17    2      0.69      0.00
   19   17    2      0.85      0.00
   20   17    2      0.45      0.00
    0   18    2     -3.56      0.00
    1   18    2      0.48      0.00
    2   18    2     -2.82      0.00
    3   18    2      1.91      0.00
    4   18    2     -1.36      0.00
    5   18    2      2.85      0.00
    6   18    2     -0.62      0.00
    7   18    2      2.69      0.00
    8   18    2     -0.87      0.00
    9   18    2      1.47      0.00
   10   18    2     -1.07      0.00
   11   18    2      0.07      0.00
   12   18    2     -0.38      0.00
   13   18    2     -0.58      0.00
   14   18    2      0.68      0.00
   15   18    2     -0.32      0.00
   16   18    2      0.97      0.00
   17   18    2      0.28      0.00
   18   18    2      0.24      0.00
   19   18    2      0.67      0.00
    1   19    2      3.49      0.00
    2   19    2     -1.51      0.00
    3   19    2      3.41      0.00
    4   19    2     -2.00      0.00
    5   19    2      3.40      0.00
    6   19    2     -2.00      0.00
    7   19    2      3.44      0.00
    8   19    2     -1.37      0.00
    9   19    2      3.23      0.00
   10   19    2     -0.28      0.00
   11   19    2      2.50      0.00
   12   19    2      0.63      0.00
   13   19    2      1.37      0.00
   14   19    2      0.75      0.00
   15   19    2      0.46      0.00
   16   19    2      0.12      0.00
   17   19    2      0.28      0.00
    0   20    2      0.87      0.00
    1   20    2      1.46      0.00
    2   20    2     -0.04      0.00
    3   20    2      1.00      0.00
    4   20    2     -2.11      0.00
    5   20    2     -0.07      0.00
    6   20    2     -3.76      0.00
    7   20    2     -1.03      0.00
    8   20    2     -4.25      0.00
    9   20    2     -1.34      0.00
   10   20    2     -4.03      0.00
   11   20    2     -1.12      0.00
   12   20    2     -3.64      0.00
   13   20    2     -0.75      0.00
   14   20    2     -3.03      0.00
   15   20    2     -0.39      0.00
    1   21    2     -0.65      0.00
    2   21    2     -0.06      0.00
    3   21    2     -0.23      0.00
    4   21    2      1.11      0.00
    5   21    2      0.16      0.00
    6   21    2      2.27      0.00
    7   21    2      0.23      0.00
    8   21    2      2.66      0.00
    9   21    2      0.17      0.00
   10   21    2      2.09      0.00
   11   21    2      0.32      0.00
   12   21    2      1.15      0.00
   13   21    2      0.58      0.00
    0   22    2     -2.71      0.00
    1   22    2     -0.55      0.00
    2   22    2     -2.03      0.00
    3   22    2     -1.04      0.00
    4   22    2     -0.40      0.00
    5   22    2     -1.24      0.00
    6   22    2      1.08      0.00
    7   22    2     -1.24      0.00
    8   22    2      1.80      0.00
    9   22    2     -1.11      0.00
   10   22    2      1.91      0.00
    1   23    2      1.59      0.00
    2   23    2      0.33      0.00
    3   23    2      1.42      0.00
    4   23    2     -0.12      0.00
    5   23    2      1.26      0.00
    1    1    3    -36.63      0.00
    2    1    3     -2.12      0.00
    3    1    3    -21.16      0.00
    4    1    3     -4.33      0.00
    5    1    3      2.74      0.00
    6    1    3     -5.97      0.00
    7    1    3     24.45      0.00
    8    1    3     -5.93      0.00
    9    1    3     35.12      0.00
   10    1    3     -3.81      0.00
   11    1    3     32.33      0.00
   12    1    3     -0.72      0.00
   13    1    3     20.74      0.00
   14    1    3      1.43      0.00
   15    1    3      8.38      0.00
   16    1    3      1.60      0.00
   17    1    3      1.00      0.00
   18    1    3      0.31      0.00
   19    1    3     -0.74      0.00
   20    1    3     -1.16      0.00
   21    1    3      0.30      0.00
   22    1    3     -2.01      0.00
   23    1    3      1.34      0.00
   24    1    3     -2.21      0.00
   25    1    3      1.50      0.00
   26    1    3     -1.94      0.00
   27    1    3      1.04      0.00
   28    1    3     -1.30      0.00
   29    1    3      0.30      0.00
   30    1    3     -0.44      0.00
    0    2    3    123.68      0.00
    1    2    3      1.37      0.00
    2    2    3    106.44      0.00
    3    2    3      3.64      0.00
    4    2    3     63.62      0.00
    5    2    3      4.92      0.00
    6    2    3     15.64      0.00
    7    2    3      4.74      0.00
    8    2    3    -18.64      0.00
    9    2    3      3.00      0.00
   10    2    3    -31.53      0.00
   11    2    3      0.36      0.00
   12    2    3    -26.97      0.00
   13    2    3     -1.87      0.00
   14    2    3    -14.64      0.00
   15    2    3     -2.55      0.00
   16    2    3     -3.43      0.00
   17    2    3     -1.57      0.00
   18    2    3      2.15      0.00
   19    2    3      0.18      0.00
   20    2    3      2.28      0.00
   21    2    3      1.76      0.00
   22    2    3      0.01      0.00
   23    2    3      2.70      0.00
   24    2    3     -1.57      0.00
   25    2    3      2.86      0.00
   26    2    3     -1.22      0.00
   27    2    3      2.24      0.00
   28    2    3      0.31      0.00
   29    2    3      1.06      0.00
   30    2    3      1.52      0.00
    1    3    3   -113.44      0.00
    2    3    3      0.07      0.00
    3    3    3    -85.60      0.00
    4    3    3      0.42      0.00
    5    3    3    -44.76      0.00
    6    3    3      0.74      0.00
    7    3    3     -9.42      0.00
    8    3    3      0.57      0.00
    9    3    3     10.01      0.00
   10    3    3     -0.01      0.00
   11    3    3     14.34      0.00
   12    3    3     -0.33      0.00
   13    3    3     10.23      0.00
   14    3    3      0.08      0.00
   15    3    3      4.00      0.00
   16    3    3      0.93      0.00
   17    3    3     -0.71      0.00
   18    3    3      1.39      0.00
   19    3    3     -2.47      0.00
   20    3    3      0.88      0.00
   21    3    3     -1.57      0.00
   22    3    3     -0.33      0.00
   23    3    3      0.21      0.00
   24    3    3     -1.38      0.00
   25    3    3      0.88      0.00
   26    3    3     -1.52      0.00
   27    3    3     -0.11      0.00
   28    3    3     -0.76      0.00
   29    3    3     -1.49      0.00
   30    3    3      0.16      0.00
    0    4    3     11.68      0.00
    1    4    3     -2.35      0.00
    2    4    3      9.76      0.00
    3    4    3     -5.77      0.00
    4    4    3      4.80      0.00
    5    4    3     -6.09      0.00
    6    4    3     -0.88      0.00
    7    4    3     -3.13      0.00
    8    4    3     -4.33      0.00
    9    4    3      1.40      0.00
   10    4    3     -4.01      0.00
   11    4    3      4.85      0.00
   12    4    3     -1.14      0.00
   13    4    3      5.29      0.00
   14    4    3      1.48      0.00
   15    4    3      2.87      0.00
   16    4    3      2.08      0.00
   17    4    3     -0.37      0.00
   18    4    3      1.16      0.00
   19    4    3     -2.20      0.00
   20    4    3      0.16      0.00
   21    4    3     -1.93      0.00
   22    4    3     -0.28      0.00
   23    4    3     -0.63      0.00
   24    4    3     -0.43      0.00
   25    4    3      0.26      0.00
   26    4    3     -0.53      0.00
   27    4    3      0.20      0.00
   28    4    3     -0.43      0.00
   29    4    3     -0.26      0.00
   30    4    3     -0.08      0.00
    1    5    3     36.57      0.00
    2    5    3      6.29      0.00
    3    5    3     26.52      0.00
    4    5    3      8.58      0.00
    5    5    3     12.92      0.00
    6    5    3      5.77      0.00
    7    5    3      2.37      0.00
    8    5    3      0.08      0.00
    9    5    3     -3.47      0.00
   10    5    3     -4.90      0.00
   11    5    3     -6.52      0.00
   12    5    3     -6.65      0.00
   13    5    3     -7.97      0.00
   14    5    3     -5.01      0.00
   15    5    3     -7.12      0.00
   16    5    3     -1.78      0.00
   17    5    3     -3.92      0.00
   18    5    3      0.82      0.00
   19    5    3     -0.35      0.00
   20    5    3      1.64      0.00
   21    5    3      1.39      0.00
   22    5    3      1.12      0.00
   23    5    3      1.21      0.00
   24    5    3      0.37      0.00
   25    5    3      0.62      0.00
   26    5    3      0.02      0.00
   27    5    3      0.63      0.00
   28    5    3     -0.02      0.00
   29    5    3      0.85      0.00
    0    6    3    -18.83      0.00
    1    6    3     -2.60      0.00
    2    6    3    -15.56      0.00
    3    6    3     -6.46      0.00
    4    6    3     -7.42      0.00
    5    6    3     -7.18      0.00
    6    6    3      1.69      0.00
    7    6    3     -5.20      0.00
    8    6    3      8.01      0.00
    9    6    3     -2.26      0.00
   10    6    3     10.01      0.00
   11    6    3      0.09      0.00
   12    6    3      8.73      0.00
   13    6    3      1.23      0.00
   14    6    3      6.13      0.00
   15    6    3      1.29      0.00
   16    6    3      3.38      0.00
   17    6    3      0.74      0.00
   18    6    3      0.80      0.00
   19    6    3      0.08      0.00
   20    6    3     -1.24      0.00
   21    6    3     -0.39      0.00
   22    6    3     -1.96      0.00
   23    6    3     -0.57      0.00
   24    6    3     -1.09      0.00
   25    6    3     -0.42      0.00
   26    6    3      0.42      0.00
   27    6    3     -0.03      0.00
   28    6    3      1.26      0.00
   29    6    3      0.33      0.00
    1    7    3      7.78      0.00
    2    7    3      3.03      0.00
    3    7    3      6.13      0.00
    4    7    3      5.89      0.00
    5    7    3      2.13      0.00
    6    7    3      8.13      0.00
    7    7    3     -3.15      0.00
    8    7    3      8.95      0.00
    9    7    3     -6.36      0.00
   10    7    3      7.75      0.00
   11    7    3     -5.14      0.00
   12    7    3      4.78      0.00
   13    7    3     -0.95      0.00
   14    7    3      1.24      0.00
   15    7    3      2.54      0.00
   16    7    3     -1.37      0.00
   17    7    3      3.33      0.00
   18    7    3     -2.28      0.00
   19    7    3      2.35      0.00
   20    7    3     -1.75      0.00
   21    7    3      1.19      0.00
   22    7    3     -0.76      0.00
   23    7    3      0.08      0.00
   24    7    3     -0.17      0.00
   25    7    3     -1.33      0.00
   26    7    3     -0.23      0.00
   27    7    3     -2.52      0.00
   28    7    3     -0.58      0.00
   29    7    3     -2.50      0.00
    0    8    3     -3.41      0.00
    1    8    3     -0.90      0.00
    2    8    3     -1.78      0.00
    3    8    3     -3.09      0.00
    4    8    3      2.10      0.00
    5    8    3     -5.86      0.00
    6    8    3      5.82      0.00
    7    8    3     -8.26      0.00
    8    8    3      7.00      0.00
    9    8    3     -8.87      0.00
   10    8    3      4.74      0.00
   11    8    3     -7.06      0.00
   12    8    3      0.21      0.00
   13    8    3     -3.44      0.00
   14    8    3     -4.03      0.00
   15    8    3      0.46      0.00
   16    8    3     -5.66      0.00
   17    8    3      3.20      0.00
   18    8    3     -4.13      0.00
   19    8    3      4.07      0.00
   20    8    3     -0.89      0.00
   21    8    3      3.40      0.00
   22    8    3      1.92      0.00
   23    8    3      2.15      0.00
   24    8    3      3.06      0.00
   25    8    3      1.19      0.00
   26    8    3      2.73      0.00
   27    8    3      0.82      0.00
   28    8    3      1.76      0.00
    1    9    3     -5.81      0.00
    2    9    3      0.17      0.00
    3    9    3    -10.86      0.00
    4    9    3      1.01      0.00
    5    9    3    -15.77      0.00
    6    9    3      2.53      0.00
    7    9    3    -15.76      0.00
    8    9    3      4.12      0.00
    9    9    3    -10.78      0.00
   10    9    3      4.87      0.00
   11    9    3     -4.32      0.00
   12    9    3      4.14      0.00
   13    9    3      0.55      0.00
   14    9    3      1.90      0.00
   15    9    3      2.93      0.00
   16    9    3     -1.03      0.00
   17    9    3      2.98      0.00
   18    9    3     -3.28      0.00
   19    9    3      1.18      0.00
   20    9    3     -3.85      0.00
   21    9    3     -1.26      0.00
   22    9    3     -2.85      0.00
   23    9    3     -2.63      0.00
   24    9    3     -1.30      0.00
   25    9    3     -2.14      0.00
   26    9    3     -0.21      0.00
   27    9    3     -0.76      0.00
   28    9    3      0.08      0.00
    0   10    3      3.52      0.00
    1   10    3      0.89      0.00
    2   10    3      5.94      0.00
    3   10    3      2.08      0.00
    4   10    3     11.02      0.00
    5   10    3      1.78      0.00
    6   10    3     14.23      0.00
    7   10    3      0.10      0.00
    8   10    3     12.86      0.00
    9   10    3     -2.03      0.00
   10   10    3      8.02      0.00
   11   10    3     -3.36      0.00
   12   10    3      2.92      0.00
   13   10    3     -3.09      0.00
   14   10    3     -0.07      0.00
   15   10    3     -1.44      0.00
   16   10    3     -0.81      0.00
   17   10    3      0.45      0.00
   18   10    3     -0.46      0.00
   19   10    3      1.41      0.00
   20   10    3     -0.03      0.00
   21   10    3      1.15      0.00
   22   10    3      0.10      0.00
   23   10    3      0.28      0.00
   24   10    3     -0.02      0.00
   25   10    3     -0.45      0.00
   26   10    3     -0.20      0.00
   27   10    3     -0.71      0.00
    1   11    3     -0.82      0.00
    2   11    3     -1.84      0.00
    3   11    3     -1.54      0.00
    4   11    3     -2.28      0.00
    5   11    3     -3.55      0.00
    6   11    3     -1.10      0.00
    7   11    3     -6.24      0.00
    8   11    3      0.76      0.00
    9   11    3     -7.59      0.00
   10   11    3      2.04      0.00
   11   11    3     -6.32      0.00
   12   11    3      2.18      0.00
   13   11    3     -3.49      0.00
   14   11    3      1.58      0.00
   15   11    3     -1.20      0.00
   16   11    3      1.03      0.00
   17   11    3     -0.30      0.00
   18   11    3      0.90      0.00
   19   11    3     -0.01      0.00
   20   11    3      0.91      0.00
   21   11    3      0.36      0.00
   22   11    3      0.65      0.00
   23   11    3      0.62      0.00
   24   11    3      0.17      0.00
   25   11    3      0.48      0.00
   26   11    3     -0.11      0.00
    0   12    3      5.75      0.00
    1   12    3      0.62      0.00
    2   12    3      4.33      0.00
    3   12    3      1.27      0.00
    4   12    3      2.10      0.00
    5   12    3      1.04      0.00
    6   12    3      2.49      0.00
    7   12    3      0.27      0.00
    8   12    3      5.94      0.00
    9   12    3     -0.36      0.00
   10   12    3      9.21      0.00
   11   12    3     -0.64      0.00
   12   12    3      9.04      0.00
   13   12    3     -0.92      0.00
   14   12    3      5.46      0.00
   15   12    3     -1.50      0.00
   16   12    3      1.29      0.00
   17   12    3     -2.09      0.00
   18   12    3     -0.99      0.00
   19   12    3     -2.09      0.00
   20   12    3     -1.11      0.00
   21   12    3     -1.28      0.00
   22   12    3     -0.40      0.00
   23   12    3     -0.13      0.00
   24   12    3     -0.11      0.00
   25   12    3      0.64      0.00
   26   12    3     -0.44      0.00
    1   13    3    -12.34      0.00
    2   13    3     -1.05      0.00
    3   13    3     -9.76      0.00
    4   13    3     -1.83      0.00
    5   13    3     -6.96      0.00
    6   13    3     -2.16      0.00
    7   13    3     -6.34      0.00
    8   13    3     -1.86      0.00
    9   13    3     -7.87      0.00
   10   13    3     -0.94      0.00
   11   13    3     -8.99      0.00
   12   13    3      0.38      0.00
   13   13    3     -7.18      0.00
   14   13    3      1.65      0.00
   15   13    3     -2.78      0.00
   16   13    3      2.32      0.00
   17   13    3      1.35      0.00
   18   13    3      2.11      0.00
   19   13    3      2.85      0.00
   20   13    3      1.31      0.00
   21   13    3      2.10      0.00
   22   13    3      0.54      0.00
   23   13    3      1.14      0.00
   24   13    3      0.15      0.00
   25   13    3      1.12      0.00
    0   14    3     14.58      0.00
    1   14    3      0.81      0.00
    2   14    3     13.84      0.00
    3   14    3      2.41      0.00
    4   14    3     11.37      0.00
    5   14    3      3.48      0.00
    6   14    3      7.28      0.00
    7   14    3      3.43      0.00
    8   14    3      3.00      0.00
    9   14    3      2.12      0.00
   10   14    3      0.38      0.00
   11   14    3      0.25      0.00
   12   14    3     -0.14      0.00
   13   14    3     -1.14      0.00
   14   14    3      0.12      0.00
   15   14    3     -1.43      0.00
   16   14    3     -0.17      0.00
   17   14    3     -0.82      0.00
   18   14    3     -1.05      0.00
   19   14    3     -0.07      0.00
   20   14    3     -1.72      0.00
   21   14    3      0.18      0.00
   22   14    3     -1.77      0.00
   23   14    3     -0.09      0.00
   24   14    3     -1.37      0.00
    1   15    3     -8.40      0.00
    2   15    3     -1.14      0.00
    3   15    3     -7.96      0.00
    4   15    3     -2.15      0.00
    5   15    3     -5.51      0.00
    6   15    3     -2.42      0.00
    7   15    3     -0.50      0.00
    8   15    3     -1.66      0.00
    9   15    3      4.86      0.00
   10   15    3     -0.30      0.00
   11   15    3      7.21      0.00
   12   15    3      0.73      0.00
   13   15    3      5.34      0.00
   14   15    3      0.77      0.00
   15   15    3      1.40      0.00
   16   15    3     -0.01      0.00
   17   15    3     -1.25      0.00
   18   15    3     -0.91      0.00
   19   15    3     -1.22      0.00
   20   15    3     -1.34      0.00
   21   15    3      0.13      0.00
   22   15    3     -1.19      0.00
   23   15    3      0.76      0.00
    0   16    3      3.07      0.00
    1   16    3     -0.07      0.00
    2   16    3      2.96      0.00
    3   16    3     -0.20      0.00
    4   16    3      2.34      0.00
    5   16    3     -0.29      0.00
    6   16    3      0.70      0.00
    7   16    3     -0.36      0.00
    8   16    3     -1.95      0.00
    9   16    3     -0.43      0.00
   10   16    3     -4.48      0.00
   11   16    3     -0.48      0.00
   12   16    3     -5.29      0.00
   13   16    3     -0.41      0.00
   14   16    3     -3.77      0.00
   15   16    3     -0.13      0.00
   16   16    3     -1.16      0.00
   17   16    3      0.32      0.00
   18   16    3      0.61      0.00
   19   16    3      0.77      0.00
   20   16    3      0.73      0.00
   21   16    3      1.03      0.00
   22   16    3      0.03      0.00
    1   17    3     -3.55      0.00
    2   17    3      0.35      0.00
    3   17    3     -2.46      0.00
    4   17    3      0.99      0.00
    5   17    3     -1.36      0.00
    6   17    3      1.31      0.00
    7   17    3     -0.88      0.00
    8   17    3      0.98      0.00
    9   17    3     -0.35      0.00
   10   17    3      0.19      0.00
   11   17    3      1.06      0.00
   12   17    3     -0.42      0.00
   13   17    3      2.92      0.00
   14   17    3     -0.49      0.00
   15   17    3      3.79      0.00
   16   17    3     -0.15      0.00
   17   17    3      2.94      0.00
   18   17    3      0.23      0.00
   19   17    3      1.17      0.00
   20   17    3      0.39      0.00
    0   18    3     -1.92      0.00
    1   18    3      0.07      0.00
    2   18    3     -1.99      0.00
    3   18    3     -0.16      0.00
    4   18    3     -1.89      0.00
    5   18    3     -0.65      0.00
    6   18    3     -1.18      0.00
    7   18    3     -0.89      0.00
    8   18    3     -0.03      0.00
    9   18    3     -0.51      0.00
   10   18    3      0.64      0.00
   11   18    3      0.22      0.00
   12   18    3      0.09      0.00
   13   18    3      0.70      0.00
   14   18    3     -1.37      0.00
   15   18    3      0.57      0.00
   16   18    3     -2.55      0.00
   17   18    3     -0.04      0.00
   18   18    3     -2.51      0.00
   19   18    3     -0.66      0.00
    1   19    3     16.01      0.00
    2   19    3      0.61      0.00
    3   19    3     13.98      0.00
    4   19    3      0.99      0.00
    5   19    3     10.86      0.00
    6   19    3      1.27      0.00
    7   19    3      7.59      0.00
    8   19    3      1.28      0.00
    9   19    3      4.51      0.00
   10   19    3      0.99      0.00
   11   19    3      1.87      0.00
   12   19    3      0.58      0.00
   13   19    3      0.27      0.00
   14   19    3      0.30      0.00
   15   19    3      0.23      0.00
   16   19    3      0.27      0.00
   17   19    3      1.29      0.00
    0   20    3    -21.75      0.00
    1   20    3     -0.59      0.00
    2   20    3    -21.32      0.00
    3   20    3     -1.52      0.00
    4   20    3    -20.09      0.00
    5   20    3     -1.72      0.00
    6   20    3    -18.09      0.00
    7   20    3     -1.34      0.00
    8   20    3    -15.27      0.00
    9   20    3     -0.88      0.00
   10   20    3    -11.63      0.00
   11   20    3     -0.68      0.00
   12   20    3     -7.68      0.00
   13   20    3     -0.70      0.00
   14   20    3     -4.33      0.00
   15   20    3     -0.71      0.00
    1   21    3     12.28      0.00
    2   21    3      0.65      0.00
    3   21    3     14.30      0.00
    4   21    3      0.95      0.00
    5   21    3     16.68      0.00
    6   21    3      0.46      0.00
    7   21    3     17.62      0.00
    8   21    3     -0.30      0.00
    9   21    3     16.46      0.00
   10   21    3     -0.74      0.00
   11   21    3     13.64      0.00
   12   21    3     -0.66      0.00
   13   21    3      9.82      0.00
    0   22    3     -1.29      0.00
    1   22    3     -0.21      0.00
    2   22    3     -2.30      0.00
    3   22    3     -0.41      0.00
    4   22    3     -4.70      0.00
    5   22    3     -0.12      0.00
    6   22    3     -7.07      0.00
    7   22    3      0.46      0.00
    8   22    3     -8.28      0.00
    9   22    3      0.99      0.00
   10   22    3     -8.09      0.00
    1   23    3     -1.50      0.00
    2   23    3      0.46      0.00
    3   23    3     -1.48      0.00
    4   23    3      0.47      0.00
    5   23    3     -1.17      0.00
    0    0    4     66.75      0.00
    2    0    4     59.66      0.00
    4    0    4     42.60      0.00
    5    0    4      5.58      0.00
    6    0    4     24.94      0.00
    7    0    4      3.45      0.00
    8    0    4     14.12      0.00
    9    0    4      3.65      0.00
   10    0    4     11.52      0.00
   11    0    4      5.90      0.00
   12    0    4     13.82      0.00
   13    0    4      6.67      0.00
   14    0    4     16.71      0.00
   15    0    4      3.64      0.00
   16    0    4     17.20      0.00
   17    0    4     -1.85      0.00
   18    0    4     14.21      0.00
   19    0    4     -6.48      0.00
   20    0    4      8.64      0.00
   21    0    4     -8.02      0.00
   22    0    4      3.00      0.00
   23    0    4     -6.63      0.00
   24    0    4     -0.21      0.00
   25    0    4     -4.03      0.00
   26    0    4     -0.48      0.00
   27    0    4     -1.91      0.00
   28    0    4      0.47      0.00
   29    0    4     -0.89      0.00
   30    0    4      0.76      0.00
    1    1    4    -16.94      0.00
    2    1    4      2.58      0.00
    3    1    4    -11.41      0.00
    4    1    4      4.05      0.00
    5    1    4     -3.65      0.00
    6    1    4      3.21      0.00
    7    1    4      1.82      0.00
    8    1    4     -0.03      0.00
    9    1    4      2.15      0.00
   10    1    4     -3.85      0.00
   11    1    4     -2.16      0.00
   12    1    4     -5.53      0.00
   13    1    4     -7.87      0.00
   14    1    4     -3.70      0.00
   15    1    4    -11.40      0.00
   16    1    4      0.47      0.00
   17    1    4    -11.08      0.00
   18    1    4      4.38      0.00
   19    1    4     -7.77      0.00
   20    1    4      6.08      0.00
   21    1    4     -3.67      0.00
   22    1    4      5.38      0.00
   23    1    4     -0.71      0.00
   24    1    4      3.50      0.00
   25    1    4      0.43      0.00
   26    1    4      1.82      0.00
   27    1    4      0.26      0.00
   28    1    4      0.96      0.00
   29    1    4     -0.22      0.00
   30    1    4      0.69      0.00
    0    2    4    -27.09      0.00
    1    2    4     -6.84      0.00
    2    2    4    -25.88      0.00
    3    2    4    -16.12      0.00
    4    2    4    -22.99      0.00
    5    2    4    -16.20      0.00
    6    2    4    -19.69      0.00
    7    2    4     -9.56      0.00
    8    2    4    -15.96      0.00
    9    2    4     -2.61      0.00
   10    2    4    -10.95      0.00
   11    2    4      0.29      0.00
   12    2    4     -4.99      0.00
   13    2    4     -0.62      0.00
   14    2    4     -0.12      0.00
   15    2    4     -2.56      0.00
   16    2    4      1.92      0.00
   17    2    4     -3.33      0.00
   18    2    4      1.53      0.00
   19    2    4     -2.53      0.00
   20    2    4      0.54      0.00
   21    2    4     -0.99      0.00
   22    2    4      0.08      0.00
   23    2    4      0.26      0.00
   24    2    4     -0.05      0.00
   25    2    4      0.62      0.00
   26    2    4     -0.29      0.00
   27    2    4      0.22      0.00
   28    2    4     -0.37      0.00
   29    2    4     -0.34      0.00
   30    2    4      0.03      0.00
    1    3    4      0.96      0.00
    2    3    4      6.60      0.00
    3    3    4      1.33      0.00
    4    3    4      9.40      0.00
    5    3    4      1.65      0.00
    6    3    4      8.49      0.00
    7    3    4      1.79      0.00
    8    3    4      7.01      0.00
    9    3    4      2.14      0.00
   10    3    4      7.04      0.00
   11    3    4      3.03      0.00
   12    3    4      7.66      0.00
   13    3    4      4.15      0.00
   14    3    4      6.83      0.00
   15    3    4      4.77      0.00
   16    3    4      4.00      0.00
   17    3    4      4.44      0.00
   18    3    4      0.48      0.00
   19    3    4      3.35      0.00
   20    3    4     -2.13      0.00
   21    3    4      2.06      0.00
   22    3    4     -3.07      0.00
   23    3    4      1.01      0.00
   24    3    4     -2.55      0.00
   25    3    4      0.33      0.00
   26    3    4     -1.29      0.00
   27    3    4     -0.03      0.00
   28    3    4     -0.11      0.00
   29    3    4     -0.22      0.00
   30    3    4      0.54      0.00
    0    4    4      1.46      0.00
    1    4    4      4.11      0.00
    2    4    4      1.78      0.00
    3    4    4      9.46      0.00
    4    4    4      2.97      0.00
    5    4    4      8.29      0.00
    6    4    4      4.76      0.00
    7    4    4      1.67      0.00
    8    4    4      5.47      0.00
    9    4    4     -5.79      0.00
   10    4    4      3.26      0.00
   11    4    4     -9.65      0.00
   12    4    4     -1.45      0.00
   13    4    4     -8.59      0.00
   14    4    4     -5.86      0.00
   15    4    4     -4.47      0.00
   16    4    4     -7.48      0.00
   17    4    4     -0.19      0.00
   18    4    4     -6.34      0.00
   19    4    4      2.33      0.00
   20    4    4     -4.21      0.00
   21    4    4      2.71      0.00
   22    4    4     -2.43      0.00
   23    4    4      1.65      0.00
   24    4    4     -1.13      0.00
   25    4    4      0.24      0.00
   26    4    4     -0.19      0.00
   27    4    4     -0.69      0.00
   28    4    4      0.16      0.00
   29    4    4     -0.97      0.00
    1    5    4     25.57      0.00
    2    5    4    -10.25      0.00
    3    5    4     17.80      0.00
    4    5    4    -13.62      0.00
    5    5    4      7.09      0.00
    6    5    4     -9.06      0.00
    7    5    4     -0.77      0.00
    8    5    4     -1.41      0.00
    9    5    4     -3.07      0.00
   10    5    4      3.72      0.00
   11    5    4     -1.01      0.00
   12    5    4      4.40      0.00
   13    5    4      2.44      0.00
   14    5    4      2.26      0.00
   15    5    4      4.89      0.00
   16    5    4     -0.23      0.00
   17    5    4      5.42      0.00
   18    5    4     -1.63      0.00
   19    5    4      4.30      0.00
   20    5    4     -1.61      0.00
   21    5    4      2.38      0.00
   22    5    4     -0.47      0.00
   23    5    4      0.71      0.00
   24    5    4      0.94      0.00
   25    5    4      0.00      0.00
   26    5    4      1.68      0.00
   27    5    4      0.25      0.00
   28    5    4      1.45      0.00
   29    5    4      0.81      0.00
    0    6    4    -19.13      0.00
    1    6    4      0.40      0.00
    2    6    4    -14.48      0.00
    3    6    4      0.63      0.00
    4    6    4     -4.09      0.00
    5    6    4     -0.12      0.00
    6    6    4      4.91      0.00
    7    6    4     -1.09      0.00
    8    6    4      8.22      0.00
    9    6    4     -1.36      0.00
   10    6    4      6.73      0.00
   11    6    4     -0.77      0.00
   12    6    4      3.62      0.00
   13    6    4      0.14      0.00
   14    6    4      0.95      0.00
   15    6    4      0.83      0.00
   16    6    4     -0.74      0.00
   17    6    4      1.03      0.00
   18    6    4     -1.22      0.00
   19    6    4      0.62      0.00
   20    6    4     -0.43      0.00
   21    6    4     -0.42      0.00
   22    6    4      0.78      0.00
   23    6    4     -1.62      0.00
   24    6    4      1.15      0.00
   25    6    4     -2.22      0.00
   26    6    4      0.39      0.00
   27    6    4     -1.81      0.00
   28    6    4     -0.54      0.00
   29    6    4     -0.76      0.00
    1    7    4      1.23      0.00
    2    7    4      6.87      0.00
    3    7    4     -2.11      0.00
    4    7    4     10.34      0.00
    5    7    4     -6.89      0.00
    6    7    4      9.74      0.00
    7    7    4    -10.43      0.00
    8    7    4      6.90      0.00
    9    7    4    -10.87      0.00
   10    7    4      4.00      0.00
   11    7    4     -8.33      0.00
   12    7    4      1.85      0.00
   13    7    4     -4.64      0.00
   14    7    4      0.36      0.00
   15    7    4     -1.93      0.00
   16    7    4     -0.35      0.00
   17    7    4     -1.08      0.00
   18    7    4      0.15      0.00
   19    7    4     -1.41      0.00
   20    7    4      1.58      0.00
   21    7    4     -1.67      0.00
   22    7    4      2.89      0.00
   23    7    4     -1.25      0.00
   24    7    4      3.12      0.00
   25    7    4     -0.44      0.00
   26    7    4      2.25      0.00
   27    7    4      0.09      0.00
   28    7    4      1.01      0.00
    0    8    4     -2.99      0.00
    1    8    4     -2.82      0.00
    2    8    4     -2.97      0.00
    3    8    4     -7.14      0.00
    4    8    4     -2.02      0.00
    5    8    4     -8.88      0.00
    6    8    4      0.83      0.00
    7    8    4     -8.52      0.00
    8    8    4      4.33      0.00
    9    8    4     -7.23      0.00
   10    8    4      5.86      0.00
   11    8    4     -5.51      0.00
   12    8    4      4.59      0.00
   13    8    4     -3.40      0.00
   14    8    4      2.47      0.00
   15    8    4     -1.42      0.00
   16    8    4      1.71      0.00
   17    8    4     -0.62      0.00
   18    8    4      2.24      0.00
   19    8    4     -1.23      0.00
   20    8    4      2.43      0.00
   21    8    4     -2.21      0.00
   22    8    4      1.50      0.00
   23    8    4     -2.30      0.00
   24    8    4      0.23      0.00
   25    8    4     -1.36      0.00
   26    8    4     -0.38      0.00
   27    8    4     -0.28      0.00
   28    8    4     -0.34      0.00
    1    9    4      1.16      0.00
    2    9    4     -0.39      0.00
    3    9    4      1.90      0.00
    4    9    4     -0.08      0.00
    5    9    4      2.38      0.00
    6    9    4      1.09      0.00
    7    9    4      1.74      0.00
    8    9    4      2.60      0.00
    9    9    4      0.21      0.00
   10    9    4      3.83      0.00
   11    9    4     -1.33      0.00
   12    9    4      4.39      0.00
   13    9    4     -2.31      0.00
   14    9    4      4.09      0.00
   15    9    4     -2.81      0.00
   16    9    4      2.96      0.00
   17    9    4     -3.07      0.00
   18    9    4      1.40      0.00
   19    9    4     -3.05      0.00
   20    9    4     -0.02      0.00
   21    9    4     -2.54      0.00
   22    9    4     -0.94      0.00
   23    9    4     -1.60      0.00
   24    9    4     -1.29      0.00
   25    9    4     -0.55      0.00
   26    9    4     -1.17      0.00
   27    9    4      0.19      0.00
    0   10    4      2.80      0.00
    1   10    4      2.39      0.00
    2   10    4      2.22      0.00
    3   10    4      5.98      0.00
    4   10    4      0.44      0.00
    5   10    4      6.90      0.00
    6   10    4     -1.92      0.00
    7   10    4      5.39      0.00
    8   10    4     -3.32      0.00
    9   10    4      2.53      0.00
   10   10    4     -2.45      0.00
   11   10    4     -0.78      0.00
   12   10    4      0.08      0.00
   13   10    4     -3.65      0.00
   14   10    4      2.19      0.00
   15   10    4     -4.84      0.00
   16   10    4      2.52      0.00
   17   10    4     -3.54      0.00
   18   10    4      1.68      0.00
   19   10    4     -0.55      0.00
   20   10    4      1.03      0.00
   21   10    4      2.07      0.00
   22   10    4      0.95      0.00
   23   10    4      2.76      0.00
   24   10    4      0.87      0.00
   25   10    4      1.73      0.00
   26   10    4      0.48      0.00
   27   10    4      0.35      0.00
    1   11    4     -0.12      0.00
    2   11    4     -5.60      0.00
    3   11    4      1.38      0.00
    4   11    4     -8.97      0.00
    5   11    4      3.72      0.00
    6   11    4     -9.24      0.00
    7   11    4      5.51      0.00
    8   11    4     -7.05      0.00
    9   11    4      5.42      0.00
   10   11    4     -3.75      0.00
   11   11    4      3.32      0.00
   12   11    4     -0.53      0.00
   13   11    4      0.76      0.00
   14   11    4      1.76      0.00
   15   11    4     -0.40      0.00
   16   11    4      2.49      0.00
   17   11    4      0.30      0.00
   18   11    4      1.57      0.00
   19   11    4      1.70      0.00
   20   11    4     -0.20      0.00
   21   11    4      2.34      0.00
   22   11    4     -1.43      0.00
   23   11    4      1.77      0.00
   24   11    4     -1.27      0.00
   25   11    4      0.61      0.00
   26   11    4     -0.17      0.00
    0   12    4      0.46      0.00
    1   12    4      1.97      0.00
    2   12    4     -0.64      0.00
    3   12    4      5.25      0.00
    4   12    4     -3.15      0.00
    5   12    4      6.88      0.00
    6   12    4     -5.36      0.00
    7   12    4      6.52      0.00
    8   12    4     -6.03      0.00
    9   12    4      4.92      0.00
   10   12    4     -4.98      0.00
   11   12    4      3.34      0.00
   12   12    4     -2.88      0.00
   13   12    4      2.34      0.00
   14   12    4     -0.89      0.00
   15   12    4      1.52      0.00
   16   12    4     -0.15      0.00
   17   12    4      0.56      0.00
   18   12    4     -1.02      0.00
   19   12    4     -0.10      0.00
   20   12    4     -2.50      0.00
   21   12    4      0.04      0.00
   22   12    4     -3.01      0.00
   23   12    4      0.65      0.00
   24   12    4     -1.93      0.00
   25   12    4      0.84      0.00
    1   13    4     -2.75      0.00
    2   13    4      0.12      0.00
    3   13    4     -1.19      0.00
    4   13    4     -0.38      0.00
    5   13    4      0.82      0.00
    6   13    4     -1.31      0.00
    7   13    4      2.14      0.00
    8   13    4     -2.11      0.00
    9   13    4      2.37      0.00
   10   13    4     -2.55      0.00
   11   13    4      1.72      0.00
   12   13    4     -2.77      0.00
   13   13    4      0.61      0.00
   14   13    4     -2.71      0.00
   15   13    4     -0.43      0.00
   16   13    4     -2.14      0.00
   17   13    4     -0.81      0.00
   18   13    4     -1.21      0.00
   19   13    4     -0.35      0.00
   20   13    4     -0.50      0.00
   21   13    4      0.42      0.00
   22   13    4     -0.42      0.00
   23   13    4      0.72      0.00
   24   13    4     -0.70      0.00
   25   13    4      0.39      0.00
    0   14    4      4.37      0.00
    1   14    4     -1.51      0.00
    2   14    4      4.00      0.00
    3   14    4     -3.67      0.00
    4   14    4      3.10      0.00
    5   14    4     -3.86      0.00
    6   14    4      1.97      0.00
    7   14    4     -2.19      0.00
    8   14    4      0.89      0.00
    9   14    4      0.07      0.00
   10   14    4     -0.04      0.00
   11   14    4      1.63      0.00
   12   14    4     -0.71      0.00
   13   14    4      2.09      0.00
   14   14    4     -0.84      0.00
   15   14    4      1.91      0.00
   16   14    4     -0.21      0.00
   17   14    4      1.59      0.00
   18   14    4      0.93      0.00
   19   14    4      1.12      0.00
   20   14    4      1.74      0.00
   21   14    4      0.38      0.00
   22   14    4      1.53      0.00
   23   14    4     -0.33      0.00
   24   14    4      0.48      0.00
    1   15    4     -4.31      0.00
    2   15    4      2.37      0.00
    3   15    4     -3.89      0.00
    4   15    4      3.79      0.00
    5   15    4     -2.74      0.00
    6   15    4      3.46      0.00
    7   15    4     -0.89      0.00
    8   15    4      1.55      0.00
    9   15    4      1.05      0.00
   10   15    4     -0.72      0.00
   11   15    4      2.32      0.00
   12   15    4     -2.05      0.00
   13   15    4      2.50      0.00
   14   15    4     -2.20      0.00
   15   15    4      1.66      0.00
   16   15    4     -1.74      0.00
   17   15    4      0.20      0.00
   18   15    4     -1.10      0.00
   19   15    4     -1.14      0.00
   20   15    4     -0.24      0.00
   21   15    4     -1.64      0.00
   22   15    4      0.66      0.00
   23   15    4     -1.07      0.00
    0   16    4      0.76      0.00
    1   16    4     -0.75      0.00
    2   16    4      0.94      0.00
    3   16    4     -1.91      0.00
    4   16    4      0.95      0.00
    5   16    4     -2.30      0.00
    6   16    4      0.22      0.00
    7   16    4     -1.66      0.00
    8   16    4     -1.04      0.00
    9   16    4     -0.28      0.00
   10   16    4     -1.83      0.00
   11   16    4      1.00      0.00
   12   16    4     -1.47      0.00
   13   16    4      1.49      0.00
   14   16    4     -0.39      0.00
   15   16    4      1.16      0.00
   16   16    4      0.41      0.00
   17   16    4      0.48      0.00
   18   16    4      0.40      0.00
   19   16    4     -0.08      0.00
   20   16    4     -0.02      0.00
   21   16    4     -0.25      0.00
    1   17    4      1.83      0.00
    2   17    4      1.63      0.00
    3   17    4      1.23      0.00
    4   17    4      2.24      0.00
    5   17    4      0.42      0.00
    6   17    4      1.79      0.00
    7   17    4     -0.23      0.00
    8   17    4      0.87      0.00
    9   17    4     -0.59      0.00
   10   17    4      0.19      0.00
   11   17    4     -0.78      0.00
   12   17    4      0.06      0.00
   13   17    4     -0.85      0.00
   14   17    4      0.34      0.00
   15   17    4     -0.65      0.00
   16   17    4      0.67      0.00
   17   17    4     -0.07      0.00
   18   17    4      0.67      0.00
   19   17    4      0.60      0.00
   20   17    4      0.21      0.00
    0   18    4      0.69      0.00
    1   18    4     -0.65      0.00
    2   18    4      0.42      0.00
    3   18    4     -1.43      0.00
    4   18    4      0.04      0.00
    5   18    4     -1.14      0.00
    6   18    4      0.15      0.00
    7   18    4     -0.26      0.00
    8   18    4      0.61      0.00
    9   18    4      0.34      0.00
   10   18    4      0.64      0.00
   11   18    4      0.30      0.00
   12   18    4     -0.10      0.00
   13   18    4     -0.13      0.00
   14   18    4     -1.02      0.00
   15   18    4     -0.50      0.00
   16   18    4     -1.23      0.00
   17   18    4     -0.55      0.00
   18   18    4     -0.58      0.00
   19   18    4     -0.29      0.00
    1   19    4     -2.39      0.00
    2   19    4     -0.35      0.00
    3   19    4     -1.66      0.00
    4   19    4     -0.76      0.00
    5   19    4     -0.87      0.00
    6   19    4     -1.13      0.00
    7   19    4     -0.58      0.00
    8   19    4     -1.29      0.00
    9   19    4     -0.59      0.00
   10   19    4     -1.25      0.00
   11   19    4     -0.36      0.00
   12   19    4     -1.09      0.00
   13   19    4      0.17      0.00
   14   19    4     -0.85      0.00
   15   19    4      0.50      0.00
   16   19    4     -0.54      0.00
   17   19    4      0.21      0.00
    0   20    4     -0.50      0.00
    1   20    4      0.41      0.00
    2   20    4     -0.19      0.00
    3   20    4      1.21      0.00
    4   20    4      0.40      0.00
    5   20    4      1.32      0.00
    6   20    4      0.91      0.00
    7   20    4      0.96      0.00
    8   20    4      1.28      0.00
    9   20    4      0.68      0.00
   10   20    4      1.70      0.00
   11   20    4      0.76      0.00
   12   20    4      2.11      0.00
   13   20    4      0.97      0.00
   14   20    4      2.11      0.00
   15   20    4      0.89      0.00
    1   21    4      2.68      0.00
    2   21    4     -0.59      0.00
    3   21    4      1.78      0.00
    4   21    4     -0.70      0.00
    5   21    4      0.71      0.00
    6   21    4     -0.30      0.00
    7   21    4      0.02      0.00
    8   21    4      0.14      0.00
    9   21    4     -0.37      0.00
   10   21    4      0.20      0.00
   11   21    4     -0.83      0.00
   12   21    4     -0.09      0.00
    0   22    4     -0.96      0.00
    1   22    4      0.42      0.00
    2   22    4     -0.85      0.00
    3   22    4      0.92      0.00
    4   22    4     -0.53      0.00
    5   22    4      0.85      0.00
    6   22    4     -0.15      0.00
    7   22    4      0.35      0.00
    8   22    4      0.06      0.00
    9   22    4     -0.13      0.00
    1   23    4     -1.23      0.00
    2   23    4     -0.91      0.00
    3   23    4     -1.27      0.00
    4   23    4     -1.37      0.00
    1    1    5    -72.01      0.00
    2    1    5     -8.02      0.00
    3    1    5    -54.53      0.00
    4    1    5    -12.28      0.00
    5    1    5    -30.82      0.00
    6    1    5    -11.59      0.00
    7    1    5    -12.65      0.00
    8    1    5     -7.59      0.00
    9    1    5     -3.45      0.00
   10    1    5     -2.99      0.00
   11    1    5      0.40      0.00
   12    1    5      0.21      0.00
   13    1    5      2.39      0.00
   14    1    5      1.27      0.00
   15    1    5      2.65      0.00
   16    1    5      0.62      0.00
   17    1    5      0.59      0.00
   18    1    5     -0.42      0.00
   19    1    5     -2.26      0.00
   20    1    5     -0.50      0.00
   21    1    5     -3.52      0.00
   22    1    5      0.63      0.00
   23    1    5     -2.64      0.00
   24    1    5      1.89      0.00
   25    1    5     -1.10      0.00
   26    1    5      2.05      0.00
   27    1    5     -0.34      0.00
   28    1    5      1.12      0.00
   29    1    5     -0.43      0.00
   30    1    5      0.17      0.00
    0    2    5     41.42      0.00
    1    2    5      3.38      0.00
    2    2    5     36.27      0.00
    3    2    5      8.47      0.00
    4    2    5     23.77      0.00
    5    2    5      9.68      0.00
    6    2    5     10.04      0.00
    7    2    5      7.30      0.00
    8    2    5     -0.21      0.00
    9    2    5      3.45      0.00
   10    2    5     -5.83      0.00
   11    2    5      0.34      0.00
   12    2    5     -7.84      0.00
   13    2    5     -1.00      0.00
   14    2    5     -7.24      0.00
   15    2    5     -0.81      0.00
   16    2    5     -4.71      0.00
   17    2    5     -0.08      0.00
   18    2    5     -1.30      0.00
   19    2    5      0.11      0.00
   20    2    5      1.39      0.00
   21    2    5     -0.73      0.00
   22    2    5      2.24      0.00
   23    2    5     -2.03      0.00
   24    2    5      1.43      0.00
   25    2    5     -2.66      0.00
   26    2    5      0.19      0.00
   27    2    5     -2.02      0.00
   28    2    5     -0.33      0.00
   29    2    5     -0.68      0.00
   30    2    5      0.03      0.00
    1    3    5      5.89      0.00
    2    3    5      0.47      0.00
    3    3    5     -0.33      0.00
    4    3    5      1.24      0.00
    5    3    5     -6.52      0.00
    6    3    5      2.47      0.00
    7    3    5     -6.99      0.00
    8    3    5      3.85      0.00
    9    3    5     -2.18      0.00
   10    3    5      4.46      0.00
   11    3    5      3.18      0.00
   12    3    5      3.62      0.00
   13    3    5      5.61      0.00
   14    3    5      1.78      0.00
   15    3    5      5.34      0.00
   16    3    5      0.22      0.00
   17    3    5      4.10      0.00
   18    3    5     -0.20      0.00
   19    3    5      2.65      0.00
   20    3    5      0.31      0.00
   21    3    5      1.06      0.00
   22    3    5      1.03      0.00
   23    3    5     -0.11      0.00
   24    3    5      1.41      0.00
   25    3    5     -0.23      0.00
   26    3    5      1.24      0.00
   27    3    5      0.36      0.00
   28    3    5      0.52      0.00
   29    3    5      0.63      0.00
    0    4    5    -10.91      0.00
    1    4    5     -0.20      0.00
    2    4    5     -5.75      0.00
    3    4    5     -0.98      0.00
    4    4    5      5.82      0.00
    5    4    5     -2.55      0.00
    6    4    5     15.65      0.00
    7    4    5     -4.98      0.00
    8    4    5     18.16      0.00
    9    4    5     -7.19      0.00
   10    4    5     13.72      0.00
   11    4    5     -7.47      0.00
   12    4    5      6.50      0.00
   13    4    5     -5.21      0.00
   14    4    5      0.35      0.00
   15    4    5     -1.83      0.00
   16    4    5     -3.06      0.00
   17    4    5      0.49      0.00
   18    4    5     -3.84      0.00
   19    4    5      0.80      0.00
   20    4    5     -2.79      0.00
   21    4    5     -0.13      0.00
   22    4    5     -1.06      0.00
   23    4    5     -1.02      0.00
   24    4    5      0.24      0.00
   25    4    5     -1.29      0.00
   26    4    5      0.55      0.00
   27    4    5     -0.96      0.00
   28    4    5      0.15      0.00
   29    4    5     -0.23      0.00
    1    5    5     19.02      0.00
    2    5    5     -7.29      0.00
    3    5    5     13.18      0.00
    4    5    5    -10.81      0.00
    5    5    5      3.15      0.00
    6    5    5     -9.17      0.00
    7    5    5     -7.21      0.00
    8    5    5     -4.06      0.00
    9    5    5    -13.06      0.00
   10    5    5      1.09      0.00
   11    5    5    -11.89      0.00
   12    5    5      3.51      0.00
   13    5    5     -5.78      0.00
   14    5    5      2.70      0.00
   15    5    5      0.46      0.00
   16    5    5      0.35      0.00
   17    5    5      3.42      0.00
   18    5    5     -1.22      0.00
   19    5    5      3.16      0.00
   20    5    5     -0.95      0.00
   21    5    5      1.64      0.00
   22    5    5      0.49      0.00
   23    5    5      0.33      0.00
   24    5    5      1.70      0.00
   25    5    5     -0.37      0.00
   26    5    5      1.96      0.00
   27    5    5     -0.45      0.00
   28    5    5      1.47      0.00
   29    5    5      0.05      0.00
    0    6    5    -21.93      0.00
    1    6    5      6.36      0.00
    2    6    5    -20.76      0.00
    3    6    5     16.32      0.00
    4    6    5    -16.99      0.00
    5    6    5     19.85      0.00
    6    6    5    -10.72      0.00
    7    6    5     17.29      0.00
    8    6    5     -3.75      0.00
    9    6    5     11.55      0.00
   10    6    5      1.08      0.00
   11    6    5      5.62      0.00
   12    6    5      2.32      0.00
   13    6    5      1.41      0.00
   14    6    5      1.02      0.00
   15    6    5     -0.31      0.00
   16    6    5     -0.62      0.00
   17    6    5     -0.04      0.00
   18    6    5     -1.34      0.00
   19    6    5      0.82      0.00
   20    6    5     -1.30      0.00
   21    6    5      1.01      0.00
   22    6    5     -1.03      0.00
   23    6    5      0.43      0.00
   24    6    5     -0.75      0.00
   25    6    5     -0.24      0.00
   26    6    5     -0.51      0.00
   27    6    5     -0.56      0.00
   28    6    5     -0.44      0.00
   29    6    5     -0.67      0.00
    1    7    5     -4.07      0.00
    2    7    5     -7.01      0.00
    3    7    5     -1.63      0.00
    4    7    5    -11.86      0.00
    5    7    5      2.47      0.00
    6    7    5    -13.76      0.00
    7    7    5      6.37      0.00
    8    7    5    -13.08      0.00
    9    7    5      7.80      0.00
   10    7    5    -10.38      0.00
   11    7    5      5.88      0.00
   12    7    5     -6.24      0.00
   13    7    5      2.08      0.00
   14    7    5     -1.87      0.00
   15    7    5     -0.98      0.00
   16    7    5      1.08      0.00
   17    7    5     -1.80      0.00
   18    7    5      1.69      0.00
   19    7    5     -0.87      0.00
   20    7    5      0.55      0.00
   21    7    5      0.42      0.00
   22    7    5     -0.88      0.00
   23    7    5      1.15      0.00
   24    7    5     -1.58      0.00
   25    7    5      1.20      0.00
   26    7    5     -1.39      0.00
   27    7    5      0.80      0.00
   28    7    5     -0.72      0.00
    0    8    5     19.18      0.00
    1    8    5     -1.05      0.00
    2    8    5     16.06      0.00
    3    8    5     -1.92      0.00
    4    8    5      8.05      0.00
    5    8    5     -0.38      0.00
    6    8    5     -1.26      0.00
    7    8    5      2.80      0.00
    8    8    5     -7.71      0.00
    9    8    5      5.56      0.00
   10    8    5     -8.90      0.00
   11    8    5      6.21      0.00
   12    8    5     -5.70      0.00
   13    8    5      4.36      0.00
   14    8    5     -1.33      0.00
   15    8    5      1.04      0.00
   16    8    5      1.32      0.00
   17    8    5     -1.95      0.00
   18    8    5      1.53      0.00
   19    8    5     -3.10      0.00
   20    8    5      0.43      0.00
   21    8    5     -2.22      0.00
   22    8    5     -0.62      0.00
   23    8    5     -0.46      0.00
   24    8    5     -0.99      0.00
   25    8    5      0.74      0.00
   26    8    5     -0.72      0.00
   27    8    5      0.87      0.00
   28    8    5     -0.16      0.00
    1    9    5     -9.95      0.00
    2    9    5      5.71      0.00
    3    9    5     -4.82      0.00
    4    9    5      7.58      0.00
    5    9    5      2.06      0.00
    6    9    5      4.98      0.00
    7    9    5      6.73      0.00
    8    9    5      0.32      0.00
    9    9    5      7.43      0.00
   10    9    5     -3.50      0.00
   11    9    5      5.15      0.00
   12    9    5     -4.95      0.00
   13    9    5      2.11      0.00
   14    9    5     -3.93      0.00
   15    9    5     -0.03      0.00
   16    9    5     -1.34      0.00
   17    9    5     -0.77      0.00
   18    9    5      1.29      0.00
   19    9    5     -0.52      0.00
   20    9    5      2.52      0.00
   21    9    5     -0.04      0.00
   22    9    5      2.01      0.00
   23    9    5      0.13      0.00
   24    9    5      0.74      0.00
   25    9    5      0.00      0.00
   26    9    5     -0.15      0.00
   27    9    5     -0.12      0.00
    0   10    5      0.37      0.00
    1   10    5     -2.37      0.00
    2   10    5     -0.56      0.00
    3   10    5     -5.62      0.00
    4   10    5     -2.66      0.00
    5   10    5     -5.52      0.00
    6   10    5     -4.30      0.00
    7   10    5     -2.72      0.00
    8   10    5     -4.41      0.00
    9   10    5      0.61      0.00
   10   10    5     -3.08      0.00
   11   10    5      2.61      0.00
   12   10    5     -1.13      0.00
   13   10    5      2.74      0.00
   14   10    5      0.58      0.00
   15   10    5      1.63      0.00
   16   10    5      1.47      0.00
   17   10    5      0.33      0.00
   18   10    5      1.48      0.00
   19   10    5     -0.42      0.00
   20   10    5      1.05      0.00
   21   10    5     -0.52      0.00
   22   10    5      0.76      0.00
   23   10    5     -0.30      0.00
   24   10    5      0.76      0.00
   25   10    5     -0.05      0.00
   26   10    5      0.72      0.00
   27   10    5      0.13      0.00
    1   11    5      6.12      0.00
    2   11    5      2.08      0.00
    3   11    5      4.63      0.00
    4   11    5      3.51      0.00
    5   11    5      2.70      0.00
    6   11    5      3.78      0.00
    7   11    5      1.42      0.00
    8   11    5      2.91      0.00
    9   11    5      0.98      0.00
   10   11    5      1.78      0.00
   11   11    5      0.75      0.00
   12   11    5      1.36      0.00
   13   11    5      0.17      0.00
   14   11    5      1.67      0.00
   15   11    5     -0.65      0.00
   16   11    5      1.86      0.00
   17   11    5     -1.18      0.00
   18   11    5      1.36      0.00
   19   11    5     -1.13      0.00
   20   11    5      0.57      0.00
   21   11    5     -0.72      0.00
   22   11    5      0.24      0.00
   23   11    5     -0.37      0.00
   24   11    5      0.43      0.00
   25   11    5     -0.21      0.00
   26   11    5      0.57      0.00
    0   12    5     -6.66      0.00
    1   12    5      0.01      0.00
    2   12    5     -5.64      0.00
    3   12    5     -0.43      0.00
    4   12    5     -3.18      0.00
    5   12    5     -1.64      0.00
    6   12    5     -0.77      0.00
    7   12    5     -2.82      0.00
    8   12    5      0.40      0.00
    9   12    5     -3.17      0.00
   10   12    5      0.18      0.00
   11   12    5     -2.81      0.00
   12   12    5     -0.73      0.00
   13   12    5     -2.41      0.00
   14   12    5     -1.48      0.00
   15   12    5     -2.30      0.00
   16   12    5     -1.64      0.00
   17   12    5     -2.22      0.00
   18   12    5     -1.35      0.00
   19   12    5     -1.97      0.00
   20   12    5     -1.00      0.00
   21   12    5     -1.63      0.00
   22   12    5     -0.85      0.00
   23   12    5     -1.34      0.00
   24   12    5     -0.86      0.00
   25   12    5     -1.07      0.00
    1   13    5      2.37      0.00
    2   13    5     -1.70      0.00
    3   13    5      1.65      0.00
    4   13    5     -2.50      0.00
    5   13    5      0.48      0.00
    6   13    5     -2.20      0.00
    7   13    5     -0.64      0.00
    8   13    5     -1.34      0.00
    9   13    5     -1.15      0.00
   10   13    5     -0.70      0.00
   11   13    5     -0.70      0.00
   12   13    5     -0.57      0.00
   13   13    5      0.58      0.00
   14   13    5     -0.60      0.00
   15   13    5      2.04      0.00
   16   13    5     -0.20      0.00
   17   13    5      2.87      0.00
   18   13    5      0.69      0.00
   19   13    5      2.76      0.00
   20   13    5      1.45      0.00
   21   13    5      2.06      0.00
   22   13    5      1.45      0.00
   23   13    5      1.38      0.00
   24   13    5      0.82      0.00
    0   14    5     -2.36      0.00
    1   14    5      0.48      0.00
    2   14    5     -1.83      0.00
    3   14    5      1.62      0.00
    4   14    5     -0.60      0.00
    5   14    5      2.81      0.00
    6   14    5      0.77      0.00
    7   14    5      3.56      0.00
    8   14    5      1.77      0.00
    9   14    5      3.59      0.00
   10   14    5      2.05      0.00
   11   14    5      3.18      0.00
   12   14    5      1.49      0.00
   13   14    5      2.77      0.00
   14   14    5      0.33      0.00
   15   14    5      2.31      0.00
   16   14    5     -0.86      0.00
   17   14    5      1.45      0.00
   18   14    5     -1.50      0.00
   19   14    5      0.28      0.00
   20   14    5     -1.52      0.00
   21   14    5     -0.57      0.00
   22   14    5     -1.26      0.00
   23   14    5     -0.63      0.00
    1   15    5      2.43      0.00
    2   15    5      2.00      0.00
    3   15    5      1.12      0.00
    4   15    5      2.70      0.00
    5   15    5     -0.56      0.00
    6   15    5      1.77      0.00
    7   15    5     -1.58      0.00
    8   15    5     -0.12      0.00
    9   15    5     -1.53      0.00
   10   15    5     -1.87      0.00
   11   15    5     -0.83      0.00
   12   15    5     -2.78      0.00
   13   15    5     -0.27      0.00
   14   15    5     -2.75      0.00
   15   15    5     -0.36      0.00
   16   15    5     -2.04      0.00
   17   15    5     -0.86      0.00
   18   15    5     -0.93      0.00
   19   15    5     -1.06      0.00
   20   15    5      0.21      0.00
   21   15    5     -0.58      0.00
   22   15    5      0.98      0.00
    0   16    5      0.84      0.00
    1   16    5     -1.71      0.00
    2   16    5      0.99      0.00
    3   16    5     -4.46      0.00
    4   16    5      1.23      0.00
    5   16    5     -5.41      0.00
    6   16    5      1.17      0.00
    7   16    5     -4.15      0.00
    8   16    5      0.56      0.00
    9   16    5     -1.45      0.00
   10   16    5     -0.33      0.00
   11   16    5      1.12      0.00
   12   16    5     -0.75      0.00
   13   16    5      2.26      0.00
   14   16    5     -0.15      0.00
   15   16    5      1.81      0.00
   16   16    5      1.11      0.00
   17   16    5      0.62      0.00
   18   16    5      2.04      0.00
   19   16    5     -0.42      0.00
   20   16    5      1.99      0.00
   21   16    5     -0.96      0.00
    1   17    5     -2.59      0.00
    2   17    5      1.28      0.00
    3   17    5     -2.18      0.00
    4   17    5      2.13      0.00
    5   17    5     -1.63      0.00
    6   17    5      2.30      0.00
    7   17    5     -1.23      0.00
    8   17    5      1.62      0.00
    9   17    5     -1.10      0.00
   10   17    5      0.48      0.00
   11   17    5     -1.20      0.00
   12   17    5     -0.33      0.00
   13   17    5     -1.33      0.00
   14   17    5     -0.28      0.00
   15   17    5     -1.25      0.00
   16   17    5      0.34      0.00
   17   17    5     -0.90      0.00
   18   17    5      0.73      0.00
   19   17    5     -0.53      0.00
   20   17    5      0.50      0.00
    0   18    5      1.33      0.00
    1   18    5      0.68      0.00
    2   18    5      1.20      0.00
    3   18    5      1.92      0.00
    4   18    5      1.00      0.00
    5   18    5      2.14      0.00
    6   18    5      1.00      0.00
    7   18    5      1.24      0.00
    8   18    5      1.31      0.00
    9   18    5     -0.19      0.00
   10   18    5      1.70      0.00
   11   18    5     -1.36      0.00
   12   18    5      1.65      0.00
   13   18    5     -1.86      0.00
   14   18    5      0.89      0.00
   15   18    5     -1.77      0.00
   16   18    5     -0.23      0.00
   17   18    5     -1.29      0.00
   18   18    5     -0.92      0.00
    1   19    5      0.28      0.00
    2   19    5     -2.71      0.00
    3   19    5      0.54      0.00
    4   19    5     -4.06      0.00
    5   19    5      0.85      0.00
    6   19    5     -3.36      0.00
    7   19    5      1.07      0.00
    8   19    5     -1.11      0.00
    9   19    5      1.18      0.00
   10   19    5      1.23      0.00
   11   19    5      1.31      0.00
   12   19    5      2.40      0.00
   13   19    5      1.46      0.00
   14   19    5      2.17      0.00
   15   19    5      1.41      0.00
   16   19    5      1.30      0.00
   17   19    5      0.94      0.00
    0   20    5     -1.01      0.00
    1   20    5      1.24      0.00
    2   20    5     -1.02      0.00
    3   20    5      3.02      0.00
    4   20    5     -1.06      0.00
    5   20    5      3.21      0.00
    6   20    5     -1.18      0.00
    7   20    5      1.86      0.00
    8   20    5     -1.35      0.00
    9   20    5     -0.02      0.00
   10   20    5     -1.46      0.00
   11   20    5     -1.25      0.00
   12   20    5     -1.31      0.00
   13   20    5     -1.32      0.00
   14   20    5     -0.82      0.00
    1   21    5     -0.23      0.00
    2   21    5     -1.06      0.00
    3   21    5     -0.56      0.00
    4   21    5     -1.60      0.00
    5   21    5     -0.90      0.00
    6   21    5     -1.50      0.00
    7   21    5     -1.01      0.00
    8   21    5     -0.97      0.00
    9   21    5     -0.96      0.00
   10   21    5     -0.35      0.00
   11   21    5     -0.96      0.00
   12   21    5      0.10      0.00
    0   22    5      3.00      0.00
    1   22    5      0.25      0.00
    2   22    5      3.00      0.00
    3   22    5      0.51      0.00
    4   22    5      2.78      0.00
    5   22    5      0.69      0.00
    6   22    5      2.25      0.00
    7   22    5      0.86      0.00
    8   22    5      1.54      0.00
    9   22    5      0.83      0.00
    1   23    5     -3.54      0.00
    0    0    6    -47.42      0.00
    1    0    6     -2.59      0.00
    2    0    6    -36.65      0.00
    3    0    6     -5.98      0.00
    4    0    6    -12.36      0.00
    5    0    6     -5.52      0.00
    6    0    6      9.01      0.00
    7    0    6     -2.29      0.00
    8    0    6     17.21      0.00
    9    0    6      1.13      0.00
   10    0    6     14.19      0.00
   11    0    6      3.27      0.00
   12    0    6      7.88      0.00
   13    0    6      4.51      0.00
   14    0    6      3.43      0.00
   15    0    6      5.61      0.00
   16    0    6      1.21      0.00
   17    0    6      6.36      0.00
   18    0    6      0.16      0.00
   19    0    6      5.71      0.00
   20    0    6     -0.01      0.00
   21    0    6      3.26      0.00
   22    0    6      0.36      0.00
   23    0    6      0.07      0.00
   24    0    6      0.28      0.00
   25    0    6     -2.14      0.00
   26    0    6     -0.71      0.00
   27    0    6     -2.51      0.00
   28    0    6     -1.75      0.00
   29    0    6     -1.67      0.00
    1    1    6      8.19      0.00
    2    1    6     -0.09      0.00
    3    1    6      0.49      0.00
    4    1    6     -0.60      0.00
    5    1    6     -9.65      0.00
    6    1    6     -1.44      0.00
    7    1    6    -15.98      0.00
    8    1    6     -2.09      0.00
    9    1    6    -15.77      0.00
   10    1    6     -2.45      0.00
   11    1    6    -10.90      0.00
   12    1    6     -3.00      0.00
   13    1    6     -5.21      0.00
   14    1    6     -4.11      0.00
   15    1    6     -1.46      0.00
   16    1    6     -5.32      0.00
   17    1    6     -0.18      0.00
   18    1    6     -5.57      0.00
   19    1    6     -0.45      0.00
   20    1    6     -4.20      0.00
   21    1    6     -1.05      0.00
   22    1    6     -1.64      0.00
   23    1    6     -1.15      0.00
   24    1    6      0.82      0.00
   25    1    6     -0.59      0.00
   26    1    6      2.02      0.00
   27    1    6      0.26      0.00
   28    1    6      1.83      0.00
   29    1    6      0.82      0.00
    0    2    6     27.46      0.00
    1    2    6      4.30      0.00
    2    2    6     22.78      0.00
    3    2    6     10.59      0.00
    4    2    6     12.78      0.00
    5    2    6     11.69      0.00
    6    2    6      5.05      0.00
    7    2    6      8.43      0.00
    8    2    6      2.64      0.00
    9    2    6      4.14      0.00
   10    2    6      2.57      0.00
   11    2    6      1.77      0.00
   12    2    6      1.25      0.00
   13    2    6      1.87      0.00
   14    2    6     -1.05      0.00
   15    2    6      3.00      0.00
   16    2    6     -1.92      0.00
   17    2    6      3.53      0.00
   18    2    6     -0.72      0.00
   19    2    6      2.91      0.00
   20    2    6      0.86      0.00
   21    2    6      1.64      0.00
   22    2    6      1.42      0.00
   23    2    6      0.40      0.00
   24    2    6      1.19      0.00
   25    2    6     -0.45      0.00
   26    2    6      0.90      0.00
   27    2    6     -0.82      0.00
   28    2    6      0.64      0.00
   29    2    6     -0.76      0.00
    1    3    6     -8.19      0.00
    2    3    6     -9.22      0.00
    3    3    6      0.03      0.00
    4    3    6    -13.39      0.00
    5    3    6     10.48      0.00
    6    3    6    -11.30      0.00
    7    3    6     16.63      0.00
    8    3    6     -5.98      0.00
    9    3    6     16.46      0.00
   10    3    6     -1.52      0.00
   11    3    6     12.45      0.00
   12    3    6      0.18      0.00
   13    3    6      7.97      0.00
   14    3    6     -0.07      0.00
   15    3    6      4.64      0.00
   16    3    6     -0.56      0.00
   17    3    6      2.54      0.00
   18    3    6     -0.59      0.00
   19    3    6      1.44      0.00
   20    3    6     -0.59      0.00
   21    3    6      1.08      0.00
   22    3    6     -1.07      0.00
   23    3    6      0.97      0.00
   24    3    6     -1.76      0.00
   25    3    6      0.72      0.00
   26    3    6     -1.95      0.00
   27    3    6      0.40      0.00
   28    3    6     -1.39      0.00
   29    3    6      0.27      0.00
    0    4    6      1.94      0.00
    1    4    6      2.01      0.00
    2    4    6      0.92      0.00
    3    4    6      4.98      0.00
    4    4    6     -2.69      0.00
    5    4    6      5.46      0.00
    6    4    6     -8.71      0.00
    7    4    6      3.59      0.00
    8    4    6    -14.14      0.00
    9    4    6      0.65      0.00
   10    4    6    -15.04      0.00
   11    4    6     -1.98      0.00
   12    4    6    -10.71      0.00
   13    4    6     -3.44      0.00
   14    4    6     -4.76      0.00
   15    4    6     -3.49      0.00
   16    4    6     -1.34      0.00
   17    4    6     -2.39      0.00
   18    4    6     -1.37      0.00
   19    4    6     -0.58      0.00
   20    4    6     -2.79      0.00
   21    4    6      1.45      0.00
   22    4    6     -3.48      0.00
   23    4    6      3.17      0.00
   24    4    6     -3.08      0.00
   25    4    6      4.02      0.00
   26    4    6     -2.22      0.00
   27    4    6      3.68      0.00
   28    4    6     -1.37      0.00
   29    4    6      2.45      0.00
    1    5    6    -10.33      0.00
    2    5    6      1.78      0.00
    3    5    6     -9.20      0.00
    4    5    6      1.89      0.00
    5    5    6     -6.06      0.00
    6    5    6      0.45      0.00
    7    5    6     -1.41      0.00
    8    5    6     -0.75      0.00
    9    5    6      2.15      0.00
   10    5    6     -0.07      0.00
   11    5    6      2.55      0.00
   12    5    6      2.30      0.00
   13    5    6      0.74      0.00
   14    5    6      4.52      0.00
   15    5    6     -0.54      0.00
   16    5    6      4.91      0.00
   17    5    6      0.17      0.00
   18    5    6      3.38      0.00
   19    5    6      1.95      0.00
   20    5    6      1.11      0.00
   21    5    6      3.12      0.00
   22    5    6     -0.65      0.00
   23    5    6      3.09      0.00
   24    5    6     -1.46      0.00
   25    5    6      2.29      0.00
   26    5    6     -1.53      0.00
   27    5    6      1.27      0.00
   28    5    6     -1.19      0.00
   29    5    6      0.37      0.00
    0    6    6     -3.42      0.00
    1    6    6     -2.79      0.00
    2    6    6     -4.07      0.00
    3    6    6     -6.24      0.00
    4    6    6     -4.75      0.00
    5    6    6     -5.22      0.00
    6    6    6     -3.37      0.00
    7    6    6     -0.92      0.00
    8    6    6      0.16      0.00
    9    6    6      3.20      0.00
   10    6    6      3.52      0.00
   11    6    6      4.35      0.00
   12    6    6      4.42      0.00
   13    6    6      2.33      0.00
   14    6    6      2.79      0.00
   15    6    6     -0.94      0.00
   16    6    6      0.38      0.00
   17    6    6     -3.37      0.00
   18    6    6     -1.19      0.00
   19    6    6     -4.16      0.00
   20    6    6     -1.61      0.00
   21    6    6     -3.84      0.00
   22    6    6     -1.39      0.00
   23    6    6     -3.25      0.00
   24    6    6     -0.97      0.00
   25    6    6     -2.77      0.00
   26    6    6     -0.51      0.00
   27    6    6     -2.27      0.00
   28    6    6     -0.13      0.00
    1    7    6     13.27      0.00
    2    7    6      7.73      0.00
    3    7    6     12.96      0.00
    4    7    6     11.21      0.00
    5    7    6     10.44      0.00
    6    7    6      8.89      0.00
    7    7    6      5.02      0.00
    8    7    6      2.66      0.00
    9    7    6     -0.99      0.00
   10    7    6     -3.63      0.00
   11    7    6     -4.47      0.00
   12    7    6     -6.62      0.00
   13    7    6     -4.50      0.00
   14    7    6     -5.41      0.00
   15    7    6     -2.74      0.00
   16    7    6     -1.62      0.00
   17    7    6     -1.18      0.00
   18    7    6      2.08      0.00
   19    7    6     -0.47      0.00
   20    7    6      3.96      0.00
   21    7    6     -0.23      0.00
   22    7    6      4.05      0.00
   23    7    6     -0.07      0.00
   24    7    6      3.37      0.00
   25    7    6      0.14      0.00
   26    7    6      2.70      0.00
   27    7    6      0.34      0.00
   28    7    6      2.11      0.00
    0    8    6     -3.30      0.00
    1    8    6     -4.92      0.00
    2    8    6     -2.84      0.00
    3    8    6    -12.79      0.00
    4    8    6     -1.65      0.00
    5    8    6    -15.83      0.00
    6    8    6     -0.30      0.00
    7    8    6    -13.49      0.00
    8    8    6      0.69      0.00
    9    8    6     -7.69      0.00
   10    8    6      1.27      0.00
   11    8    6     -1.63      0.00
   12    8    6      1.79      0.00
   13    8    6      2.01      0.00
   14    8    6      2.42      0.00
   15    8    6      2.51      0.00
   16    8    6      2.81      0.00
   17    8    6      1.13      0.00
   18    8    6      2.53      0.00
   19    8    6     -0.33      0.00
   20    8    6      1.63      0.00
   21    8    6     -0.93      0.00
   22    8    6      0.58      0.00
   23    8    6     -0.90      0.00
   24    8    6     -0.19      0.00
   25    8    6     -0.80      0.00
   26    8    6     -0.58      0.00
   27    8    6     -0.83      0.00
   28    8    6     -0.63      0.00
    1    9    6     -4.27      0.00
    2    9    6      6.92      0.00
    3    9    6     -5.02      0.00
    4    9    6     11.89      0.00
    5    9    6     -5.09      0.00
    6    9    6     13.90      0.00
    7    9    6     -3.36      0.00
    8    9    6     12.99      0.00
    9    9    6     -0.57      0.00
   10    9    6     10.04      0.00
   11    9    6      1.44      0.00
   12    9    6      6.30      0.00
   13    9    6      1.61      0.00
   14    9    6      2.83      0.00
   15    9    6      0.53      0.00
   16    9    6      0.29      0.00
   17    9    6     -0.49      0.00
   18    9    6     -1.12      0.00
   19    9    6     -0.74      0.00
   20    9    6     -1.51      0.00
   21    9    6     -0.38      0.00
   22    9    6     -1.18      0.00
   23    9    6      0.05      0.00
   24    9    6     -0.60      0.00
   25    9    6      0.25      0.00
   26    9    6     -0.12      0.00
   27    9    6      0.25      0.00
    0   10    6      6.22      0.00
    1   10    6     -0.49      0.00
    2   10    6      6.34      0.00
    3   10    6     -1.54      0.00
    4   10    6      6.10      0.00
    5   10    6     -2.83      0.00
    6   10    6      4.48      0.00
    7   10    6     -4.29      0.00
    8   10    6      1.58      0.00
    9   10    6     -5.51      0.00
   10   10    6     -1.32      0.00
   11   10    6     -5.82      0.00
   12   10    6     -3.01      0.00
   13   10    6     -4.74      0.00
   14   10    6     -3.25      0.00
   15   10    6     -2.56      0.00
   16   10    6     -2.62      0.00
   17   10    6     -0.28      0.00
   18   10    6     -1.69      0.00
   19   10    6      1.15      0.00
   20   10    6     -0.71      0.00
   21   10    6      1.52      0.00
   22   10    6      0.22      0.00
   23   10    6      1.31      0.00
   24   10    6      0.91      0.00
   25   10    6      1.07      0.00
   26   10    6      1.09      0.00
    1   11    6     -4.75      0.00
    2   11    6     -3.33      0.00
    3   11    6     -4.76      0.00
    4   11    6     -5.20      0.00
    5   11    6     -3.98      0.00
    6   11    6     -4.94      0.00
    7   11    6     -2.09      0.00
    8   11    6     -2.91      0.00
    9   11    6      0.22      0.00
   10   11    6     -0.27      0.00
   11   11    6      1.88      0.00
   12   11    6      1.64      0.00
   13   11    6      2.41      0.00
   14   11    6      2.12      0.00
   15   11    6      2.09      0.00
   16   11    6      1.45      0.00
   17   11    6      1.39      0.00
   18   11    6      0.46      0.00
   19   11    6      0.50      0.00
   20   11    6     -0.27      0.00
   21   11    6     -0.51      0.00
   22   11    6     -0.74      0.00
   23   11    6     -1.43      0.00
   24   11    6     -1.16      0.00
   25   11    6     -1.88      0.00
   26   11    6     -1.48      0.00
    0   12    6     -1.72      0.00
    1   12    6      1.44      0.00
    2   12    6     -1.20      0.00
    3   12    6      3.56      0.00
    4   12    6     -0.12      0.00
    5   12    6      3.99      0.00
    6   12    6      0.64      0.00
    7   12    6      2.84      0.00
    8   12    6      0.51      0.00
    9   12    6      0.98      0.00
   10   12    6     -0.27      0.00
   11   12    6     -0.63      0.00
   12   12    6     -0.94      0.00
   13   12    6     -1.48      0.00
   14   12    6     -0.88      0.00
   15   12    6     -1.62      0.00
   16   12    6     -0.14      0.00
   17   12    6     -1.45      0.00
   18   12    6      0.72      0.00
   19   12    6     -1.27      0.00
   20   12    6      1.12      0.00
   21   12    6     -1.07      0.00
   22   12    6      1.02      0.00
   23   12    6     -0.65      0.00
   24   12    6      0.76      0.00
   25   12    6     -0.01      0.00
    1   13    6      2.99      0.00
    2   13    6     -0.35      0.00
    3   13    6      2.50      0.00
    4   13    6     -0.09      0.00
    5   13    6      1.36      0.00
    6   13    6      0.71      0.00
    7   13    6     -0.09      0.00
    8   13    6      1.43      0.00
    9   13    6     -0.98      0.00
   10   13    6      1.60      0.00
   11   13    6     -0.81      0.00
   12   13    6      1.36      0.00
   13   13    6     -0.07      0.00
   14   13    6      1.21      0.00
   15   13    6      0.27      0.00
   16   13    6      1.47      0.00
   17   13    6     -0.08      0.00
   18   13    6      2.02      0.00
   19   13    6     -0.51      0.00
   20   13    6      2.44      0.00
   21   13    6     -0.41      0.00
   22   13    6      2.37      0.00
   23   13    6      0.16      0.00
   24   13    6      1.79      0.00
    0   14    6      0.97      0.00
    1   14    6      0.31      0.00
    2   14    6      0.43      0.00
    3   14    6      0.66      0.00
    4   14    6     -0.50      0.00
    5   14    6      0.55      0.00
    6   14    6     -0.52      0.00
    7   14    6      0.25      0.00
    8   14    6      0.69      0.00
    9   14    6      0.09      0.00
   10   14    6      2.05      0.00
   11   14    6      0.01      0.00
   12   14    6      2.29      0.00
   13   14    6     -0.35      0.00
   14   14    6      1.20      0.00
   15   14    6     -1.15      0.00
   16   14    6     -0.28      0.00
   17   14    6     -2.02      0.00
   18   14    6     -1.11      0.00
   19   14    6     -2.38      0.00
   20   14    6     -1.03      0.00
   21   14    6     -2.05      0.00
   22   14    6     -0.57      0.00
   23   14    6     -1.35      0.00
    1   15    6     -1.94      0.00
    2   15    6     -1.83      0.00
    3   15    6     -1.08      0.00
    4   15    6     -3.02      0.00
    5   15    6     -0.29      0.00
    6   15    6     -3.20      0.00
    7   15    6     -0.58      0.00
    8   15    6     -2.44      0.00
    9   15    6     -1.99      0.00
   10   15    6     -1.13      0.00
   11   15    6     -3.32      0.00
   12   15    6      0.26      0.00
   13   15    6     -3.19      0.00
   14   15    6      1.29      0.00
   15   15    6     -1.41      0.00
   16   15    6      1.61      0.00
   17   15    6      0.70      0.00
   18   15    6      1.12      0.00
   19   15    6      1.65      0.00
   20   15    6      0.18      0.00
   21   15    6      1.19      0.00
   22   15    6     -0.56      0.00
    0   16    6      1.67      0.00
    1   16    6      0.80      0.00
    2   16    6      1.62      0.00
    3   16    6      2.14      0.00
    4   16    6      1.48      0.00
    5   16    6      2.71      0.00
    6   16    6      1.32      0.00
    7   16    6      2.04      0.00
    8   16    6      1.30      0.00
    9   16    6      0.30      0.00
   10   16    6      1.44      0.00
   11   16    6     -1.53      0.00
   12   16    6      1.50      0.00
   13   16    6     -2.32      0.00
   14   16    6      1.17      0.00
   15   16    6     -1.65      0.00
   16   16    6      0.51      0.00
   17   16    6     -0.07      0.00
   18   16    6     -0.08      0.00
   19   16    6      1.36      0.00
   20   16    6     -0.28      0.00
   21   16    6      1.84      0.00
    1   17    6     -2.01      0.00
    2   17    6     -0.64      0.00
    3   17    6     -2.16      0.00
    4   17    6     -1.16      0.00
    5   17    6     -2.05      0.00
    6   17    6     -1.06      0.00
    7   17    6     -1.31      0.00
    8   17    6      0.08      0.00
    9   17    6     -0.10      0.00
   10   17    6      1.79      0.00
   11   17    6      0.78      0.00
   12   17    6      2.80      0.00
   13   17    6      0.63      0.00
   14   17    6      2.25      0.00
   15   17    6     -0.31      0.00
   16   17    6      0.55      0.00
   17   17    6     -1.12      0.00
   18   17    6     -1.02      0.00
   19   17    6     -1.12      0.00
   20   17    6     -1.53      0.00
    0   18    6      1.64      0.00
    1   18    6      0.61      0.00
    2   18    6      1.88      0.00
    3   18    6      1.70      0.00
    4   18    6      2.30      0.00
    5   18    6      2.12      0.00
    6   18    6      2.25      0.00
    7   18    6      1.61      0.00
    8   18    6      1.45      0.00
    9   18    6      0.43      0.00
   10   18    6      0.44      0.00
   11   18    6     -0.72      0.00
   12   18    6      0.06      0.00
   13   18    6     -1.18      0.00
   14   18    6      0.52      0.00
   15   18    6     -0.83      0.00
   16   18    6      1.10      0.00
   17   18    6     -0.20      0.00
   18   18    6      1.04      0.00
    1   19    6     -1.04      0.00
    2   19    6     -2.33      0.00
    3   19    6     -1.46      0.00
    4   19    6     -3.31      0.00
    5   19    6     -1.83      0.00
    6   19    6     -2.85      0.00
    7   19    6     -1.78      0.00
    8   19    6     -1.96      0.00
    9   19    6     -1.35      0.00
   10   19    6     -1.50      0.00
   11   19    6     -0.85      0.00
   12   19    6     -1.39      0.00
   13   19    6     -0.49      0.00
   14   19    6     -1.11      0.00
   15   19    6     -0.29      0.00
   16   19    6     -0.48      0.00
    0   20    6     -0.03      0.00
    1   20    6      0.37      0.00
    2   20    6      0.03      0.00
    3   20    6      0.50      0.00
    4   20    6      0.10      0.00
    5   20    6     -0.28      0.00
    6   20    6      0.18      0.00
    7   20    6     -1.02      0.00
    8   20    6      0.24      0.00
    9   20    6     -0.67      0.00
   10   20    6      0.16      0.00
   11   20    6      0.60      0.00
   12   20    6     -0.18      0.00
   13   20    6      1.67      0.00
   14   20    6     -0.59      0.00
    1   21    6      1.17      0.00
    2   21    6      4.27      0.00
    3   21    6      0.99      0.00
    4   21    6      6.95      0.00
    5   21    6      0.58      0.00
    6   21    6      7.38      0.00
    7   21    6     -0.06      0.00
    8   21    6      5.91      0.00
    9   21    6     -0.66      0.00
   10   21    6      3.57      0.00
   11   21    6     -0.86      0.00
    0   22    6     -0.85      0.00
    1   22    6     -3.45      0.00
    2   22    6     -0.79      0.00
    3   22    6     -8.57      0.00
    4   22    6     -0.52      0.00
    5   22    6     -9.84      0.00
    6   22    6     -0.04      0.00
    7   22    6     -7.98      0.00
    8   22    6      0.52      0.00
    1    1    7      5.22      0.00
    2    1    7      0.38      0.00
    3    1    7      6.13      0.00
    4    1    7      1.44      0.00
    5    1    7      7.70      0.00
    6    1    7      1.87      0.00
    7    1    7      8.52      0.00
    8    1    7     -0.15      0.00
    9    1    7      6.78      0.00
   10    1    7     -4.05      0.00
   11    1    7      2.65      0.00
   12    1    7     -6.67      0.00
   13    1    7     -1.15      0.00
   14    1    7     -5.57      0.00
   15    1    7     -2.13      0.00
   16    1    7     -1.73      0.00
   17    1    7     -0.77      0.00
   18    1    7      1.55      0.00
   19    1    7      0.47      0.00
   20    1    7      1.96      0.00
   21    1    7      0.26      0.00
   22    1    7      0.09      0.00
   23    1    7     -0.52      0.00
   24    1    7     -1.76      0.00
   25    1    7     -0.64      0.00
   26    1    7     -1.96      0.00
   27    1    7     -0.24      0.00
   28    1    7     -0.66      0.00
   29    1    7     -0.14      0.00
    0    2    7     11.03      0.00
    1    2    7     -1.40      0.00
    2    2    7      9.18      0.00
    3    2    7     -3.59      0.00
    4    2    7      4.85      0.00
    5    2    7     -3.71      0.00
    6    2    7      0.81      0.00
    7    2    7     -0.73      0.00
    8    2    7     -0.55      0.00
    9    2    7      4.40      0.00
   10    2    7      0.92      0.00
   11    2    7      8.54      0.00
   12    2    7      3.16      0.00
   13    2    7      8.77      0.00
   14    2    7      3.96      0.00
   15    2    7      5.09      0.00
   16    2    7      2.95      0.00
   17    2    7      0.48      0.00
   18    2    7      1.39      0.00
   19    2    7     -1.88      0.00
   20    2    7      0.41      0.00
   21    2    7     -1.18      0.00
   22    2    7      0.16      0.00
   23    2    7      0.86      0.00
   24    2    7      0.25      0.00
   25    2    7      2.05      0.00
   26    2    7      0.47      0.00
   27    2    7      1.60      0.00
   28    2    7      0.72      0.00
   29    2    7      0.27      0.00
    1    3    7     -1.22      0.00
    2    3    7      5.72      0.00
    3    3    7     -0.22      0.00
    4    3    7      6.99      0.00
    5    3    7      0.14      0.00
    6    3    7      3.02      0.00
    7    3    7     -1.08      0.00
    8    3    7     -3.16      0.00
    9    3    7     -2.80      0.00
   10    3    7     -7.59      0.00
   11    3    7     -3.41      0.00
   12    3    7     -8.30      0.00
   13    3    7     -2.79      0.00
   14    3    7     -5.89      0.00
   15    3    7     -2.03      0.00
   16    3    7     -2.27      0.00
   17    3    7     -1.62      0.00
   18    3    7      0.72      0.00
   19    3    7     -0.99      0.00
   20    3    7      2.08      0.00
   21    3    7      0.10      0.00
   22    3    7      1.85      0.00
   23    3    7      0.86      0.00
   24    3    7      0.86      0.00
   25    3    7      0.56      0.00
   26    3    7      0.04      0.00
   27    3    7     -0.29      0.00
   28    3    7     -0.22      0.00
   29    3    7     -0.58      0.00
    0    4    7    -21.99      0.00
    1    4    7     -3.52      0.00
    2    4    7    -19.89      0.00
    3    4    7     -7.84      0.00
    4    4    7    -14.42      0.00
    5    4    7     -6.58      0.00
    6    4    7     -7.89      0.00
    7    4    7     -1.65      0.00
    8    4    7     -2.77      0.00
    9    4    7      2.78      0.00
   10    4    7     -0.22      0.00
   11    4    7      4.25      0.00
   12    4    7      0.36      0.00
   13    4    7      3.20      0.00
   14    4    7      0.29      0.00
   15    4    7      1.23      0.00
   16    4    7      0.18      0.00
   17    4    7     -0.53      0.00
   18    4    7     -0.16      0.00
   19    4    7     -1.68      0.00
   20    4    7     -0.78      0.00
   21    4    7     -2.05      0.00
   22    4    7     -1.17      0.00
   23    4    7     -1.64      0.00
   24    4    7     -0.97      0.00
   25    4    7     -0.82      0.00
   26    4    7     -0.52      0.00
   27    4    7     -0.11      0.00
   28    4    7     -0.35      0.00
   29    4    7      0.24      0.00
    1    5    7     10.49      0.00
    2    5    7      2.77      0.00
    3    5    7      6.93      0.00
    4    5    7      4.29      0.00
    5    5    7      2.41      0.00
    6    5    7      4.29      0.00
    7    5    7     -0.48      0.00
    8    5    7      3.59      0.00
    9    5    7     -1.31      0.00
   10    5    7      3.16      0.00
   11    5    7     -1.25      0.00
   12    5    7      3.20      0.00
   13    5    7     -1.06      0.00
   14    5    7      3.18      0.00
   15    5    7     -0.54      0.00
   16    5    7      2.47      0.00
   17    5    7      0.34      0.00
   18    5    7      1.06      0.00
   19    5    7      0.86      0.00
   20    5    7     -0.41      0.00
   21    5    7      0.49      0.00
   22    5    7     -1.28      0.00
   23    5    7     -0.24      0.00
   24    5    7     -1.37      0.00
   25    5    7     -0.40      0.00
   26    5    7     -0.99      0.00
   27    5    7      0.06      0.00
   28    5    7     -0.54      0.00
    0    6    7      6.38      0.00
    1    6    7      1.36      0.00
    2    6    7      6.61      0.00
    3    6    7      2.69      0.00
    4    6    7      6.94      0.00
    5    6    7      1.18      0.00
    6    6    7      6.75      0.00
    7    6    7     -2.13      0.00
    8    6    7      5.70      0.00
    9    6    7     -5.13      0.00
   10    6    7      3.96      0.00
   11    6    7     -6.56      0.00
   12    6    7      1.98      0.00
   13    6    7     -6.29      0.00
   14    6    7      0.21      0.00
   15    6    7     -4.58      0.00
   16    6    7     -0.85      0.00
   17    6    7     -1.88      0.00
   18    6    7     -0.85      0.00
   19    6    7      0.83      0.00
   20    6    7      0.04      0.00
   21    6    7      2.29      0.00
   22    6    7      1.00      0.00
   23    6    7      2.05      0.00
   24    6    7      1.22      0.00
   25    6    7      0.87      0.00
   26    6    7      0.74      0.00
   27    6    7     -0.11      0.00
   28    6    7      0.25      0.00
    1    7    7     -4.65      0.00
    2    7    7     -4.48      0.00
    3    7    7     -3.91      0.00
    4    7    7     -6.03      0.00
    5    7    7     -3.22      0.00
    6    7    7     -4.17      0.00
    7    7    7     -2.95      0.00
    8    7    7     -0.91      0.00
    9    7    7     -2.43      0.00
   10    7    7      1.46      0.00
   11    7    7     -0.96      0.00
   12    7    7      2.09      0.00
   13    7    7      0.97      0.00
   14    7    7      1.53      0.00
   15    7    7      2.07      0.00
   16    7    7      0.68      0.00
   17    7    7      1.78      0.00
   18    7    7      0.13      0.00
   19    7    7      0.75      0.00
   20    7    7      0.08      0.00
   21    7    7     -0.02      0.00
   22    7    7      0.43      0.00
   23    7    7     -0.16      0.00
   24    7    7      0.87      0.00
   25    7    7     -0.02      0.00
   26    7    7      1.01      0.00
   27    7    7      0.09      0.00
   28    7    7      0.77      0.00
    0    8    7      4.97      0.00
    1    8    7      1.17      0.00
    2    8    7      4.33      0.00
    3    8    7      3.08      0.00
    4    8    7      2.70      0.00
    5    8    7      3.91      0.00
    6    8    7      0.87      0.00
    7    8    7      3.78      0.00
    8    8    7     -0.56      0.00
    9    8    7      3.43      0.00
   10    8    7     -1.42      0.00
   11    8    7      3.53      0.00
   12    8    7     -1.74      0.00
   13    8    7      3.83      0.00
   14    8    7     -1.57      0.00
   15    8    7      3.29      0.00
   16    8    7     -1.10      0.00
   17    8    7      1.39      0.00
   18    8    7     -0.73      0.00
   19    8    7     -1.07      0.00
   20    8    7     -0.67      0.00
   21    8    7     -2.54      0.00
   22    8    7     -0.76      0.00
   23    8    7     -2.31      0.00
   24    8    7     -0.69      0.00
   25    8    7     -1.08      0.00
   26    8    7     -0.47      0.00
   27    8    7     -0.04      0.00
    1    9    7     -3.99      0.00
    2    9    7      1.21      0.00
    3    9    7     -3.16      0.00
    4    9    7      1.27      0.00
    5    9    7     -1.38      0.00
    6    9    7      0.23      0.00
    7    9    7      0.86      0.00
    8    9    7     -1.19      0.00
    9    9    7      2.46      0.00
   10    9    7     -2.46      0.00
   11    9    7      2.58      0.00
   12    9    7     -3.46      0.00
   13    9    7      1.52      0.00
   14    9    7     -3.83      0.00
   15    9    7      0.33      0.00
   16    9    7     -2.96      0.00
   17    9    7     -0.21      0.00
   18    9    7     -0.89      0.00
   19    9    7     -0.13      0.00
   20    9    7      1.28      0.00
   21    9    7      0.12      0.00
   22    9    7      2.22      0.00
   23    9    7      0.20      0.00
   24    9    7      1.70      0.00
   25    9    7      0.08      0.00
   26    9    7      0.59      0.00
   27    9    7     -0.09      0.00
    0   10    7     -4.29      0.00
    1   10    7     -0.90      0.00
    2   10    7     -3.81      0.00
    3   10    7     -1.92      0.00
    4   10    7     -2.78      0.00
    5   10    7     -1.68      0.00
    6   10    7     -1.96      0.00
    7   10    7     -0.73      0.00
    8   10    7     -1.67      0.00
    9   10    7      0.00      0.00
   10   10    7     -1.57      0.00
   11   10    7      0.21      0.00
   12   10    7     -1.27      0.00
   13   10    7      0.40      0.00
   14   10    7     -0.69      0.00
   15   10    7      1.01      0.00
   16   10    7     -0.06      0.00
   17   10    7      1.65      0.00
   18   10    7      0.32      0.00
   19   10    7      1.47      0.00
   20   10    7      0.28      0.00
   21   10    7      0.25      0.00
   22   10    7     -0.04      0.00
   23   10    7     -1.21      0.00
   24   10    7     -0.31      0.00
   25   10    7     -1.85      0.00
   26   10    7     -0.29      0.00
    1   11    7      4.77      0.00
    2   11    7     -1.85      0.00
    3   11    7      3.97      0.00
    4   11    7     -3.09      0.00
    5   11    7      2.69      0.00
    6   11    7     -3.35      0.00
    7   11    7      1.37      0.00
    8   11    7     -2.56      0.00
    9   11    7      0.37      0.00
   10   11    7     -0.92      0.00
   11   11    7     -0.23      0.00
   12   11    7      0.83      0.00
   13   11    7     -0.50      0.00
   14   11    7      1.55      0.00
   15   11    7     -0.52      0.00
   16   11    7      0.65      0.00
   17   11    7     -0.31      0.00
   18   11    7     -1.03      0.00
   19   11    7      0.14      0.00
   20   11    7     -1.85      0.00
   21   11    7      0.67      0.00
   22   11    7     -1.06      0.00
   23   11    7      0.99      0.00
   24   11    7      0.45      0.00
   25   11    7      0.94      0.00
    0   12    7     -0.30      0.00
    1   12    7      2.48      0.00
    2   12    7     -0.65      0.00
    3   12    7      6.09      0.00
    4   12    7     -1.43      0.00
    5   12    7      6.66      0.00
    6   12    7     -1.87      0.00
    7   12    7      4.67      0.00
    8   12    7     -1.39      0.00
    9   12    7      1.78      0.00
   10   12    7     -0.07      0.00
   11   12    7     -0.65      0.00
   12   12    7      1.25      0.00
   13   12    7     -2.05      0.00
   14   12    7      1.69      0.00
   15   12    7     -2.25      0.00
   16   12    7      1.03      0.00
   17   12    7     -1.34      0.00
   18   12    7     -0.07      0.00
   19   12    7      0.14      0.00
   20   12    7     -0.78      0.00
   21   12    7      1.27      0.00
   22   12    7     -0.79      0.00
   23   12    7      1.44      0.00
   24   12    7     -0.47      0.00
   25   12    7      0.79      0.00
    1   13    7      0.60      0.00
    2   13    7     -3.02      0.00
    3   13    7      1.41      0.00
    4   13    7     -3.70      0.00
    5   13    7      2.18      0.00
    6   13    7     -1.64      0.00
    7   13    7      2.04      0.00
    8   13    7      1.35      0.00
    9   13    7      1.00      0.00
   10   13    7      3.07      0.00
   11   13    7     -0.15      0.00
   12   13    7      2.84      0.00
   13   13    7     -0.59      0.00
   14   13    7      1.75      0.00
   15   13    7     -0.22      0.00
   16   13    7      1.00      0.00
   17   13    7      0.33      0.00
   18   13    7      0.69      0.00
   19   13    7      0.41      0.00
   20   13    7      0.17      0.00
   21   13    7     -0.01      0.00
   22   13    7     -0.66      0.00
   23   13    7     -0.37      0.00
   24   13    7     -1.13      0.00
    0   14    7     -0.73      0.00
    1   14    7     -0.35      0.00
    2   14    7     -0.92      0.00
    3   14    7     -1.17      0.00
    4   14    7     -1.11      0.00
    5   14    7     -2.26      0.00
    6   14    7     -0.93      0.00
    7   14    7     -3.39      0.00
    8   14    7     -0.60      0.00
    9   14    7     -3.82      0.00
   10   14    7     -0.60      0.00
   11   14    7     -2.92      0.00
   12   14    7     -0.96      0.00
   13   14    7     -1.06      0.00
   14   14    7     -1.17      0.00
   15   14    7      0.48      0.00
   16   14    7     -0.81      0.00
   17   14    7      0.79      0.00
   18   14    7     -0.09      0.00
   19   14    7      0.21      0.00
   20   14    7      0.43      0.00
   21   14    7     -0.27      0.00
   22   14    7      0.46      0.00
   23   14    7     -0.24      0.00
    1   15    7     -0.36      0.00
    2   15    7      2.79      0.00
    3   15    7     -0.42      0.00
    4   15    7      3.76      0.00
    5   15    7     -0.42      0.00
    6   15    7      2.69      0.00
    7   15    7     -0.13      0.00
    8   15    7      0.86      0.00
    9   15    7      0.41      0.00
   10   15    7     -0.44      0.00
   11   15    7      0.71      0.00
   12   15    7     -0.95      0.00
   13   15    7      0.29      0.00
   14   15    7     -1.13      0.00
   15   15    7     -0.64      0.00
   16   15    7     -1.24      0.00
   17   15    7     -1.26      0.00
   18   15    7     -1.07      0.00
   19   15    7     -1.01      0.00
   20   15    7     -0.46      0.00
   21   15    7     -0.21      0.00
   22   15    7      0.27      0.00
    0   16    7     -0.49      0.00
    1   16    7     -1.29      0.00
    2   16    7     -0.24      0.00
    3   16    7     -2.88      0.00
    4   16    7      0.21      0.00
    5   16    7     -2.33      0.00
    6   16    7      0.29      0.00
    7   16    7     -0.05      0.00
    8   16    7      0.05      0.00
    9   16    7      2.30      0.00
   10   16    7      0.15      0.00
   11   16    7      3.20      0.00
   12   16    7      0.95      0.00
   13   16    7      2.55      0.00
   14   16    7      1.97      0.00
   15   16    7      1.48      0.00
   16   16    7      2.35      0.00
   17   16    7      0.92      0.00
   18   16    7      1.75      0.00
   19   16    7      0.76      0.00
   20   16    7      0.67      0.00
    1   17    7      2.00      0.00
    2   17    7      0.54      0.00
    3   17    7      1.45      0.00
    4   17    7      1.01      0.00
    5   17    7      0.82      0.00
    6   17    7      0.95      0.00
    7   17    7      0.44      0.00
    8   17    7      0.01      0.00
    9   17    7      0.19      0.00
   10   17    7     -1.35      0.00
   11   17    7     -0.09      0.00
   12   17    7     -2.10      0.00
   13   17    7     -0.34      0.00
   14   17    7     -1.75      0.00
   15   17    7     -0.45      0.00
   16   17    7     -0.79      0.00
   17   17    7     -0.50      0.00
   18   17    7     -0.07      0.00
   19   17    7     -0.57      0.00
    0   18    7     -2.15      0.00
    1   18    7      0.31      0.00
    2   18    7     -1.95      0.00
    3   18    7      0.60      0.00
    4   18    7     -1.46      0.00
    5   18    7      0.12      0.00
    6   18    7     -0.88      0.00
    7   18    7     -0.74      0.00
    8   18    7     -0.43      0.00
    9   18    7     -1.28      0.00
   10   18    7     -0.34      0.00
   11   18    7     -1.22      0.00
   12   18    7     -0.64      0.00
   13   18    7     -0.93      0.00
   14   18    7     -1.07      0.00
   15   18    7     -0.91      0.00
   16   18    7     -1.15      0.00
   17   18    7     -1.10      0.00
   18   18    7     -0.75      0.00
    1   19    7      0.20      0.00
    2   19    7     -0.09      0.00
    3   19    7      0.05      0.00
    4   19    7     -0.50      0.00
    5   19    7     -0.27      0.00
    6   19    7     -0.75      0.00
    7   19    7     -0.67      0.00
    8   19    7     -0.23      0.00
    9   19    7     -0.99      0.00
   10   19    7      1.06      0.00
   11   19    7     -1.05      0.00
   12   19    7      2.34      0.00
   13   19    7     -0.81      0.00
   14   19    7      2.82      0.00
   15   19    7     -0.33      0.00
   16   19    7      2.38      0.00
    0   20    7      1.07      0.00
    1   20    7     -0.25      0.00
    2   20    7      0.95      0.00
    3   20    7     -0.26      0.00
    4   20    7      0.74      0.00
    5   20    7      0.75      0.00
    6   20    7      0.66      0.00
    7   20    7      1.97      0.00
    8   20    7      0.83      0.00
    9   20    7      2.18      0.00
   10   20    7      1.19      0.00
   11   20    7      1.08      0.00
   12   20    7      1.55      0.00
   13   20    7     -0.39      0.00
    1   21    7      0.58      0.00
    2   21    7      0.18      0.00
    3   21    7      0.65      0.00
    4   21    7      0.02      0.00
    5   21    7      0.62      0.00
    6   21    7     -0.74      0.00
    7   21    7      0.38      0.00
    8   21    7     -1.81      0.00
    9   21    7      0.04      0.00
   10   21    7     -2.52      0.00
   11   21    7     -0.26      0.00
    0   22    7     -2.17      0.00
    1   22    7     -0.16      0.00
    2   22    7     -1.80      0.00
    3   22    7     -0.53      0.00
    4   22    7     -0.89      0.00
    5   22    7     -0.87      0.00
    6   22    7      0.08      0.00
    7   22    7     -0.86      0.00
    0    0    8    -20.80      0.00
    1    0    8     -8.21      0.00
    2    0    8    -16.24      0.00
    3    0    8    -20.34      0.00
    4    0    8     -4.52      0.00
    5    0    8    -22.75      0.00
    6    0    8      9.16      0.00
    7    0    8    -16.92      0.00
    8    0    8     18.66      0.00
    9    0    8     -8.55      0.00
   10    0    8     20.22      0.00
   11    0    8     -2.49      0.00
   12    0    8     14.74      0.00
   13    0    8     -0.15      0.00
   14    0    8      6.97      0.00
   15    0    8     -0.42      0.00
   16    0    8      1.70      0.00
   17    0    8     -1.56      0.00
   18    0    8      0.34      0.00
   19    0    8     -2.30      0.00
   20    0    8      1.02      0.00
   21    0    8     -2.10      0.00
   22    0    8      1.45      0.00
   23    0    8     -1.18      0.00
   24    0    8      1.06      0.00
   25    0    8     -0.18      0.00
   26    0    8      0.49      0.00
   27    0    8      0.47      0.00
   28    0    8      0.13      0.00
   29    0    8      0.79      0.00
    1    1    8     20.95      0.00
    2    1    8      9.93      0.00
    3    1    8     14.34      0.00
    4    1    8     15.04      0.00
    5    1    8      4.32      0.00
    6    1    8     13.71      0.00
    7    1    8     -4.77      0.00
    8    1    8      8.22      0.00
    9    1    8     -9.78      0.00
   10    1    8      2.52      0.00
   11    1    8    -10.02      0.00
   12    1    8     -0.58      0.00
   13    1    8     -6.97      0.00
   14    1    8     -0.60      0.00
   15    1    8     -3.12      0.00
   16    1    8      1.06      0.00
   17    1    8     -0.53      0.00
   18    1    8      2.57      0.00
   19    1    8      0.11      0.00
   20    1    8      2.86      0.00
   21    1    8     -0.50      0.00
   22    1    8      2.05      0.00
   23    1    8     -1.22      0.00
   24    1    8      0.98      0.00
   25    1    8     -1.36      0.00
   26    1    8      0.34      0.00
   27    1    8     -0.91      0.00
   28    1    8      0.14      0.00
   29    1    8     -0.24      0.00
    0    2    8     -1.64      0.00
    1    2    8      0.33      0.00
    2    2    8     -1.85      0.00
    3    2    8      0.47      0.00
    4    2    8     -2.63      0.00
    5    2    8      0.00      0.00
    6    2    8     -3.94      0.00
    7    2    8     -0.10      0.00
    8    2    8     -4.63      0.00
    9    2    8      0.77      0.00
   10    2    8     -3.37      0.00
   11    2    8      1.76      0.00
   12    2    8     -0.44      0.00
   13    2    8      1.56      0.00
   14    2    8      2.13      0.00
   15    2    8      0.07      0.00
   16    2    8      2.57      0.00
   17    2    8     -1.41      0.00
   18    2    8      1.34      0.00
   19    2    8     -1.68      0.00
   20    2    8      0.35      0.00
   21    2    8     -0.82      0.00
   22    2    8      0.74      0.00
   23    2    8      0.18      0.00
   24    2    8      1.79      0.00
   25    2    8      0.52      0.00
   26    2    8      2.18      0.00
   27    2    8      0.19      0.00
   28    2    8      1.59      0.00
   29    2    8     -0.34      0.00
    1    3    8    -27.42      0.00
    2    3    8     -6.52      0.00
    3    3    8    -20.13      0.00
    4    3    8     -9.70      0.00
    5    3    8     -9.10      0.00
    6    3    8     -8.88      0.00
    7    3    8      0.85      0.00
    8    3    8     -5.93      0.00
    9    3    8      6.25      0.00
   10    3    8     -3.06      0.00
   11    3    8      6.28      0.00
   12    3    8     -1.25      0.00
   13    3    8      2.70      0.00
   14    3    8     -0.59      0.00
   15    3    8     -1.48      0.00
   16    3    8     -0.94      0.00
   17    3    8     -3.79      0.00
   18    3    8     -1.95      0.00
   19    3    8     -3.73      0.00
   20    3    8     -2.97      0.00
   21    3    8     -2.54      0.00
   22    3    8     -3.36      0.00
   23    3    8     -1.72      0.00
   24    3    8     -3.05      0.00
   25    3    8     -1.69      0.00
   26    3    8     -2.34      0.00
   27    3    8     -1.89      0.00
   28    3    8     -1.50      0.00
   29    3    8     -1.74      0.00
    0    4    8     17.87      0.00
    1    4    8      3.15      0.00
    2    4    8     14.93      0.00
    3    4    8      8.33      0.00
    4    4    8      7.94      0.00
    5    4    8     10.59      0.00
    6    4    8      0.66      0.00
    7    4    8      9.40      0.00
    8    4    8     -4.37      0.00
    9    4    8      5.98      0.00
   10    4    8     -6.64      0.00
   11    4    8      2.70      0.00
   12    4    8     -6.42      0.00
   13    4    8      1.52      0.00
   14    4    8     -3.98      0.00
   15    4    8      2.55      0.00
   16    4    8     -0.24      0.00
   17    4    8      4.21      0.00
   18    4    8      2.87      0.00
   19    4    8      4.82      0.00
   20    4    8      3.74      0.00
   21    4    8      4.04      0.00
   22    4    8      2.56      0.00
   23    4    8      2.76      0.00
   24    4    8      0.96      0.00
   25    4    8      1.94      0.00
   26    4    8      0.27      0.00
   27    4    8      1.65      0.00
   28    4    8      0.52      0.00
    1    5    8      9.05      0.00
    2    5    8     -3.52      0.00
    3    5    8      8.43      0.00
    4    5    8     -6.30      0.00
    5    5    8      7.36      0.00
    6    5    8     -7.33      0.00
    7    5    8      6.18      0.00
    8    5    8     -6.10      0.00
    9    5    8      5.30      0.00
   10    5    8     -3.76      0.00
   11    5    8      4.88      0.00
   12    5    8     -2.35      0.00
   13    5    8      4.56      0.00
   14    5    8     -2.71      0.00
   15    5    8      3.71      0.00
   16    5    8     -3.68      0.00
   17    5    8      2.03      0.00
   18    5    8     -3.55      0.00
   19    5    8      0.07      0.00
   20    5    8     -2.06      0.00
   21    5    8     -1.15      0.00
   22    5    8     -0.38      0.00
   23    5    8     -1.02      0.00
   24    5    8      0.35      0.00
   25    5    8     -0.03      0.00
   26    5    8      0.09      0.00
   27    5    8      0.72      0.00
   28    5    8     -0.42      0.00
    0    6    8    -10.70      0.00
    1    6    8      1.25      0.00
    2    6    8     -9.46      0.00
    3    6    8      3.09      0.00
    4    6    8     -6.67      0.00
    5    6    8      3.31      0.00
    6    6    8     -3.98      0.00
    7    6    8      1.96      0.00
    8    6    8     -2.17      0.00
    9    6    8      0.16      0.00
   10    6    8     -1.12      0.00
   11    6    8     -0.78      0.00
   12    6    8     -0.73      0.00
   13    6    8     -0.46      0.00
   14    6    8     -1.14      0.00
   15    6    8      0.30      0.00
   16    6    8     -1.95      0.00
   17    6    8      0.43      0.00
   18    6    8     -2.11      0.00
   19    6    8     -0.30      0.00
   20    6    8     -1.09      0.00
   21    6    8     -1.21      0.00
   22    6    8      0.30      0.00
   23    6    8     -1.54      0.00
   24    6    8      0.86      0.00
   25    6    8     -1.16      0.00
   26    6    8      0.40      0.00
   27    6    8     -0.47      0.00
   28    6    8     -0.19      0.00
    1    7    8      3.95      0.00
    2    7    8     -1.85      0.00
    3    7    8      3.00      0.00
    4    7    8     -1.75      0.00
    5    7    8      1.56      0.00
    6    7    8      0.43      0.00
    7    7    8      0.25      0.00
    8    7    8      3.03      0.00
    9    7    8     -0.46      0.00
   10    7    8      4.40      0.00
   11    7    8     -0.46      0.00
   12    7    8      4.26      0.00
   13    7    8      0.01      0.00
   14    7    8      3.37      0.00
   15    7    8      0.47      0.00
   16    7    8      2.46      0.00
   17    7    8      0.57      0.00
   18    7    8      1.85      0.00
   19    7    8      0.29      0.00
   20    7    8      1.56      0.00
   21    7    8     -0.16      0.00
   22    7    8      1.45      0.00
   23    7    8     -0.54      0.00
   24    7    8      1.29      0.00
   25    7    8     -0.75      0.00
   26    7    8      0.87      0.00
   27    7    8     -0.73      0.00
    0    8    8     -0.15      0.00
    1    8    8      0.65      0.00
    2    8    8     -0.31      0.00
    3    8    8      1.35      0.00
    4    8    8     -0.46      0.00
    5    8    8      0.67      0.00
    6    8    8     -0.24      0.00
    7    8    8     -0.85      0.00
    8    8    8      0.02      0.00
    9    8    8     -2.22      0.00
   10    8    8     -0.23      0.00
   11    8    8     -2.96      0.00
   12    8    8     -0.86      0.00
   13    8    8     -3.09      0.00
   14    8    8     -1.04      0.00
   15    8    8     -2.68      0.00
   16    8    8     -0.38      0.00
   17    8    8     -1.82      0.00
   18    8    8      0.40      0.00
   19    8    8     -0.91      0.00
   20    8    8      0.46      0.00
   21    8    8     -0.41      0.00
   22    8    8     -0.09      0.00
   23    8    8     -0.37      0.00
   24    8    8     -0.38      0.00
   25    8    8     -0.40      0.00
   26    8    8     -0.08      0.00
   27    8    8     -0.22      0.00
    1    9    8     -6.52      0.00
    2    9    8     -0.76      0.00
    3    9    8     -5.04      0.00
    4    9    8     -1.59      0.00
    5    9    8     -2.72      0.00
    6    9    8     -2.22      0.00
    7    9    8     -0.54      0.00
    8    9    8     -2.16      0.00
    9    9    8      0.65      0.00
   10    9    8     -1.27      0.00
   11    9    8      0.65      0.00
   12    9    8     -0.03      0.00
   13    9    8      0.04      0.00
   14    9    8      0.82      0.00
   15    9    8     -0.42      0.00
   16    9    8      0.90      0.00
   17    9    8     -0.33      0.00
   18    9    8      0.40      0.00
   19    9    8      0.16      0.00
   20    9    8     -0.15      0.00
   21    9    8      0.58      0.00
   22    9    8     -0.37      0.00
   23    9    8      0.62      0.00
   24    9    8     -0.24      0.00
   25    9    8      0.30      0.00
   26    9    8      0.05      0.00
    0   10    8      5.69      0.00
    1   10    8      0.20      0.00
    2   10    8      5.06      0.00
    3   10    8      0.86      0.00
    4   10    8      3.27      0.00
    5   10    8      1.67      0.00
    6   10    8      0.97      0.00
    7   10    8      2.06      0.00
    8   10    8     -0.48      0.00
    9   10    8      1.70      0.00
   10   10    8     -0.12      0.00
   11   10    8      0.97      0.00
   12   10    8      1.39      0.00
   13   10    8      0.50      0.00
   14   10    8      2.28      0.00
   15   10    8      0.43      0.00
   16   10    8      1.58      0.00
   17   10    8      0.43      0.00
   18   10    8      0.08      0.00
   19   10    8      0.28      0.00
   20   10    8     -0.75      0.00
   21   10    8      0.02      0.00
   22   10    8     -0.46      0.00
   23   10    8     -0.25      0.00
   24   10    8      0.23      0.00
   25   10    8     -0.56      0.00
   26   10    8      0.53      0.00
    1   11    8      0.59      0.00
    2   11    8      0.12      0.00
    3   11    8      0.43      0.00
    4   11    8      0.26      0.00
    5   11    8      0.10      0.00
    6   11    8      0.48      0.00
    7   11    8     -0.46      0.00
    8   11    8      0.59      0.00
    9   11    8     -1.22      0.00
   10   11    8      0.23      0.00
   11   11    8     -1.96      0.00
   12   11    8     -0.72      0.00
   13   11    8     -2.31      0.00
   14   11    8     -1.78      0.00
   15   11    8     -1.94      0.00
   16   11    8     -2.17      0.00
   17   11    8     -0.96      0.00
   18   11    8     -1.61      0.00
   19   11    8      0.06      0.00
   20   11    8     -0.55      0.00
   21   11    8      0.55      0.00
   22   11    8      0.32      0.00
   23   11    8      0.46      0.00
   24   11    8      0.69      0.00
   25   11    8      0.20      0.00
    0   12    8     -0.30      0.00
    1   12    8     -0.44      0.00
    2   12    8     -0.22      0.00
    3   12    8     -1.29      0.00
    4   12    8      0.16      0.00
    5   12    8     -1.63      0.00
    6   12    8      0.93      0.00
    7   12    8     -1.16      0.00
    8   12    8      1.54      0.00
    9   12    8      0.01      0.00
   10   12    8      1.38      0.00
   11   12    8      1.31      0.00
   12   12    8      0.70      0.00
   13   12    8      2.13      0.00
   14   12    8      0.29      0.00
   15   12    8      2.22      0.00
   16   12    8      0.33      0.00
   17   12    8      1.72      0.00
   18   12    8      0.26      0.00
   19   12    8      1.01      0.00
   20   12    8     -0.35      0.00
   21   12    8      0.43      0.00
   22   12    8     -1.10      0.00
   23   12    8      0.19      0.00
   24   12    8     -1.40      0.00
    1   13    8     -0.82      0.00
    2   13    8      1.76      0.00
    3   13    8     -0.56      0.00
    4   13    8      2.56      0.00
    5   13    8     -0.30      0.00
    6   13    8      1.85      0.00
    7   13    8     -0.11      0.00
    8   13    8      0.10      0.00
    9   13    8      0.25      0.00
   10   13    8     -1.35      0.00
   11   13    8      0.80      0.00
   12   13    8     -1.41      0.00
   13   13    8      1.15      0.00
   14   13    8     -0.26      0.00
   15   13    8      0.97      0.00
   16   13    8      0.94      0.00
   17   13    8      0.49      0.00
   18   13    8      1.23      0.00
   19   13    8      0.25      0.00
   20   13    8      0.68      0.00
   21   13    8      0.45      0.00
   22   13    8     -0.06      0.00
   23   13    8      0.81      0.00
    0   14    8     -1.51      0.00
    1   14    8     -1.12      0.00
    2   14    8     -1.27      0.00
    3   14    8     -2.74      0.00
    4   14    8     -0.69      0.00
    5   14    8     -3.02      0.00
    6   14    8     -0.19      0.00
    7   14    8     -2.05      0.00
    8   14    8      0.02      0.00
    9   14    8     -0.76      0.00
   10   14    8     -0.07      0.00
   11   14    8     -0.30      0.00
   12   14    8     -0.43      0.00
   13   14    8     -1.07      0.00
   14   14    8     -0.89      0.00
   15   14    8     -2.40      0.00
   16   14    8     -1.04      0.00
   17   14    8     -3.19      0.00
   18   14    8     -0.58      0.00
   19   14    8     -2.84      0.00
   20   14    8      0.21      0.00
   21   14    8     -1.74      0.00
   22   14    8      0.65      0.00
    1   15    8      2.62      0.00
    2   15    8      1.38      0.00
    3   15    8      1.52      0.00
    4   15    8      2.10      0.00
    5   15    8      0.03      0.00
    6   15    8      2.18      0.00
    7   15    8     -1.10      0.00
    8   15    8      2.00      0.00
    9   15    8     -1.56      0.00
   10   15    8      1.83      0.00
   11   15    8     -1.33      0.00
   12   15    8      1.75      0.00
   13   15    8     -0.54      0.00
   14   15    8      1.81      0.00
   15   15    8      0.35      0.00
   16   15    8      2.04      0.00
   17   15    8      0.67      0.00
   18   15    8      2.23      0.00
   19   15    8      0.15      0.00
   20   15    8      2.07      0.00
   21   15    8     -0.67      0.00
    0   16    8     -1.37      0.00
    1   16    8     -0.56      0.00
    2   16    8     -1.07      0.00
    3   16    8     -1.27      0.00
    4   16    8     -0.34      0.00
    5   16    8     -1.36      0.00
    6   16    8      0.55      0.00
    7   16    8     -1.32      0.00
    8   16    8      1.32      0.00
    9   16    8     -1.57      0.00
   10   16    8      1.74      0.00
   11   16    8     -1.83      0.00
   12   16    8      1.65      0.00
   13   16    8     -1.54      0.00
   14   16    8      1.03      0.00
   15   16    8     -0.69      0.00
   16   16    8      0.22      0.00
   17   16    8      0.13      0.00
   18   16    8     -0.34      0.00
   19   16    8      0.41      0.00
   20   16    8     -0.38      0.00
    1   17    8     -1.90      0.00
    2   17    8      1.15      0.00
    3   17    8     -1.32      0.00
    4   17    8      1.64      0.00
    5   17    8     -0.67      0.00
    6   17    8      1.41      0.00
    7   17    8     -0.48      0.00
    8   17    8      0.98      0.00
    9   17    8     -0.76      0.00
   10   17    8      0.78      0.00
   11   17    8     -1.10      0.00
   12   17    8      0.66      0.00
   13   17    8     -1.14      0.00
   14   17    8      0.09      0.00
   15   17    8     -0.83      0.00
   16   17    8     -1.00      0.00
   17   17    8     -0.30      0.00
   18   17    8     -1.96      0.00
   19   17    8      0.23      0.00
    0   18    8      3.67      0.00
    1   18    8     -0.06      0.00
    2   18    8      3.21      0.00
    3   18    8     -0.28      0.00
    4   18    8      2.06      0.00
    5   18    8     -0.53      0.00
    6   18    8      0.92      0.00
    7   18    8     -0.47      0.00
    8   18    8      0.17      0.00
    9   18    8      0.02      0.00
   10   18    8     -0.20      0.00
   11   18    8      0.61      0.00
   12   18    8     -0.31      0.00
   13   18    8      0.95      0.00
   14   18    8     -0.18      0.00
   15   18    8      1.06      0.00
   16   18    8      0.11      0.00
   17   18    8      1.11      0.00
    1   19    8     -1.18      0.00
    2   19    8     -1.25      0.00
    3   19    8     -1.52      0.00
    4   19    8     -1.62      0.00
    5   19    8     -1.72      0.00
    6   19    8     -1.10      0.00
    7   19    8     -1.36      0.00
    8   19    8     -0.54      0.00
    9   19    8     -0.51      0.00
   10   19    8     -0.58      0.00
   11   19    8      0.30      0.00
   12   19    8     -0.98      0.00
   13   19    8      0.59      0.00
   14   19    8     -1.02      0.00
   15   19    8      0.38      0.00
    0   20    8     -1.10      0.00
    1   20    8      0.52      0.00
    2   20    8     -0.38      0.00
    3   20    8      1.39      0.00
    4   20    8      1.17      0.00
    5   20    8      1.52      0.00
    6   20    8      2.24      0.00
    7   20    8      1.04      0.00
    8   20    8      2.15      0.00
    9   20    8      0.56      0.00
   10   20    8      1.32      0.00
   11   20    8      0.52      0.00
   12   20    8      0.56      0.00
   13   20    8      0.73      0.00
    1   21    8     -0.06      0.00
    2   21    8     -0.14      0.00
    3   21    8     -0.31      0.00
    4   21    8     -0.40      0.00
    5   21    8     -0.68      0.00
    6   21    8     -0.66      0.00
    7   21    8     -0.90      0.00
    8   21    8     -0.81      0.00
    9   21    8     -0.85      0.00
   10   21    8     -0.84      0.00
    0   22    8      1.45      0.00
    1   22    8      0.07      0.00
    2   22    8      0.83      0.00
    3   22    8      0.14      0.00
    4   22    8     -0.40      0.00
    5   22    8      0.29      0.00
    1    1    9      4.61      0.00
    2    1    9      0.92      0.00
    3    1    9      2.44      0.00
    4    1    9      2.32      0.00
    5    1    9     -0.73      0.00
    6    1    9      3.58      0.00
    7    1    9     -3.28      0.00
    8    1    9      3.39      0.00
    9    1    9     -4.22      0.00
   10    1    9      1.41      0.00
   11    1    9     -3.83      0.00
   12    1    9     -1.06      0.00
   13    1    9     -3.14      0.00
   14    1    9     -2.13      0.00
   15    1    9     -2.87      0.00
   16    1    9     -1.12      0.00
   17    1    9     -2.73      0.00
   18    1    9      0.91      0.00
   19    1    9     -2.01      0.00
   20    1    9      2.19      0.00
   21    1    9     -0.60      0.00
   22    1    9      1.84      0.00
   23    1    9      0.72      0.00
   24    1    9      0.41      0.00
   25    1    9      1.09      0.00
   26    1    9     -0.84      0.00
   27    1    9      0.50      0.00
   28    1    9     -1.19      0.00
    0    2    9    -18.22      0.00
    1    2    9     -0.74      0.00
    2    2    9    -16.33      0.00
    3    2    9     -2.07      0.00
    4    2    9    -11.74      0.00
    5    2    9     -2.93      0.00
    6    2    9     -6.74      0.00
    7    2    9     -2.69      0.00
    8    2    9     -2.96      0.00
    9    2    9     -1.16      0.00
   10    2    9     -0.51      0.00
   11    2    9      0.92      0.00
   12    2    9      1.21      0.00
   13    2    9      2.24      0.00
   14    2    9      2.36      0.00
   15    2    9      1.91      0.00
   16    2    9      2.58      0.00
   17    2    9      0.12      0.00
   18    2    9      1.73      0.00
   19    2    9     -1.98      0.00
   20    2    9      0.30      0.00
   21    2    9     -3.12      0.00
   22    2    9     -0.97      0.00
   23    2    9     -2.79      0.00
   24    2    9     -1.52      0.00
   25    2    9     -1.51      0.00
   26    2    9     -1.29      0.00
   27    2    9     -0.26      0.00
   28    2    9     -0.58      0.00
    1    3    9      7.85      0.00
    2    3    9     -0.47      0.00
    3    3    9      7.61      0.00
    4    3    9     -0.98      0.00
    5    3    9      7.31      0.00
    6    3    9     -1.23      0.00
    7    3    9      6.80      0.00
    8    3    9     -0.85      0.00
    9    3    9      5.53      0.00
   10    3    9      0.06      0.00
   11    3    9      3.25      0.00
   12    3    9      0.74      0.00
   13    3    9      0.66      0.00
   14    3    9      0.58      0.00
   15    3    9     -0.93      0.00
   16    3    9     -0.16      0.00
   17    3    9     -0.87      0.00
   18    3    9     -0.53      0.00
   19    3    9      0.21      0.00
   20    3    9      0.01      0.00
   21    3    9      1.14      0.00
   22    3    9      1.00      0.00
   23    3    9      1.35      0.00
   24    3    9      1.48      0.00
   25    3    9      1.04      0.00
   26    3    9      1.04      0.00
   27    3    9      0.61      0.00
   28    3    9      0.17      0.00
    0    4    9     13.43      0.00
    1    4    9      2.41      0.00
    2    4    9     11.27      0.00
    3    4    9      5.94      0.00
    4    4    9      6.12      0.00
    5    4    9      6.59      0.00
    6    4    9      0.78      0.00
    7    4    9      4.08      0.00
    8    4    9     -2.75      0.00
    9    4    9     -0.02      0.00
   10    4    9     -4.08      0.00
   11    4    9     -3.24      0.00
   12    4    9     -3.74      0.00
   13    4    9     -3.78      0.00
   14    4    9     -2.39      0.00
   15    4    9     -1.80      0.00
   16    4    9     -0.81      0.00
   17    4    9      0.88      0.00
   18    4    9      0.16      0.00
   19    4    9      2.42      0.00
   20    4    9      0.22      0.00
   21    4    9      2.34      0.00
   22    4    9     -0.10      0.00
   23    4    9      1.48      0.00
   24    4    9     -0.12      0.00
   25    4    9      0.91      0.00
   26    4    9      0.23      0.00
   27    4    9      0.88      0.00
   28    4    9      0.49      0.00
    1    5    9    -10.09      0.00
    2    5    9     -6.35      0.00
    3    5    9     -6.90      0.00
    4    5    9     -9.25      0.00
    5    5    9     -2.51      0.00
    6    5    9     -7.69      0.00
    7    5    9      1.06      0.00
    8    5    9     -3.44      0.00
    9    5    9      3.20      0.00
   10    5    9      0.49      0.00
   11    5    9      4.25      0.00
   12    5    9      2.12      0.00
   13    5    9      4.30      0.00
   14    5    9      1.49      0.00
   15    5    9      3.11      0.00
   16    5    9     -0.06      0.00
   17    5    9      1.05      0.00
   18    5    9     -1.32      0.00
   19    5    9     -0.73      0.00
   20    5    9     -1.91      0.00
   21    5    9     -1.40      0.00
   22    5    9     -2.04      0.00
   23    5    9     -1.17      0.00
   24    5    9     -1.96      0.00
   25    5    9     -0.77      0.00
   26    5    9     -1.73      0.00
   27    5    9     -0.52      0.00
   28    5    9     -1.30      0.00
    0    6    9      1.53      0.00
    1    6    9      2.20      0.00
    2    6    9      1.25      0.00
    3    6    9      5.63      0.00
    4    6    9      0.33      0.00
    5    6    9      6.90      0.00
    6    6    9     -1.04      0.00
    7    6    9      6.15      0.00
    8    6    9     -2.02      0.00
    9    6    9      4.45      0.00
   10    6    9     -1.93      0.00
   11    6    9      2.77      0.00
   12    6    9     -1.07      0.00
   13    6    9      1.45      0.00
   14    6    9     -0.37      0.00
   15    6    9      0.54      0.00
   16    6    9     -0.12      0.00
   17    6    9      0.20      0.00
   18    6    9      0.18      0.00
   19    6    9      0.55      0.00
   20    6    9      0.83      0.00
   21    6    9      1.27      0.00
   22    6    9      1.33      0.00
   23    6    9      1.74      0.00
   24    6    9      1.09      0.00
   25    6    9      1.58      0.00
   26    6    9      0.23      0.00
   27    6    9      1.01      0.00
    1    7    9     -1.62      0.00
    2    7    9     -0.62      0.00
    3    7    9     -1.82      0.00
    4    7    9     -1.71      0.00
    5    7    9     -1.58      0.00
    6    7    9     -3.12      0.00
    7    7    9     -0.99      0.00
    8    7    9     -4.07      0.00
    9    7    9     -1.16      0.00
   10    7    9     -3.85      0.00
   11    7    9     -2.50      0.00
   12    7    9     -2.51      0.00
   13    7    9     -3.69      0.00
   14    7    9     -0.89      0.00
   15    7    9     -3.29      0.00
   16    7    9     -0.02      0.00
   17    7    9     -1.60      0.00
   18    7    9     -0.26      0.00
   19    7    9     -0.27      0.00
   20    7    9     -1.05      0.00
   21    7    9     -0.15      0.00
   22    7    9     -1.41      0.00
   23    7    9     -0.52      0.00
   24    7    9     -0.94      0.00
   25    7    9     -0.42      0.00
   26    7    9     -0.10      0.00
   27    7    9      0.13      0.00
    0    8    9     -2.30      0.00
    1    8    9     -0.97      0.00
    2    8    9     -1.80      0.00
    3    8    9     -2.41      0.00
    4    8    9     -0.39      0.00
    5    8    9     -2.51      0.00
    6    8    9      1.45      0.00
    7    8    9     -1.54      0.00
    8    8    9      3.01      0.00
    9    8    9     -0.31      0.00
   10    8    9      3.70      0.00
   11    8    9      0.55      0.00
   12    8    9      3.44      0.00
   13    8    9      0.92      0.00
   14    8    9      2.52      0.00
   15    8    9      0.92      0.00
   16    8    9      1.38      0.00
   17    8    9      0.73      0.00
   18    8    9      0.31      0.00
   19    8    9      0.40      0.00
   20    8    9     -0.39      0.00
   21    8    9     -0.03      0.00
   22    8    9     -0.53      0.00
   23    8    9     -0.49      0.00
   24    8    9     -0.16      0.00
   25    8    9     -0.84      0.00
   26    8    9      0.32      0.00
    1    9    9      4.93      0.00
    2    9    9      3.39      0.00
    3    9    9      3.35      0.00
    4    9    9      5.59      0.00
    5    9    9      0.28      0.00
    6    9    9      5.80      0.00
    7    9    9     -3.04      0.00
    8    9    9      4.04      0.00
    9    9    9     -4.50      0.00
   10    9    9      1.20      0.00
   11    9    9     -3.31      0.00
   12    9    9     -1.38      0.00
   13    9    9     -0.99      0.00
   14    9    9     -2.53      0.00
   15    9    9      0.43      0.00
   16    9    9     -1.88      0.00
   17    9    9      0.54      0.00
   18    9    9     -0.10      0.00
   19    9    9      0.37      0.00
   20    9    9      1.53      0.00
   21    9    9      0.55      0.00
   22    9    9      2.03      0.00
   23    9    9      0.64      0.00
   24    9    9      1.39      0.00
   25    9    9      0.17      0.00
   26    9    9      0.45      0.00
    0   10    9     -2.02      0.00
    1   10    9     -2.08      0.00
    2   10    9     -1.55      0.00
    3   10    9     -5.29      0.00
    4   10    9     -0.15      0.00
    5   10    9     -6.10      0.00
    6   10    9      1.86      0.00
    7   10    9     -4.31      0.00
    8   10    9      3.50      0.00
    9   10    9     -1.13      0.00
   10   10    9      3.88      0.00
   11   10    9      1.55      0.00
   12   10    9      2.97      0.00
   13   10    9      2.49      0.00
   14   10    9      1.66      0.00
   15   10    9      1.69      0.00
   16   10    9      0.79      0.00
   17   10    9      0.09      0.00
   18   10    9      0.48      0.00
   19   10    9     -1.29      0.00
   20   10    9      0.42      0.00
   21   10    9     -1.79      0.00
   22   10    9      0.35      0.00
   23   10    9     -1.36      0.00
   24   10    9      0.22      0.00
   25   10    9     -0.43      0.00
    1   11    9      1.19      0.00
    2   11    9      2.67      0.00
    3   11    9      0.52      0.00
    4   11    9      3.77      0.00
    5   11    9     -0.39      0.00
    6   11    9      2.86      0.00
    7   11    9     -1.37      0.00
    8   11    9      0.94      0.00
    9   11    9     -2.61      0.00
   10   11    9     -0.46      0.00
   11   11    9     -3.92      0.00
   12   11    9     -0.64      0.00
   13   11    9     -4.49      0.00
   14   11    9     -0.09      0.00
   15   11    9     -3.84      0.00
   16   11    9      0.24      0.00
   17   11    9     -2.55      0.00
   18   11    9      0.08      0.00
   19   11    9     -1.65      0.00
   20   11    9     -0.12      0.00
   21   11    9     -1.35      0.00
   22   11    9      0.07      0.00
   23   11    9     -1.02      0.00
   24   11    9      0.46      0.00
   25   11    9     -0.30      0.00
    0   12    9     -0.38      0.00
    1   12    9     -0.11      0.00
    2   12    9      0.09      0.00
    3   12    9     -0.26      0.00
    4   12    9      0.97      0.00
    5   12    9     -0.14      0.00
    6   12    9      1.49      0.00
    7   12    9     -0.07      0.00
    8   12    9      1.62      0.00
    9   12    9     -0.33      0.00
   10   12    9      1.90      0.00
   11   12    9     -0.71      0.00
   12   12    9      2.46      0.00
   13   12    9     -0.74      0.00
   14   12    9      2.82      0.00
   15   12    9     -0.19      0.00
   16   12    9      2.57      0.00
   17   12    9      0.61      0.00
   18   12    9      1.87      0.00
   19   12    9      1.14      0.00
   20   12    9      1.12      0.00
   21   12    9      1.06      0.00
   22   12    9      0.44      0.00
   23   12    9      0.48      0.00
   24   12    9     -0.19      0.00
    1   13    9     -2.01      0.00
    2   13    9     -1.30      0.00
    3   13    9     -2.36      0.00
    4   13    9     -2.01      0.00
    5   13    9     -2.29      0.00
    6   13    9     -1.83      0.00
    7   13    9     -1.21      0.00
    8   13    9     -0.98      0.00
    9   13    9      0.59      0.00
   10   13    9     -0.14      0.00
   11   13    9      1.97      0.00
   12   13    9      0.15      0.00
   13   13    9      2.01      0.00
   14   13    9     -0.03      0.00
   15   13    9      0.93      0.00
   16   13    9     -0.25      0.00
   17   13    9     -0.09      0.00
   18   13    9     -0.36      0.00
   19   13    9     -0.13      0.00
   20   13    9     -0.56      0.00
   21   13    9      0.56      0.00
   22   13    9     -0.91      0.00
   23   13    9      1.00      0.00
    0   14    9      0.92      0.00
    1   14    9      0.44      0.00
    2   14    9      0.88      0.00
    3   14    9      1.21      0.00
    4   14    9      0.66      0.00
    5   14    9      1.63      0.00
    6   14    9     -0.01      0.00
    7   14    9      1.70      0.00
    8   14    9     -1.26      0.00
    9   14    9      1.52      0.00
   10   14    9     -2.68      0.00
   11   14    9      1.12      0.00
   12   14    9     -3.40      0.00
   13   14    9      0.51      0.00
   14   14    9     -2.89      0.00
   15   14    9     -0.09      0.00
   16   14    9     -1.62      0.00
   17   14    9     -0.27      0.00
   18   14    9     -0.62      0.00
   19   14    9      0.20      0.00
   20   14    9     -0.41      0.00
   21   14    9      0.99      0.00
   22   14    9     -0.53      0.00
    1   15    9     -0.63      0.00
    2   15    9     -0.15      0.00
    3   15    9      0.13      0.00
    4   15    9     -0.29      0.00
    5   15    9      0.90      0.00
    6   15    9     -0.62      0.00
    7   15    9      1.03      0.00
    8   15    9     -1.11      0.00
    9   15    9      0.62      0.00
   10   15    9     -1.43      0.00
   11   15    9      0.29      0.00
   12   15    9     -1.25      0.00
   13   15    9      0.41      0.00
   14   15    9     -0.75      0.00
   15   15    9      0.67      0.00
   16   15    9     -0.49      0.00
   17   15    9      0.52      0.00
   18   15    9     -0.75      0.00
   19   15    9     -0.09      0.00
   20   15    9     -1.12      0.00
   21   15    9     -0.66      0.00
    0   16    9      3.68      0.00
    1   16    9      0.19      0.00
    2   16    9      2.71      0.00
    3   16    9      0.30      0.00
    4   16    9      0.56      0.00
    5   16    9      0.24      0.00
    6   16    9     -1.08      0.00
    7   16    9      0.17      0.00
    8   16    9     -1.13      0.00
    9   16    9      0.26      0.00
   10   16    9     -0.04      0.00
   11   16    9      0.54      0.00
   12   16    9      0.80      0.00
   13   16    9      0.87      0.00
   14   16    9      0.56      0.00
   15   16    9      1.04      0.00
   16   16    9     -0.20      0.00
   17   16    9      0.87      0.00
   18   16    9     -0.41      0.00
   19   16    9      0.34      0.00
    1   17    9     -4.89      0.00
    2   17    9     -0.26      0.00
    3   17    9     -3.40      0.00
    4   17    9     -0.30      0.00
    5   17    9     -1.11      0.00
    6   17    9      0.02      0.00
    7   17    9      0.85      0.00
    8   17    9      0.58      0.00
    9   17    9      1.70      0.00
   10   17    9      0.92      0.00
   11   17    9      1.49      0.00
   12   17    9      0.69      0.00
   13   17    9      1.00      0.00
   14   17    9      0.13      0.00
   15   17    9      0.94      0.00
   16   17    9     -0.09      0.00
   17   17    9      1.22      0.00
   18   17    9      0.37      0.00
    0   18    9      3.82      0.00
    1   18    9      0.16      0.00
    2   18    9      3.85      0.00
    3   18    9      0.50      0.00
    4   18    9      3.63      0.00
    5   18    9      0.50      0.00
    6   18    9      2.63      0.00
    7   18    9      0.04      0.00
    8   18    9      0.80      0.00
    9   18    9     -0.70      0.00
   10   18    9     -1.12      0.00
   11   18    9     -1.21      0.00
   12   18    9     -2.19      0.00
   13   18    9     -1.18      0.00
   14   18    9     -2.16      0.00
   15   18    9     -0.73      0.00
   16   18    9     -1.62      0.00
    1   19    9     -0.58      0.00
    2   19    9     -1.05      0.00
    3   19    9     -1.38      0.00
    4   19    9     -1.49      0.00
    5   19    9     -2.34      0.00
    6   19    9     -1.10      0.00
    7   19    9     -2.54      0.00
    8   19    9     -0.22      0.00
    9   19    9     -1.50      0.00
   10   19    9      0.65      0.00
   11   19    9      0.19      0.00
   12   19    9      1.12      0.00
   13   19    9      1.37      0.00
   14   19    9      1.03      0.00
    0   20    9     -3.22      0.00
    1   20    9      0.36      0.00
    2   20    9     -2.92      0.00
    3   20    9      0.74      0.00
    4   20    9     -1.99      0.00
    5   20    9      0.38      0.00
    6   20    9     -0.66      0.00
    7   20    9     -0.40      0.00
    8   20    9      0.50      0.00
    9   20    9     -1.07      0.00
   10   20    9      0.95      0.00
   11   20    9     -1.31      0.00
   12   20    9      0.63      0.00
    1   21    9      3.65      0.00
    2   21    9      1.12      0.00
    3   21    9      3.39      0.00
    4   21    9      1.89      0.00
    5   21    9      2.90      0.00
    6   21    9      2.04      0.00
    7   21    9      2.15      0.00
    8   21    9      1.70      0.00
    9   21    9      1.11      0.00
    0   22    9     -1.43      0.00
    1   22    9     -0.88      0.00
    2   22    9     -1.42      0.00
    3   22    9     -2.20      0.00
    0    0   10    -10.91      0.00
    1    0   10     -0.34      0.00
    2    0   10    -10.38      0.00
    3    0   10     -1.14      0.00
    4    0   10     -8.99      0.00
    5    0   10     -2.57      0.00
    6    0   10     -7.12      0.00
    7    0   10     -4.92      0.00
    8    0   10     -5.12      0.00
    9    0   10     -7.64      0.00
   10    0   10     -3.33      0.00
   11    0   10     -9.29      0.00
   12    0   10     -2.14      0.00
   13    0   10     -8.66      0.00
   14    0   10     -1.83      0.00
   15    0   10     -5.92      0.00
   16    0   10     -2.14      0.00
   17    0   10     -2.50      0.00
   18    0   10     -2.31      0.00
   19    0   10      0.13      0.00
   20    0   10     -1.83      0.00
   21    0   10      1.42      0.00
   22    0   10     -0.98      0.00
   23    0   10      1.59      0.00
   24    0   10     -0.39      0.00
   25    0   10      1.09      0.00
   26    0   10     -0.23      0.00
   27    0   10      0.37      0.00
   28    0   10     -0.10      0.00
    1    1   10      2.00      0.00
    2    1   10     -0.72      0.00
    3    1   10      2.34      0.00
    4    1   10     -0.29      0.00
    5    1   10      2.56      0.00
    6    1   10      1.73      0.00
    7    1   10      2.31      0.00
    8    1   10      4.59      0.00
    9    1   10      1.73      0.00
   10    1   10      6.83      0.00
   11    1   10      1.19      0.00
   12    1   10      7.21      0.00
   13    1   10      0.88      0.00
   14    1   10      5.61      0.00
   15    1   10      0.73      0.00
   16    1   10      3.07      0.00
   17    1   10      0.64      0.00
   18    1   10      0.93      0.00
   19    1   10      0.60      0.00
   20    1   10     -0.18      0.00
   21    1   10      0.61      0.00
   22    1   10     -0.53      0.00
   23    1   10      0.61      0.00
   24    1   10     -0.68      0.00
   25    1   10      0.49      0.00
   26    1   10     -0.82      0.00
   27    1   10      0.22      0.00
   28    1   10     -0.83      0.00
    0    2   10      4.59      0.00
    1    2   10      1.52      0.00
    2    2   10      3.64      0.00
    3    2   10      3.54      0.00
    4    2   10      1.49      0.00
    5    2   10      3.18      0.00
    6    2   10     -0.45      0.00
    7    2   10      1.19      0.00
    8    2   10     -1.31      0.00
    9    2   10     -0.70      0.00
   10    2   10     -1.16      0.00
   11    2   10     -1.38      0.00
   12    2   10     -0.39      0.00
   13    2   10     -0.96      0.00
   14    2   10      0.69      0.00
   15    2   10     -0.23      0.00
   16    2   10      1.61      0.00
   17    2   10      0.03      0.00
   18    2   10      1.72      0.00
   19    2   10     -0.42      0.00
   20    2   10      0.81      0.00
   21    2   10     -1.14      0.00
   22    2   10     -0.45      0.00
   23    2   10     -1.33      0.00
   24    2   10     -1.08      0.00
   25    2   10     -0.60      0.00
   26    2   10     -0.81      0.00
   27    2   10      0.54      0.00
   28    2   10     -0.20      0.00
    1    3   10     -0.33      0.00
    2    3   10     -2.23      0.00
    3    3   10      1.23      0.00
    4    3   10     -3.70      0.00
    5    3   10      3.49      0.00
    6    3   10     -4.33      0.00
    7    3   10      5.02      0.00
    8    3   10     -4.64      0.00
    9    3   10      4.57      0.00
   10    3   10     -4.88      0.00
   11    3   10      2.15      0.00
   12    3   10     -4.82      0.00
   13    3   10     -0.84      0.00
   14    3   10     -4.18      0.00
   15    3   10     -2.69      0.00
   16    3   10     -3.06      0.00
   17    3   10     -2.65      0.00
   18    3   10     -1.80      0.00
   19    3   10     -1.26      0.00
   20    3   10     -0.63      0.00
   21    3   10      0.35      0.00
   22    3   10      0.33      0.00
   23    3   10      1.31      0.00
   24    3   10      0.86      0.00
   25    3   10      1.38      0.00
   26    3   10      0.78      0.00
   27    3   10      0.90      0.00
   28    3   10      0.32      0.00
    0    4   10      2.51      0.00
    1    4   10     -0.54      0.00
    2    4   10      1.98      0.00
    3    4   10     -0.77      0.00
    4    4   10      0.45      0.00
    5    4   10      0.67      0.00
    6    4   10     -1.47      0.00
    7    4   10      3.16      0.00
    8    4   10     -2.43      0.00
    9    4   10      5.26      0.00
   10    4   10     -1.47      0.00
   11    4   10      5.96      0.00
   12    4   10      0.78      0.00
   13    4   10      5.27      0.00
   14    4   10      2.50      0.00
   15    4   10      3.99      0.00
   16    4   10      2.55      0.00
   17    4   10      3.09      0.00
   18    4   10      1.40      0.00
   19    4   10      2.92      0.00
   20    4   10      0.23      0.00
   21    4   10      2.97      0.00
   22    4   10     -0.38      0.00
   23    4   10      2.37      0.00
   24    4   10     -0.63      0.00
   25    4   10      0.95      0.00
   26    4   10     -0.72      0.00
   27    4   10     -0.47      0.00
   28    4   10     -0.64      0.00
    1    5   10      0.53      0.00
    2    5   10      3.39      0.00
    3    5   10     -0.75      0.00
    4    5   10      4.38      0.00
    5    5   10     -2.54      0.00
    6    5   10      2.72      0.00
    7    5   10     -3.72      0.00
    8    5   10      0.02      0.00
    9    5   10     -3.50      0.00
   10    5   10     -1.98      0.00
   11    5   10     -1.96      0.00
   12    5   10     -2.62      0.00
   13    5   10     -0.14      0.00
   14    5   10     -2.23      0.00
   15    5   10      0.81      0.00
   16    5   10     -1.52      0.00
   17    5   10      0.53      0.00
   18    5   10     -1.22      0.00
   19    5   10     -0.39      0.00
   20    5   10     -1.56      0.00
   21    5   10     -1.02      0.00
   22    5   10     -1.98      0.00
   23    5   10     -0.91      0.00
   24    5   10     -1.64      0.00
   25    5   10     -0.26      0.00
   26    5   10     -0.47      0.00
   27    5   10      0.40      0.00
    0    6   10    -11.77      0.00
    1    6   10     -1.89      0.00
    2    6   10     -9.46      0.00
    3    6   10     -4.73      0.00
    4    6   10     -3.67      0.00
    5    6   10     -5.47      0.00
    6    6   10      2.46      0.00
    7    6   10     -4.20      0.00
    8    6   10      5.43      0.00
    9    6   10     -2.00      0.00
   10    6   10      3.79      0.00
   11    6   10     -0.10      0.00
   12    6   10     -0.56      0.00
   13    6   10      0.70      0.00
   14    6   10     -3.96      0.00
   15    6   10      0.29      0.00
   16    6   10     -4.24      0.00
   17    6   10     -0.81      0.00
   18    6   10     -2.18      0.00
   19    6   10     -1.74      0.00
   20    6   10     -0.11      0.00
   21    6   10     -1.86      0.00
   22    6   10      0.56      0.00
   23    6   10     -1.21      0.00
   24    6   10      0.05      0.00
   25    6   10     -0.40      0.00
   26    6   10     -0.73      0.00
   27    6   10      0.00      0.00
    1    7   10      7.54      0.00
    2    7   10      1.76      0.00
    3    7   10      4.32      0.00
    4    7   10      3.12      0.00
    5    7   10     -0.08      0.00
    6    7   10      3.43      0.00
    7    7   10     -2.97      0.00
    8    7   10      2.45      0.00
    9    7   10     -2.96      0.00
   10    7   10      0.94      0.00
   11    7   10     -0.71      0.00
   12    7   10      0.09      0.00
   13    7   10      1.88      0.00
   14    7   10      0.38      0.00
   15    7   10      3.30      0.00
   16    7   10      1.27      0.00
   17    7   10      3.25      0.00
   18    7   10      2.00      0.00
   19    7   10      2.44      0.00
   20    7   10      2.16      0.00
   21    7   10      1.68      0.00
   22    7   10      1.67      0.00
   23    7   10      1.34      0.00
   24    7   10      0.64      0.00
   25    7   10      1.28      0.00
   26    7   10     -0.45      0.00
    0    8   10      2.89      0.00
    1    8   10      0.18      0.00
    2    8   10      2.59      0.00
    3    8   10      0.25      0.00
    4    8   10      1.69      0.00
    5    8   10     -0.11      0.00
    6    8   10      0.41      0.00
    7    8   10     -0.42      0.00
    8    8   10     -0.52      0.00
    9    8   10     -0.46      0.00
   10    8   10     -0.53      0.00
   11    8   10     -0.64      0.00
   12    8   10     -0.04      0.00
   13    8   10     -1.26      0.00
   14    8   10     -0.09      0.00
   15    8   10     -1.82      0.00
   16    8   10     -1.05      0.00
   17    8   10     -1.68      0.00
   18    8   10     -2.12      0.00
   19    8   10     -0.86      0.00
   20    8   10     -2.26      0.00
   21    8   10      0.03      0.00
   22    8   10     -1.45      0.00
   23    8   10      0.54      0.00
   24    8   10     -0.43      0.00
   25    8   10      0.71      0.00
   26    8   10      0.23      0.00
    1    9   10     -2.31      0.00
    2    9   10     -1.21      0.00
    3    9   10     -0.41      0.00
    4    9   10     -1.86      0.00
    5    9   10      1.90      0.00
    6    9   10     -1.65      0.00
    7    9   10      2.85      0.00
    8    9   10     -0.79      0.00
    9    9   10      2.01      0.00
   10    9   10      0.21      0.00
   11    9   10      0.51      0.00
   12    9   10      0.89      0.00
   13    9   10     -0.22      0.00
   14    9   10      1.08      0.00
   15    9   10      0.21      0.00
   16    9   10      0.96      0.00
   17    9   10      0.99      0.00
   18    9   10      0.70      0.00
   19    9   10      1.06      0.00
   20    9   10      0.40      0.00
   21    9   10      0.21      0.00
   22    9   10      0.13      0.00
   23    9   10     -0.91      0.00
   24    9   10      0.05      0.00
   25    9   10     -1.57      0.00
    0   10   10     -0.68      0.00
    1   10   10      0.48      0.00
    2   10   10     -1.14      0.00
    3   10   10      1.45      0.00
    4   10   10     -1.88      0.00
    5   10   10      2.23      0.00
    6   10   10     -1.80      0.00
    7   10   10      2.31      0.00
    8   10   10     -0.82      0.00
    9   10   10      1.68      0.00
   10   10   10      0.10      0.00
   11   10   10      1.05      0.00
   12   10   10      0.28      0.00
   13   10   10      0.91      0.00
   14   10   10      0.04      0.00
   15   10   10      0.86      0.00
   16   10   10      0.05      0.00
   17   10   10      0.23      0.00
   18   10   10      0.42      0.00
   19   10   10     -0.82      0.00
   20   10   10      0.83      0.00
   21   10   10     -1.47      0.00
   22   10   10      1.04      0.00
   23   10   10     -1.30      0.00
   24   10   10      1.07      0.00
   25   10   10     -0.71      0.00
    1   11   10      0.65      0.00
    2   11   10     -0.37      0.00
    3   11   10      0.08      0.00
    4   11   10     -1.14      0.00
    5   11   10     -0.66      0.00
    6   11   10     -2.10      0.00
    7   11   10     -1.00      0.00
    8   11   10     -2.63      0.00
    9   11   10     -0.79      0.00
   10   11   10     -2.49      0.00
   11   11   10     -0.52      0.00
   12   11   10     -1.98      0.00
   13   11   10     -0.81      0.00
   14   11   10     -1.45      0.00
   15   11   10     -1.67      0.00
   16   11   10     -0.93      0.00
   17   11   10     -2.36      0.00
   18   11   10     -0.34      0.00
   19   11   10     -2.13      0.00
   20   11   10      0.22      0.00
   21   11   10     -1.12      0.00
   22   11   10      0.49      0.00
   23   11   10     -0.13      0.00
   24   11   10      0.36      0.00
    0   12   10      1.27      0.00
    1   12   10      0.21      0.00
    2   12   10      1.76      0.00
    3   12   10      0.66      0.00
    4   12   10      2.59      0.00
    5   12   10      1.03      0.00
    6   12   10      2.60      0.00
    7   12   10      1.36      0.00
    8   12   10      1.61      0.00
    9   12   10      1.49      0.00
   10   12   10      0.62      0.00
   11   12   10      1.17      0.00
   12   12   10      0.59      0.00
   13   12   10      0.53      0.00
   14   12   10      1.44      0.00
   15   12   10      0.21      0.00
   16   12   10      2.26      0.00
   17   12   10      0.66      0.00
   18   12   10      2.25      0.00
   19   12   10      1.48      0.00
   20   12   10      1.37      0.00
   21   12   10      1.79      0.00
   22   12   10      0.21      0.00
   23   12   10      1.25      0.00
    1   13   10     -7.01      0.00
    2   13   10     -1.41      0.00
    3   13   10     -6.17      0.00
    4   13   10     -1.93      0.00
    5   13   10     -4.53      0.00
    6   13   10     -1.41      0.00
    7   13   10     -2.55      0.00
    8   13   10     -0.44      0.00
    9   13   10     -0.93      0.00
   10   13   10      0.41      0.00
   11   13   10     -0.05      0.00
   12   13   10      0.95      0.00
   13   13   10      0.33      0.00
   14   13   10      1.03      0.00
   15   13   10      0.61      0.00
   16   13   10      0.46      0.00
   17   13   10      0.85      0.00
   18   13   10     -0.62      0.00
   19   13   10      0.93      0.00
   20   13   10     -1.54      0.00
   21   13   10      0.87      0.00
   22   13   10     -1.63      0.00
    0   14   10      9.76      0.00
    1   14   10      0.90      0.00
    2   14   10      8.47      0.00
    3   14   10      2.24      0.00
    4   14   10      5.35      0.00
    5   14   10      2.29      0.00
    6   14   10      2.10      0.00
    7   14   10      1.03      0.00
    8   14   10      0.03      0.00
    9   14   10     -0.75      0.00
   10   14   10     -0.83      0.00
   11   14   10     -1.98      0.00
   12   14   10     -1.31      0.00
   13   14   10     -2.12      0.00
   14   14   10     -2.14      0.00
   15   14   10     -1.46      0.00
   16   14   10     -3.21      0.00
   17   14   10     -0.69      0.00
   18   14   10     -3.82      0.00
   19   14   10     -0.18      0.00
   20   14   10     -3.47      0.00
   21   14   10      0.10      0.00
    1   15   10     -4.44      0.00
    2   15   10     -0.54      0.00
    3   15   10     -3.02      0.00
    4   15   10     -0.76      0.00
    5   15   10     -1.22      0.00
    6   15   10     -0.36      0.00
    7   15   10     -0.04      0.00
    8   15   10      0.57      0.00
    9   15   10      0.33      0.00
   10   15   10      1.39      0.00
   11   15   10      0.42      0.00
   12   15   10      1.37      0.00
   13   15   10      0.79      0.00
   14   15   10      0.49      0.00
   15   15   10      1.60      0.00
   16   15   10     -0.44      0.00
   17   15   10      2.52      0.00
   18   15   10     -0.70      0.00
   19   15   10      2.95      0.00
   20   15   10     -0.37      0.00
    0   16   10     -0.16      0.00
    1   16   10     -0.03      0.00
    2   16   10     -0.09      0.00
    3   16   10     -0.27      0.00
    4   16   10      0.24      0.00
    5   16   10     -0.62      0.00
    6   16   10      0.84      0.00
    7   16   10     -0.74      0.00
    8   16   10      1.35      0.00
    9   16   10     -0.28      0.00
   10   16   10      1.35      0.00
   11   16   10      0.76      0.00
   12   16   10      0.88      0.00
   13   16   10      1.95      0.00
   14   16   10      0.38      0.00
   15   16   10      2.74      0.00
   16   16   10      0.18      0.00
   17   16   10      2.73      0.00
   18   16   10      0.23      0.00
   19   16   10      1.96      0.00
    1   17   10      0.71      0.00
    2   17   10     -0.20      0.00
    3   17   10      0.44      0.00
    4   17   10      0.00      0.00
    5   17   10     -0.06      0.00
    6   17   10      0.29      0.00
    7   17   10     -0.59      0.00
    8   17   10     -0.02      0.00
    9   17   10     -0.75      0.00
   10   17   10     -1.03      0.00
   11   17   10     -0.39      0.00
   12   17   10     -2.12      0.00
   13   17   10      0.11      0.00
   14   17   10     -2.59      0.00
   15   17   10      0.14      0.00
   16   17   10     -2.26      0.00
   17   17   10     -0.44      0.00
    0   18   10      0.14      0.00
    1   18   10     -0.10      0.00
    2   18   10      0.26      0.00
    3   18   10     -0.29      0.00
    4   18   10      0.41      0.00
    5   18   10     -0.42      0.00
    6   18   10      0.24      0.00
    7   18   10     -0.36      0.00
    8   18   10     -0.31      0.00
    9   18   10     -0.10      0.00
   10   18   10     -0.95      0.00
   11   18   10      0.18      0.00
   12   18   10     -1.39      0.00
   13   18   10      0.26      0.00
   14   18   10     -1.51      0.00
   15   18   10      0.09      0.00
   16   18   10     -1.28      0.00
    1   19   10     -1.01      0.00
    2   19   10      0.87      0.00
    3   19   10     -1.63      0.00
    4   19   10      1.12      0.00
    5   19   10     -1.90      0.00
    6   19   10      0.74      0.00
    7   19   10     -1.05      0.00
    8   19   10      0.28      0.00
    9   19   10      0.48      0.00
   10   19   10      0.17      0.00
   11   19   10      1.63      0.00
   12   19   10      0.36      0.00
   13   19   10      1.88      0.00
    0   20   10      0.62      0.00
    1   20   10     -0.17      0.00
    2   20   10      0.76      0.00
    3   20   10     -0.35      0.00
    4   20   10      0.95      0.00
    5   20   10     -0.09      0.00
    6   20   10      0.67      0.00
    7   20   10      0.34      0.00
    8   20   10     -0.16      0.00
    9   20   10      0.58      0.00
   10   20   10     -1.03      0.00
   11   20   10      0.48      0.00
    1   21   10      0.06      0.00
    2   21   10     -0.46      0.00
    3   21   10      0.88      0.00
    4   21   10     -0.75      0.00
    5   21   10      1.67      0.00
    6   21   10     -0.82      0.00
    7   21   10      1.65      0.00
    1    1   11     10.30      0.00
    2    1   11      4.55      0.00
    3    1   11      6.82      0.00
    4    1   11      6.70      0.00
    5    1   11      2.68      0.00
    6    1   11      5.99      0.00
    7    1   11      0.33      0.00
    8    1   11      3.68      0.00
    9    1   11     -0.40      0.00
   10    1   11      1.33      0.00
   11    1   11     -0.93      0.00
   12    1   11     -0.13      0.00
   13    1   11     -1.40      0.00
   14    1   11     -0.41      0.00
   15    1   11     -0.78      0.00
   16    1   11      0.24      0.00
   17    1   11      1.09      0.00
   18    1   11      1.08      0.00
   19    1   11      2.81      0.00
   20    1   11      1.42      0.00
   21    1   11      2.89      0.00
   22    1   11      1.28      0.00
   23    1   11      1.40      0.00
   24    1   11      1.21      0.00
   25    1   11     -0.33      0.00
   26    1   11      1.47      0.00
   27    1   11     -1.24      0.00
    0    2   11     -5.55      0.00
    1    2   11     -3.29      0.00
    2    2   11     -3.88      0.00
    3    2   11     -8.14      0.00
    4    2   11     -0.10      0.00
    5    2   11     -9.23      0.00
    6    2   11      3.20      0.00
    7    2   11     -7.14      0.00
    8    2   11      4.36      0.00
    9    2   11     -3.96      0.00
   10    2   11      3.64      0.00
   11    2   11     -1.51      0.00
   12    2   11      2.24      0.00
   13    2   11     -0.51      0.00
   14    2   11      0.92      0.00
   15    2   11     -0.74      0.00
   16    2   11     -0.23      0.00
   17    2   11     -1.42      0.00
   18    2   11     -1.17      0.00
   19    2   11     -1.72      0.00
   20    2   11     -1.59      0.00
   21    2   11     -1.44      0.00
   22    2   11     -1.20      0.00
   23    2   11     -1.09      0.00
   24    2   11     -0.23      0.00
   25    2   11     -1.10      0.00
   26    2   11      0.72      0.00
   27    2   11     -1.28      0.00
    1    3   11      2.76      0.00
    2    3   11      3.65      0.00
    3    3   11      1.08      0.00
    4    3   11      5.62      0.00
    5    3   11     -1.69      0.00
    6    3   11      5.30      0.00
    7    3   11     -4.00      0.00
    8    3   11      3.40      0.00
    9    3   11     -4.09      0.00
   10    3   11      1.38      0.00
   11    3   11     -1.78      0.00
   12    3   11      0.29      0.00
   13    3   11      0.95      0.00
   14    3   11      0.24      0.00
   15    3   11      1.85      0.00
   16    3   11      0.61      0.00
   17    3   11      0.72      0.00
   18    3   11      0.82      0.00
   19    3   11     -0.78      0.00
   20    3   11      0.83      0.00
   21    3   11     -1.21      0.00
   22    3   11      0.85      0.00
   23    3   11     -0.73      0.00
   24    3   11      0.95      0.00
   25    3   11     -0.30      0.00
   26    3   11      0.91      0.00
   27    3   11     -0.30      0.00
    0    4   11     -3.98      0.00
    1    4   11      0.33      0.00
    2    4   11     -3.46      0.00
    3    4   11      0.72      0.00
    4    4   11     -2.19      0.00
    5    4   11      0.82      0.00
    6    4   11     -0.80      0.00
    7    4   11      1.03      0.00
    8    4   11     -0.19      0.00
    9    4   11      1.50      0.00
   10    4   11     -0.81      0.00
   11    4   11      1.81      0.00
   12    4   11     -1.92      0.00
   13    4   11      1.64      0.00
   14    4   11     -2.25      0.00
   15    4   11      1.21      0.00
   16    4   11     -1.27      0.00
   17    4   11      0.96      0.00
   18    4   11      0.26      0.00
   19    4   11      0.90      0.00
   20    4   11      1.23      0.00
   21    4   11      0.73      0.00
   22    4   11      1.28      0.00
   23    4   11      0.37      0.00
   24    4   11      0.92      0.00
   25    4   11      0.07      0.00
   26    4   11      0.67      0.00
   27    4   11     -0.04      0.00
    1    5   11     -2.48      0.00
    2    5   11     -2.81      0.00
    3    5   11     -1.83      0.00
    4    5   11     -4.39      0.00
    5    5   11     -0.28      0.00
    6    5   11     -4.52      0.00
    7    5   11      1.65      0.00
    8    5   11     -3.84      0.00
    9    5   11      2.62      0.00
   10    5   11     -2.99      0.00
   11    5   11      1.84      0.00
   12    5   11     -2.19      0.00
   13    5   11      0.11      0.00
   14    5   11     -1.53      0.00
   15    5   11     -1.05      0.00
   16    5   11     -1.22      0.00
   17    5   11     -1.07      0.00
   18    5   11     -1.40      0.00
   19    5   11     -0.72      0.00
   20    5   11     -1.91      0.00
   21    5   11     -0.86      0.00
   22    5   11     -2.32      0.00
   23    5   11     -1.43      0.00
   24    5   11     -2.29      0.00
   25    5   11     -1.78      0.00
   26    5   11     -1.69      0.00
   27    5   11     -1.53      0.00
    0    6   11      3.59      0.00
    1    6   11      0.85      0.00
    2    6   11      2.89      0.00
    3    6   11      2.44      0.00
    4    6   11      1.04      0.00
    5    6   11      3.24      0.00
    6    6   11     -0.98      0.00
    7    6   11      3.03      0.00
    8    6   11     -1.90      0.00
    9    6   11      2.12      0.00
   10    6   11     -1.16      0.00
   11    6   11      1.16      0.00
   12    6   11      0.45      0.00
   13    6   11      0.60      0.00
   14    6   11      1.54      0.00
   15    6   11      0.46      0.00
   16    6   11      1.59      0.00
   17    6   11      0.52      0.00
   18    6   11      1.33      0.00
   19    6   11      0.78      0.00
   20    6   11      1.63      0.00
   21    6   11      1.28      0.00
   22    6   11      2.33      0.00
   23    6   11      1.76      0.00
   24    6   11      2.55      0.00
   25    6   11      1.72      0.00
   26    6   11      1.89      0.00
    1    7   11      2.07      0.00
    2    7   11      0.40      0.00
    3    7   11      2.36      0.00
    4    7   11      0.30      0.00
    5    7   11      2.11      0.00
    6    7   11     -0.05      0.00
    7    7   11      0.92      0.00
    8    7   11     -0.15      0.00
    9    7   11     -0.36      0.00
   10    7   11      0.02      0.00
   11    7   11     -0.63      0.00
   12    7   11     -0.01      0.00
   13    7   11      0.09      0.00
   14    7   11     -0.44      0.00
   15    7   11      0.61      0.00
   16    7   11     -0.87      0.00
   17    7   11      0.01      0.00
   18    7   11     -0.77      0.00
   19    7   11     -1.35      0.00
   20    7   11     -0.22      0.00
   21    7   11     -2.29      0.00
   22    7   11      0.23      0.00
   23    7   11     -2.04      0.00
   24    7   11      0.30      0.00
   25    7   11     -0.89      0.00
   26    7   11      0.17      0.00
    0    8   11     -1.45      0.00
    1    8   11     -0.39      0.00
    2    8   11     -1.29      0.00
    3    8   11     -1.10      0.00
    4    8   11     -0.68      0.00
    5    8   11     -1.36      0.00
    6    8   11      0.35      0.00
    7    8   11     -1.24      0.00
    8    8   11      1.08      0.00
    9    8   11     -0.98      0.00
   10    8   11      0.70      0.00
   11    8   11     -0.67      0.00
   12    8   11     -0.52      0.00
   13    8   11     -0.17      0.00
   14    8   11     -1.37      0.00
   15    8   11      0.56      0.00
   16    8   11     -1.07      0.00
   17    8   11      1.13      0.00
   18    8   11     -0.16      0.00
   19    8   11      1.05      0.00
   20    8   11      0.19      0.00
   21    8   11      0.28      0.00
   22    8   11     -0.38      0.00
   23    8   11     -0.54      0.00
   24    8   11     -1.17      0.00
   25    8   11     -0.75      0.00
   26    8   11     -1.36      0.00
    1    9   11     -0.07      0.00
    2    9   11     -0.29      0.00
    3    9   11     -0.30      0.00
    4    9   11      0.07      0.00
    5    9   11     -0.41      0.00
    6    9   11      0.89      0.00
    7    9   11     -0.07      0.00
    8    9   11      1.55      0.00
    9    9   11      0.55      0.00
   10    9   11      1.70      0.00
   11    9   11      0.90      0.00
   12    9   11      1.45      0.00
   13    9   11      0.69      0.00
   14    9   11      0.99      0.00
   15    9   11      0.28      0.00
   16    9   11      0.31      0.00
   17    9   11      0.33      0.00
   18    9   11     -0.44      0.00
   19    9   11      1.11      0.00
   20    9   11     -0.82      0.00
   21    9   11      2.13      0.00
   22    9   11     -0.55      0.00
   23    9   11      2.50      0.00
   24    9   11     -0.02      0.00
   25    9   11      1.83      0.00
    0   10   11     -0.89      0.00
    1   10   11      0.71      0.00
    2   10   11     -1.03      0.00
    3   10   11      1.43      0.00
    4   10   11     -1.24      0.00
    5   10   11      0.79      0.00
    6   10   11     -1.41      0.00
    7   10   11     -0.67      0.00
    8   10   11     -1.25      0.00
    9   10   11     -1.78      0.00
   10   10   11     -0.58      0.00
   11   10   11     -1.83      0.00
   12   10   11      0.23      0.00
   13   10   11     -1.11      0.00
   14   10   11      0.46      0.00
   15   10   11     -0.34      0.00
   16   10   11     -0.14      0.00
   17   10   11      0.11      0.00
   18   10   11     -1.11      0.00
   19   10   11      0.34      0.00
   20   10   11     -1.70      0.00
   21   10   11      0.49      0.00
   22   10   11     -1.62      0.00
   23   10   11      0.49      0.00
   24   10   11     -1.09      0.00
    1   11   11     -0.56      0.00
    2   11   11     -1.46      0.00
    3   11   11      0.30      0.00
    4   11   11     -2.07      0.00
    5   11   11      1.22      0.00
    6   11   11     -1.49      0.00
    7   11   11      1.39      0.00
    8   11   11     -0.19      0.00
    9   11   11      0.64      0.00
   10   11   11      0.66      0.00
   11   11   11     -0.34      0.00
   12   11   11      0.27      0.00
   13   11   11     -0.61      0.00
   14   11   11     -0.89      0.00
   15   11   11      0.02      0.00
   16   11   11     -1.63      0.00
   17   11   11      0.82      0.00
   18   11   11     -1.36      0.00
   19   11   11      0.98      0.00
   20   11   11     -0.63      0.00
   21   11   11      0.50      0.00
   22   11   11     -0.22      0.00
   23   11   11      0.05      0.00
   24   11   11     -0.27      0.00
    0   12   11      0.82      0.00
    1   12   11      0.41      0.00
    2   12   11      0.53      0.00
    3   12   11      1.22      0.00
    4   12   11     -0.24      0.00
    5   12   11      1.78      0.00
    6   12   11     -1.18      0.00
    7   12   11      1.71      0.00
    8   12   11     -1.84      0.00
    9   12   11      1.10      0.00
   10   12   11     -1.82      0.00
   11   12   11      0.63      0.00
   12   12   11     -1.15      0.00
   13   12   11      0.88      0.00
   14   12   11     -0.31      0.00
   15   12   11      1.61      0.00
   16   12   11      0.19      0.00
   17   12   11      1.97      0.00
   18   12   11      0.19      0.00
   19   12   11      1.52      0.00
   20   12   11     -0.04      0.00
   21   12   11      0.65      0.00
   22   12   11     -0.19      0.00
   23   12   11      0.05      0.00
    1   13   11      0.54      0.00
    2   13   11      0.48      0.00
    3   13   11      0.14      0.00
    4   13   11      0.39      0.00
    5   13   11      0.07      0.00
    6   13   11     -0.30      0.00
    7   13   11      0.81      0.00
    8   13   11     -1.18      0.00
    9   13   11      1.90      0.00
   10   13   11     -1.62      0.00
   11   13   11      2.25      0.00
   12   13   11     -1.34      0.00
   13   13   11      1.24      0.00
   14   13   11     -0.76      0.00
   15   13   11     -0.44      0.00
   16   13   11     -0.50      0.00
   17   13   11     -1.41      0.00
   18   13   11     -0.62      0.00
   19   13   11     -1.02      0.00
   20   13   11     -0.66      0.00
   21   13   11      0.04      0.00
   22   13   11     -0.35      0.00
    0   14   11      0.96      0.00
    1   14   11     -0.78      0.00
    2   14   11      0.95      0.00
    3   14   11     -1.83      0.00
    4   14   11      0.83      0.00
    5   14   11     -1.90      0.00
    6   14   11      0.54      0.00
    7   14   11     -0.75      0.00
    8   14   11      0.07      0.00
    9   14   11      0.88      0.00
   10   14   11     -0.39      0.00
   11   14   11      1.66      0.00
   12   14   11     -0.50      0.00
   13   14   11      0.94      0.00
   14   14   11     -0.12      0.00
   15   14   11     -0.55      0.00
   16   14   11      0.40      0.00
   17   14   11     -1.52      0.00
   18   14   11      0.57      0.00
   19   14   11     -1.45      0.00
   20   14   11      0.29      0.00
   21   14   11     -0.81      0.00
    1   15   11     -1.74      0.00
    2   15   11      1.59      0.00
    3   15   11     -0.89      0.00
    4   15   11      2.65      0.00
    5   15   11     -0.06      0.00
    6   15   11      2.80      0.00
    7   15   11     -0.06      0.00
    8   15   11      2.06      0.00
    9   15   11     -0.73      0.00
   10   15   11      1.07      0.00
   11   15   11     -1.10      0.00
   12   15   11      0.66      0.00
   13   15   11     -0.52      0.00
   14   15   11      1.16      0.00
   15   15   11      0.62      0.00
   16   15   11      2.11      0.00
   17   15   11      1.33      0.00
   18   15   11      2.70      0.00
   19   15   11      1.04      0.00
   20   15   11      2.41      0.00
    0   16   11      0.82      0.00
    1   16   11     -0.64      0.00
    2   16   11      0.73      0.00
    3   16   11     -1.75      0.00
    4   16   11      0.66      0.00
    5   16   11     -2.72      0.00
    6   16   11      0.89      0.00
    7   16   11     -3.43      0.00
    8   16   11      1.47      0.00
    9   16   11     -3.66      0.00
   10   16   11      1.91      0.00
   11   16   11     -3.23      0.00
   12   16   11      1.62      0.00
   13   16   11     -2.35      0.00
   14   16   11      0.55      0.00
   15   16   11     -1.58      0.00
   16   16   11     -0.52      0.00
   17   16   11     -1.32      0.00
   18   16   11     -0.79      0.00
    1   17   11     -0.69      0.00
    2   17   11      0.23      0.00
    3   17   11     -1.38      0.00
    4   17   11      0.52      0.00
    5   17   11     -2.19      0.00
    6   17   11      1.09      0.00
    7   17   11     -2.48      0.00
    8   17   11      1.87      0.00
    9   17   11     -2.11      0.00
   10   17   11      2.38      0.00
   11   17   11     -1.50      0.00
   12   17   11      2.16      0.00
   13   17   11     -1.19      0.00
   14   17   11      1.28      0.00
   15   17   11     -1.37      0.00
   16   17   11      0.31      0.00
   17   17   11     -1.67      0.00
    0   18   11      0.06      0.00
    1   18   11      0.11      0.00
    2   18   11      0.22      0.00
    3   18   11      0.50      0.00
    4   18   11      0.60      0.00
    5   18   11      0.91      0.00
    6   18   11      0.88      0.00
    7   18   11      0.92      0.00
    8   18   11      0.81      0.00
    9   18   11      0.33      0.00
   10   18   11      0.54      0.00
   11   18   11     -0.57      0.00
   12   18   11      0.56      0.00
   13   18   11     -1.13      0.00
   14   18   11      1.13      0.00
   15   18   11     -0.96      0.00
    1   19   11      0.12      0.00
    2   19   11      0.08      0.00
    3   19   11      0.31      0.00
    4   19   11     -0.19      0.00
    5   19   11      0.46      0.00
    6   19   11     -0.67      0.00
    7   19   11      0.37      0.00
    8   19   11     -0.80      0.00
    9   19   11      0.04      0.00
   10   19   11     -0.27      0.00
   11   19   11     -0.37      0.00
   12   19   11      0.61      0.00
    0   20   11      1.31      0.00
    1   20   11      0.04      0.00
    2   20   11      1.16      0.00
    3   20   11      0.01      0.00
    4   20   11      0.77      0.00
    5   20   11     -0.01      0.00
    6   20   11      0.27      0.00
    7   20   11      0.04      0.00
    8   20   11     -0.03      0.00
    9   20   11      0.11      0.00
   10   20   11      0.00      0.00
    1   21   11     -1.42      0.00
    2   21   11     -0.66      0.00
    3   21   11     -1.09      0.00
    4   21   11     -0.78      0.00
    5   21   11     -0.50      0.00
    0    0   12      9.11      0.00
    1    0   12     -0.82      0.00
    2    0   12      8.47      0.00
    3    0   12     -2.01      0.00
    4    0   12      7.03      0.00
    5    0   12     -2.40      0.00
    6    0   12      5.40      0.00
    7    0   12     -2.51      0.00
    8    0   12      3.40      0.00
    9    0   12     -2.97      0.00
   10    0   12      0.81      0.00
   11    0   12     -3.68      0.00
   12    0   12     -1.50      0.00
   13    0   12     -3.81      0.00
   14    0   12     -2.27      0.00
   15    0   12     -2.71      0.00
   16    0   12     -1.43      0.00
   17    0   12     -0.57      0.00
   18    0   12     -0.30      0.00
   19    0   12      1.57      0.00
   20    0   12      0.21      0.00
   21    0   12      2.50      0.00
   22    0   12      0.54      0.00
   23    0   12      1.82      0.00
   24    0   12      1.31      0.00
   25    0   12      0.29      0.00
   26    0   12      2.11      0.00
   27    0   12     -0.82      0.00
    1    1   12     -1.12      0.00
    2    1   12      0.93      0.00
    3    1   12     -1.12      0.00
    4    1   12      1.52      0.00
    5    1   12     -1.09      0.00
    6    1   12      1.81      0.00
    7    1   12     -0.86      0.00
    8    1   12      2.01      0.00
    9    1   12     -0.24      0.00
   10    1   12      2.17      0.00
   11    1   12      0.67      0.00
   12    1   12      2.12      0.00
   13    1   12      1.45      0.00
   14    1   12      1.62      0.00
   15    1   12      1.74      0.00
   16    1   12      0.70      0.00
   17    1   12      1.52      0.00
   18    1   12     -0.29      0.00
   19    1   12      0.96      0.00
   20    1   12     -0.82      0.00
   21    1   12      0.18      0.00
   22    1   12     -0.53      0.00
   23    1   12     -0.70      0.00
   24    1   12      0.39      0.00
   25    1   12     -1.34      0.00
   26    1   12      1.21      0.00
   27    1   12     -1.42      0.00
    0    2   12     -5.21      0.00
    1    2   12      0.10      0.00
    2    2   12     -4.61      0.00
    3    2   12      0.12      0.00
    4    2   12     -3.38      0.00
    5    2   12     -0.18      0.00
    6    2   12     -2.29      0.00
    7    2   12     -0.42      0.00
    8    2   12     -1.40      0.00
    9    2   12     -0.18      0.00
   10    2   12     -0.43      0.00
   11    2   12      0.49      0.00
   12    2   12      0.22      0.00
   13    2   12      1.05      0.00
   14    2   12     -0.12      0.00
   15    2   12      0.96      0.00
   16    2   12     -1.16      0.00
   17    2   12      0.21      0.00
   18    2   12     -1.67      0.00
   19    2   12     -0.77      0.00
   20    2   12     -1.00      0.00
   21    2   12     -1.47      0.00
   22    2   12      0.05      0.00
   23    2   12     -1.72      0.00
   24    2   12      0.36      0.00
   25    2   12     -1.63      0.00
   26    2   12     -0.10      0.00
   27    2   12     -1.38      0.00
    1    3   12     -0.19      0.00
    2    3   12     -0.36      0.00
    3    3   12     -0.77      0.00
    4    3   12     -0.54      0.00
    5    3   12     -1.29      0.00
    6    3   12     -0.72      0.00
    7    3   12     -1.37      0.00
    8    3   12     -1.16      0.00
    9    3   12     -1.19      0.00
   10    3   12     -1.77      0.00
   11    3   12     -0.97      0.00
   12    3   12     -2.10      0.00
   13    3   12     -0.63      0.00
   14    3   12     -1.69      0.00
   15    3   12     -0.22      0.00
   16    3   12     -0.56      0.00
   17    3   12     -0.10      0.00
   18    3   12      0.77      0.00
   19    3   12     -0.40      0.00
   20    3   12      1.56      0.00
   21    3   12     -0.61      0.00
   22    3   12      1.46      0.00
   23    3   12     -0.13      0.00
   24    3   12      0.81      0.00
   25    3   12      0.82      0.00
   26    3   12      0.29      0.00
   27    3   12      1.45      0.00
    0    4   12      1.89      0.00
    1    4   12     -0.45      0.00
    2    4   12      2.09      0.00
    3    4   12     -0.92      0.00
    4    4   12      2.61      0.00
    5    4   12     -0.57      0.00
    6    4   12      3.05      0.00
    7    4   12      0.40      0.00
    8    4   12      2.73      0.00
    9    4   12      1.33      0.00
   10    4   12      1.44      0.00
   11    4   12      1.59      0.00
   12    4   12      0.03      0.00
   13    4   12      1.07      0.00
   14    4   12     -0.25      0.00
   15    4   12      0.12      0.00
   16    4   12      0.76      0.00
   17    4   12     -0.76      0.00
   18    4   12      1.84      0.00
   19    4   12     -1.19      0.00
   20    4   12      1.71      0.00
   21    4   12     -0.96      0.00
   22    4   12      0.41      0.00
   23    4   12     -0.26      0.00
   24    4   12     -0.92      0.00
   25    4   12      0.37      0.00
   26    4   12     -1.39      0.00
    1    5   12     -1.08      0.00
    2    5   12      1.75      0.00
    3    5   12     -1.07      0.00
    4    5   12      2.58      0.00
    5    5   12     -1.18      0.00
    6    5   12      2.30      0.00
    7    5   12     -1.20      0.00
    8    5   12      1.40      0.00
    9    5   12     -0.83      0.00
   10    5   12      0.69      0.00
   11    5   12     -0.29      0.00
   12    5   12      0.63      0.00
   13    5   12     -0.32      0.00
   14    5   12      1.00      0.00
   15    5   12     -1.11      0.00
   16    5   12      1.25      0.00
   17    5   12     -1.74      0.00
   18    5   12      1.10      0.00
   19    5   12     -1.18      0.00
   20    5   12      0.61      0.00
   21    5   12      0.38      0.00
   22    5   12      0.04      0.00
   23    5   12      1.67      0.00
   24    5   12     -0.40      0.00
   25    5   12      1.76      0.00
   26    5   12     -0.54      0.00
    0    6   12      2.43      0.00
    1    6   12     -0.51      0.00
    2    6   12      1.80      0.00
    3    6   12     -1.60      0.00
    4    6   12      0.32      0.00
    5    6   12     -2.55      0.00
    6    6   12     -1.19      0.00
    7    6   12     -3.07      0.00
    8    6   12     -1.79      0.00
    9    6   12     -3.08      0.00
   10    6   12     -1.05      0.00
   11    6   12     -2.81      0.00
   12    6   12      0.52      0.00
   13    6   12     -2.50      0.00
   14    6   12      1.69      0.00
   15    6   12     -2.10      0.00
   16    6   12      1.51      0.00
   17    6   12     -1.41      0.00
   18    6   12      0.08      0.00
   19    6   12     -0.55      0.00
   20    6   12     -1.59      0.00
   21    6   12      0.07      0.00
   22    6   12     -2.45      0.00
   23    6   12      0.19      0.00
   24    6   12     -2.16      0.00
   25    6   12     -0.01      0.00
   26    6   12     -1.16      0.00
    1    7   12      0.83      0.00
    2    7   12     -0.41      0.00
    3    7   12      2.05      0.00
    4    7   12     -0.08      0.00
    5    7   12      3.63      0.00
    6    7   12      0.95      0.00
    7    7   12      4.31      0.00
    8    7   12      2.12      0.00
    9    7   12      3.42      0.00
   10    7   12      2.75      0.00
   11    7   12      1.53      0.00
   12    7   12      2.61      0.00
   13    7   12      0.13      0.00
   14    7   12      1.94      0.00
   15    7   12      0.19      0.00
   16    7   12      1.12      0.00
   17    7   12      1.21      0.00
   18    7   12      0.44      0.00
   19    7   12      1.92      0.00
   20    7   12      0.13      0.00
   21    7   12      1.66      0.00
   22    7   12      0.32      0.00
   23    7   12      0.83      0.00
   24    7   12      0.80      0.00
   25    7   12      0.13      0.00
    0    8   12     -3.07      0.00
    1    8   12      0.61      0.00
    2    8   12     -3.40      0.00
    3    8   12      1.50      0.00
    4    8   12     -4.02      0.00
    5    8   12      1.62      0.00
    6    8   12     -4.01      0.00
    7    8   12      0.87      0.00
    8    8   12     -3.00      0.00
    9    8   12     -0.20      0.00
   10    8   12     -1.62      0.00
   11    8   12     -0.75      0.00
   12    8   12     -0.93      0.00
   13    8   12     -0.50      0.00
   14    8   12     -1.26      0.00
   15    8   12      0.07      0.00
   16    8   12     -1.85      0.00
   17    8   12      0.30      0.00
   18    8   12     -1.64      0.00
   19    8   12      0.03      0.00
   20    8   12     -0.40      0.00
   21    8   12     -0.42      0.00
   22    8   12      1.05      0.00
   23    8   12     -0.71      0.00
   24    8   12      1.70      0.00
   25    8   12     -0.78      0.00
    1    9   12      0.66      0.00
    2    9   12     -1.10      0.00
    3    9   12      0.92      0.00
    4    9   12     -1.87      0.00
    5    9   12      1.02      0.00
    6    9   12     -1.91      0.00
    7    9   12      0.65      0.00
    8    9   12     -1.35      0.00
    9    9   12      0.03      0.00
   10    9   12     -0.74      0.00
   11    9   12     -0.31      0.00
   12    9   12     -0.54      0.00
   13    9   12     -0.18      0.00
   14    9   12     -0.62      0.00
   15    9   12      0.11      0.00
   16    9   12     -0.51      0.00
   17    9   12      0.09      0.00
   18    9   12     -0.04      0.00
   19    9   12     -0.42      0.00
   20    9   12      0.40      0.00
   21    9   12     -1.21      0.00
   22    9   12      0.39      0.00
   23    9   12     -1.77      0.00
   24    9   12      0.02      0.00
    0   10   12      0.05      0.00
    1   10   12      0.28      0.00
    2   10   12      0.24      0.00
    3   10   12      0.68      0.00
    4   10   12      0.65      0.00
    5   10   12      0.63      0.00
    6   10   12      0.89      0.00
    7   10   12      0.41      0.00
    8   10   12      0.75      0.00
    9   10   12      0.41      0.00
   10   10   12      0.45      0.00
   11   10   12      0.65      0.00
   12   10   12      0.45      0.00
   13   10   12      0.81      0.00
   14   10   12      0.88      0.00
   15   10   12      0.61      0.00
   16   10   12      1.33      0.00
   17   10   12      0.16      0.00
   18   10   12      1.32      0.00
   19   10   12     -0.20      0.00
   20   10   12      0.86      0.00
   21   10   12     -0.28      0.00
   22   10   12      0.42      0.00
   23   10   12     -0.14      0.00
   24   10   12      0.31      0.00
    1   11   12     -0.88      0.00
    2   11   12      0.54      0.00
    3   11   12     -1.34      0.00
    4   11   12      1.00      0.00
    5   11   12     -1.68      0.00
    6   11   12      0.91      0.00
    7   11   12     -1.27      0.00
    8   11   12      0.14      0.00
    9   11   12     -0.28      0.00
   10   11   12     -0.91      0.00
   11   11   12      0.46      0.00
   12   11   12     -1.55      0.00
   13   11   12      0.30      0.00
   14   11   12     -1.52      0.00
   15   11   12     -0.55      0.00
   16   11   12     -1.13      0.00
   17   11   12     -1.24      0.00
   18   11   12     -0.70      0.00
   19   11   12     -1.11      0.00
   20   11   12     -0.29      0.00
   21   11   12     -0.28      0.00
   22   11   12      0.14      0.00
   23   11   12      0.54      0.00
    0   12   12      2.65      0.00
    1   12   12     -0.70      0.00
    2   12   12      2.48      0.00
    3   12   12     -1.72      0.00
    4   12   12      1.95      0.00
    5   12   12     -1.46      0.00
    6   12   12      1.01      0.00
    7   12   12     -0.16      0.00
    8   12   12     -0.05      0.00
    9   12   12      1.21      0.00
   10   12   12     -0.75      0.00
   11   12   12      1.78      0.00
   12   12   12     -0.83      0.00
   13   12   12      1.53      0.00
   14   12   12     -0.40      0.00
   15   12   12      1.04      0.00
   16   12   12      0.17      0.00
   17   12   12      0.67      0.00
   18   12   12      0.54      0.00
   19   12   12      0.33      0.00
   20   12   12      0.47      0.00
   21   12   12     -0.09      0.00
   22   12   12      0.00      0.00
    1   13   12      0.34      0.00
    2   13   12      1.06      0.00
    3   13   12      0.45      0.00
    4   13   12      1.23      0.00
    5   13   12      0.59      0.00
    6   13   12      0.59      0.00
    7   13   12      0.53      0.00
    8   13   12     -0.18      0.00
    9   13   12      0.16      0.00
   10   13   12     -0.42      0.00
   11   13   12     -0.26      0.00
   12   13   12     -0.08      0.00
   13   13   12     -0.33      0.00
   14   13   12      0.35      0.00
   15   13   12      0.01      0.00
   16   13   12      0.49      0.00
   17   13   12      0.35      0.00
   18   13   12      0.40      0.00
   19   13   12      0.36      0.00
   20   13   12      0.29      0.00
   21   13   12      0.08      0.00
    0   14   12     -3.83      0.00
    1   14   12      0.05      0.00
    2   14   12     -3.38      0.00
    3   14   12      0.13      0.00
    4   14   12     -2.18      0.00
    5   14   12     -0.11      0.00
    6   14   12     -0.50      0.00
    7   14   12     -0.57      0.00
    8   14   12      1.07      0.00
    9   14   12     -0.89      0.00
   10   14   12      1.83      0.00
   11   14   12     -0.87      0.00
   12   14   12      1.55      0.00
   13   14   12     -0.58      0.00
   14   14   12      0.64      0.00
   15   14   12     -0.28      0.00
   16   14   12     -0.16      0.00
   17   14   12     -0.07      0.00
   18   14   12     -0.41      0.00
   19   14   12      0.15      0.00
   20   14   12     -0.18      0.00
    1   15   12      2.82      0.00
    2   15   12     -0.91      0.00
    3   15   12      2.33      0.00
    4   15   12     -1.05      0.00
    5   15   12      1.32      0.00
    6   15   12     -0.45      0.00
    7   15   12      0.06      0.00
    8   15   12      0.27      0.00
    9   15   12     -0.76      0.00
   10   15   12      0.47      0.00
   11   15   12     -0.81      0.00
   12   15   12      0.07      0.00
   13   15   12     -0.44      0.00
   14   15   12     -0.43      0.00
   15   15   12     -0.28      0.00
   16   15   12     -0.63      0.00
   17   15   12     -0.48      0.00
   18   15   12     -0.57      0.00
   19   15   12     -0.67      0.00
    0   16   12     -1.62      0.00
    1   16   12      0.26      0.00
    2   16   12     -1.68      0.00
    3   16   12      0.64      0.00
    4   16   12     -1.79      0.00
    5   16   12      0.73      0.00
    6   16   12     -1.80      0.00
    7   16   12      0.49      0.00
    8   16   12     -1.60      0.00
    9   16   12      0.10      0.00
   10   16   12     -1.11      0.00
   11   16   12     -0.22      0.00
   12   16   12     -0.30      0.00
   13   16   12     -0.34      0.00
   14   16   12      0.63      0.00
   15   16   12     -0.30      0.00
   16   16   12      1.25      0.00
   17   16   12     -0.24      0.00
    1   17   12      0.64      0.00
    2   17   12     -0.05      0.00
    3   17   12      0.29      0.00
    4   17   12     -0.24      0.00
    5   17   12      0.05      0.00
    6   17   12     -0.38      0.00
    7   17   12      0.12      0.00
    8   17   12     -0.29      0.00
    9   17   12      0.11      0.00
   10   17   12      0.08      0.00
   11   17   12     -0.43      0.00
   12   17   12      0.56      0.00
   13   17   12     -1.27      0.00
   14   17   12      0.89      0.00
   15   17   12     -1.74      0.00
   16   17   12      0.94      0.00
    0   18   12      0.75      0.00
    1   18   12      0.15      0.00
    2   18   12      0.96      0.00
    3   18   12      0.42      0.00
    4   18   12      1.35      0.00
    5   18   12      0.53      0.00
    6   18   12      1.58      0.00
    7   18   12      0.50      0.00
    8   18   12      1.56      0.00
    9   18   12      0.42      0.00
   10   18   12      1.43      0.00
   11   18   12      0.29      0.00
   12   18   12      1.29      0.00
   13   18   12      0.07      0.00
   14   18   12      1.09      0.00
    1   19   12     -0.27      0.00
    2   19   12      0.01      0.00
    3   19   12      0.05      0.00
    4   19   12      0.00      0.00
    5   19   12      0.25      0.00
    6   19   12     -0.06      0.00
    7   19   12      0.02      0.00
    8   19   12     -0.11      0.00
    9   19   12     -0.34      0.00
   10   19   12     -0.16      0.00
   11   19   12     -0.35      0.00
    0   20   12     -0.95      0.00
    1   20   12     -0.34      0.00
    2   20   12     -1.04      0.00
    3   20   12     -0.79      0.00
    4   20   12     -1.10      0.00
    5   20   12     -0.78      0.00
    6   20   12     -0.89      0.00
    7   20   12     -0.49      0.00
    8   20   12     -0.49      0.00
    1   21   12      1.01      0.00
    1    1   13     -3.57      0.00
    2    1   13      2.06      0.00
    3    1   13     -3.32      0.00
    4    1   13      2.80      0.00
    5    1   13     -3.06      0.00
    6    1   13      2.34      0.00
    7    1   13     -2.74      0.00
    8    1   13      1.90      0.00
    9    1   13     -2.07      0.00
   10    1   13      2.08      0.00
   11    1   13     -1.15      0.00
   12    1   13      2.35      0.00
   13    1   13     -0.61      0.00
   14    1   13      2.14      0.00
   15    1   13     -0.81      0.00
   16    1   13      1.70      0.00
   17    1   13     -1.15      0.00
   18    1   13      1.62      0.00
   19    1   13     -0.76      0.00
   20    1   13      1.79      0.00
   21    1   13      0.31      0.00
   22    1   13      1.50      0.00
   23    1   13      1.09      0.00
   24    1   13      0.52      0.00
   25    1   13      0.87      0.00
   26    1   13     -0.51      0.00
    0    2   13     -1.39      0.00
    1    2   13     -0.42      0.00
    2    2   13     -1.34      0.00
    3    2   13     -1.23      0.00
    4    2   13     -1.00      0.00
    5    2   13     -2.09      0.00
    6    2   13     -0.26      0.00
    7    2   13     -3.01      0.00
    8    2   13      0.60      0.00
    9    2   13     -3.78      0.00
   10    2   13      1.00      0.00
   11    2   13     -3.90      0.00
   12    2   13      0.69      0.00
   13    2   13     -3.17      0.00
   14    2   13      0.05      0.00
   15    2   13     -2.08      0.00
   16    2   13     -0.35      0.00
   17    2   13     -1.44      0.00
   18    2   13     -0.39      0.00
   19    2   13     -1.51      0.00
   20    2   13     -0.39      0.00
   21    2   13     -1.77      0.00
   22    2   13     -0.56      0.00
   23    2   13     -1.58      0.00
   24    2   13     -0.67      0.00
   25    2   13     -0.99      0.00
   26    2   13     -0.48      0.00
    1    3   13      3.11      0.00
    2    3   13     -2.00      0.00
    3    3   13      3.26      0.00
    4    3   13     -1.95      0.00
    5    3   13      3.22      0.00
    6    3   13      0.12      0.00
    7    3   13      2.60      0.00
    8    3   13      2.34      0.00
    9    3   13      1.37      0.00
   10    3   13      3.15      0.00
   11    3   13      0.20      0.00
   12    3   13      2.57      0.00
   13    3   13     -0.04      0.00
   14    3   13      1.52      0.00
   15    3   13      0.62      0.00
   16    3   13      0.67      0.00
   17    3   13      1.21      0.00
   18    3   13      0.18      0.00
   19    3   13      0.90      0.00
   20    3   13      0.08      0.00
   21    3   13      0.06      0.00
   22    3   13      0.41      0.00
   23    3   13     -0.37      0.00
   24    3   13      1.01      0.00
   25    3   13     -0.04      0.00
   26    3   13      1.47      0.00
    0    4   13     -0.19      0.00
    1    4   13      1.40      0.00
    2    4   13     -0.67      0.00
    3    4   13      3.32      0.00
    4    4   13     -1.76      0.00
    5    4   13      3.37      0.00
    6    4   13     -2.77      0.00
    7    4   13      2.25      0.00
    8    4   13     -2.94      0.00
    9    4   13      1.22      0.00
   10    4   13     -2.03      0.00
   11    4   13      0.72      0.00
   12    4   13     -0.62      0.00
   13    4   13      0.51      0.00
   14    4   13      0.38      0.00
   15    4   13      0.46      0.00
   16    4   13      0.59      0.00
   17    4   13      0.68      0.00
   18    4   13      0.40      0.00
   19    4   13      1.03      0.00
   20    4   13      0.37      0.00
   21    4   13      0.97      0.00
   22    4   13      0.56      0.00
   23    4   13      0.29      0.00
   24    4   13      0.62      0.00
   25    4   13     -0.52      0.00
   26    4   13      0.34      0.00
    1    5   13     -0.33      0.00
    2    5   13     -0.50      0.00
    3    5   13      0.68      0.00
    4    5   13     -1.65      0.00
    5    5   13      1.89      0.00
    6    5   13     -3.14      0.00
    7    5   13      2.47      0.00
    8    5   13     -4.04      0.00
    9    5   13      2.02      0.00
   10    5   13     -3.82      0.00
   11    5   13      0.68      0.00
   12    5   13     -2.95      0.00
   13    5   13     -1.01      0.00
   14    5   13     -2.24      0.00
   15    5   13     -2.17      0.00
   16    5   13     -2.04      0.00
   17    5   13     -2.18      0.00
   18    5   13     -1.98      0.00
   19    5   13     -1.26      0.00
   20    5   13     -1.66      0.00
   21    5   13     -0.40      0.00
   22    5   13     -1.08      0.00
   23    5   13     -0.36      0.00
   24    5   13     -0.60      0.00
   25    5   13     -0.89      0.00
   26    5   13     -0.45      0.00
    0    6   13      2.96      0.00
    1    6   13     -0.73      0.00
    2    6   13      2.28      0.00
    3    6   13     -1.43      0.00
    4    6   13      0.85      0.00
    5    6   13     -0.40      0.00
    6    6   13     -0.15      0.00
    7    6   13      1.35      0.00
    8    6   13     -0.02      0.00
    9    6   13      2.42      0.00
   10    6   13      1.03      0.00
   11    6   13      2.55      0.00
   12    6   13      2.28      0.00
   13    6   13      2.42      0.00
   14    6   13      2.96      0.00
   15    6   13      2.44      0.00
   16    6   13      2.64      0.00
   17    6   13      2.37      0.00
   18    6   13      1.51      0.00
   19    6   13      1.99      0.00
   20    6   13      0.40      0.00
   21    6   13      1.52      0.00
   22    6   13      0.08      0.00
   23    6   13      1.26      0.00
   24    6   13      0.52      0.00
   25    6   13      1.15      0.00
    1    7   13     -3.47      0.00
    2    7   13      1.26      0.00
    3    7   13     -3.11      0.00
    4    7   13      1.85      0.00
    5    7   13     -2.55      0.00
    6    7   13      1.58      0.00
    7    7   13     -2.15      0.00
    8    7   13      0.70      0.00
    9    7   13     -2.01      0.00
   10    7   13     -0.34      0.00
   11    7   13     -1.91      0.00
   12    7   13     -1.05      0.00
   13    7   13     -1.58      0.00
   14    7   13     -1.13      0.00
   15    7   13     -0.96      0.00
   16    7   13     -0.69      0.00
   17    7   13     -0.38      0.00
   18    7   13     -0.23      0.00
   19    7   13     -0.15      0.00
   20    7   13     -0.12      0.00
   21    7   13     -0.28      0.00
   22    7   13     -0.24      0.00
   23    7   13     -0.42      0.00
   24    7   13     -0.17      0.00
   25    7   13     -0.34      0.00
    0    8   13     -2.66      0.00
    1    8   13     -0.36      0.00
    2    8   13     -1.57      0.00
    3    8   13     -0.82      0.00
    4    8   13      0.74      0.00
    5    8   13     -1.17      0.00
    6    8   13      2.48      0.00
    7    8   13     -0.99      0.00
    8    8   13      2.43      0.00
    9    8   13     -0.19      0.00
   10    8   13      0.78      0.00
   11    8   13      0.54      0.00
   12    8   13     -1.24      0.00
   13    8   13      0.39      0.00
   14    8   13     -2.34      0.00
   15    8   13     -0.56      0.00
   16    8   13     -1.99      0.00
   17    8   13     -1.49      0.00
   18    8   13     -0.68      0.00
   19    8   13     -1.80      0.00
   20    8   13      0.53      0.00
   21    8   13     -1.70      0.00
   22    8   13      0.81      0.00
   23    8   13     -1.69      0.00
   24    8   13      0.23      0.00
    1    9   13      5.30      0.00
    2    9   13      0.07      0.00
    3    9   13      2.69      0.00
    4    9   13      0.11      0.00
    5    9   13     -0.53      0.00
    6    9   13     -0.02      0.00
    7    9   13     -2.04      0.00
    8    9   13     -0.27      0.00
    9    9   13     -1.08      0.00
   10    9   13     -0.28      0.00
   11    9   13      1.14      0.00
   12    9   13      0.14      0.00
   13    9   13      2.68      0.00
   14    9   13      0.78      0.00
   15    9   13      2.45      0.00
   16    9   13      1.22      0.00
   17    9   13      0.91      0.00
   18    9   13      1.40      0.00
   19    9   13     -0.58      0.00
   20    9   13      1.54      0.00
   21    9   13     -0.97      0.00
   22    9   13      1.66      0.00
   23    9   13     -0.34      0.00
   24    9   13      1.50      0.00
    0   10   13     -3.34      0.00
    1   10   13      0.46      0.00
    2   10   13     -2.82      0.00
    3   10   13      0.74      0.00
    4   10   13     -1.53      0.00
    5   10   13      0.51      0.00
    6   10   13     -0.42      0.00
    7   10   13     -0.22      0.00
    8   10   13     -0.09      0.00
    9   10   13     -1.16      0.00
   10   10   13     -0.34      0.00
   11   10   13     -1.82      0.00
   12   10   13     -0.56      0.00
   13   10   13     -1.80      0.00
   14   10   13     -0.31      0.00
   15   10   13     -1.22      0.00
   16   10   13      0.29      0.00
   17   10   13     -0.67      0.00
   18   10   13      0.76      0.00
   19   10   13     -0.47      0.00
   20   10   13      0.74      0.00
   21   10   13     -0.36      0.00
   22   10   13      0.30      0.00
   23   10   13      0.10      0.00
    1   11   13      2.25      0.00
    2   11   13     -1.49      0.00
    3   11   13      2.58      0.00
    4   11   13     -1.75      0.00
    5   11   13      2.76      0.00
    6   11   13     -0.61      0.00
    7   11   13      2.33      0.00
    8   11   13      0.99      0.00
    9   11   13      1.31      0.00
   10   11   13      1.86      0.00
   11   11   13      0.19      0.00
   12   11   13      1.63      0.00
   13   11   13     -0.54      0.00
   14   11   13      0.90      0.00
   15   11   13     -0.78      0.00
   16   11   13      0.45      0.00
   17   11   13     -0.74      0.00
   18   11   13      0.34      0.00
   19   11   13     -0.63      0.00
   20   11   13      0.04      0.00
   21   11   13     -0.52      0.00
   22   11   13     -0.68      0.00
    0   12   13     -0.49      0.00
    1   12   13      0.88      0.00
    2   12   13     -1.00      0.00
    3   12   13      2.45      0.00
    4   12   13     -2.16      0.00
    5   12   13      3.11      0.00
    6   12   13     -2.70      0.00
    7   12   13      2.96      0.00
    8   12   13     -2.11      0.00
    9   12   13      2.55      0.00
   10   12   13     -0.99      0.00
   11   12   13      2.14      0.00
   12   12   13     -0.19      0.00
   13   12   13      1.59      0.00
   14   12   13      0.11      0.00
   15   12   13      0.81      0.00
   16   12   13      0.29      0.00
   17   12   13      0.13      0.00
   18   12   13      0.62      0.00
   19   12   13      0.01      0.00
   20   12   13      0.94      0.00
   21   12   13      0.39      0.00
    1   13   13     -1.12      0.00
    2   13   13     -0.79      0.00
    3   13   13      0.07      0.00
    4   13   13     -2.37      0.00
    5   13   13      1.53      0.00
    6   13   13     -4.50      0.00
    7   13   13      2.16      0.00
    8   13   13     -5.92      0.00
    9   13   13      1.73      0.00
   10   13   13     -5.59      0.00
   11   13   13      0.77      0.00
   12   13   13     -3.68      0.00
   13   13   13     -0.08      0.00
   14   13   13     -1.49      0.00
   15   13   13     -0.51      0.00
   16   13   13     -0.23      0.00
   17   13   13     -0.60      0.00
   18   13   13     -0.06      0.00
   19   13   13     -0.55      0.00
   20   13   13     -0.22      0.00
    0   14   13     -0.09      0.00
    1   14   13     -0.43      0.00
    2   14   13     -0.10      0.00
    3   14   13     -0.71      0.00
    4   14   13     -0.25      0.00
    5   14   13      0.40      0.00
    6   14   13     -0.56      0.00
    7   14   13      2.08      0.00
    8   14   13     -0.73      0.00
    9   14   13      2.82      0.00
   10   14   13     -0.37      0.00
   11   14   13      2.04      0.00
   12   14   13      0.43      0.00
   13   14   13      0.55      0.00
   14   14   13      1.01      0.00
   15   14   13     -0.38      0.00
   16   14   13      0.79      0.00
   17   14   13     -0.36      0.00
   18   14   13     -0.03      0.00
   19   14   13     -0.02      0.00
    1   15   13      0.44      0.00
    2   15   13      0.76      0.00
    3   15   13     -0.47      0.00
    4   15   13      1.62      0.00
    5   15   13     -1.38      0.00
    6   15   13      2.35      0.00
    7   15   13     -1.47      0.00
    8   15   13      2.54      0.00
    9   15   13     -0.88      0.00
   10   15   13      1.99      0.00
   11   15   13     -0.30      0.00
   12   15   13      0.97      0.00
   13   15   13     -0.10      0.00
   14   15   13      0.09      0.00
   15   15   13     -0.02      0.00
   16   15   13     -0.23      0.00
   17   15   13      0.26      0.00
   18   15   13     -0.11      0.00
    0   16   13      0.19      0.00
    1   16   13      0.37      0.00
    2   16   13      0.24      0.00
    3   16   13      0.40      0.00
    4   16   13      0.34      0.00
    5   16   13     -0.83      0.00
    6   16   13      0.29      0.00
    7   16   13     -2.52      0.00
    8   16   13     -0.10      0.00
    9   16   13     -3.20      0.00
   10   16   13     -0.77      0.00
   11   16   13     -2.25      0.00
   12   16   13     -1.36      0.00
   13   16   13     -0.50      0.00
   14   16   13     -1.46      0.00
   15   16   13      0.65      0.00
   16   16   13     -0.98      0.00
    1   17   13      0.79      0.00
    2   17   13     -0.74      0.00
    3   17   13      1.46      0.00
    4   17   13     -0.99      0.00
    5   17   13      2.02      0.00
    6   17   13     -0.53      0.00
    7   17   13      1.93      0.00
    8   17   13      0.40      0.00
    9   17   13      1.37      0.00
   10   17   13      1.19      0.00
   11   17   13      0.91      0.00
   12   17   13      1.33      0.00
   13   17   13      0.79      0.00
   14   17   13      0.79      0.00
   15   17   13      0.71      0.00
    0   18   13     -0.52      0.00
    1   18   13     -0.14      0.00
    2   18   13     -0.60      0.00
    3   18   13     -0.06      0.00
    4   18   13     -0.59      0.00
    5   18   13      0.69      0.00
    6   18   13     -0.24      0.00
    7   18   13      1.52      0.00
    8   18   13      0.45      0.00
    9   18   13      1.57      0.00
   10   18   13      1.10      0.00
   11   18   13      0.67      0.00
   12   18   13      1.26      0.00
   13   18   13     -0.38      0.00
    1   19   13     -1.21      0.00
    2   19   13      0.53      0.00
    3   19   13     -1.56      0.00
    4   19   13      0.45      0.00
    5   19   13     -1.91      0.00
    6   19   13     -0.45      0.00
    7   19   13     -1.94      0.00
    8   19   13     -1.62      0.00
    9   19   13     -1.65      0.00
   10   19   13     -2.19      0.00
    0   20   13      1.44      0.00
    1   20   13     -0.09      0.00
    2   20   13      1.47      0.00
    3   20   13     -0.36      0.00
    4   20   13      1.42      0.00
    5   20   13     -0.54      0.00
    6   20   13      1.13      0.00
    0    0   14     -2.32      0.00
    1    0   14      1.66      0.00
    2    0   14     -2.90      0.00
    3    0   14      4.05      0.00
    4    0   14     -3.93      0.00
    5    0   14      4.32      0.00
    6    0   14     -3.97      0.00
    7    0   14      2.98      0.00
    8    0   14     -2.41      0.00
    9    0   14      1.30      0.00
   10    0   14     -0.35      0.00
   11    0   14      0.17      0.00
   12    0   14      0.37      0.00
   13    0   14     -0.11      0.00
   14    0   14     -0.90      0.00
   15    0   14      0.36      0.00
   16    0   14     -2.80      0.00
   17    0   14      1.17      0.00
   18    0   14     -3.28      0.00
   19    0   14      1.60      0.00
   20    0   14     -1.75      0.00
   21    0   14      1.19      0.00
   22    0   14      0.42      0.00
   23    0   14      0.29      0.00
   24    0   14      1.54      0.00
   25    0   14     -0.26      0.00
   26    0   14      1.16      0.00
    1    1   14     -0.82      0.00
    2    1   14     -1.41      0.00
    3    1   14      0.15      0.00
    4    1   14     -1.99      0.00
    5    1   14      1.13      0.00
    6    1   14     -1.64      0.00
    7    1   14      1.20      0.00
    8    1   14     -0.86      0.00
    9    1   14      0.36      0.00
   10    1   14     -0.21      0.00
   11    1   14     -0.47      0.00
   12    1   14      0.10      0.00
   13    1   14     -0.42      0.00
   14    1   14      0.12      0.00
   15    1   14      0.46      0.00
   16    1   14     -0.01      0.00
   17    1   14      1.33      0.00
   18    1   14     -0.16      0.00
   19    1   14      1.50      0.00
   20    1   14     -0.21      0.00
   21    1   14      1.01      0.00
   22    1   14     -0.21      0.00
   23    1   14      0.44      0.00
   24    1   14     -0.27      0.00
   25    1   14      0.20      0.00
   26    1   14     -0.45      0.00
    0    2   14      2.95      0.00
    1    2   14     -0.77      0.00
    2    2   14      2.79      0.00
    3    2   14     -1.85      0.00
    4    2   14      2.39      0.00
    5    2   14     -2.02      0.00
    6    2   14      1.82      0.00
    7    2   14     -1.49      0.00
    8    2   14      1.14      0.00
    9    2   14     -0.76      0.00
   10    2   14      0.54      0.00
   11    2   14     -0.17      0.00
   12    2   14      0.34      0.00
   13    2   14      0.07      0.00
   14    2   14      0.59      0.00
   15    2   14     -0.21      0.00
   16    2   14      0.87      0.00
   17    2   14     -0.87      0.00
   18    2   14      0.54      0.00
   19    2   14     -1.35      0.00
   20    2   14     -0.53      0.00
   21    2   14     -1.08      0.00
   22    2   14     -1.67      0.00
   23    2   14     -0.16      0.00
   24    2   14     -2.02      0.00
   25    2   14      0.68      0.00
   26    2   14     -1.42      0.00
    1    3   14     -0.82      0.00
    2    3   14      1.88      0.00
    3    3   14     -1.28      0.00
    4    3   14      2.66      0.00
    5    3   14     -1.68      0.00
    6    3   14      2.27      0.00
    7    3   14     -1.47      0.00
    8    3   14      1.31      0.00
    9    3   14     -0.61      0.00
   10    3   14      0.41      0.00
   11    3   14      0.33      0.00
   12    3   14     -0.16      0.00
   13    3   14      0.70      0.00
   14    3   14     -0.32      0.00
   15    3   14      0.41      0.00
   16    3   14     -0.04      0.00
   17    3   14     -0.06      0.00
   18    3   14      0.46      0.00
   19    3   14     -0.21      0.00
   20    3   14      0.74      0.00
   21    3   14     -0.02      0.00
   22    3   14      0.58      0.00
   23    3   14      0.14      0.00
   24    3   14      0.20      0.00
   25    3   14      0.01      0.00
    0    4   14      1.68      0.00
    1    4   14     -0.13      0.00
    2    4   14      1.76      0.00
    3    4   14     -0.26      0.00
    4    4   14      1.71      0.00
    5    4   14     -0.18      0.00
    6    4   14      1.18      0.00
    7    4   14      0.11      0.00
    8    4   14      0.18      0.00
    9    4   14      0.39      0.00
   10    4   14     -0.84      0.00
   11    4   14      0.38      0.00
   12    4   14     -1.39      0.00
   13    4   14      0.03      0.00
   14    4   14     -1.33      0.00
   15    4   14     -0.38      0.00
   16    4   14     -0.89      0.00
   17    4   14     -0.49      0.00
   18    4   14     -0.15      0.00
   19    4   14     -0.29      0.00
   20    4   14      0.87      0.00
   21    4   14     -0.14      0.00
   22    4   14      1.94      0.00
   23    4   14     -0.29      0.00
   24    4   14      2.51      0.00
   25    4   14     -0.51      0.00
    1    5   14     -1.89      0.00
    2    5   14     -0.87      0.00
    3    5   14     -1.77      0.00
    4    5   14     -1.51      0.00
    5    5   14     -1.20      0.00
    6    5   14     -1.83      0.00
    7    5   14     -0.05      0.00
    8    5   14     -1.87      0.00
    9    5   14      1.22      0.00
   10    5   14     -1.44      0.00
   11    5   14      1.83      0.00
   12    5   14     -0.37      0.00
   13    5   14      1.44      0.00
   14    5   14      1.01      0.00
   15    5   14      0.47      0.00
   16    5   14      1.88      0.00
   17    5   14     -0.37      0.00
   18    5   14      1.79      0.00
   19    5   14     -0.93      0.00
   20    5   14      1.10      0.00
   21    5   14     -1.54      0.00
   22    5   14      0.55      0.00
   23    5   14     -2.20      0.00
   24    5   14      0.40      0.00
   25    5   14     -2.36      0.00
    0    6   14     -0.43      0.00
    1    6   14      0.37      0.00
    2    6   14     -0.20      0.00
    3    6   14      1.20      0.00
    4    6   14      0.20      0.00
    5    6   14      1.98      0.00
    6    6   14      0.17      0.00
    7    6   14      2.40      0.00
    8    6   14     -0.43      0.00
    9    6   14      2.09      0.00
   10    6   14     -1.07      0.00
   11    6   14      1.04      0.00
   12    6   14     -1.00      0.00
   13    6   14     -0.24      0.00
   14    6   14     -0.12      0.00
   15    6   14     -1.13      0.00
   16    6   14      0.89      0.00
   17    6   14     -1.31      0.00
   18    6   14      1.29      0.00
   19    6   14     -0.94      0.00
   20    6   14      1.05      0.00
   21    6   14     -0.38      0.00
   22    6   14      0.71      0.00
   23    6   14      0.09      0.00
   24    6   14      0.65      0.00
   25    6   14      0.30      0.00
    1    7   14     -1.12      0.00
    2    7   14     -1.02      0.00
    3    7   14     -1.17      0.00
    4    7   14     -1.84      0.00
    5    7   14     -1.05      0.00
    6    7   14     -2.23      0.00
    7    7   14     -0.73      0.00
    8    7   14     -1.83      0.00
    9    7   14     -0.48      0.00
   10    7   14     -0.88      0.00
   11    7   14     -0.57      0.00
   12    7   14     -0.11      0.00
   13    7   14     -0.89      0.00
   14    7   14     -0.05      0.00
   15    7   14     -1.15      0.00
   16    7   14     -0.52      0.00
   17    7   14     -1.15      0.00
   18    7   14     -0.99      0.00
   19    7   14     -0.80      0.00
   20    7   14     -1.23      0.00
   21    7   14     -0.18      0.00
   22    7   14     -1.31      0.00
   23    7   14      0.38      0.00
   24    7   14     -1.26      0.00
    0    8   14      2.28      0.00
    1    8   14      0.70      0.00
    2    8   14      2.08      0.00
    3    8   14      1.95      0.00
    4    8   14      1.57      0.00
    5    8   14      2.09      0.00
    6    8   14      1.05      0.00
    7    8   14      1.28      0.00
    8    8   14      0.91      0.00
    9    8   14      0.36      0.00
   10    8   14      1.16      0.00
   11    8   14      0.01      0.00
   12    8   14      1.34      0.00
   13    8   14      0.28      0.00
   14    8   14      1.07      0.00
   15    8   14      0.69      0.00
   16    8   14      0.49      0.00
   17    8   14      0.90      0.00
   18    8   14      0.03      0.00
   19    8   14      1.00      0.00
   20    8   14     -0.20      0.00
   21    8   14      1.12      0.00
   22    8   14     -0.40      0.00
   23    8   14      1.15      0.00
   24    8   14     -0.51      0.00
    1    9   14      0.63      0.00
    2    9   14     -0.73      0.00
    3    9   14      0.46      0.00
    4    9   14     -1.00      0.00
    5    9   14      0.01      0.00
    6    9   14     -0.45      0.00
    7    9   14     -0.63      0.00
    8    9   14     -0.03      0.00
    9    9   14     -1.01      0.00
   10    9   14     -0.36      0.00
   11    9   14     -0.77      0.00
   12    9   14     -1.03      0.00
   13    9   14     -0.05      0.00
   14    9   14     -1.19      0.00
   15    9   14      0.53      0.00
   16    9   14     -0.64      0.00
   17    9   14      0.53      0.00
   18    9   14      0.05      0.00
   19    9   14      0.08      0.00
   20    9   14      0.29      0.00
   21    9   14     -0.33      0.00
   22    9   14      0.12      0.00
   23    9   14     -0.43      0.00
    0   10   14     -1.52      0.00
    1   10   14     -0.20      0.00
    2   10   14     -1.35      0.00
    3   10   14     -0.72      0.00
    4   10   14     -0.79      0.00
    5   10   14     -0.78      0.00
    6   10   14      0.06      0.00
    7   10   14     -0.25      0.00
    8   10   14      0.63      0.00
    9   10   14      0.60      0.00
   10   10   14      0.37      0.00
   11   10   14      1.29      0.00
   12   10   14     -0.47      0.00
   13   10   14      1.51      0.00
   14   10   14     -0.97      0.00
   15   10   14      1.33      0.00
   16   10   14     -0.55      0.00
   17   10   14      0.96      0.00
   18   10   14      0.51      0.00
   19   10   14      0.49      0.00
   20   10   14      1.42      0.00
   21   10   14     -0.02      0.00
   22   10   14      1.67      0.00
    1   11   14      0.52      0.00
    2   11   14      0.84      0.00
    3   11   14      0.56      0.00
    4   11   14      1.39      0.00
    5   11   14      0.57      0.00
    6   11   14      0.98      0.00
    7   11   14      0.47      0.00
    8   11   14      0.45      0.00
    9   11   14      0.37      0.00
   10   11   14      0.48      0.00
   11   11   14      0.31      0.00
   12   11   14      0.76      0.00
   13   11   14      0.19      0.00
   14   11   14      0.47      0.00
   15   11   14     -0.10      0.00
   16   11   14     -0.52      0.00
   17   11   14     -0.57      0.00
   18   11   14     -1.34      0.00
   19   11   14     -1.07      0.00
   20   11   14     -1.16      0.00
   21   11   14     -1.38      0.00
    0   12   14     -0.52      0.00
    1   12   14      0.12      0.00
    2   12   14     -0.58      0.00
    3   12   14     -0.12      0.00
    4   12   14     -0.77      0.00
    5   12   14     -0.60      0.00
    6   12   14     -0.91      0.00
    7   12   14     -1.44      0.00
    8   12   14     -0.70      0.00
    9   12   14     -2.42      0.00
   10   12   14      0.02      0.00
   11   12   14     -2.97      0.00
   12   12   14      0.87      0.00
   13   12   14     -2.59      0.00
   14   12   14      1.22      0.00
   15   12   14     -1.41      0.00
   16   12   14      0.87      0.00
   17   12   14     -0.19      0.00
   18   12   14      0.26      0.00
   19   12   14      0.36      0.00
   20   12   14      0.00      0.00
   21   12   14      0.10      0.00
    1   13   14      0.06      0.00
    2   13   14     -1.25      0.00
    3   13   14      0.39      0.00
    4   13   14     -1.42      0.00
    5   13   14      0.76      0.00
    6   13   14     -0.21      0.00
    7   13   14      0.79      0.00
    8   13   14      1.29      0.00
    9   13   14      0.27      0.00
   10   13   14      1.78      0.00
   11   13   14     -0.59      0.00
   12   13   14      1.11      0.00
   13   13   14     -1.22      0.00
   14   13   14      0.29      0.00
   15   13   14     -1.19      0.00
   16   13   14      0.23      0.00
   17   13   14     -0.64      0.00
   18   13   14      0.76      0.00
   19   13   14     -0.09      0.00
   20   13   14      1.09      0.00
    0   14   14     -0.82      0.00
    1   14   14      0.61      0.00
    2   14   14     -0.96      0.00
    3   14   14      1.47      0.00
    4   14   14     -1.28      0.00
    5   14   14      1.46      0.00
    6   14   14     -1.51      0.00
    7   14   14      1.00      0.00
    8   14   14     -1.48      0.00
    9   14   14      0.90      0.00
   10   14   14     -1.16      0.00
   11   14   14      1.39      0.00
   12   14   14     -0.62      0.00
   13   14   14      1.81      0.00
   14   14   14     -0.01      0.00
   15   14   14      1.37      0.00
   16   14   14      0.46      0.00
   17   14   14      0.14      0.00
   18   14   14      0.63      0.00
    1   15   14      2.50      0.00
    2   15   14      0.60      0.00
    3   15   14      1.89      0.00
    4   15   14      0.66      0.00
    5   15   14      1.20      0.00
    6   15   14     -0.08      0.00
    7   15   14      0.99      0.00
    8   15   14     -1.15      0.00
    9   15   14      1.27      0.00
   10   15   14     -1.80      0.00
   11   15   14      1.52      0.00
   12   15   14     -1.68      0.00
   13   15   14      1.27      0.00
   14   15   14     -1.05      0.00
   15   15   14      0.58      0.00
   16   15   14     -0.42      0.00
   17   15   14     -0.07      0.00
    0   16   14     -1.41      0.00
    1   16   14     -0.94      0.00
    2   16   14     -1.00      0.00
    3   16   14     -2.26      0.00
    4   16   14     -0.11      0.00
    5   16   14     -2.04      0.00
    6   16   14      0.38      0.00
    7   16   14     -0.65      0.00
    8   16   14      0.14      0.00
    9   16   14      0.62      0.00
   10   16   14     -0.43      0.00
   11   16   14      0.80      0.00
   12   16   14     -0.75      0.00
   13   16   14      0.09      0.00
   14   16   14     -0.65      0.00
   15   16   14     -0.48      0.00
    1   17   14     -0.43      0.00
    2   17   14      1.14      0.00
    3   17   14     -0.21      0.00
    4   17   14      1.60      0.00
    5   17   14      0.06      0.00
    6   17   14      1.25      0.00
    7   17   14      0.16      0.00
    8   17   14      0.55      0.00
    9   17   14     -0.01      0.00
   10   17   14      0.13      0.00
   11   17   14     -0.27      0.00
   12   17   14      0.23      0.00
   13   17   14     -0.31      0.00
    0   18   14      0.89      0.00
    1   18   14      0.06      0.00
    2   18   14      0.65      0.00
    3   18   14      0.13      0.00
    4   18   14      0.22      0.00
    5   18   14      0.02      0.00
    6   18   14      0.21      0.00
    7   18   14     -0.26      0.00
    8   18   14      0.77      0.00
    9   18   14     -0.47      0.00
   10   18   14      1.40      0.00
   11   18   14     -0.38      0.00
    1   19   14     -1.91      0.00
    2   19   14     -0.70      0.00
    3   19   14     -2.03      0.00
    4   19   14     -0.93      0.00
    5   19   14     -2.31      0.00
    6   19   14     -0.67      0.00
    7   19   14     -2.59      0.00
    8   19   14     -0.30      0.00
    0   20   14      2.23      0.00
    1   20   14      0.16      0.00
    2   20   14      2.20      0.00
    1    1   15      2.78      0.00
    2    1   15     -1.48      0.00
    3    1   15      3.21      0.00
    4    1   15     -1.89      0.00
    5    1   15      3.17      0.00
    6    1   15     -0.90      0.00
    7    1   15      2.12      0.00
    8    1   15      0.66      0.00
    9    1   15      0.54      0.00
   10    1   15      1.60      0.00
   11    1   15     -0.56      0.00
   12    1   15      1.27      0.00
   13    1   15     -0.76      0.00
   14    1   15     -0.09      0.00
   15    1   15     -0.43      0.00
   16    1   15     -1.60      0.00
   17    1   15     -0.22      0.00
   18    1   15     -2.32      0.00
   19    1   15     -0.42      0.00
   20    1   15     -1.92      0.00
   21    1   15     -0.84      0.00
   22    1   15     -0.87      0.00
   23    1   15     -1.07      0.00
   24    1   15     -0.05      0.00
   25    1   15     -0.89      0.00
    0    2   15     -0.93      0.00
    1    2   15      0.81      0.00
    2    2   15     -1.06      0.00
    3    2   15      1.81      0.00
    4    2   15     -1.14      0.00
    5    2   15      1.46      0.00
    6    2   15     -0.86      0.00
    7    2   15      0.09      0.00
    8    2   15     -0.32      0.00
    9    2   15     -1.26      0.00
   10    2   15      0.12      0.00
   11    2   15     -1.74      0.00
   12    2   15      0.31      0.00
   13    2   15     -1.22      0.00
   14    2   15      0.32      0.00
   15    2   15     -0.20      0.00
   16    2   15      0.19      0.00
   17    2   15      0.70      0.00
   18    2   15     -0.06      0.00
   19    2   15      1.07      0.00
   20    2   15     -0.22      0.00
   21    2   15      0.95      0.00
   22    2   15     -0.07      0.00
   23    2   15      0.65      0.00
   24    2   15      0.23      0.00
   25    2   15      0.49      0.00
    1    3   15      0.53      0.00
    2    3   15     -0.17      0.00
    3    3   15     -0.37      0.00
    4    3   15     -0.28      0.00
    5    3   15     -1.30      0.00
    6    3   15     -0.25      0.00
    7    3   15     -1.33      0.00
    8    3   15      0.01      0.00
    9    3   15     -0.44      0.00
   10    3   15      0.47      0.00
   11    3   15      0.59      0.00
   12    3   15      0.94      0.00
   13    3   15      1.07      0.00
   14    3   15      1.21      0.00
   15    3   15      1.07      0.00
   16    3   15      1.14      0.00
   17    3   15      1.10      0.00
   18    3   15      0.75      0.00
   19    3   15      1.31      0.00
   20    3   15      0.19      0.00
   21    3   15      1.37      0.00
   22    3   15     -0.34      0.00
   23    3   15      1.03      0.00
   24    3   15     -0.60      0.00
   25    3   15      0.51      0.00
    0    4   15     -1.19      0.00
    1    4   15     -0.30      0.00
    2    4   15     -0.64      0.00
    3    4   15     -0.64      0.00
    4    4   15      0.42      0.00
    5    4   15     -0.32      0.00
    6    4   15      0.89      0.00
    7    4   15      0.28      0.00
    8    4   15      0.39      0.00
    9    4   15      0.53      0.00
   10    4   15     -0.57      0.00
   11    4   15      0.27      0.00
   12    4   15     -1.35      0.00
   13    4   15     -0.09      0.00
   14    4   15     -1.70      0.00
   15    4   15     -0.09      0.00
   16    4   15     -1.67      0.00
   17    4   15      0.26      0.00
   18    4   15     -1.34      0.00
   19    4   15      0.60      0.00
   20    4   15     -0.91      0.00
   21    4   15      0.67      0.00
   22    4   15     -0.63      0.00
   23    4   15      0.50      0.00
   24    4   15     -0.57      0.00
   25    4   15      0.28      0.00
    1    5   15     -0.62      0.00
    2    5   15     -0.02      0.00
    3    5   15     -0.41      0.00
    4    5   15      0.00      0.00
    5    5   15      0.13      0.00
    6    5   15     -0.08      0.00
    7    5   15      0.79      0.00
    8    5   15     -0.24      0.00
    9    5   15      1.20      0.00
   10    5   15     -0.46      0.00
   11    5   15      1.24      0.00
   12    5   15     -0.78      0.00
   13    5   15      1.10      0.00
   14    5   15     -1.15      0.00
   15    5   15      0.85      0.00
   16    5   15     -1.41      0.00
   17    5   15      0.42      0.00
   18    5   15     -1.42      0.00
   19    5   15     -0.04      0.00
   20    5   15     -1.13      0.00
   21    5   15     -0.14      0.00
   22    5   15     -0.70      0.00
   23    5   15      0.24      0.00
   24    5   15     -0.39      0.00
    0    6   15     -0.14      0.00
    1    6   15      0.12      0.00
    2    6   15     -0.23      0.00
    3    6   15      0.16      0.00
    4    6   15     -0.51      0.00
    5    6   15     -0.21      0.00
    6    6   15     -0.80      0.00
    7    6   15     -0.61      0.00
    8    6   15     -1.00      0.00
    9    6   15     -0.51      0.00
   10    6   15     -1.10      0.00
   11    6   15      0.10      0.00
   12    6   15     -1.02      0.00
   13    6   15      0.64      0.00
   14    6   15     -0.66      0.00
   15    6   15      0.60      0.00
   16    6   15     -0.11      0.00
   17    6   15      0.08      0.00
   18    6   15      0.23      0.00
   19    6   15     -0.34      0.00
   20    6   15      0.03      0.00
   21    6   15     -0.24      0.00
   22    6   15     -0.51      0.00
   23    6   15      0.18      0.00
   24    6   15     -0.85      0.00
    1    7   15      1.88      0.00
    2    7   15      0.90      0.00
    3    7   15      1.24      0.00
    4    7   15      1.51      0.00
    5    7   15      0.10      0.00
    6    7   15      1.64      0.00
    7    7   15     -0.89      0.00
    8    7   15      1.32      0.00
    9    7   15     -1.12      0.00
   10    7   15      0.87      0.00
   11    7   15     -0.62      0.00
   12    7   15      0.63      0.00
   13    7   15     -0.01      0.00
   14    7   15      0.77      0.00
   15    7   15      0.18      0.00
   16    7   15      1.10      0.00
   17    7   15      0.08      0.00
   18    7   15      1.20      0.00
   19    7   15      0.15      0.00
   20    7   15      0.86      0.00
   21    7   15      0.48      0.00
   22    7   15      0.21      0.00
   23    7   15      0.71      0.00
    0    8   15     -0.07      0.00
    1    8   15     -0.75      0.00
    2    8   15      0.05      0.00
    3    8   15     -2.17      0.00
    4    8   15      0.67      0.00
    5    8   15     -2.34      0.00
    6    8   15      1.59      0.00
    7    8   15     -1.60      0.00
    8    8   15      2.38      0.00
    9    8   15     -0.94      0.00
   10    8   15      2.59      0.00
   11    8   15     -0.96      0.00
   12    8   15      2.07      0.00
   13    8   15     -1.35      0.00
   14    8   15      1.08      0.00
   15    8   15     -1.36      0.00
   16    8   15      0.15      0.00
   17    8   15     -0.79      0.00
   18    8   15     -0.36      0.00
   19    8   15     -0.10      0.00
   20    8   15     -0.46      0.00
   21    8   15      0.13      0.00
   22    8   15     -0.40      0.00
   23    8   15     -0.10      0.00
    1    9   15     -1.09      0.00
    2    9   15      0.74      0.00
    3    9   15     -0.77      0.00
    4    9   15      1.21      0.00
    5    9   15     -0.44      0.00
    6    9   15      1.24      0.00
    7    9   15     -0.53      0.00
    8    9   15      1.02      0.00
    9    9   15     -1.08      0.00
   10    9   15      0.84      0.00
   11    9   15     -1.54      0.00
   12    9   15      0.84      0.00
   13    9   15     -1.23      0.00
   14    9   15      0.85      0.00
   15    9   15     -0.16      0.00
   16    9   15      0.64      0.00
   17    9   15      0.95      0.00
   18    9   15      0.33      0.00
   19    9   15      1.34      0.00
   20    9   15      0.26      0.00
   21    9   15      1.02      0.00
   22    9   15      0.60      0.00
    0   10   15      0.48      0.00
    1   10   15      0.29      0.00
    2   10   15      0.31      0.00
    3   10   15      0.81      0.00
    4   10   15     -0.35      0.00
    5   10   15      0.44      0.00
    6   10   15     -0.98      0.00
    7   10   15     -0.32      0.00
    8   10   15     -1.19      0.00
    9   10   15     -0.57      0.00
   10   10   15     -1.01      0.00
   11   10   15     -0.04      0.00
   12   10   15     -0.81      0.00
   13   10   15      0.55      0.00
   14   10   15     -0.88      0.00
   15   10   15      0.41      0.00
   16   10   15     -1.18      0.00
   17   10   15     -0.44      0.00
   18   10   15     -1.39      0.00
   19   10   15     -1.21      0.00
   20   10   15     -1.22      0.00
   21   10   15     -1.29      0.00
    1   11   15     -0.70      0.00
    2   11   15     -1.10      0.00
    3   11   15     -0.37      0.00
    4   11   15     -1.48      0.00
    5   11   15      0.18      0.00
    6   11   15     -1.17      0.00
    7   11   15      0.76      0.00
    8   11   15     -0.77      0.00
    9   11   15      1.22      0.00
   10   11   15     -0.86      0.00
   11   11   15      1.36      0.00
   12   11   15     -1.32      0.00
   13   11   15      1.00      0.00
   14   11   15     -1.41      0.00
   15   11   15      0.39      0.00
   16   11   15     -0.67      0.00
   17   11   15      0.00      0.00
   18   11   15      0.40      0.00
   19   11   15      0.01      0.00
   20   11   15      0.84      0.00
   21   11   15      0.09      0.00
    0   12   15     -0.63      0.00
    1   12   15      0.17      0.00
    2   12   15     -0.51      0.00
    3   12   15      0.26      0.00
    4   12   15     -0.06      0.00
    5   12   15      0.59      0.00
    6   12   15      0.38      0.00
    7   12   15      0.93      0.00
    8   12   15      0.58      0.00
    9   12   15      0.97      0.00
   10   12   15      0.62      0.00
   11   12   15      0.66      0.00
   12   12   15      0.71      0.00
   13   12   15      0.31      0.00
   14   12   15      0.80      0.00
   15   12   15      0.22      0.00
   16   12   15      0.63      0.00
   17   12   15      0.38      0.00
   18   12   15      0.15      0.00
   19   12   15      0.57      0.00
   20   12   15     -0.32      0.00
    1   13   15      2.27      0.00
    2   13   15      0.76      0.00
    3   13   15      1.64      0.00
    4   13   15      0.94      0.00
    5   13   15      0.63      0.00
    6   13   15      0.56      0.00
    7   13   15     -0.37      0.00
    8   13   15      0.14      0.00
    9   13   15     -1.11      0.00
   10   13   15      0.22      0.00
   11   13   15     -1.33      0.00
   12   13   15      0.73      0.00
   13   13   15     -0.79      0.00
   14   13   15      0.95      0.00
   15   13   15      0.33      0.00
   16   13   15      0.37      0.00
   17   13   15      1.36      0.00
   18   13   15     -0.63      0.00
   19   13   15      1.67      0.00
    0   14   15     -0.87      0.00
    1   14   15     -0.31      0.00
    2   14   15     -1.08      0.00
    3   14   15     -0.72      0.00
    4   14   15     -1.65      0.00
    5   14   15     -0.68      0.00
    6   14   15     -2.07      0.00
    7   14   15     -0.34      0.00
    8   14   15     -2.00      0.00
    9   14   15     -0.07      0.00
   10   14   15     -1.63      0.00
   11   14   15     -0.11      0.00
   12   14   15     -1.57      0.00
   13   14   15     -0.30      0.00
   14   14   15     -1.96      0.00
   15   14   15     -0.31      0.00
   16   14   15     -2.25      0.00
   17   14   15      0.01      0.00
    1   15   15     -0.15      0.00
    2   15   15      0.01      0.00
    3   15   15      0.63      0.00
    4   15   15     -0.06      0.00
    5   15   15      1.83      0.00
    6   15   15     -0.30      0.00
    7   15   15      2.86      0.00
    8   15   15     -0.44      0.00
    9   15   15      3.32      0.00
   10   15   15     -0.41      0.00
   11   15   15      3.17      0.00
   12   15   15     -0.36      0.00
   13   15   15      2.51      0.00
   14   15   15     -0.35      0.00
   15   15   15      1.46      0.00
   16   15   15     -0.27      0.00
    0   16   15     -0.28      0.00
    1   16   15      0.16      0.00
    2   16   15      0.07      0.00
    3   16   15      0.32      0.00
    4   16   15      0.82      0.00
    5   16   15      0.32      0.00
    6   16   15      1.21      0.00
    7   16   15      0.16      0.00
    8   16   15      0.80      0.00
    9   16   15      0.00      0.00
   10   16   15      0.01      0.00
   11   16   15      0.08      0.00
   12   16   15     -0.26      0.00
   13   16   15      0.40      0.00
   14   16   15      0.35      0.00
    1   17   15     -0.64      0.00
    2   17   15     -0.66      0.00
    3   17   15     -1.36      0.00
    4   17   15     -0.58      0.00
    5   17   15     -2.36      0.00
    6   17   15      0.09      0.00
    7   17   15     -2.90      0.00
    8   17   15      0.58      0.00
    9   17   15     -2.65      0.00
   10   17   15      0.39      0.00
   11   17   15     -1.98      0.00
   12   17   15     -0.23      0.00
    0   18   15      1.39      0.00
    1   18   15      0.48      0.00
    2   18   15      0.72      0.00
    3   18   15      0.88      0.00
    4   18   15     -0.63      0.00
    5   18   15      0.36      0.00
    6   18   15     -1.36      0.00
    7   18   15     -0.50      0.00
    8   18   15     -0.91      0.00
    9   18   15     -0.89      0.00
    1   19   15     -0.43      0.00
    2   19   15     -0.36      0.00
    3   19   15      1.17      0.00
    4   19   15     -0.50      0.00
    5   19   15      2.94      0.00
    0    0   16     -0.25      0.00
    1    0   16      0.16      0.00
    2    0   16      0.06      0.00
    3    0   16      0.64      0.00
    4    0   16      0.90      0.00
    5    0   16      1.27      0.00
    6    0   16      2.12      0.00
    7    0   16      1.70      0.00
    8    0   16      3.44      0.00
    9    0   16      1.34      0.00
   10    0   16      4.46      0.00
   11    0   16      0.09      0.00
   12    0   16      4.80      0.00
   13    0   16     -1.33      0.00
   14    0   16      4.12      0.00
   15    0   16     -1.95      0.00
   16    0   16      2.40      0.00
   17    0   16     -1.58      0.00
   18    0   16      0.25      0.00
   19    0   16     -0.90      0.00
   20    0   16     -1.31      0.00
   21    0   16     -0.49      0.00
   22    0   16     -1.67      0.00
   23    0   16     -0.24      0.00
   24    0   16     -1.14      0.00
    1    1   16      0.83      0.00
    2    1   16     -0.34      0.00
    3    1   16      0.15      0.00
    4    1   16     -0.69      0.00
    5    1   16     -0.90      0.00
    6    1   16     -0.90      0.00
    7    1   16     -1.96      0.00
    8    1   16     -0.80      0.00
    9    1   16     -2.75      0.00
   10    1   16     -0.30      0.00
   11    1   16     -3.10      0.00
   12    1   16      0.33      0.00
   13    1   16     -2.88      0.00
   14    1   16      0.63      0.00
   15    1   16     -2.05      0.00
   16    1   16      0.37      0.00
   17    1   16     -0.83      0.00
   18    1   16     -0.12      0.00
   19    1   16      0.29      0.00
   20    1   16     -0.34      0.00
   21    1   16      0.89      0.00
   22    1   16     -0.19      0.00
   23    1   16      0.91      0.00
   24    1   16      0.02      0.00
    0    2   16     -0.79      0.00
    1    2   16      0.01      0.00
    2    2   16     -0.52      0.00
    3    2   16     -0.02      0.00
    4    2   16      0.02      0.00
    5    2   16     -0.26      0.00
    6    2   16      0.30      0.00
    7    2   16     -0.52      0.00
    8    2   16      0.14      0.00
    9    2   16     -0.42      0.00
   10    2   16     -0.17      0.00
   11    2   16      0.18      0.00
   12    2   16     -0.27      0.00
   13    2   16      0.93      0.00
   14    2   16      0.01      0.00
   15    2   16      1.34      0.00
   16    2   16      0.49      0.00
   17    2   16      1.28      0.00
   18    2   16      0.80      0.00
   19    2   16      1.01      0.00
   20    2   16      0.66      0.00
   21    2   16      0.72      0.00
   22    2   16      0.05      0.00
   23    2   16      0.37      0.00
   24    2   16     -0.60      0.00
    1    3   16      0.48      0.00
    2    3   16      0.65      0.00
    3    3   16      0.24      0.00
    4    3   16      1.10      0.00
    5    3   16      0.21      0.00
    6    3   16      1.30      0.00
    7    3   16      0.73      0.00
    8    3   16      0.97      0.00
    9    3   16      1.58      0.00
   10    3   16      0.05      0.00
   11    3   16      2.06      0.00
   12    3   16     -0.97      0.00
   13    3   16      1.60      0.00
   14    3   16     -1.24      0.00
   15    3   16      0.30      0.00
   16    3   16     -0.51      0.00
   17    3   16     -1.01      0.00
   18    3   16      0.52      0.00
   19    3   16     -1.44      0.00
   20    3   16      0.91      0.00
   21    3   16     -0.76      0.00
   22    3   16      0.51      0.00
   23    3   16      0.37      0.00
   24    3   16     -0.04      0.00
    0    4   16     -1.93      0.00
    1    4   16     -0.53      0.00
    2    4   16     -1.68      0.00
    3    4   16     -1.12      0.00
    4    4   16     -1.04      0.00
    5    4   16     -1.32      0.00
    6    4   16     -0.44      0.00
    7    4   16     -1.17      0.00
    8    4   16     -0.30      0.00
    9    4   16     -0.82      0.00
   10    4   16     -0.64      0.00
   11    4   16     -0.43      0.00
   12    4   16     -1.00      0.00
   13    4   16     -0.22      0.00
   14    4   16     -0.86      0.00
   15    4   16     -0.40      0.00
   16    4   16     -0.17      0.00
   17    4   16     -0.95      0.00
   18    4   16      0.51      0.00
   19    4   16     -1.48      0.00
   20    4   16      0.61      0.00
   21    4   16     -1.48      0.00
   22    4   16      0.16      0.00
   23    4   16     -0.82      0.00
   24    4   16     -0.31      0.00
    1    5   16      0.69      0.00
    2    5   16     -0.07      0.00
    3    5   16      0.64      0.00
    4    5   16      0.08      0.00
    5    5   16      0.25      0.00
    6    5   16      0.39      0.00
    7    5   16     -0.49      0.00
    8    5   16      0.87      0.00
    9    5   16     -1.19      0.00
   10    5   16      1.35      0.00
   11    5   16     -1.32      0.00
   12    5   16      1.45      0.00
   13    5   16     -0.70      0.00
   14    5   16      0.87      0.00
   15    5   16      0.20      0.00
   16    5   16     -0.06      0.00
   17    5   16      0.66      0.00
   18    5   16     -0.62      0.00
   19    5   16      0.43      0.00
   20    5   16     -0.40      0.00
   21    5   16     -0.14      0.00
   22    5   16      0.15      0.00
   23    5   16     -0.57      0.00
    0    6   16      2.02      0.00
    1    6   16      0.61      0.00
    2    6   16      1.41      0.00
    3    6   16      1.33      0.00
    4    6   16      0.15      0.00
    5    6   16      1.21      0.00
    6    6   16     -0.59      0.00
    7    6   16      0.50      0.00
    8    6   16     -0.09      0.00
    9    6   16     -0.28      0.00
   10    6   16      1.22      0.00
   11    6   16     -0.69      0.00
   12    6   16      2.04      0.00
   13    6   16     -0.57      0.00
   14    6   16      1.48      0.00
   15    6   16     -0.01      0.00
   16    6   16     -0.05      0.00
   17    6   16      0.67      0.00
   18    6   16     -1.24      0.00
   19    6   16      1.08      0.00
   20    6   16     -1.25      0.00
   21    6   16      0.96      0.00
   22    6   16     -0.36      0.00
   23    6   16      0.51      0.00
    1    7   16     -0.24      0.00
    2    7   16     -0.51      0.00
    3    7   16      0.90      0.00
    4    7   16     -1.15      0.00
    5    7   16      2.16      0.00
    6    7   16     -1.21      0.00
    7    7   16      2.28      0.00
    8    7   16     -1.00      0.00
    9    7   16      1.02      0.00
   10    7   16     -0.76      0.00
   11    7   16     -0.70      0.00
   12    7   16     -0.39      0.00
   13    7   16     -1.48      0.00
   14    7   16      0.24      0.00
   15    7   16     -0.69      0.00
   16    7   16      0.88      0.00
   17    7   16      1.02      0.00
   18    7   16      0.96      0.00
   19    7   16      2.28      0.00
   20    7   16      0.31      0.00
   21    7   16      2.21      0.00
   22    7   16     -0.54      0.00
   23    7   16      1.16      0.00
    0    8   16     -1.17      0.00
    1    8   16     -0.71      0.00
    2    8   16     -1.29      0.00
    3    8   16     -0.90      0.00
    4    8   16     -1.56      0.00
    5    8   16     -0.35      0.00
    6    8   16     -1.58      0.00
    7    8   16      0.49      0.00
    8    8   16     -1.22      0.00
    9    8   16      0.98      0.00
   10    8   16     -0.66      0.00
   11    8   16      0.80      0.00
   12    8   16     -0.15      0.00
   13    8   16      0.12      0.00
   14    8   16      0.04      0.00
   15    8   16     -0.60      0.00
   16    8   16     -0.32      0.00
   17    8   16     -0.87      0.00
   18    8   16     -1.13      0.00
   19    8   16     -0.50      0.00
   20    8   16     -1.79      0.00
   21    8   16      0.27      0.00
   22    8   16     -1.74      0.00
    1    9   16     -0.58      0.00
    2    9   16      1.47      0.00
    3    9   16     -1.21      0.00
    4    9   16      1.93      0.00
    5    9   16     -1.65      0.00
    6    9   16      1.14      0.00
    7    9   16     -1.12      0.00
    8    9   16      0.06      0.00
    9    9   16      0.25      0.00
   10    9   16     -0.36      0.00
   11    9   16      1.44      0.00
   12    9   16     -0.15      0.00
   13    9   16      1.49      0.00
   14    9   16     -0.02      0.00
   15    9   16      0.55      0.00
   16    9   16     -0.43      0.00
   17    9   16     -0.34      0.00
   18    9   16     -1.02      0.00
   19    9   16     -0.39      0.00
   20    9   16     -1.19      0.00
   21    9   16      0.23      0.00
    0   10   16     -0.23      0.00
    1   10   16     -0.42      0.00
    2   10   16      0.51      0.00
    3   10   16     -1.01      0.00
    4   10   16      1.82      0.00
    5   10   16     -1.12      0.00
    6   10   16      2.10      0.00
    7   10   16     -0.83      0.00
    8   10   16      0.76      0.00
    9   10   16     -0.52      0.00
   10   10   16     -1.19      0.00
   11   10   16     -0.46      0.00
   12   10   16     -2.25      0.00
   13   10   16     -0.52      0.00
   14   10   16     -1.78      0.00
   15   10   16     -0.32      0.00
   16   10   16     -0.39      0.00
   17   10   16      0.20      0.00
   18   10   16      0.78      0.00
   19   10   16      0.60      0.00
   20   10   16      1.05      0.00
   21   10   16      0.43      0.00
    1   11   16      1.91      0.00
    2   11   16     -0.79      0.00
    3   11   16      1.04      0.00
    4   11   16     -1.12      0.00
    5   11   16     -0.05      0.00
    6   11   16     -0.68      0.00
    7   11   16     -0.71      0.00
    8   11   16      0.12      0.00
    9   11   16     -0.69      0.00
   10   11   16      0.75      0.00
   11   11   16     -0.12      0.00
   12   11   16      1.02      0.00
   13   11   16      0.57      0.00
   14   11   16      1.08      0.00
   15   11   16      0.84      0.00
   16   11   16      1.09      0.00
   17   11   16      0.36      0.00
   18   11   16      1.00      0.00
   19   11   16     -0.58      0.00
   20   11   16      0.72      0.00
    0   12   16     -0.55      0.00
    1   12   16      1.16      0.00
    2   12   16     -0.53      0.00
    3   12   16      2.25      0.00
    4   12   16     -0.08      0.00
    5   12   16      2.22      0.00
    6   12   16      1.18      0.00
    7   12   16      1.14      0.00
    8   12   16      2.92      0.00
    9   12   16     -0.26      0.00
   10   12   16      3.99      0.00
   11   12   16     -0.99      0.00
   12   12   16      3.52      0.00
   13   12   16     -0.74      0.00
   14   12   16      1.84      0.00
   15   12   16     -0.17      0.00
   16   12   16      0.30      0.00
   17   12   16      0.00      0.00
   18   12   16     -0.13      0.00
   19   12   16     -0.23      0.00
    1   13   16     -0.94      0.00
    2   13   16     -0.98      0.00
    3   13   16     -1.64      0.00
    4   13   16     -0.92      0.00
    5   13   16     -2.96      0.00
    6   13   16     -0.22      0.00
    7   13   16     -4.37      0.00
    8   13   16      0.66      0.00
    9   13   16     -5.08      0.00
   10   13   16      0.97      0.00
   11   13   16     -4.60      0.00
   12   13   16      0.31      0.00
   13   13   16     -3.14      0.00
   14   13   16     -0.91      0.00
   15   13   16     -1.39      0.00
   16   13   16     -1.70      0.00
   17   13   16      0.01      0.00
   18   13   16     -1.51      0.00
    0   14   16      0.18      0.00
    1   14   16     -0.14      0.00
    2   14   16      0.61      0.00
    3   14   16     -0.55      0.00
    4   14   16      1.39      0.00
    5   14   16     -1.11      0.00
    6   14   16      1.49      0.00
    7   14   16     -1.23      0.00
    8   14   16      0.44      0.00
    9   14   16     -0.50      0.00
   10   14   16     -1.10      0.00
   11   14   16      0.74      0.00
   12   14   16     -2.04      0.00
   13   14   16      1.65      0.00
   14   14   16     -1.94      0.00
   15   14   16      1.81      0.00
   16   14   16     -1.37      0.00
    1   15   16      0.83      0.00
    2   15   16      0.21      0.00
    3   15   16      2.40      0.00
    4   15   16      0.27      0.00
    5   15   16      5.12      0.00
    6   15   16     -0.06      0.00
    7   15   16      7.96      0.00
    8   15   16     -0.91      0.00
    9   15   16      9.72      0.00
   10   15   16     -1.77      0.00
   11   15   16      9.54      0.00
   12   15   16     -1.83      0.00
   13   15   16      7.49      0.00
   14   15   16     -0.94      0.00
   15   15   16      4.58      0.00
    0   16   16     -1.11      0.00
    1   16   16      0.17      0.00
    2   16   16     -2.68      0.00
    3   16   16      0.50      0.00
    4   16   16     -6.39      0.00
    5   16   16      1.14      0.00
    6   16   16     -9.87      0.00
    7   16   16      1.64      0.00
    8   16   16    -11.16      0.00
    9   16   16      1.40      0.00
   10   16   16     -9.93      0.00
   11   16   16      0.38      0.00
   12   16   16     -7.21      0.00
   13   16   16     -0.79      0.00
    1   17   16      0.94      0.00
    2   17   16     -0.22      0.00
    3   17   16      1.62      0.00
    4   17   16     -0.64      0.00
    5   17   16      2.27      0.00
    6   17   16     -0.94      0.00
    7   17   16      2.21      0.00
    8   17   16     -0.57      0.00
    9   17   16      1.36      0.00
   10   17   16      0.40      0.00
    0   18   16     -0.24      0.00
    1   18   16      0.09      0.00
    2   18   16      0.67      0.00
    3   18   16      0.24      0.00
    4   18   16      2.80      0.00
    5   18   16      0.27      0.00
    6   18   16      4.79      0.00
    7   18   16      0.23      0.00
    1    1   17     -1.30      0.00
    2    1   17     -0.36      0.00
    3    1   17     -1.04      0.00
    4    1   17     -0.41      0.00
    5    1   17     -0.80      0.00
    6    1   17     -0.03      0.00
    7    1   17     -0.74      0.00
    8    1   17      0.43      0.00
    9    1   17     -0.68      0.00
   10    1   17      0.55      0.00
   11    1   17     -0.50      0.00
   12    1   17      0.26      0.00
   13    1   17     -0.40      0.00
   14    1   17     -0.12      0.00
   15    1   17     -0.52      0.00
   16    1   17     -0.23      0.00
   17    1   17     -0.63      0.00
   18    1   17      0.07      0.00
   19    1   17     -0.38      0.00
   20    1   17      0.55      0.00
   21    1   17      0.14      0.00
   22    1   17      0.85      0.00
   23    1   17      0.50      0.00
    0    2   17      0.66      0.00
    1    2   17      0.25      0.00
    2    2   17      0.53      0.00
    3    2   17      0.62      0.00
    4    2   17      0.40      0.00
    5    2   17      0.35      0.00
    6    2   17      0.57      0.00
    7    2   17     -0.27      0.00
    8    2   17      0.84      0.00
    9    2   17     -0.66      0.00
   10    2   17      0.70      0.00
   11    2   17     -0.40      0.00
   12    2   17     -0.05      0.00
   13    2   17      0.28      0.00
   14    2   17     -0.93      0.00
   15    2   17      0.75      0.00
   16    2   17     -1.22      0.00
   17    2   17      0.51      0.00
   18    2   17     -0.73      0.00
   19    2   17     -0.29      0.00
   20    2   17      0.07      0.00
   21    2   17     -1.09      0.00
   22    2   17      0.58      0.00
   23    2   17     -1.36      0.00
    1    3   17     -0.81      0.00
    2    3   17     -0.01      0.00
    3    3   17     -0.27      0.00
    4    3   17      0.24      0.00
    5    3   17      0.22      0.00
    6    3   17      0.48      0.00
    7    3   17      0.19      0.00
    8    3   17      0.46      0.00
    9    3   17     -0.24      0.00
   10    3   17      0.00      0.00
   11    3   17     -0.34      0.00
   12    3   17     -0.62      0.00
   13    3   17      0.36      0.00
   14    3   17     -0.77      0.00
   15    3   17      1.37      0.00
   16    3   17     -0.15      0.00
   17    3   17      1.57      0.00
   18    3   17      0.84      0.00
   19    3   17      0.53      0.00
   20    3   17      1.49      0.00
   21    3   17     -0.94      0.00
   22    3   17      1.46      0.00
   23    3   17     -1.66      0.00
    0    4   17      1.06      0.00
    1    4   17     -0.67      0.00
    2    4   17      0.64      0.00
    3    4   17     -1.60      0.00
    4    4   17     -0.29      0.00
    5    4   17     -1.64      0.00
    6    4   17     -0.90      0.00
    7    4   17     -0.87      0.00
    8    4   17     -0.64      0.00
    9    4   17      0.18      0.00
   10    4   17      0.26      0.00
   11    4   17      0.77      0.00
   12    4   17      0.98      0.00
   13    4   17      0.40      0.00
   14    4   17      0.94      0.00
   15    4   17     -0.85      0.00
   16    4   17      0.41      0.00
   17    4   17     -2.15      0.00
   18    4   17      0.13      0.00
   19    4   17     -2.54      0.00
   20    4   17      0.43      0.00
   21    4   17     -1.82      0.00
   22    4   17      0.88      0.00
   23    4   17     -0.69      0.00
    1    5   17      0.21      0.00
    2    5   17      1.78      0.00
    3    5   17      0.21      0.00
    4    5   17      2.10      0.00
    5    5   17      0.22      0.00
    6    5   17      1.10      0.00
    7    5   17      0.12      0.00
    8    5   17     -0.25      0.00
    9    5   17     -0.09      0.00
   10    5   17     -0.75      0.00
   11    5   17     -0.38      0.00
   12    5   17     -0.10      0.00
   13    5   17     -0.76      0.00
   14    5   17      1.06      0.00
   15    5   17     -1.12      0.00
   16    5   17      1.80      0.00
   17    5   17     -1.19      0.00
   18    5   17      1.71      0.00
   19    5   17     -0.87      0.00
   20    5   17      1.05      0.00
   21    5   17     -0.43      0.00
   22    5   17      0.33      0.00
    0    6   17      1.01      0.00
    1    6   17     -0.22      0.00
    2    6   17      1.38      0.00
    3    6   17     -0.55      0.00
    4    6   17      1.85      0.00
    5    6   17      0.00      0.00
    6    6   17      1.78      0.00
    7    6   17      0.99      0.00
    8    6   17      0.87      0.00
    9    6   17      1.43      0.00
   10    6   17     -0.41      0.00
   11    6   17      0.88      0.00
   12    6   17     -1.09      0.00
   13    6   17      0.03      0.00
   14    6   17     -0.69      0.00
   15    6   17     -0.12      0.00
   16    6   17      0.25      0.00
   17    6   17      0.55      0.00
   18    6   17      0.76      0.00
   19    6   17      1.12      0.00
   20    6   17      0.53      0.00
   21    6   17      0.88      0.00
   22    6   17      0.10      0.00
    1    7   17     -3.13      0.00
    2    7   17     -1.01      0.00
    3    7   17     -3.19      0.00
    4    7   17     -1.31      0.00
    5    7   17     -2.68      0.00
    6    7   17     -1.33      0.00
    7    7   17     -1.22      0.00
    8    7   17     -1.28      0.00
    9    7   17      0.60      0.00
   10    7   17     -1.22      0.00
   11    7   17      1.68      0.00
   12    7   17     -1.10      0.00
   13    7   17      1.59      0.00
   14    7   17     -1.05      0.00
   15    7   17      0.93      0.00
   16    7   17     -1.18      0.00
   17    7   17      0.59      0.00
   18    7   17     -1.28      0.00
   19    7   17      0.77      0.00
   20    7   17     -0.96      0.00
   21    7   17      0.96      0.00
   22    7   17     -0.20      0.00
    0    8   17      0.92      0.00
    1    8   17      0.48      0.00
    2    8   17      0.74      0.00
    3    8   17      1.05      0.00
    4    8   17      0.28      0.00
    5    8   17      0.75      0.00
    6    8   17     -0.51      0.00
    7    8   17      0.03      0.00
    8    8   17     -1.28      0.00
    9    8   17     -0.25      0.00
   10    8   17     -1.52      0.00
   11    8   17      0.15      0.00
   12    8   17     -1.25      0.00
   13    8   17      0.68      0.00
   14    8   17     -1.10      0.00
   15    8   17      0.64      0.00
   16    8   17     -1.46      0.00
   17    8   17      0.05      0.00
   18    8   17     -2.03      0.00
   19    8   17     -0.49      0.00
   20    8   17     -2.15      0.00
   21    8   17     -0.54      0.00
    1    9   17      1.70      0.00
    2    9   17     -0.33      0.00
    3    9   17      1.85      0.00
    4    9   17     -0.45      0.00
    5    9   17      1.94      0.00
    6    9   17     -0.24      0.00
    7    9   17      1.71      0.00
    8    9   17      0.17      0.00
    9    9   17      1.24      0.00
   10    9   17      0.32      0.00
   11    9   17      0.99      0.00
   12    9   17     -0.04      0.00
   13    9   17      1.22      0.00
   14    9   17     -0.49      0.00
   15    9   17      1.64      0.00
   16    9   17     -0.45      0.00
   17    9   17      1.74      0.00
   18    9   17      0.05      0.00
   19    9   17      1.34      0.00
   20    9   17      0.38      0.00
    0   10   17     -1.43      0.00
    1   10   17      0.41      0.00
    2   10   17     -1.01      0.00
    3   10   17      0.81      0.00
    4   10   17     -0.45      0.00
    5   10   17      1.32      0.00
    6   10   17      0.09      0.00
    7   10   17      1.55      0.00
    8   10   17      0.25      0.00
    9   10   17      1.25      0.00
   10   10   17     -0.23      0.00
   11   10   17      0.77      0.00
   12   10   17     -1.07      0.00
   13   10   17      0.65      0.00
   14   10   17     -1.49      0.00
   15   10   17      0.91      0.00
   16   10   17     -1.01      0.00
   17   10   17      1.12      0.00
   18   10   17     -0.07      0.00
   19   10   17      0.98      0.00
   20   10   17      0.51      0.00
    1   11   17      1.09      0.00
    2   11   17     -0.61      0.00
    3   11   17      0.11      0.00
    4   11   17     -1.05      0.00
    5   11   17     -0.97      0.00
    6   11   17     -1.24      0.00
    7   11   17     -1.33      0.00
    8   11   17     -1.22      0.00
    9   11   17     -0.77      0.00
   10   11   17     -0.97      0.00
   11   11   17      0.11      0.00
   12   11   17     -0.56      0.00
   13   11   17      0.53      0.00
   14   11   17     -0.21      0.00
   15   11   17      0.23      0.00
   16   11   17     -0.19      0.00
   17   11   17     -0.30      0.00
   18   11   17     -0.48      0.00
   19   11   17     -0.46      0.00
    0   12   17     -1.19      0.00
    1   12   17      0.16      0.00
    2   12   17     -1.24      0.00
    3   12   17      0.18      0.00
    4   12   17     -1.13      0.00
    5   12   17     -0.17      0.00
    6   12   17     -0.95      0.00
    7   12   17     -0.43      0.00
    8   12   17     -0.64      0.00
    9   12   17     -0.28      0.00
   10   12   17     -0.13      0.00
   11   12   17      0.04      0.00
   12   12   17      0.45      0.00
   13   12   17      0.03      0.00
   14   12   17      0.75      0.00
   15   12   17     -0.31      0.00
   16   12   17      0.54      0.00
   17   12   17     -0.51      0.00
   18   12   17      0.09      0.00
    1   13   17     -0.01      0.00
    2   13   17     -0.18      0.00
    3   13   17      1.11      0.00
    4   13   17      0.26      0.00
    5   13   17      2.24      0.00
    6   13   17      0.69      0.00
    7   13   17      2.30      0.00
    8   13   17      0.84      0.00
    9   13   17      1.12      0.00
   10   13   17      0.57      0.00
   11   13   17     -0.38      0.00
   12   13   17      0.05      0.00
   13   13   17     -1.06      0.00
   14   13   17     -0.35      0.00
   15   13   17     -0.66      0.00
   16   13   17     -0.37      0.00
    0   14   17      1.17      0.00
    1   14   17      0.27      0.00
    2   14   17      1.05      0.00
    3   14   17      0.40      0.00
    4   14   17      0.63      0.00
    5   14   17      0.28      0.00
    6   14   17      0.44      0.00
    7   14   17     -0.09      0.00
    8   14   17      0.64      0.00
    9   14   17     -0.47      0.00
   10   14   17      0.85      0.00
   11   14   17     -0.47      0.00
   12   14   17      0.67      0.00
   13   14   17      0.06      0.00
   14   14   17      0.15      0.00
   15   14   17      0.73      0.00
    1   15   17     -1.60      0.00
    2   15   17     -0.44      0.00
    3   15   17     -2.41      0.00
    4   15   17     -0.83      0.00
    5   15   17     -3.12      0.00
    6   15   17     -0.78      0.00
    7   15   17     -2.93      0.00
    8   15   17     -0.46      0.00
    9   15   17     -1.65      0.00
   10   15   17     -0.17      0.00
   11   15   17     -0.03      0.00
   12   15   17     -0.06      0.00
   13   15   17      0.89      0.00
    0   16   17      1.26      0.00
    1   16   17      0.06      0.00
    2   16   17      1.38      0.00
    3   16   17      0.18      0.00
    4   16   17      1.48      0.00
    5   16   17      0.32      0.00
    6   16   17      1.01      0.00
    7   16   17      0.47      0.00
    8   16   17     -0.12      0.00
    9   16   17      0.55      0.00
   10   16   17     -1.29      0.00
   11   16   17      0.38      0.00
    1   17   17     -0.53      0.00
    2   17   17      0.45      0.00
    3   17   17     -0.03      0.00
    4   17   17      0.80      0.00
    5   17   17      0.77      0.00
    6   17   17      0.80      0.00
    7   17   17      1.47      0.00
    8   17   17      0.68      0.00
    0   18   17      0.51      0.00
    1   18   17     -0.17      0.00
    2   18   17      0.57      0.00
    3   18   17     -0.47      0.00
    4   18   17      0.63      0.00
    0    0   18     -1.63      0.00
    1    0   18     -0.32      0.00
    2    0   18     -1.58      0.00
    3    0   18     -0.49      0.00
    4    0   18     -1.42      0.00
    5    0   18     -0.50      0.00
    6    0   18     -1.03      0.00
    7    0   18     -0.21      0.00
    8    0   18     -0.38      0.00
    9    0   18      0.36      0.00
   10    0   18      0.25      0.00
   11    0   18      0.83      0.00
   12    0   18      0.41      0.00
   13    0   18      0.62      0.00
   14    0   18      0.14      0.00
   15    0   18     -0.39      0.00
   16    0   18      0.01      0.00
   17    0   18     -1.55      0.00
   18    0   18      0.47      0.00
   19    0   18     -1.95      0.00
   20    0   18      1.11      0.00
   21    0   18     -1.36      0.00
   22    0   18      1.13      0.00
    1    1   18      0.27      0.00
    2    1   18      0.22      0.00
    3    1   18      0.40      0.00
    4    1   18      0.10      0.00
    5    1   18      0.52      0.00
    6    1   18     -0.36      0.00
    7    1   18      0.45      0.00
    8    1   18     -0.91      0.00
    9    1   18      0.14      0.00
   10    1   18     -1.21      0.00
   11    1   18     -0.24      0.00
   12    1   18     -1.02      0.00
   13    1   18     -0.46      0.00
   14    1   18     -0.31      0.00
   15    1   18     -0.45      0.00
   16    1   18      0.57      0.00
   17    1   18     -0.38      0.00
   18    1   18      1.04      0.00
   19    1   18     -0.38      0.00
   20    1   18      0.81      0.00
   21    1   18     -0.40      0.00
   22    1   18      0.15      0.00
    0    2   18      0.54      0.00
    1    2   18     -0.01      0.00
    2    2   18      0.41      0.00
    3    2   18     -0.02      0.00
    4    2   18      0.12      0.00
    5    2   18      0.48      0.00
    6    2   18     -0.15      0.00
    7    2   18      0.98      0.00
    8    2   18     -0.33      0.00
    9    2   18      0.88      0.00
   10    2   18     -0.37      0.00
   11    2   18      0.22      0.00
   12    2   18     -0.20      0.00
   13    2   18     -0.33      0.00
   14    2   18      0.08      0.00
   15    2   18     -0.24      0.00
   16    2   18      0.12      0.00
   17    2   18      0.37      0.00
   18    2   18     -0.22      0.00
   19    2   18      0.98      0.00
   20    2   18     -0.57      0.00
   21    2   18      1.18      0.00
   22    2   18     -0.41      0.00
    1    3   18      0.70      0.00
    2    3   18      0.24      0.00
    3    3   18      0.75      0.00
    4    3   18      0.44      0.00
    5    3   18      0.71      0.00
    6    3   18      0.72      0.00
    7    3   18      0.61      0.00
    8    3   18      1.29      0.00
    9    3   18      0.61      0.00
   10    3   18      2.02      0.00
   11    3   18      0.76      0.00
   12    3   18      2.30      0.00
   13    3   18      0.85      0.00
   14    3   18      1.51      0.00
   15    3   18      0.72      0.00
   16    3   18     -0.14      0.00
   17    3   18      0.44      0.00
   18    3   18     -1.62      0.00
   19    3   18      0.20      0.00
   20    3   18     -1.98      0.00
   21    3   18      0.02      0.00
   22    3   18     -1.28      0.00
    0    4   18     -0.28      0.00
    1    4   18     -0.16      0.00
    2    4   18     -0.25      0.00
    3    4   18     -0.49      0.00
    4    4   18     -0.22      0.00
    5    4   18     -1.32      0.00
    6    4   18     -0.23      0.00
    7    4   18     -2.17      0.00
    8    4   18     -0.24      0.00
    9    4   18     -2.42      0.00
   10    4   18     -0.16      0.00
   11    4   18     -1.93      0.00
   12    4   18      0.02      0.00
   13    4   18     -1.02      0.00
   14    4   18      0.27      0.00
   15    4   18     -0.06      0.00
   16    4   18      0.60      0.00
   17    4   18      0.63      0.00
   18    4   18      0.93      0.00
   19    4   18      0.79      0.00
   20    4   18      0.98      0.00
   21    4   18      0.40      0.00
   22    4   18      0.57      0.00
    1    5   18     -0.63      0.00
    2    5   18      0.19      0.00
    3    5   18     -0.87      0.00
    4    5   18      0.37      0.00
    5    5   18     -0.98      0.00
    6    5   18      0.66      0.00
    7    5   18     -0.82      0.00
    8    5   18      0.43      0.00
    9    5   18     -0.73      0.00
   10    5   18     -0.46      0.00
   11    5   18     -1.04      0.00
   12    5   18     -1.35      0.00
   13    5   18     -1.59      0.00
   14    5   18     -1.45      0.00
   15    5   18     -1.87      0.00
   16    5   18     -0.69      0.00
   17    5   18     -1.66      0.00
   18    5   18      0.32      0.00
   19    5   18     -1.10      0.00
   20    5   18      0.89      0.00
   21    5   18     -0.45      0.00
    0    6   18     -0.15      0.00
    1    6   18     -0.05      0.00
    2    6   18     -0.03      0.00
    3    6   18      0.00      0.00
    4    6   18      0.29      0.00
    5    6   18      0.35      0.00
    6    6   18      0.58      0.00
    7    6   18      0.82      0.00
    8    6   18      0.72      0.00
    9    6   18      1.23      0.00
   10    6   18      0.79      0.00
   11    6   18      1.50      0.00
   12    6   18      0.88      0.00
   13    6   18      1.61      0.00
   14    6   18      0.91      0.00
   15    6   18      1.41      0.00
   16    6   18      0.74      0.00
   17    6   18      0.81      0.00
   18    6   18      0.43      0.00
   19    6   18      0.08      0.00
   20    6   18      0.23      0.00
   21    6   18     -0.34      0.00
    1    7   18     -0.28      0.00
    2    7   18     -0.20      0.00
    3    7   18      0.05      0.00
    4    7   18     -0.04      0.00
    5    7   18      0.28      0.00
    6    7   18     -0.04      0.00
    7    7   18      0.20      0.00
    8    7   18      0.18      0.00
    9    7   18      0.04      0.00
   10    7   18      0.50      0.00
   11    7   18      0.10      0.00
   12    7   18      0.30      0.00
   13    7   18      0.34      0.00
   14    7   18     -0.69      0.00
   15    7   18      0.44      0.00
   16    7   18     -1.84      0.00
   17    7   18      0.21      0.00
   18    7   18     -2.24      0.00
   19    7   18     -0.26      0.00
   20    7   18     -1.65      0.00
   21    7   18     -0.77      0.00
    0    8   18      1.47      0.00
    1    8   18      0.02      0.00
    2    8   18      1.21      0.00
    3    8   18     -0.39      0.00
    4    8   18      0.62      0.00
    5    8   18     -0.97      0.00
    6    8   18      0.10      0.00
    7    8   18     -1.53      0.00
    8    8   18     -0.14      0.00
    9    8   18     -1.75      0.00
   10    8   18     -0.17      0.00
   11    8   18     -1.34      0.00
   12    8   18     -0.13      0.00
   13    8   18     -0.31      0.00
   14    8   18     -0.06      0.00
   15    8   18      0.94      0.00
   16    8   18      0.07      0.00
   17    8   18      1.85      0.00
   18    8   18      0.22      0.00
   19    8   18      1.96      0.00
   20    8   18      0.30      0.00
    1    9   18     -0.20      0.00
    2    9   18      1.11      0.00
    3    9   18     -0.30      0.00
    4    9   18      1.40      0.00
    5    9   18     -0.29      0.00
    6    9   18      1.27      0.00
    7    9   18     -0.05      0.00
    8    9   18      0.71      0.00
    9    9   18      0.15      0.00
   10    9   18      0.05      0.00
   11    9   18      0.07      0.00
   12    9   18     -0.22      0.00
   13    9   18     -0.24      0.00
   14    9   18      0.03      0.00
   15    9   18     -0.45      0.00
   16    9   18      0.40      0.00
   17    9   18     -0.32      0.00
   18    9   18      0.45      0.00
   19    9   18      0.08      0.00
    0   10   18     -1.39      0.00
    1   10   18     -0.57      0.00
    2   10   18     -1.25      0.00
    3   10   18     -1.15      0.00
    4   10   18     -0.92      0.00
    5   10   18     -0.51      0.00
    6   10   18     -0.66      0.00
    7   10   18      0.86      0.00
    8   10   18     -0.56      0.00
    9   10   18      1.80      0.00
   10   10   18     -0.50      0.00
   11   10   18      1.52      0.00
   12   10   18     -0.35      0.00
   13   10   18      0.19      0.00
   14   10   18     -0.11      0.00
   15   10   18     -1.31      0.00
   16   10   18      0.13      0.00
   17   10   18     -2.19      0.00
   18   10   18      0.24      0.00
    1   11   18      1.60      0.00
    2   11   18     -0.22      0.00
    3   11   18      1.28      0.00
    4   11   18     -0.17      0.00
    5   11   18      0.68      0.00
    6   11   18     -0.38      0.00
    7   11   18      0.03      0.00
    8   11   18     -0.49      0.00
    9   11   18     -0.31      0.00
   10   11   18     -0.17      0.00
   11   11   18     -0.18      0.00
   12   11   18      0.50      0.00
   13   11   18      0.13      0.00
   14   11   18      1.24      0.00
   15   11   18      0.15      0.00
   16   11   18      1.87      0.00
   17   11   18     -0.24      0.00
    0   12   18     -1.29      0.00
    1   12   18      0.46      0.00
    2   12   18     -0.92      0.00
    3   12   18      1.03      0.00
    4   12   18      0.03      0.00
    5   12   18      0.08      0.00
    6   12   18      1.12      0.00
    7   12   18     -1.62      0.00
    8   12   18      1.75      0.00
    9   12   18     -2.63      0.00
   10   12   18      1.59      0.00
   11   12   18     -2.36      0.00
   12   12   18      0.90      0.00
   13   12   18     -1.47      0.00
   14   12   18      0.32      0.00
   15   12   18     -0.91      0.00
   16   12   18      0.21      0.00
    1   13   18     -0.41      0.00
    2   13   18     -0.65      0.00
    3   13   18     -0.67      0.00
    4   13   18     -0.83      0.00
    5   13   18     -0.96      0.00
    6   13   18      0.09      0.00
    7   13   18     -1.06      0.00
    8   13   18      0.96      0.00
    9   13   18     -0.92      0.00
   10   13   18      0.95      0.00
   11   13   18     -0.69      0.00
   12   13   18      0.33      0.00
   13   13   18     -0.55      0.00
   14   13   18     -0.13      0.00
   15   13   18     -0.47      0.00
    0   14   18      1.66      0.00
    1   14   18     -0.17      0.00
    2   14   18      1.38      0.00
    3   14   18     -0.02      0.00
    4   14   18      0.63      0.00
    5   14   18      0.99      0.00
    6   14   18     -0.24      0.00
    7   14   18      2.23      0.00
    8   14   18     -0.75      0.00
    9   14   18      2.69      0.00
   10   14   18     -0.58      0.00
   11   14   18      1.99      0.00
   12   14   18      0.01      0.00
   13   14   18      0.76      0.00
    1   15   18     -0.65      0.00
    2   15   18      0.94      0.00
    3   15   18     -0.54      0.00
    4   15   18      0.68      0.00
    5   15   18     -0.28      0.00
    6   15   18     -0.91      0.00
    7   15   18     -0.03      0.00
    8   15   18     -2.15      0.00
    9   15   18     -0.02      0.00
   10   15   18     -1.78      0.00
   11   15   18     -0.24      0.00
    0   16   18      0.01      0.00
    1   16   18     -0.34      0.00
    2   16   18      0.27      0.00
    3   16   18     -1.02      0.00
    4   16   18      0.78      0.00
    5   16   18     -1.16      0.00
    6   16   18      1.18      0.00
    7   16   18     -0.96      0.00
    8   16   18      1.22      0.00
    9   16   18     -0.82      0.00
    1   17   18     -0.83      0.00
    2   17   18      0.21      0.00
    3   17   18     -0.68      0.00
    4   17   18      0.71      0.00
    5   17   18     -0.52      0.00
    1    1   19     -0.99      0.00
    2    1   19     -0.20      0.00
    3    1   19     -0.65      0.00
    4    1   19     -0.17      0.00
    5    1   19     -0.14      0.00
    6    1   19     -0.08      0.00
    7    1   19      0.25      0.00
    8    1   19     -0.24      0.00
    9    1   19      0.26      0.00
   10    1   19     -0.58      0.00
   11    1   19     -0.04      0.00
   12    1   19     -0.78      0.00
   13    1   19     -0.43      0.00
   14    1   19     -0.80      0.00
   15    1   19     -0.85      0.00
   16    1   19     -0.87      0.00
   17    1   19     -1.35      0.00
   18    1   19     -1.02      0.00
   19    1   19     -1.72      0.00
   20    1   19     -0.94      0.00
   21    1   19     -1.47      0.00
    0    2   19      1.22      0.00
    1    2   19      0.38      0.00
    2    2   19      1.10      0.00
    3    2   19      0.74      0.00
    4    2   19      0.73      0.00
    5    2   19      1.00      0.00
    6    2   19      0.26      0.00
    7    2   19      1.53      0.00
    8    2   19      0.10      0.00
    9    2   19      2.47      0.00
   10    2   19      0.55      0.00
   11    2   19      3.39      0.00
   12    2   19      1.47      0.00
   13    2   19      3.75      0.00
   14    2   19      2.35      0.00
   15    2   19      3.40      0.00
   16    2   19      2.74      0.00
   17    2   19      2.58      0.00
   18    2   19      2.53      0.00
   19    2   19      1.63      0.00
   20    2   19      1.85      0.00
   21    2   19      0.81      0.00
    1    3   19      0.66      0.00
    2    3   19     -0.01      0.00
    3    3   19      0.30      0.00
    4    3   19     -0.12      0.00
    5    3   19     -0.13      0.00
    6    3   19     -0.52      0.00
    7    3   19     -0.42      0.00
    8    3   19     -1.24      0.00
    9    3   19     -0.61      0.00
   10    3   19     -2.21      0.00
   11    3   19     -0.97      0.00
   12    3   19     -3.21      0.00
   13    3   19     -1.52      0.00
   14    3   19     -3.79      0.00
   15    3   19     -1.94      0.00
   16    3   19     -3.53      0.00
   17    3   19     -1.81      0.00
   18    3   19     -2.45      0.00
   19    3   19     -1.17      0.00
   20    3   19     -1.21      0.00
   21    3   19     -0.55      0.00
    0    4   19     -1.82      0.00
    1    4   19     -0.85      0.00
    2    4   19     -1.56      0.00
    3    4   19     -2.18      0.00
    4    4   19     -0.94      0.00
    5    4   19     -2.84      0.00
    6    4   19     -0.34      0.00
    7    4   19     -2.98      0.00
    8    4   19     -0.16      0.00
    9    4   19     -2.80      0.00
   10    4   19     -0.44      0.00
   11    4   19     -2.20      0.00
   12    4   19     -0.78      0.00
   13    4   19     -1.12      0.00
   14    4   19     -0.70      0.00
   15    4   19      0.08      0.00
   16    4   19     -0.20      0.00
   17    4   19      0.87      0.00
   18    4   19      0.32      0.00
   19    4   19      1.00      0.00
   20    4   19      0.51      0.00
   21    4   19      0.74      0.00
    1    5   19     -0.05      0.00
    2    5   19      2.57      0.00
    3    5   19      0.18      0.00
    4    5   19      4.40      0.00
    5    5   19      0.51      0.00
    6    5   19      5.17      0.00
    7    5   19      0.85      0.00
    8    5   19      5.09      0.00
    9    5   19      1.08      0.00
   10    5   19      4.65      0.00
   11    5   19      1.06      0.00
   12    5   19      4.19      0.00
   13    5   19      0.68      0.00
   14    5   19      3.68      0.00
   15    5   19     -0.02      0.00
   16    5   19      2.85      0.00
   17    5   19     -0.74      0.00
   18    5   19      1.61      0.00
   19    5   19     -1.08      0.00
   20    5   19      0.39      0.00
    0    6   19      0.65      0.00
    1    6   19     -0.70      0.00
    2    6   19      0.34      0.00
    3    6   19     -2.78      0.00
    4    6   19     -0.37      0.00
    5    6   19     -3.83      0.00
    6    6   19     -0.97      0.00
    7    6   19     -3.69      0.00
    8    6   19     -0.93      0.00
    9    6   19     -2.94      0.00
   10    6   19     -0.10      0.00
   11    6   19     -2.47      0.00
   12    6   19      1.12      0.00
   13    6   19     -2.71      0.00
   14    6   19      2.03      0.00
   15    6   19     -3.19      0.00
   16    6   19      2.17      0.00
   17    6   19     -3.07      0.00
   18    6   19      1.64      0.00
   19    6   19     -2.10      0.00
   20    6   19      0.88      0.00
    1    7   19      1.00      0.00
    2    7   19     -0.07      0.00
    3    7   19      1.42      0.00
    4    7   19      1.15      0.00
    5    7   19      1.68      0.00
    6    7   19      1.69      0.00
    7    7   19      1.24      0.00
    8    7   19      1.69      0.00
    9    7   19      0.09      0.00
   10    7   19      1.50      0.00
   11    7   19     -1.20      0.00
   12    7   19      1.21      0.00
   13    7   19     -1.95      0.00
   14    7   19      0.86      0.00
   15    7   19     -1.87      0.00
   16    7   19      0.60      0.00
   17    7   19     -1.26      0.00
   18    7   19      0.62      0.00
   19    7   19     -0.68      0.00
    0    8   19     -0.27      0.00
    1    8   19      1.21      0.00
    2    8   19     -0.51      0.00
    3    8   19      1.29      0.00
    4    8   19     -0.90      0.00
    5    8   19      0.55      0.00
    6    8   19     -0.88      0.00
    7    8   19     -0.68      0.00
    8    8   19     -0.35      0.00
    9    8   19     -1.61      0.00
   10    8   19      0.26      0.00
   11    8   19     -1.40      0.00
   12    8   19      0.49      0.00
   13    8   19      0.01      0.00
   14    8   19      0.37      0.00
   15    8   19      1.56      0.00
   16    8   19      0.26      0.00
   17    8   19      1.96      0.00
   18    8   19      0.41      0.00
   19    8   19      0.95      0.00
    1    9   19     -0.73      0.00
    2    9   19     -0.91      0.00
    3    9   19     -0.76      0.00
    4    9   19     -2.97      0.00
    5    9   19     -0.74      0.00
    6    9   19     -2.89      0.00
    7    9   19     -0.61      0.00
    8    9   19     -1.83      0.00
    9    9   19     -0.39      0.00
   10    9   19     -1.27      0.00
   11    9   19     -0.20      0.00
   12    9   19     -1.51      0.00
   13    9   19     -0.19      0.00
   14    9   19     -1.77      0.00
   15    9   19     -0.37      0.00
   16    9   19     -1.33      0.00
   17    9   19     -0.57      0.00
   18    9   19     -0.36      0.00
    0   10   19     -1.20      0.00
    1   10   19     -2.54      0.00
    2   10   19     -0.80      0.00
    3   10   19      2.51      0.00
    4   10   19      0.01      0.00
    5   10   19      6.16      0.00
    6   10   19      0.57      0.00
    7   10   19      7.84      0.00
    8   10   19      0.66      0.00
    9   10   19      7.82      0.00
   10   10   19      0.61      0.00
   11   10   19      6.24      0.00
   12   10   19      0.79      0.00
   13   10   19      3.28      0.00
   14   10   19      1.09      0.00
   15   10   19     -0.06      0.00
   16   10   19      1.08      0.00
   17   10   19     -2.18      0.00
    1   11   19      2.30      0.00
    2   11   19      0.17      0.00
    3   11   19      1.64      0.00
    4   11   19     -3.56      0.00
    5   11   19      0.72      0.00
    6   11   19     -7.43      0.00
    7   11   19     -0.06      0.00
    8   11   19     -9.45      0.00
    9   11   19     -0.60      0.00
   10   11   19     -8.16      0.00
   11   11   19     -0.96      0.00
   12   11   19     -4.11      0.00
   13   11   19     -1.10      0.00
   14   11   19      0.37      0.00
   15   11   19     -0.88      0.00
   16   11   19      2.95      0.00
    0   12   19     -1.44      0.00
    1   12   19     -0.40      0.00
    2   12   19     -1.16      0.00
    3   12   19     -1.89      0.00
    4   12   19     -0.46      0.00
    5   12   19     -1.46      0.00
    6   12   19      0.39      0.00
    7   12   19     -0.28      0.00
    8   12   19      1.04      0.00
    9   12   19     -0.31      0.00
   10   12   19      1.23      0.00
   11   12   19     -1.90      0.00
   12   12   19      0.90      0.00
   13   12   19     -3.47      0.00
   14   12   19      0.27      0.00
   15   12   19     -3.52      0.00
    1   13   19      1.01      0.00
    2   13   19      3.06      0.00
    3   13   19      0.30      0.00
    4   13   19      7.09      0.00
    5   13   19     -0.68      0.00
    6   13   19      9.85      0.00
    7   13   19     -1.34      0.00
    8   13   19     11.00      0.00
    9   13   19     -1.30      0.00
   10   13   19     10.40      0.00
   11   13   19     -0.64      0.00
   12   13   19      8.12      0.00
   13   13   19      0.18      0.00
    0   14   19     -1.12      0.00
    1   14   19     -0.97      0.00
    2   14   19     -0.94      0.00
    3   14   19     -4.14      0.00
    4   14   19     -0.49      0.00
    5   14   19     -7.51      0.00
    6   14   19     -0.04      0.00
    7   14   19     -9.81      0.00
    8   14   19      0.11      0.00
    9   14   19     -9.69      0.00
   10   14   19     -0.12      0.00
   11   14   19     -7.09      0.00
    1   15   19      0.59      0.00
    2   15   19      0.27      0.00
    3   15   19      0.75      0.00
    4   15   19      0.79      0.00
    5   15   19      0.84      0.00
    6   15   19      1.40      0.00
    7   15   19      0.65      0.00
    8   15   19      1.54      0.00
    9   15   19      0.31      0.00
    0   16   19     -0.21      0.00
    1   16   19      0.43      0.00
    2   16   19     -0.10      0.00
    3   16   19      1.24      0.00
    4   16   19      0.16      0.00
    5   16   19      2.04      0.00
    6   16   19      0.47      0.00
    0    0   20      0.33      0.00
    1    0   20      0.25      0.00
    2    0   20      0.25      0.00
    3    0   20      0.33      0.00
    4    0   20     -0.18      0.00
    5    0   20      0.27      0.00
    6    0   20     -1.11      0.00
    7    0   20      0.31      0.00
    8    0   20     -2.15      0.00
    9    0   20      0.73      0.00
   10    0   20     -2.58      0.00
   11    0   20      1.55      0.00
   12    0   20     -2.03      0.00
   13    0   20      2.35      0.00
   14    0   20     -0.92      0.00
   15    0   20      2.57      0.00
   16    0   20     -0.04      0.00
   17    0   20      1.96      0.00
   18    0   20      0.20      0.00
   19    0   20      0.83      0.00
   20    0   20      0.04      0.00
    1    1   20     -0.08      0.00
    2    1   20     -0.21      0.00
    3    1   20      0.09      0.00
    4    1   20     -0.31      0.00
    5    1   20      0.54      0.00
    6    1   20     -0.25      0.00
    7    1   20      1.18      0.00
    8    1   20     -0.12      0.00
    9    1   20      1.73      0.00
   10    1   20     -0.05      0.00
   11    1   20      1.91      0.00
   12    1   20     -0.14      0.00
   13    1   20      1.67      0.00
   14    1   20     -0.35      0.00
   15    1   20      1.18      0.00
   16    1   20     -0.49      0.00
   17    1   20      0.65      0.00
   18    1   20     -0.33      0.00
   19    1   20      0.25      0.00
   20    1   20      0.10      0.00
    0    2   20      0.35      0.00
    1    2   20      0.13      0.00
    2    2   20      0.29      0.00
    3    2   20      0.53      0.00
    4    2   20      0.15      0.00
    5    2   20      0.55      0.00
    6    2   20      0.13      0.00
    7    2   20      0.10      0.00
    8    2   20      0.19      0.00
    9    2   20     -0.77      0.00
   10    2   20      0.09      0.00
   11    2   20     -1.78      0.00
   12    2   20     -0.30      0.00
   13    2   20     -2.51      0.00
   14    2   20     -0.79      0.00
   15    2   20     -2.58      0.00
   16    2   20     -1.00      0.00
   17    2   20     -2.00      0.00
   18    2   20     -0.76      0.00
   19    2   20     -1.18      0.00
   20    2   20     -0.31      0.00
    1    3   20     -0.43      0.00
    2    3   20     -0.53      0.00
    3    3   20     -0.59      0.00
    4    3   20     -0.69      0.00
    5    3   20     -0.99      0.00
    6    3   20     -0.30      0.00
    7    3   20     -1.57      0.00
    8    3   20      0.46      0.00
    9    3   20     -2.07      0.00
   10    3   20      1.31      0.00
   11    3   20     -2.19      0.00
   12    3   20      2.06      0.00
   13    3   20     -1.85      0.00
   14    3   20      2.54      0.00
   15    3   20     -1.15      0.00
   16    3   20      2.55      0.00
   17    3   20     -0.36      0.00
   18    3   20      1.96      0.00
   19    3   20      0.17      0.00
   20    3   20      1.01      0.00
    0    4   20     -1.50      0.00
    1    4   20      0.01      0.00
    2    4   20     -1.22      0.00
    3    4   20     -0.18      0.00
    4    4   20     -0.39      0.00
    5    4   20     -0.32      0.00
    6    4   20      0.78      0.00
    7    4   20     -0.53      0.00
    8    4   20      1.83      0.00
    9    4   20     -0.84      0.00
   10    4   20      2.35      0.00
   11    4   20     -1.11      0.00
   12    4   20      2.27      0.00
   13    4   20     -1.19      0.00
   14    4   20      1.76      0.00
   15    4   20     -1.08      0.00
   16    4   20      1.04      0.00
   17    4   20     -0.86      0.00
   18    4   20      0.39      0.00
   19    4   20     -0.51      0.00
   20    4   20      0.03      0.00
    1    5   20      1.92      0.00
    2    5   20      0.70      0.00
    3    5   20      1.80      0.00
    4    5   20      1.11      0.00
    5    5   20      1.25      0.00
    6    5   20      0.85      0.00
    7    5   20      0.31      0.00
    8    5   20      0.47      0.00
    9    5   20     -0.52      0.00
   10    5   20      0.30      0.00
   11    5   20     -0.71      0.00
   12    5   20      0.19      0.00
   13    5   20     -0.32      0.00
   14    5   20     -0.07      0.00
   15    5   20      0.06      0.00
   16    5   20     -0.37      0.00
   17    5   20      0.00      0.00
   18    5   20     -0.45      0.00
   19    5   20     -0.34      0.00
    0    6   20      0.91      0.00
    1    6   20     -0.14      0.00
    2    6   20      0.44      0.00
    3    6   20     -0.39      0.00
    4    6   20     -0.45      0.00
    5    6   20     -0.47      0.00
    6    6   20     -0.97      0.00
    7    6   20     -0.22      0.00
    8    6   20     -0.79      0.00
    9    6   20      0.41      0.00
   10    6   20     -0.26      0.00
   11    6   20      1.14      0.00
   12    6   20      0.05      0.00
   13    6   20      1.56      0.00
   14    6   20     -0.01      0.00
   15    6   20      1.43      0.00
   16    6   20     -0.07      0.00
   17    6   20      0.90      0.00
   18    6   20      0.09      0.00
   19    6   20      0.40      0.00
    1    7   20     -0.82      0.00
    2    7   20     -0.31      0.00
    3    7   20     -0.38      0.00
    4    7   20     -0.48      0.00
    5    7   20      0.25      0.00
    6    7   20      0.00      0.00
    7    7   20      0.68      0.00
    8    7   20      0.12      0.00
    9    7   20      0.61      0.00
   10    7   20     -0.66      0.00
   11    7   20      0.15      0.00
   12    7   20     -1.70      0.00
   13    7   20     -0.28      0.00
   14    7   20     -2.04      0.00
   15    7   20     -0.30      0.00
   16    7   20     -1.49      0.00
   17    7   20      0.03      0.00
   18    7   20     -0.74      0.00
    0    8   20     -2.55      0.00
    1    8   20     -0.02      0.00
    2    8   20     -2.18      0.00
    3    8   20      0.20      0.00
    4    8   20     -1.43      0.00
    5    8   20      0.12      0.00
    6    8   20     -0.92      0.00
    7    8   20     -0.11      0.00
    8    8   20     -0.90      0.00
    9    8   20     -0.16      0.00
   10    8   20     -1.08      0.00
   11    8   20      0.12      0.00
   12    8   20     -1.12      0.00
   13    8   20      0.63      0.00
   14    8   20     -0.94      0.00
   15    8   20      1.17      0.00
   16    8   20     -0.73      0.00
   17    8   20      1.47      0.00
    1    9   20      2.36      0.00
    2    9   20      0.78      0.00
    3    9   20      1.58      0.00
    4    9   20      1.04      0.00
    5    9   20      0.68      0.00
    6    9   20      0.31      0.00
    7    9   20      0.35      0.00
    8    9   20     -0.29      0.00
    9    9   20      0.71      0.00
   10    9   20     -0.01      0.00
   11    9   20      1.33      0.00
   12    9   20      0.57      0.00
   13    9   20      1.65      0.00
   14    9   20      0.41      0.00
   15    9   20      1.40      0.00
   16    9   20     -0.63      0.00
   17    9   20      0.73      0.00
    0   10   20      0.40      0.00
    1   10   20     -0.94      0.00
    2   10   20      0.50      0.00
    3   10   20     -2.08      0.00
    4   10   20      0.71      0.00
    5   10   20     -1.78      0.00
    6   10   20      0.79      0.00
    7   10   20     -0.70      0.00
    8   10   20      0.61      0.00
    9   10   20     -0.02      0.00
   10   10   20      0.24      0.00
   11   10   20     -0.24      0.00
   12   10   20     -0.10      0.00
   13   10   20     -0.80      0.00
   14   10   20     -0.25      0.00
   15   10   20     -0.89      0.00
   16   10   20     -0.21      0.00
    1   11   20     -0.88      0.00
    2   11   20      1.23      0.00
    3   11   20     -0.64      0.00
    4   11   20      1.57      0.00
    5   11   20     -0.40      0.00
    6   11   20      1.37      0.00
    7   11   20     -0.34      0.00
    8   11   20      0.63      0.00
    9   11   20     -0.45      0.00
   10   11   20     -0.22      0.00
   11   11   20     -0.64      0.00
   12   11   20     -0.53      0.00
   13   11   20     -0.74      0.00
   14   11   20     -0.01      0.00
    0   12   20      0.08      0.00
    1   12   20      0.29      0.00
    2   12   20     -0.10      0.00
    3   12   20      0.24      0.00
    4   12   20     -0.40      0.00
    5   12   20      0.05      0.00
    6   12   20     -0.47      0.00
    7   12   20      0.08      0.00
    8   12   20     -0.23      0.00
    9   12   20      0.58      0.00
   10   12   20      0.12      0.00
   11   12   20      1.29      0.00
   12   12   20      0.40      0.00
   13   12   20      1.55      0.00
    1   13   20      0.06      0.00
    2   13   20     -0.80      0.00
    3   13   20      0.03      0.00
    4   13   20     -0.66      0.00
    5   13   20     -0.12      0.00
    6   13   20     -0.35      0.00
    7   13   20     -0.40      0.00
    8   13   20     -0.05      0.00
    9   13   20     -0.65      0.00
   10   13   20     -0.04      0.00
   11   13   20     -0.74      0.00
    0   14   20      0.08      0.00
    1   14   20      0.16      0.00
    2   14   20      0.17      0.00
    3   14   20      0.24      0.00
    4   14   20      0.39      0.00
    5   14   20     -0.08      0.00
    6   14   20      0.63      0.00
    7   14   20     -0.65      0.00
    8   14   20      0.85      0.00
    9   14   20     -1.11      0.00
    1   15   20     -0.33      0.00
    2   15   20     -0.16      0.00
    3   15   20     -0.02      0.00
    4   15   20     -0.39      0.00
    5   15   20      0.40      0.00
    6   15   20     -0.25      0.00
    1    1   21     -1.10      0.00
    2    1   21     -0.13      0.00
    3    1   21     -1.14      0.00
    4    1   21     -0.32      0.00
    5    1   21     -1.01      0.00
    6    1   21     -0.43      0.00
    7    1   21     -0.57      0.00
    8    1   21     -0.54      0.00
    9    1   21      0.06      0.00
   10    1   21     -0.72      0.00
   11    1   21      0.57      0.00
   12    1   21     -0.85      0.00
   13    1   21      0.81      0.00
   14    1   21     -0.80      0.00
   15    1   21      0.93      0.00
   16    1   21     -0.59      0.00
   17    1   21      1.12      0.00
   18    1   21     -0.43      0.00
   19    1   21      1.22      0.00
    0    2   21      0.81      0.00
    1    2   21      0.04      0.00
    2    2   21      0.93      0.00
    3    2   21      0.27      0.00
    4    2   21      1.09      0.00
    5    2   21      0.47      0.00
    6    2   21      1.00      0.00
    7    2   21      0.51      0.00
    8    2   21      0.51      0.00
    9    2   21      0.28      0.00
   10    2   21     -0.25      0.00
   11    2   21     -0.11      0.00
   12    2   21     -0.88      0.00
   13    2   21     -0.45      0.00
   14    2   21     -1.10      0.00
   15    2   21     -0.57      0.00
   16    2   21     -1.00      0.00
   17    2   21     -0.40      0.00
   18    2   21     -0.83      0.00
   19    2   21     -0.02      0.00
    1    3   21     -1.04      0.00
    2    3   21     -0.33      0.00
    3    3   21     -1.02      0.00
    4    3   21     -0.43      0.00
    5    3   21     -0.90      0.00
    6    3   21     -0.38      0.00
    7    3   21     -0.63      0.00
    8    3   21     -0.12      0.00
    9    3   21     -0.23      0.00
   10    3   21      0.30      0.00
   11    3   21      0.13      0.00
   12    3   21      0.77      0.00
   13    3   21      0.19      0.00
   14    3   21      1.14      0.00
   15    3   21     -0.10      0.00
   16    3   21      1.23      0.00
   17    3   21     -0.45      0.00
   18    3   21      0.94      0.00
   19    3   21     -0.48      0.00
    0    4   21      1.56      0.00
    1    4   21      0.10      0.00
    2    4   21      1.31      0.00
    3    4   21      0.16      0.00
    4    4   21      0.73      0.00
    5    4   21     -0.01      0.00
    6    4   21      0.10      0.00
    7    4   21     -0.22      0.00
    8    4   21     -0.31      0.00
    9    4   21     -0.23      0.00
   10    4   21     -0.33      0.00
   11    4   21     -0.08      0.00
   12    4   21     -0.02      0.00
   13    4   21     -0.07      0.00
   14    4   21      0.37      0.00
   15    4   21     -0.33      0.00
   16    4   21      0.53      0.00
   17    4   21     -0.61      0.00
   18    4   21      0.37      0.00
    1    5   21     -0.32      0.00
    2    5   21      0.44      0.00
    3    5   21      0.33      0.00
    4    5   21      0.55      0.00
    5    5   21      1.05      0.00
    6    5   21      0.56      0.00
    7    5   21      1.43      0.00
    8    5   21      0.53      0.00
    9    5   21      1.32      0.00
   10    5   21      0.53      0.00
   11    5   21      0.95      0.00
   12    5   21      0.51      0.00
   13    5   21      0.75      0.00
   14    5   21      0.40      0.00
   15    5   21      0.87      0.00
   16    5   21      0.19      0.00
   17    5   21      1.06      0.00
   18    5   21      0.00      0.00
    0    6   21      0.15      0.00
    1    6   21     -0.05      0.00
    2    6   21     -0.22      0.00
    3    6   21     -0.24      0.00
    4    6   21     -0.78      0.00
    5    6   21     -0.01      0.00
    6    6   21     -1.03      0.00
    7    6   21      0.26      0.00
    8    6   21     -0.77      0.00
    9    6   21      0.03      0.00
   10    6   21     -0.32      0.00
   11    6   21     -0.60      0.00
   12    6   21     -0.26      0.00
   13    6   21     -0.98      0.00
   14    6   21     -0.71      0.00
   15    6   21     -0.65      0.00
   16    6   21     -1.15      0.00
   17    6   21      0.05      0.00
    1    7   21     -1.55      0.00
    2    7   21     -0.69      0.00
    3    7   21     -1.70      0.00
    4    7   21     -0.90      0.00
    5    7   21     -1.89      0.00
    6    7   21     -0.97      0.00
    7    7   21     -2.09      0.00
    8    7   21     -0.89      0.00
    9    7   21     -2.22      0.00
   10    7   21     -0.67      0.00
   11    7   21     -2.05      0.00
   12    7   21     -0.44      0.00
   13    7   21     -1.46      0.00
   14    7   21     -0.35      0.00
   15    7   21     -0.67      0.00
   16    7   21     -0.42      0.00
   17    7   21     -0.11      0.00
    0    8   21      0.54      0.00
    1    8   21      0.32      0.00
    2    8   21      1.15      0.00
    3    8   21      0.67      0.00
    4    8   21      2.29      0.00
    5    8   21      0.45      0.00
    6    8   21      3.09      0.00
    7    8   21      0.10      0.00
    8    8   21      3.04      0.00
    9    8   21      0.24      0.00
   10    8   21      2.30      0.00
   11    8   21      0.88      0.00
   12    8   21      1.41      0.00
   13    8   21      1.42      0.00
   14    8   21      0.72      0.00
   15    8   21      1.36      0.00
   16    8   21      0.20      0.00
    1    9   21      1.09      0.00
    2    9   21      0.28      0.00
    3    9   21      0.52      0.00
    4    9   21      0.48      0.00
    5    9   21     -0.20      0.00
    6    9   21      0.44      0.00
    7    9   21     -0.36      0.00
    8    9   21      0.16      0.00
    9    9   21      0.24      0.00
   10    9   21     -0.34      0.00
   11    9   21      1.07      0.00
   12    9   21     -0.85      0.00
   13    9   21      1.45      0.00
   14    9   21     -1.12      0.00
   15    9   21      1.27      0.00
    0   10   21      0.96      0.00
    1   10   21     -0.16      0.00
    2   10   21      0.31      0.00
    3   10   21     -0.62      0.00
    4   10   21     -0.66      0.00
    5   10   21     -0.23      0.00
    6   10   21     -1.46      0.00
    7   10   21      0.56      0.00
    8   10   21     -1.86      0.00
    9   10   21      0.96      0.00
   10   10   21     -1.87      0.00
   11   10   21      0.77      0.00
   12   10   21     -1.52      0.00
   13   10   21      0.44      0.00
   14   10   21     -0.96      0.00
    1   11   21     -2.70      0.00
    2   11   21      0.07      0.00
    3   11   21     -1.29      0.00
    4   11   21     -0.10      0.00
    5   11   21      0.37      0.00
    6   11   21     -0.47      0.00
    7   11   21      1.15      0.00
    8   11   21     -0.73      0.00
    9   11   21      0.72      0.00
   10   11   21     -0.64      0.00
   11   11   21     -0.36      0.00
   12   11   21     -0.30      0.00
   13   11   21     -1.18      0.00
    0   12   21      1.10      0.00
    1   12   21      0.23      0.00
    2   12   21      0.79      0.00
    3   12   21      0.39      0.00
    4   12   21     -0.07      0.00
    5   12   21      0.21      0.00
    6   12   21     -0.62      0.00
    7   12   21     -0.09      0.00
    8   12   21     -0.31      0.00
    9   12   21     -0.18      0.00
   10   12   21      0.62      0.00
   11   12   21     -0.01      0.00
    1   13   21      1.33      0.00
    2   13   21     -0.26      0.00
    3   13   21      1.03      0.00
    4   13   21      0.03      0.00
    5   13   21      0.59      0.00
    6   13   21      0.38      0.00
    7   13   21      0.15      0.00
    8   13   21      0.57      0.00
    9   13   21     -0.14      0.00
    0   14   21     -2.12      0.00
    1   14   21     -0.01      0.00
    2   14   21     -1.61      0.00
    3   14   21     -0.27      0.00
    4   14   21     -0.26      0.00
    5   14   21     -0.61      0.00
    6   14   21      0.87      0.00
    0    0   22     -6.70      0.00
    1    0   22      0.41      0.00
    2    0   22     -5.35      0.00
    3    0   22      1.00      0.00
    4    0   22     -2.19      0.00
    5    0   22      0.96      0.00
    6    0   22      0.89      0.00
    7    0   22      0.26      0.00
    8    0   22      2.48      0.00
    9    0   22     -0.79      0.00
   10    0   22      2.57      0.00
   11    0   22     -1.73      0.00
   12    0   22      2.05      0.00
   13    0   22     -2.18      0.00
   14    0   22      1.62      0.00
   15    0   22     -1.96      0.00
   16    0   22      1.28      0.00
   17    0   22     -1.14      0.00
    1    1   22      4.36      0.00
    2    1   22     -0.74      0.00
    3    1   22      2.94      0.00
    4    1   22     -0.91      0.00
    5    1   22      0.92      0.00
    6    1   22     -0.48      0.00
    7    1   22     -0.70      0.00
    8    1   22      0.12      0.00
    9    1   22     -1.42      0.00
   10    1   22      0.46      0.00
   11    1   22     -1.45      0.00
   12    1   22      0.46      0.00
   13    1   22     -1.21      0.00
   14    1   22      0.33      0.00
   15    1   22     -0.87      0.00
   16    1   22      0.20      0.00
   17    1   22     -0.38      0.00
    0    2   22     -0.89      0.00
    1    2   22      0.25      0.00
    2    2   22     -1.09      0.00
    3    2   22      0.45      0.00
    4    2   22     -1.42      0.00
    5    2   22      0.22      0.00
    6    2   22     -1.44      0.00
    7    2   22     -0.09      0.00
    8    2   22     -1.05      0.00
    9    2   22      0.01      0.00
   10    2   22     -0.58      0.00
   11    2   22      0.61      0.00
   12    2   22     -0.44      0.00
   13    2   22      1.31      0.00
   14    2   22     -0.68      0.00
   15    2   22      1.57      0.00
   16    2   22     -1.07      0.00
   17    2   22      1.20      0.00
    1    3   22     -0.32      0.00
    2    3   22      0.08      0.00
    3    3   22      0.57      0.00
    4    3   22      0.17      0.00
    5    3   22      1.56      0.00
    6    3   22      0.16      0.00
    7    3   22      1.88      0.00
    8    3   22      0.19      0.00
    9    3   22      1.57      0.00
   10    3   22      0.27      0.00
   11    3   22      1.31      0.00
   12    3   22      0.16      0.00
   13    3   22      1.55      0.00
   14    3   22     -0.24      0.00
   15    3   22      1.93      0.00
   16    3   22     -0.68      0.00
   17    3   22      1.85      0.00
    0    4   22      0.02      0.00
    1    4   22     -0.14      0.00
    2    4   22     -0.20      0.00
    3    4   22     -0.51      0.00
    4    4   22     -0.60      0.00
    5    4   22     -0.36      0.00
    6    4   22     -0.76      0.00
    7    4   22     -0.03      0.00
    8    4   22     -0.44      0.00
    9    4   22     -0.01      0.00
   10    4   22      0.07      0.00
   11    4   22     -0.36      0.00
   12    4   22      0.24      0.00
   13    4   22     -0.70      0.00
   14    4   22     -0.10      0.00
   15    4   22     -0.62      0.00
   16    4   22     -0.46      0.00
   17    4   22     -0.18      0.00
    1    5   22     -0.27      0.00
    2    5   22      0.90      0.00
    3    5   22     -0.61      0.00
    4    5   22      1.22      0.00
    5    5   22     -1.07      0.00
    6    5   22      0.92      0.00
    7    5   22     -1.42      0.00
    8    5   22      0.20      0.00
    9    5   22     -1.64      0.00
   10    5   22     -0.53      0.00
   11    5   22     -1.75      0.00
   12    5   22     -0.81      0.00
   13    5   22     -1.60      0.00
   14    5   22     -0.53      0.00
   15    5   22     -1.11      0.00
   16    5   22     -0.07      0.00
    0    6   22      3.52      0.00
    1    6   22     -0.71      0.00
    2    6   22      3.70      0.00
    3    6   22     -1.73      0.00
    4    6   22      3.95      0.00
    5    6   22     -2.02      0.00
    6    6   22      3.64      0.00
    7    6   22     -1.44      0.00
    8    6   22      2.49      0.00
    9    6   22     -0.26      0.00
   10    6   22      0.91      0.00
   11    6   22      0.87      0.00
   12    6   22     -0.31      0.00
   13    6   22      1.39      0.00
   14    6   22     -0.74      0.00
   15    6   22      1.16      0.00
   16    6   22     -0.62      0.00
    1    7   22    -10.21      0.00
    2    7   22      0.64      0.00
    3    7   22     -9.32      0.00
    4    7   22      1.35      0.00
    5    7   22     -7.32      0.00
    6    7   22      1.36      0.00
    7    7   22     -4.22      0.00
    8    7   22      0.82      0.00
    9    7   22     -0.60      0.00
   10    7   22      0.11      0.00
   11    7   22      2.33      0.00
   12    7   22     -0.49      0.00
   13    7   22      3.47      0.00
   14    7   22     -0.85      0.00
   15    7   22      2.73      0.00
    0    8   22     13.29      0.00
    1    8   22      0.40      0.00
    2    8   22     12.17      0.00
    3    8   22      0.22      0.00
    4    8   22      9.06      0.00
    5    8   22     -0.17      0.00
    6    8   22      4.94      0.00
    7    8   22     -0.51      0.00
    8    8   22      0.97      0.00
    9    8   22     -0.61      0.00
   10    8   22     -1.84      0.00
   11    8   22     -0.40      0.00
   12    8   22     -2.92      0.00
   13    8   22     -0.05      0.00
   14    8   22     -2.39      0.00
    1    9   22     -5.90      0.00
    2    9   22     -0.56      0.00
    3    9   22     -3.49      0.00
    4    9   22     -0.60      0.00
    5    9   22     -0.17      0.00
    6    9   22      0.00      0.00
    7    9   22      2.23      0.00
    8    9   22      0.65      0.00
    9    9   22      2.79      0.00
   10    9   22      0.82      0.00
   11    9   22      1.95      0.00
   12    9   22      0.57      0.00
   13    9   22      0.78      0.00
    0   10   22     -2.52      0.00
    1   10   22      0.33      0.00
    2   10   22     -3.41      0.00
    3   10   22      0.79      0.00
    4   10   22     -5.25      0.00
    5   10   22      0.86      0.00
    6   10   22     -6.24      0.00
    7   10   22      0.59      0.00
    8   10   22     -5.36      0.00
    9   10   22      0.22      0.00
   10   10   22     -3.13      0.00
   11   10   22     -0.02      0.00
   12   10   22     -1.00      0.00
    1   11   22      3.83      0.00
    2   11   22     -0.84      0.00
    3   11   22      3.97      0.00
    4   11   22     -1.41      0.00
    5   11   22      3.95      0.00
    6   11   22     -1.64      0.00
    7   11   22      3.46      0.00
    8   11   22     -1.43      0.00
    9   11   22      2.49      0.00
   10   11   22     -0.89      0.00
    0   12   22     -2.12      0.00
    1   12   22      0.23      0.00
    2   12   22     -1.38      0.00
    3   12   22      1.21      0.00
    4   12   22      0.18      0.00
    5   12   22      1.52      0.00
    6   12   22      1.19      0.00
    7   12   22      1.20      0.00
    8   12   22      1.06      0.00
    1   13   22      1.87      0.00
    2   13   22     -0.40      0.00
    3   13   22      0.41      0.00
    4   13   22     -0.95      0.00
    5   13   22     -1.32      0.00
    1    1   23      0.98      0.00
    2    1   23      0.00      0.00
    3    1   23      1.24      0.00
    4    1   23     -0.13      0.00
    5    1   23      1.50      0.00
    6    1   23     -0.14      0.00
    7    1   23      1.35      0.00
    8    1   23      0.19      0.00
    9    1   23      0.63      0.00
   10    1   23      0.80      0.00
   11    1   23     -0.27      0.00
   12    1   23      1.31      0.00
   13    1   23     -0.72      0.00
   14    1   23      1.36      0.00
   15    1   23     -0.53      0.00
   16    1   23      0.92      0.00
    0    2   23     -0.42      0.00
    1    2   23      0.30      0.00
    2    2   23     -0.59      0.00
    3    2   23      0.68      0.00
    4    2   23     -1.03      0.00
    5    2   23      0.73      0.00
    6    2   23     -1.28      0.00
    7    2   23      0.46      0.00
    8    2   23     -0.88      0.00
    9    2   23      0.12      0.00
   10    2   23      0.16      0.00
   11    2   23     -0.02      0.00
   12    2   23      1.24      0.00
   13    2   23      0.06      0.00
   14    2   23      1.70      0.00
   15    2   23      0.23      0.00
   16    2   23      1.39      0.00
    1    3   23     -0.74      0.00
    2    3   23     -0.29      0.00
    3    3   23     -0.57      0.00
    4    3   23     -0.46      0.00
    5    3   23     -0.24      0.00
    6    3   23     -0.51      0.00
    7    3   23      0.08      0.00
    8    3   23     -0.60      0.00
    9    3   23      0.20      0.00
   10    3   23     -0.89      0.00
   11    3   23      0.00      0.00
   12    3   23     -1.35      0.00
   13    3   23     -0.47      0.00
   14    3   23     -1.70      0.00
   15    3   23     -0.92      0.00
    0    4   23      1.55      0.00
    1    4   23     -0.30      0.00
    2    4   23      1.52      0.00
    3    4   23     -0.64      0.00
    4    4   23      1.33      0.00
    5    4   23     -0.43      0.00
    6    4   23      0.80      0.00
    7    4   23      0.11      0.00
    8    4   23     -0.13      0.00
    9    4   23      0.54      0.00
   10    4   23     -1.16      0.00
   11    4   23      0.72      0.00
   12    4   23     -1.77      0.00
   13    4   23      0.84      0.00
   14    4   23     -1.59      0.00
   15    4   23      1.02      0.00
    1    5   23     -1.90      0.00
    2    5   23      0.37      0.00
    3    5   23     -1.60      0.00
    4    5   23      0.55      0.00
    5    5   23     -1.08      0.00
    6    5   23      0.38      0.00
    7    5   23     -0.33      0.00
    8    5   23      0.11      0.00
    9    5   23      0.47      0.00
   10    5   23      0.04      0.00
   11    5   23      1.10      0.00
   12    5   23      0.16      0.00
   13    5   23      1.39      0.00
   14    5   23      0.24      0.00
    0    6   23      0.55      0.00
    1    6   23      0.28      0.00
    2    6   23      0.37      0.00
    3    6   23      0.51      0.00
    4    6   23      0.09      0.00
    5    6   23      0.13      0.00
    6    6   23      0.00      0.00
    7    6   23     -0.48      0.00
    8    6   23      0.25      0.00
    9    6   23     -0.81      0.00
   10    6   23      0.73      0.00
   11    6   23     -0.76      0.00
   12    6   23      1.05      0.00
   13    6   23     -0.63      0.00
   14    6   23      0.83      0.00
    1    7   23      1.35      0.00
    2    7   23     -0.74      0.00
    3    7   23      1.47      0.00
    4    7   23     -0.81      0.00
    5    7   23      1.34      0.00
    6    7   23     -0.23      0.00
    7    7   23      0.60      0.00
    8    7   23      0.49      0.00
    9    7   23     -0.49      0.00
   10    7   23      0.82      0.00
   11    7   23     -1.30      0.00
   12    7   23      0.76      0.00
   13    7   23     -1.47      0.00
    0    8   23      0.37      0.00
    1    8   23      0.41      0.00
    2    8   23      0.20      0.00
    3    8   23      0.75      0.00
    4    8   23     -0.27      0.00
    5    8   23      0.89      0.00
    6    8   23     -0.45      0.00
    7    8   23      0.77      0.00
    8    8   23     -0.18      0.00
    9    8   23      0.43      0.00
   10    8   23      0.17      0.00
   11    8   23      0.07      0.00
   12    8   23      0.30      0.00
    1    9   23     -2.24      0.00
    2    9   23     -0.35      0.00
    3    9   23     -1.91      0.00
    4    9   23     -0.56      0.00
    5    9   23     -1.33      0.00
    6    9   23     -0.58      0.00
    7    9   23     -0.68      0.00
    8    9   23     -0.45      0.00
    9    9   23     -0.22      0.00
   10    9   23     -0.26      0.00
   11    9   23     -0.07      0.00
    0   10   23     -0.90      0.00
    1   10   23     -0.20      0.00
    2   10   23     -0.70      0.00
    3   10   23     -0.27      0.00
    4   10   23     -0.09      0.00
    5   10   23     -0.45      0.00
    6   10   23      0.25      0.00
    7   10   23     -0.67      0.00
    8   10   23      0.20      0.00
    9   10   23     -0.72      0.00
    1   11   23      3.72      0.00
    2   11   23      0.79      0.00
    3   11   23      2.89      0.00
    4   11   23      1.09      0.00
    5   11   23      1.72      0.00
    6   11   23      0.87      0.00
    7   11   23      0.82      0.00
    0   12   23     -1.48      0.00
    1   12   23     -0.38      0.00
    2   12   23     -1.34      0.00
    3   12   23     -1.01      0.00
    4   12   23     -1.11      0.00
    0    0   24     -0.14      0.00
    1    0   24     -0.12      0.00
    2    0   24     -0.03      0.00
    3    0   24     -0.22      0.00
    4    0   24      0.21      0.00
    5    0   24      0.15      0.00
    6    0   24      0.30      0.00
    7    0   24      0.86      0.00
    8    0   24      0.07      0.00
    9    0   24      1.57      0.00
   10    0   24     -0.39      0.00
   11    0   24      2.01      0.00
   12    0   24     -0.76      0.00
   13    0   24      1.97      0.00
   14    0   24     -0.71      0.00
    1    1   24     -0.40      0.00
    2    1   24      0.50      0.00
    3    1   24     -0.31      0.00
    4    1   24      0.51      0.00
    5    1   24     -0.09      0.00
    6    1   24      0.00      0.00
    7    1   24      0.23      0.00
    8    1   24     -0.62      0.00
    9    1   24      0.56      0.00
   10    1   24     -0.96      0.00
   11    1   24      0.75      0.00
   12    1   24     -0.93      0.00
   13    1   24      0.70      0.00
   14    1   24     -0.63      0.00
    0    2   24      1.01      0.00
    1    2   24     -0.17      0.00
    2    2   24      0.76      0.00
    3    2   24     -0.39      0.00
    4    2   24      0.14      0.00
    5    2   24     -0.32      0.00
    6    2   24     -0.56      0.00
    7    2   24     -0.08      0.00
    8    2   24     -0.92      0.00
    9    2   24      0.04      0.00
   10    2   24     -0.77      0.00
   11    2   24     -0.10      0.00
   12    2   24     -0.34      0.00
   13    2   24     -0.36      0.00
   14    2   24      0.02      0.00
    1    3   24     -0.25      0.00
    2    3   24     -0.75      0.00
    3    3   24     -0.10      0.00
    4    3   24     -0.95      0.00
    5    3   24      0.12      0.00
    6    3   24     -0.65      0.00
    7    3   24      0.22      0.00
    8    3   24     -0.32      0.00
    9    3   24      0.08      0.00
   10    3   24     -0.25      0.00
   11    3   24     -0.29      0.00
   12    3   24     -0.33      0.00
   13    3   24     -0.62      0.00
    0    4   24     -1.33      0.00
    1    4   24      0.62      0.00
    2    4   24     -1.07      0.00
    3    4   24      1.41      0.00
    4    4   24     -0.43      0.00
    5    4   24      1.27      0.00
    6    4   24      0.34      0.00
    7    4   24      0.61      0.00
    8    4   24      0.85      0.00
    9    4   24      0.17      0.00
   10    4   24      0.90      0.00
   11    4   24      0.27      0.00
   12    4   24      0.65      0.00
   13    4   24      0.64      0.00
    1    5   24      1.17      0.00
    2    5   24     -0.43      0.00
    3    5   24      0.77      0.00
    4    5   24     -0.53      0.00
    5    5   24      0.10      0.00
    6    5   24     -0.30      0.00
    7    5   24     -0.53      0.00
    8    5   24      0.06      0.00
    9    5   24     -0.71      0.00
   10    5   24      0.26      0.00
   11    5   24     -0.41      0.00
   12    5   24      0.13      0.00
    0    6   24      0.67      0.00
    1    6   24     -0.02      0.00
    2    6   24      0.65      0.00
    3    6   24     -0.08      0.00
    4    6   24      0.60      0.00
    5    6   24      0.00      0.00
    6    6   24      0.43      0.00
    7    6   24      0.17      0.00
    8    6   24      0.20      0.00
    9    6   24      0.33      0.00
   10    6   24      0.09      0.00
   11    6   24      0.37      0.00
    1    7   24     -0.38      0.00
    2    7   24      0.13      0.00
    3    7   24     -0.61      0.00
    4    7   24     -0.04      0.00
    5    7   24     -0.67      0.00
    6    7   24     -0.43      0.00
    7    7   24     -0.35      0.00
    8    7   24     -0.90      0.00
    9    7   24     -0.01      0.00
   10    7   24     -1.14      0.00
    0    8   24     -1.88      0.00
    1    8   24     -0.01      0.00
    2    8   24     -1.58      0.00
    3    8   24     -0.06      0.00
    4    8   24     -0.89      0.00
    5    8   24      0.35      0.00
    6    8   24     -0.30      0.00
    7    8   24      0.93      0.00
    8    8   24     -0.07      0.00
    9    8   24      1.14      0.00
    1    9   24      1.30      0.00
    2    9   24     -0.28      0.00
    3    9   24      1.28      0.00
    4    9   24     -0.38      0.00
    5    9   24      1.03      0.00
    6    9   24     -0.62      0.00
    7    9   24      0.50      0.00
    8    9   24     -0.65      0.00
    0   10   24      0.35      0.00
    1   10   24      0.41      0.00
    2   10   24      0.13      0.00
    3   10   24      0.94      0.00
    4   10   24     -0.31      0.00
    5   10   24      0.69      0.00
    1    1   25      0.10      0.00
    2    1   25     -1.61      0.00
    3    1   25     -0.02      0.00
    4    1   25     -2.12      0.00
    5    1   25     -0.02      0.00
    6    1   25     -1.44      0.00
    7    1   25      0.35      0.00
    8    1   25     -0.42      0.00
    9    1   25      0.89      0.00
   10    1   25      0.10      0.00
   11    1   25      1.15      0.00
    0    2   25      0.05      0.00
    1    2   25      1.05      0.00
    2    2   25      0.13      0.00
    3    2   25      2.40      0.00
    4    2   25      0.17      0.00
    5    2   25      2.13      0.00
    6    2   25     -0.07      0.00
    7    2   25      0.62      0.00
    8    2   25     -0.61      0.00
    9    2   25     -0.93      0.00
   10    2   25     -1.10      0.00
   11    2   25     -1.62      0.00
    1    3   25     -0.34      0.00
    2    3   25     -1.26      0.00
    3    3   25     -0.22      0.00
    4    3   25     -1.38      0.00
    5    3   25     -0.01      0.00
    6    3   25     -0.20      0.00
    7    3   25      0.19      0.00
    8    3   25      1.48      0.00
    9    3   25      0.28      0.00
   10    3   25      2.61      0.00
   11    3   25      0.30      0.00
    0    4   25      0.14      0.00
    1    4   25      0.13      0.00
    2    4   25      0.16      0.00
    3    4   25      0.06      0.00
    4    4   25      0.16      0.00
    5    4   25     -0.72      0.00
    6    4   25      0.28      0.00
    7    4   25     -1.78      0.00
    8    4   25      0.52      0.00
    9    4   25     -2.36      0.00
   10    4   25      0.68      0.00
    1    5   25      0.75      0.00
    2    5   25      1.16      0.00
    3    5   25      0.20      0.00
    4    5   25      1.82      0.00
    5    5   25     -0.59      0.00
    6    5   25      1.87      0.00
    7    5   25     -1.21      0.00
    8    5   25      1.48      0.00
    9    5   25     -1.30      0.00
    0    6   25     -0.92      0.00
    1    6   25     -0.92      0.00
    2    6   25     -0.56      0.00
    3    6   25     -2.16      0.00
    4    6   25      0.29      0.00
    5    6   25     -1.74      0.00
    6    6   25      1.05      0.00
    7    6   25     -0.38      0.00
    8    6   25      1.22      0.00
    1    7   25     -0.34      0.00
    2    7   25      0.89      0.00
    3    7   25     -0.44      0.00
    4    7   25      0.89      0.00
    5    7   25     -0.53      0.00
    6    7   25     -0.02      0.00
    7    7   25     -0.41      0.00
    0    8   25      0.27      0.00
    1    8   25      0.07      0.00
    2    8   25      0.12      0.00
    3    8   25      0.39      0.00
    4    8   25     -0.16      0.00
    5    8   25      0.33      0.00
    1    9   25      0.56      0.00
    0    0   26      0.34      0.00
    1    0   26     -0.12      0.00
    2    0   26      0.37      0.00
    3    0   26     -0.28      0.00
    4    0   26      0.36      0.00
    5    0   26     -0.19      0.00
    6    0   26      0.18      0.00
    7    0   26     -0.03      0.00
    8    0   26     -0.12      0.00
    1    1   26     -0.26      0.00
    2    1   26     -0.18      0.00
    3    1   26     -0.21      0.00
    4    1   26     -0.13      0.00
    5    1   26     -0.06      0.00
    6    1   26      0.06      0.00
    7    1   26      0.21      0.00
    8    1   26      0.22      0.00
    0    2   26     -0.24      0.00
    1    2   26      0.36      0.00
    2    2   26     -0.27      0.00
    3    2   26      0.77      0.00
    4    2   26     -0.36      0.00
    5    2   26      0.59      0.00
    6    2   26     -0.47      0.00
    7    2   26      0.12      0.00
    8    2   26     -0.54      0.00
    1    3   26      1.39      0.00
    2    3   26     -0.43      0.00
    3    3   26      1.29      0.00
    4    3   26     -0.87      0.00
    5    3   26      1.06      0.00
    6    3   26     -1.09      0.00
    7    3   26      0.70      0.00
    0    4   26     -2.18      0.00
    1    4   26      0.04      0.00
    2    4   26     -2.00      0.00
    3    4   26      0.23      0.00
    4    4   26     -1.54      0.00
    5    4   26      0.76      0.00
    6    4   26     -0.91      0.00
    7    4   26      1.20      0.00
    1    5   26      1.66      0.00
    2    5   26      0.33      0.00
    3    5   26      1.13      0.00
    4    5   26      0.50      0.00
    5    5   26      0.42      0.00
    0    6   26     -0.87      0.00
    1    6   26     -0.59      0.00
    2    6   26     -0.66      0.00
    3    6   26     -1.41      0.00
    1    1   27     -0.04      0.00
    2    1   27     -0.48      0.00
    0    2   27     -0.55      0.00
    1    2   27      0.39      0.00
    2    0    0    581.12      0.00
    1    1    0   -360.88      0.00
   28   10    0     -0.62      0.00
   20   18    0     -0.09      0.00
    7   23    0     -0.09      0.00
    1    1    1   -137.34      0.00
    0    2    1     42.70      0.00
   30    5    1      1.11      0.00
   29    8    1      1.07      0.00
   20   18    1     -0.50      0.00
   18   19    1      0.39      0.00
   16   20    1      0.40      0.00
   14   21    1     -0.29      0.00
   11   22    1      0.69      0.00
    6   23    1     -0.73      0.00
    7   23    1     -0.72      0.00
    0    0    2    -53.23      0.00
    1    0    2     11.79      0.00
   30    5    2     -0.19      0.00
   29    8    2      1.80      0.00
   27   11    2     -1.20      0.00
   21   17    2      0.21      0.00
   18   19    2     -0.55      0.00
   16   20    2     -1.99      0.00
   14   21    2      0.47      0.00
   11   22    2     -0.90      0.00
    6   23    2     -0.68      0.00
   30    5    3     -0.03      0.00
   27   11    3      0.21      0.00
   21   17    3     -0.04      0.00
   18   19    3      0.38      0.00
   16   20    3     -2.27      0.00
    6   23    3      0.26      0.00
    1    0    4      3.03      0.00
    3    0    4      6.44      0.00
   30    4    4     -0.12      0.00
   29    7    4      0.09      0.00
   28    9    4     -0.77      0.00
   26   12    4     -0.21      0.00
   22   16    4     -0.19      0.00
   21   17    4      0.80      0.00
   13   21    4     -1.29      0.00
   10   22    4      0.00      0.00
    5   23    4     -1.48      0.00
   30    3    5     -0.45      0.00
   28    9    5     -0.37      0.00
   26   12    5     -0.79      0.00
   25   13    5      0.98      0.00
   24   14    5     -1.01      0.00
   23   15    5      0.22      0.00
   22   16    5      1.22      0.00
   19   18    5     -0.55      0.00
   15   20    5     -0.63      0.00
   13   21    5     -1.03      0.00
    2   23    5     -0.13      0.00
    3   23    5     -3.20      0.00
    4   23    5     -0.11      0.00
   30    0    6     -1.88      0.00
   30    1    6      1.05      0.00
   30    2    6      0.20      0.00
   29    6    6     -1.58      0.00
   27   10    6      0.92      0.00
   17   19    6     -0.15      0.00
   15   20    6      1.70      0.00
   12   21    6      1.38      0.00
    9   22    6     -5.24      0.00
    1   23    6     -0.65      0.00
    2   23    6      2.57      0.00
   29    5    7      0.37      0.00
   26   11    7      1.26      0.00
   21   16    7      0.45      0.00
   20   17    7      0.10      0.00
   14   20    7      1.65      0.00
    8   22    7      0.63      0.00
   29    4    8      1.40      0.00
   28    7    8      0.29      0.00
   27    9    8     -0.02      0.00
   25   12    8      0.24      0.00
   24   13    8     -0.45      0.00
   23   14    8     -0.74      0.00
   22   15    8      1.49      0.00
   16   19    8     -0.43      0.00
   11   21    8     -0.58      0.00
    6   22    8     -1.10      0.00
   29    1    9     -0.28      0.00
   29    2    9      0.37      0.00
   28    6    9     -0.52      0.00
   27    8    9     -0.93      0.00
   26   10    9      0.14      0.00
   20   16    9      0.20      0.00
   17   18    9     -0.30      0.00
   15   19    9      1.36      0.00
   13   20    9     -1.15      0.00
    4   22    9     -1.56      0.00
    5   22    9     -2.24      0.00
   28    5   10      0.66      0.00
   27    7   10      1.17      0.00
   26    9   10      0.21      0.00
   24   12   10     -0.52      0.00
   23   13   10      0.82      0.00
   22   14   10     -2.36      0.00
   21   15   10      2.47      0.00
   18   17   10     -1.45      0.00
   14   19   10      0.55      0.00
   12   20   10     -1.33      0.00
    8   21   10     -0.74      0.00
    0   22   10      0.09      0.00
    1   22   10      0.14      0.00
   28    1   11      1.62      0.00
   28    2   11      1.12      0.00
   28    3   11      0.66      0.00
   27    6   11      1.01      0.00
   25   10   11      0.34      0.00
   19   16   11     -1.36      0.00
   13   19   11     -0.61      0.00
    6   21   11     -0.42      0.00
   27    4   12      0.44      0.00
   26    7   12      1.11      0.00
   25    9   12     -1.66      0.00
   18   16   12      1.28      0.00
   12   19   12     -0.17      0.00
    9   20   12     -0.25      0.00
    2   21   12      0.12      0.00
    3   21   12      0.34      0.00
    4   21   12      0.23      0.00
   27    1   13      0.08      0.00
   27    2   13     -0.51      0.00
   26    6   13      1.02      0.00
   25    8   13     -1.81      0.00
   23   11   13     -0.44      0.00
   22   12   13      0.94      0.00
   21   13   13     -0.44      0.00
   20   14   13     -0.68      0.00
   17   16   13      0.70      0.00
   11   19   13     -1.22      0.00
    7   20   13     -0.38      0.00
   26    3   14     -0.05      0.00
   26    4   14      2.17      0.00
   23   10   14     -0.40      0.00
   22   11   14     -0.16      0.00
   19   14   14     -0.96      0.00
   16   16   14     -0.35      0.00
   14   17   14      0.56      0.00
   12   18   14      1.50      0.00
    9   19   14     -2.51      0.00
    3   20   14      0.32      0.00
    4   20   14      2.08      0.00
   25    5   15      0.65      0.00
   24    7   15     -0.30      0.00
   23    9   15      0.54      0.00
   22   10   15     -0.68      0.00
   18   14   15     -1.87      0.00
   15   16   15      0.71      0.00
   13   17   15     -1.47      0.00
   10   18   15      0.11      0.00
    6   19   15     -0.26      0.00
    7   19   15      3.35      0.00
   25    0   16      0.14      0.00
   25    1   16      0.63      0.00
   24    5   16      0.29      0.00
   22    9   16     -0.81      0.00
   17   14   16      1.38      0.00
   11   17   16      0.29      0.00
    8   18   16      5.52      0.00
    1   19   16      0.18      0.00
    2   19   16     -0.22      0.00
    3   19   16     -1.10      0.00
   24    1   17      0.73      0.00
   24    2   17      0.64      0.00
   23    5   17     -0.15      0.00
   21    9   17      0.76      0.00
   17   13   17      0.06      0.00
   14   15   17     -0.16      0.00
   12   16   17     -1.64      0.00
    9   17   17      1.56      0.00
    5   18   17     -0.73      0.00
   23    0   18     -0.39      0.00
   23    1   18     -0.33      0.00
   23    2   18      0.91      0.00
   22    5   18      0.83      0.00
   20    9   18      0.22      0.00
   19   10   18     -2.16      0.00
   18   11   18      2.22      0.00
   17   12   18     -0.95      0.00
   14   14   18      0.44      0.00
   12   15   18     -0.27      0.00
   10   16   18      0.85      0.00
    6   17   18      1.36      0.00
   22    1   19     -0.53      0.00
   22    2   19      0.96      0.00
   21    5   19     -0.81      0.00
   20    7   19      0.81      0.00
   14   13   19      4.85      0.00
   12   14   19     -0.48      0.00
   10   15   19      0.94      0.00
    7   16   19      2.52      0.00
    1   17   19     -0.12      0.00
   21    0   20     -0.23      0.00
   21    1   20      0.03      0.00
   20    5   20     -0.28      0.00
   19    7   20      0.35      0.00
   18    8   20     -0.53      0.00
   15   11   20     -0.62      0.00
   14   12   20      0.51      0.00
   12   13   20     -0.41      0.00
   10   14   20      0.98      0.00
    7   15   20      0.61      0.00
    0   16   20      0.35      0.00
    1   16   20      0.06      0.00
    2   16   20      0.11      0.00
   19    4   21     -0.57      0.00
   18    6   21     -1.04      0.00
   12   12   21      1.36      0.00
   10   13   21      0.46      0.00
    7   14   21     -0.87      0.00
    1   15   21      1.01      0.00
    2   15   21     -0.09      0.00
   18    0   22      0.78      0.00
   18    1   22      0.01      0.00
   18    2   22     -1.29      0.00
   17    5   22     -0.48      0.00
   15    8   22      0.22      0.00
   14    9   22      0.32      0.00
   11   11   22      1.35      0.00
    9   12   22      0.64      0.00
    6   13   22     -0.98      0.00
    7   13   22     -2.06      0.00
    0   14   22     -1.34      0.00
    1   14   22     -0.19      0.00
   16    3   23     -1.65      0.00
   15    5   23      1.34      0.00
   14    7   23      0.63      0.00
   13    8   23     -0.16      0.00
   10   10   23      0.15      0.00
    8   11   23      0.47      0.00
    5   12   23     -0.83      0.00
   14    3   24     -0.32      0.00
   13    5   24     -0.01      0.00
   12    6   24      0.16      0.00
   11    7   24     -0.06      0.00
   10    8   24     -0.09      0.00
    9    9   24     -0.01      0.00
    6   10   24     -0.45      0.00
    7   10   24      0.01      0.00
    1   11   24      0.38      0.00
    2   11   24     -0.69      0.00
    3   11   24      0.29      0.00
   12    1   25      0.02      0.00
   12    2   25     -1.18      0.00
   11    4   25     -2.08      0.00
   10    5   25      0.92      0.00
    9    6   25      0.61      0.00
    8    7   25     -1.03      0.00
    6    8   25     -0.46      0.00
    2    9   25     -0.64      0.00
    3    9   25      0.74      0.00
    4    9   25     -0.72      0.00
    9    0   26     -0.06      0.00
    9    1   26      0.45      0.00
    9    2   26     -0.12      0.00
    8    3   26     -0.94      0.00
    8    4   26     -0.30      0.00
    6    5   26      0.37      0.00
    7    5   26     -0.07      0.00
    4    6   26     -0.16      0.00
    5    6   26     -1.63      0.00
    1    7   26     -0.32      0.00
    2    7   26      1.15      0.00
    3    1   27      0.07      0.00
    4    1   27     -0.98      0.00
    2    2   27     -0.46      0.00
    3    2   27      0.98      0.00
    4    2   27     -0.29      0.00
    1    3   27      0.66      0.00
    2    3   27     -0.41      0.00
    3    3   27      0.28      0.00
    0    0    0      0.00      0.00
# SQUEEZE RESULTS (Version = 140621)
# Note: Data are Listed for all Voids in the P1 Unit Cell
# i.e. Centre of Gravity, Solvent Accessible Volume,
# Recovered number of Electrons in the Void and
# Details about the Squeezed Material
loop_
  _platon_squeeze_void_nr
  _platon_squeeze_void_average_x
  _platon_squeeze_void_average_y
  _platon_squeeze_void_average_z
  _platon_squeeze_void_volume
  _platon_squeeze_void_count_electrons
  _platon_squeeze_void_content
   1  0.500  0.000 -0.002      1026       290 ' '
   2  1.000  0.500  0.229      1026       290 ' '
# Missing Reflections Below sin(th)/lambda = 0.25
loop_
  _platon_missing_refln_index_h
  _platon_missing_refln_index_k
  _platon_missing_refln_index_l
  _platon_missing_refln_theta
    2    0    0     1.581
    1    1    0     1.300
    1    1    1     1.578
    0    2    1     2.251
    0    0    2     1.787
    1    0    2     1.954
    1    0    4     3.663
    3    0    4     4.293
_platon_squeeze_void_probe_radius                  1.20
_platon_squeeze_details
)
TITL ey9m             P b c n      R = 0.10
CELL   25.7551   19.7204   22.7890     90.00     90.00     90.00
SPGR Pbcn
# Solvent Accessible Volume =      2002
# Electrons Found in S.A.V. =       580
# Note: Atoms in Void are Labelled as Cxxx and Qxxx for all Others
C101 0.009 0.358 0.052 !       2.59 eA-3
Q102 0.227 0.891 0.668 !       2.56 eA-3
C103 0.047 0.641 0.554 !       2.42 eA-3
Q104 0.227 0.923 0.706 !       2.42 eA-3
Q105 0.300 0.579 0.167 !       2.41 eA-3
C106 0.022 0.641 0.924 !       2.35 eA-3
Q107 0.229 0.099 0.140 !       2.24 eA-3
Q108 0.265 0.515 0.176 !       2.11 eA-3
Q109 0.500 0.422 0.248 !       2.10 eA-3
C110 0.500 0.719 0.247 !       2.06 eA-3
Q111 0.272 0.554 0.133 !       1.92 eA-3
Q112 0.264 0.561 0.171 !       1.91 eA-3
C113 0.500 0.843 0.184 !       1.82 eA-3
C114 1.000 0.281 0.254 !       1.81 eA-3
C115 0.943 0.579 0.210 !       1.79 eA-3
C116 0.500 0.843 0.234 !       1.73 eA-3
C117 0.004 0.607 0.022 !       1.67 eA-3
Q118 0.734 0.563 0.648 !       1.66 eA-3
C119 0.008 0.409 0.422 !       1.59 eA-3
C120 0.453 0.906 0.714 !       1.47 eA-3
Q121 0.234 0.095 0.487 !       1.39 eA-3
C122 0.500 0.031 0.250 !       1.30 eA-3
C123 0.009 0.594 0.892 !       1.29 eA-3
C124 0.006 0.372 0.138 !       1.28 eA-3
C125 1.000 0.609 0.752 !       1.25 eA-3
Q126 0.766 0.033 0.007 !       1.22 eA-3
Q127 0.713 0.063 0.323 !       1.18 eA-3
C128 0.514 0.080 0.339 !       1.13 eA-3
C129 1.000 0.594 0.243 !       1.09 eA-3
C130 0.486 0.033 0.316 !       1.06 eA-3
C131 0.500 0.063 0.751 !       1.05 eA-3
Q132 0.265 0.313 0.172 !       0.97 eA-3
C133 0.492 0.939 0.292 !       0.96 eA-3
Q134 0.399 0.124 0.833 !       0.95 eA-3
C135 0.493 0.064 0.121 !       0.83 eA-3
C136 0.508 0.889 0.864 !       0.83 eA-3
C137 0.517 0.968 0.055 !       0.77 eA-3
Q138 0.500 0.328 0.254 !       0.75 eA-3
Q139 0.463 0.643 0.724 !       0.74 eA-3
Q140 0.132 0.748 0.074 !       0.73 eA-3
Q141 0.447 0.311 0.243 !       0.73 eA-3
Q142 0.296 0.848 0.326 !       0.71 eA-3
C143 0.502 0.970 0.123 !       0.69 eA-3
C144 0.009 0.469 0.356 !       0.69 eA-3
Q145 0.516 0.766 0.125 !       0.68 eA-3
Q146 0.646 0.169 0.697 !       0.67 eA-3
Q147 0.100 0.567 0.830 !       0.66 eA-3
Q148 0.853 0.386 0.203 !       0.66 eA-3
Q149 0.937 0.220 0.857 !       0.65 eA-3
Q150 0.235 0.187 0.354 !       0.64 eA-3
C151 0.993 0.436 0.524 !       0.63 eA-3
C152 0.008 0.658 0.363 !       0.61 eA-3
Q153 0.695 0.844 0.515 !       0.60 eA-3
Q154 0.868 0.325 0.219 !       0.60 eA-3
Q155 0.264 0.404 0.308 !       0.58 eA-3
Q156 0.954 0.858 0.980 !       0.58 eA-3
Q157 0.922 0.846 0.899 !       0.57 eA-3
Q158 0.297 0.063 0.859 !       0.57 eA-3
Q159 0.627 0.357 0.122 !       0.56 eA-3
C160 0.514 0.020 0.137 !       0.56 eA-3
C161 0.515 0.125 0.105 !       0.56 eA-3
Q162 0.275 0.782 0.182 !       0.56 eA-3
Q163 0.686 0.215 0.254 !       0.56 eA-3
Q164 0.467 0.409 0.723 !       0.55 eA-3
Q165 0.412 0.297 0.110 !       0.54 eA-3
Q166 0.977 0.094 0.257 !       0.54 eA-3
Q167 0.485 0.873 0.786 !       0.54 eA-3
Q168 0.295 0.245 0.278 !       0.54 eA-3
Q169 0.234 0.033 0.804 !       0.54 eA-3
Q170 0.298 0.812 0.033 !       0.54 eA-3
C171 1.000 0.484 0.253 !       0.52 eA-3
Q172 0.991 0.828 0.964 !       0.51 eA-3
Q173 0.312 0.279 0.852 !       0.51 eA-3
Q174 0.125 0.169 0.607 !       0.50 eA-3
Q175 0.874 0.736 0.017 !       0.50 eA-3
Q176 0.328 0.719 0.137 !       0.50 eA-3
Q177 0.844 0.269 0.708 !       0.50 eA-3
)
;
_shelx_fab_checksum              70388
loop_
_space_group_symop_operation_xyz
'x, y, z'
'-x+1/2, -y+1/2, z+1/2'
'-x, y, -z+1/2'
'x+1/2, -y+1/2, -z'
'-x, -y, -z'
'x-1/2, y-1/2, -z-1/2'
'x, -y, z-1/2'
'-x-1/2, y-1/2, z'
loop_
_atom_site_type_symbol
_atom_site_label
_atom_site_fract_x
_atom_site_fract_y
_atom_site_fract_z
_atom_site_U_iso_or_equiv
_atom_site_adp_type
_atom_site_calc_flag
_atom_site_refinement_flags_adp
_atom_site_refinement_flags_occupancy
_atom_site_refinement_flags_posn
_atom_site_occupancy
_atom_site_disorder_assembly
_atom_site_disorder_group
Ir Ir1 0.73427(2) 0.56287(2) 0.32951(2) 0.0732(2) Uani d . . . 1.000000 . .
C C1 0.7765(5) 0.5771(6) 0.4031(5) 0.078(3) Uani d . . . 1.000000 . .
C C2 0.7630(5) 0.6168(6) 0.4513(5) 0.081(3) Uani d . . . 1.000000 . .
H H2 0.731749 0.642445 0.451298 0.098000 Uiso calc U . R 1.000000 . .
C C3 0.7957(6) 0.6179(7) 0.4990(5) 0.090(3) Uani d . . . 1.000000 . .
C C4 0.8416(6) 0.5822(8) 0.5015(6) 0.099(4) Uani d . . . 1.000000 . .
H H4 0.863455 0.584190 0.535023 0.119000 Uiso calc U . R 1.000000 . .
C C5 0.8543(5) 0.5442(7) 0.4540(6) 0.094(4) Uani d . . . 1.000000 . .
C C6 0.8239(5) 0.5406(7) 0.4040(5) 0.087(3) Uani d . . . 1.000000 . .
C C7 0.8352(5) 0.5004(7) 0.3522(6) 0.089(3) Uani d . . . 1.000000 . .
C C8 0.8785(6) 0.4614(9) 0.3388(8) 0.110(4) Uani d . . . 1.000000 . .
H H8 0.904814 0.456609 0.367786 0.132000 Uiso calc U . R 1.000000 . .
C C9 0.8850(7) 0.4304(8) 0.2873(8) 0.113(5) Uani d . . . 1.000000 . .
H H9 0.915686 0.405405 0.279152 0.136000 Uiso calc U . R 1.000000 . .
C C10 0.8457(6) 0.4357(7) 0.2461(7) 0.101(4) Uani d . . D 1.000000 . .
C C11 0.8034(5) 0.4725(6) 0.2583(5) 0.084(3) Uani d . . . 1.000000 . .
H H11 0.777291 0.477198 0.229178 0.101000 Uiso calc U . R 1.000000 . .
C C12 0.8535(13) 0.4031(16) 0.1870(11) 0.147(4) Uani d U P D 0.657(12) A 1
F F3 0.8065(7) 0.3872(12) 0.1651(8) 0.152(5) Uani d U P D 0.657(12) A 1
F F4 0.8756(8) 0.4415(9) 0.1487(8) 0.146(4) Uani d U P D 0.657(12) A 1
F F5 0.8764(8) 0.3442(9) 0.1903(8) 0.159(5) Uani d U P D 0.657(12) A 1
C C12A 0.8456(16) 0.4037(18) 0.1843(12) 0.148(5) Uani d U P D 0.343(12) A 2
F F3A 0.8214(14) 0.4425(16) 0.1435(14) 0.146(5) Uani d U P D 0.343(12) A 2
F F4A 0.8918(11) 0.394(2) 0.1636(15) 0.157(6) Uani d U P D 0.343(12) A 2
F F5A 0.8185(15) 0.3476(15) 0.1793(14) 0.151(6) Uani d U P D 0.343(12) A 2
C C13 0.7646(4) 0.6469(6) 0.2925(5) 0.074(3) Uani d . . . 1.000000 . .
C C14 0.8104(5) 0.6503(7) 0.2582(5) 0.085(3) Uani d . . . 1.000000 . .
H H14 0.830835 0.610918 0.251922 0.102000 Uiso calc U . R 1.000000 . .
C C15 0.8248(6) 0.7114(9) 0.2340(6) 0.100(4) Uani d . . . 1.000000 . .
C C16 0.7973(6) 0.7702(7) 0.2429(6) 0.096(4) Uani d . . . 1.000000 . .
H H16 0.808345 0.811884 0.226143 0.115000 Uiso calc U . R 1.000000 . .
C C17 0.7535(7) 0.7668(8) 0.2768(7) 0.103(4) Uani d . . . 1.000000 . .
C C18 0.7348(5) 0.7056(6) 0.3010(5) 0.077(3) Uani d . . . 1.000000 . .
C C19 0.6872(5) 0.6978(6) 0.3337(5) 0.080(3) Uani d . . . 1.000000 . .
C C20 0.6518(6) 0.7474(8) 0.3473(6) 0.100(4) Uani d . . . 1.000000 . .
H H20 0.658464 0.792914 0.336055 0.120000 Uiso calc U . R 1.000000 . .
C C21 0.6074(6) 0.7322(9) 0.3768(6) 0.107(4) Uani d . . . 1.000000 . .
H H21 0.582983 0.766902 0.385412 0.128000 Uiso calc U . R 1.000000 . .
C C22 0.5978(5) 0.6658(9) 0.3944(6) 0.099(4) Uani d . . . 1.000000 . .
C C23 0.6345(5) 0.6168(8) 0.3797(5) 0.089(3) Uani d . . . 1.000000 . .
H H23 0.628283 0.570989 0.390443 0.107000 Uiso calc U . R 1.000000 . .
C C24 0.5509(6) 0.6474(10) 0.4261(7) 0.111(5) Uani d . . . 1.000000 . .
C C25 0.6989(5) 0.4521(6) 0.4162(5) 0.082(3) Uani d . . . 1.000000 . .
H H25 0.719555 0.476151 0.443719 0.098000 Uiso calc U . R 1.000000 . .
C C26 0.6729(5) 0.3935(6) 0.4345(5) 0.082(3) Uani d . . . 1.000000 . .
H H26 0.677052 0.377538 0.473542 0.098000 Uiso calc U . R 1.000000 . .
C C27 0.6410(5) 0.3590(6) 0.3959(5) 0.080(3) Uani d . . . 1.000000 . .
C C28 0.6375(5) 0.3840(6) 0.3390(5) 0.079(3) Uani d . . . 1.000000 . .
H H28 0.616868 0.360993 0.310768 0.095000 Uiso calc U . R 1.000000 . .
C C29 0.6639(5) 0.4420(6) 0.3234(5) 0.075(3) Uani d . . . 1.000000 . .
C C30 0.6103(5) 0.2957(6) 0.4146(5) 0.085(3) Uani d . . . 1.000000 . .
C C31 0.6298(7) 0.2666(9) 0.4724(7) 0.126(6) Uani d . . . 1.000000 . .
H H31A 0.612976 0.222875 0.479809 0.189000 Uiso calc U . R 1.000000 . .
H H31B 0.621570 0.298042 0.504430 0.189000 Uiso calc U . R 1.000000 . .
H H31C 0.667505 0.260203 0.470311 0.189000 Uiso calc U . R 1.000000 . .
C C32 0.6181(7) 0.2388(7) 0.3707(6) 0.114(5) Uani d . . . 1.000000 . .
H H32A 0.655356 0.231101 0.364858 0.171000 Uiso calc U . R 1.000000 . .
H H32B 0.602090 0.251244 0.333175 0.171000 Uiso calc U . R 1.000000 . .
H H32C 0.601957 0.197194 0.385556 0.171000 Uiso calc U . R 1.000000 . .
C C33 0.5547(6) 0.3180(8) 0.4235(8) 0.121(5) Uani d . . . 1.000000 . .
H H33A 0.534223 0.279863 0.438608 0.181000 Uiso calc U . R 1.000000 . .
H H33B 0.540115 0.332919 0.385890 0.181000 Uiso calc U . R 1.000000 . .
H H33C 0.553573 0.355503 0.451603 0.181000 Uiso calc U . R 1.000000 . .
C C34 0.6621(4) 0.4724(6) 0.2634(5) 0.076(3) Uani d . . . 1.000000 . .
C C35 0.6359(4) 0.4436(6) 0.2167(5) 0.076(3) Uani d . . . 1.000000 . .
H H35 0.618824 0.401268 0.221838 0.091000 Uiso calc U . R 1.000000 . .
C C36 0.6342(4) 0.4760(6) 0.1614(4) 0.075(3) Uani d . . . 1.000000 . .
C C37 0.6577(4) 0.5392(7) 0.1576(5) 0.079(3) Uani d . . . 1.000000 . .
C C38 0.6862(5) 0.5624(6) 0.2053(5) 0.078(3) Uani d . . . 1.000000 . .
H H38 0.704679 0.603805 0.200997 0.093000 Uiso calc U . R 1.000000 . .
C C39 0.6071(5) 0.4387(6) 0.1096(5) 0.080(3) Uani d . . . 1.000000 . .
C C40 0.5853(5) 0.3690(6) 0.1278(5) 0.088(3) Uani d . . . 1.000000 . .
H H40A 0.567261 0.348433 0.094347 0.131000 Uiso calc U . R 1.000000 . .
H H40B 0.560968 0.374724 0.160402 0.131000 Uiso calc U . R 1.000000 . .
H H40C 0.613937 0.339422 0.140041 0.131000 Uiso calc U . R 1.000000 . .
C C41 0.5607(5) 0.4794(7) 0.0859(5) 0.093(4) Uani d . . . 1.000000 . .
H H41A 0.544476 0.454457 0.053533 0.139000 Uiso calc U . R 1.000000 . .
H H41B 0.572804 0.523592 0.071626 0.139000 Uiso calc U . R 1.000000 . .
H H41C 0.535273 0.486229 0.117309 0.139000 Uiso calc U . R 1.000000 . .
C C42 0.6499(5) 0.4241(8) 0.0630(5) 0.093(4) Uani d . . . 1.000000 . .
H H42A 0.676056 0.393681 0.079722 0.140000 Uiso calc U . R 1.000000 . .
H H42B 0.666412 0.466827 0.051330 0.140000 Uiso calc U . R 1.000000 . .
H H42C 0.634112 0.402716 0.028505 0.140000 Uiso calc U . R 1.000000 . .
C C43 0.6507(5) 0.5874(7) 0.1071(5) 0.085(3) Uani d . . . 1.000000 . .
H H43 0.644700 0.562168 0.069609 0.102000 Uiso calc U . R 1.000000 . .
C C44 0.6049(5) 0.6386(7) 0.1195(6) 0.099(4) Uani d . . . 1.000000 . .
H H44A 0.588513 0.653785 0.082470 0.119000 Uiso calc U . R 1.000000 . .
H H44B 0.578060 0.617626 0.144778 0.119000 Uiso calc U . R 1.000000 . .
C C45 0.6311(6) 0.6978(8) 0.1509(7) 0.112(4) Uani d . . . 1.000000 . .
H H45A 0.634129 0.688435 0.193403 0.134000 Uiso calc U . R 1.000000 . .
H H45B 0.610911 0.739990 0.145394 0.134000 Uiso calc U . R 1.000000 . .
C C46 0.6856(6) 0.7048(7) 0.1228(6) 0.099(4) Uani d . . . 1.000000 . .
H H46A 0.685450 0.738001 0.090302 0.119000 Uiso calc U . R 1.000000 . .
H H46B 0.711890 0.718305 0.152251 0.119000 Uiso calc U . R 1.000000 . .
C C47 0.7379(5) 0.6151(6) 0.0719(5) 0.075(3) Uani d . . . 1.000000 . .
C C48 0.8230(6) 0.6546(7) 0.0395(6) 0.098(4) Uani d . . . 1.000000 . .
C C49 0.8550(6) 0.6006(8) 0.0716(7) 0.112(4) Uani d . . . 1.000000 . .
H H49A 0.834893 0.558601 0.074409 0.168000 Uiso calc U . R 1.000000 . .
H H49B 0.863563 0.616792 0.111095 0.168000 Uiso calc U . R 1.000000 . .
H H49C 0.887165 0.591992 0.049781 0.168000 Uiso calc U . R 1.000000 . .
C C50 0.8152(6) 0.6371(7) -0.0244(6) 0.101(4) Uani d . . . 1.000000 . .
H H50A 0.801938 0.590677 -0.027683 0.151000 Uiso calc U . R 1.000000 . .
H H50B 0.848401 0.640625 -0.045173 0.151000 Uiso calc U . R 1.000000 . .
H H50C 0.790161 0.668652 -0.041869 0.151000 Uiso calc U . R 1.000000 . .
C C51 0.8481(6) 0.7252(7) 0.0460(7) 0.111(4) Uani d . . . 1.000000 . .
H H51A 0.883151 0.724383 0.029313 0.167000 Uiso calc U . R 1.000000 . .
H H51B 0.850048 0.737234 0.087692 0.167000 Uiso calc U . R 1.000000 . .
H H51C 0.827049 0.758949 0.025221 0.167000 Uiso calc U . R 1.000000 . .
F F1 0.7820(4) 0.6548(4) 0.5459(3) 0.112(2) Uani d . . . 1.000000 . .
F F2 0.8989(3) 0.5076(5) 0.4572(4) 0.119(3) Uani d . . . 1.000000 . .
F F6 0.8684(3) 0.7140(4) 0.2011(3) 0.112(2) Uani d . . . 1.000000 . .
F F7 0.7279(3) 0.8248(4) 0.2864(4) 0.116(3) Uani d . . . 1.000000 . .
F F8 0.5479(3) 0.6751(5) 0.4789(4) 0.126(3) Uani d . . . 1.000000 . .
F F9 0.5455(4) 0.5802(7) 0.4367(5) 0.146(4) Uani d . . . 1.000000 . .
F F10 0.5080(4) 0.6651(8) 0.3982(4) 0.188(6) Uani d . . . 1.000000 . .
N N1 0.7969(4) 0.5027(5) 0.3099(4) 0.083(3) Uani d . . . 1.000000 . .
N N2 0.6782(4) 0.6321(5) 0.3511(4) 0.083(3) Uani d . . . 1.000000 . .
N N3 0.6958(4) 0.4748(5) 0.3621(4) 0.081(2) Uani d . . . 1.000000 . .
N N4 0.6893(4) 0.5302(5) 0.2573(4) 0.079(2) Uani d . . . 1.000000 . .
N N5 0.6949(4) 0.6352(5) 0.1012(4) 0.082(2) Uani d . . . 1.000000 . .
O O1 0.7721(3) 0.6658(4) 0.0685(4) 0.091(2) Uani d . . . 1.000000 . .
O O2 0.7432(4) 0.5581(5) 0.0519(4) 0.088(2) Uani d . . . 1.000000 . .
O O3 0.535625 0.367126 0.269691 0.175(8) Uani d U P D 0.500000 B -1
O O4 0.464362 0.367126 0.230309 0.175(8) Uani d U P D 0.500000 B -1
C C52 0.500000 0.331349 0.250000 0.153(6) Uani d U P DS 0.500000 B -1
C C53 0.500000 0.260762 0.250000 0.165(8) Uani d U P DS 0.500000 B -1
H H53A 0.467773 0.244197 0.232187 0.248000 Uiso calc U P R 0.500000 B -1
H H53B 0.529763 0.244197 0.227364 0.248000 Uiso calc U P R 0.500000 B -1
H H53C 0.502464 0.244197 0.290448 0.248000 Uiso calc U P R 0.500000 B -1
O O6 0.5564(10) 0.5926(11) 0.2721(10) 0.153(7) Uani d U P D 0.500000 C -1
O O7 0.5525(10) 0.4982(12) 0.3099(11) 0.160(8) Uani d U P D 0.500000 C -1
C C54 0.5321(13) 0.5382(13) 0.2747(17) 0.156(8) Uani d U P D 0.500000 C -1
C C55 0.4939(16) 0.5172(16) 0.2351(19) 0.155(9) Uani d U P D 0.500000 C -1
H H55A 0.482721 0.555940 0.211300 0.233000 Uiso calc U P R 0.500000 C -1
H H55B 0.508033 0.481858 0.209456 0.233000 Uiso calc U P R 0.500000 C -1
H H55C 0.464086 0.499120 0.256800 0.233000 Uiso calc U P R 0.500000 C -1
loop_
_atom_site_aniso_label
_atom_site_aniso_U_11
_atom_site_aniso_U_22
_atom_site_aniso_U_33
_atom_site_aniso_U_12
_atom_site_aniso_U_13
_atom_site_aniso_U_23
Ir1 0.0880(4) 0.0738(3) 0.0576(3) -0.0061(2) -0.00200(19) 0.00147(18)
C1 0.102(8) 0.084(7) 0.047(5) -0.020(6) -0.015(5) 0.001(5)
C2 0.106(9) 0.074(7) 0.064(6) -0.006(6) -0.005(6) 0.001(5)
C3 0.111(10) 0.091(8) 0.069(7) -0.025(8) -0.008(7) 0.008(6)
C4 0.116(11) 0.106(10) 0.076(8) -0.030(8) -0.032(7) 0.011(7)
C5 0.094(9) 0.095(9) 0.092(9) -0.017(7) -0.020(7) 0.016(7)
C6 0.094(8) 0.089(8) 0.077(7) -0.010(7) -0.008(6) 0.013(6)
C7 0.082(7) 0.101(9) 0.083(7) -0.012(7) -0.005(6) 0.003(7)
C8 0.093(9) 0.118(11) 0.120(12) 0.009(9) -0.002(8) 0.006(10)
C9 0.109(11) 0.120(12) 0.110(12) 0.010(9) 0.013(10) -0.010(9)
C10 0.114(11) 0.094(9) 0.095(10) -0.003(8) 0.027(9) -0.013(7)
C11 0.096(8) 0.081(7) 0.076(7) -0.008(6) 0.009(6) -0.005(6)
C12 0.160(7) 0.144(7) 0.135(7) 0.009(6) 0.014(6) -0.014(6)
F3 0.171(8) 0.164(9) 0.121(8) 0.006(8) 0.006(7) -0.033(8)
F4 0.179(9) 0.140(8) 0.118(7) 0.008(7) 0.032(7) -0.014(7)
F5 0.187(9) 0.142(8) 0.149(8) 0.027(8) 0.013(8) -0.026(7)
C12A 0.162(7) 0.146(7) 0.136(7) 0.008(6) 0.013(6) -0.014(6)
F3A 0.175(10) 0.142(9) 0.121(9) 0.014(9) 0.013(9) -0.020(8)
F4A 0.170(9) 0.159(10) 0.141(10) 0.013(8) 0.027(9) -0.017(9)
F5A 0.176(10) 0.145(9) 0.130(9) 0.006(9) 0.011(9) -0.017(9)
C13 0.092(8) 0.071(7) 0.058(6) -0.008(6) -0.013(5) 0.018(5)
C14 0.099(8) 0.092(8) 0.065(6) -0.011(7) 0.001(6) 0.002(6)
C15 0.102(9) 0.122(12) 0.075(8) -0.027(9) 0.003(7) -0.013(8)
C16 0.123(11) 0.087(9) 0.077(8) -0.027(8) -0.013(8) 0.010(7)
C17 0.119(10) 0.100(11) 0.089(9) -0.002(9) -0.021(8) 0.000(8)
C18 0.094(8) 0.071(7) 0.065(6) -0.010(6) -0.013(5) 0.006(5)
C19 0.095(8) 0.076(7) 0.070(7) 0.005(6) -0.009(6) 0.001(6)
C20 0.109(10) 0.094(9) 0.096(9) 0.008(8) -0.005(8) -0.008(7)
C21 0.108(11) 0.117(12) 0.095(9) 0.014(9) -0.018(8) -0.021(9)
C22 0.073(7) 0.136(13) 0.086(8) -0.001(8) -0.010(6) -0.020(8)
C23 0.086(8) 0.112(10) 0.069(7) -0.015(7) -0.011(6) 0.000(7)
C24 0.081(9) 0.150(15) 0.102(11) 0.000(9) -0.016(8) -0.015(10)
C25 0.097(8) 0.087(8) 0.061(6) -0.013(6) -0.007(6) 0.003(5)
C26 0.100(8) 0.080(7) 0.066(6) 0.003(6) -0.004(6) 0.003(5)
C27 0.097(8) 0.083(7) 0.060(6) -0.002(6) 0.019(6) -0.001(5)
C28 0.094(8) 0.072(7) 0.070(6) -0.007(6) 0.006(5) -0.013(5)
C29 0.083(7) 0.076(7) 0.066(6) -0.004(5) 0.008(5) -0.005(5)
C30 0.102(8) 0.082(7) 0.070(7) -0.005(6) 0.011(6) -0.004(6)
C31 0.153(14) 0.117(12) 0.108(11) -0.028(11) -0.021(10) 0.034(9)
C32 0.146(13) 0.095(10) 0.100(10) -0.026(9) 0.030(9) -0.010(8)
C33 0.103(10) 0.101(10) 0.157(15) -0.010(9) 0.024(10) 0.021(10)
C34 0.080(7) 0.088(8) 0.061(6) -0.005(6) 0.000(5) -0.004(5)
C35 0.079(7) 0.085(8) 0.064(6) 0.001(5) 0.000(5) 0.000(5)
C36 0.076(6) 0.093(8) 0.057(6) -0.001(6) -0.001(5) -0.004(5)
C37 0.076(7) 0.097(8) 0.063(6) 0.002(6) 0.002(5) 0.000(6)
C38 0.092(8) 0.078(7) 0.063(6) -0.001(6) 0.003(6) 0.000(5)
C39 0.078(7) 0.106(9) 0.057(6) -0.001(6) -0.008(5) 0.000(5)
C40 0.102(8) 0.095(8) 0.066(6) -0.026(7) -0.005(6) -0.003(6)
C41 0.086(8) 0.113(10) 0.079(7) 0.003(7) -0.008(6) 0.003(7)
C42 0.087(8) 0.134(11) 0.059(6) -0.011(7) 0.003(6) -0.010(6)
C43 0.083(7) 0.100(8) 0.072(7) -0.005(7) -0.009(6) 0.006(6)
C44 0.102(9) 0.110(10) 0.086(8) 0.002(8) -0.003(7) 0.008(7)
C45 0.119(11) 0.117(12) 0.100(10) 0.021(9) 0.008(8) -0.002(9)
C46 0.129(11) 0.096(9) 0.071(7) 0.011(8) -0.006(7) 0.008(7)
C47 0.106(9) 0.064(7) 0.056(6) -0.002(6) -0.007(6) -0.003(5)
C48 0.108(10) 0.097(9) 0.090(8) -0.011(8) 0.004(7) 0.003(7)
C49 0.113(10) 0.117(12) 0.107(10) -0.011(9) 0.003(8) -0.012(9)
C50 0.118(10) 0.101(9) 0.083(8) -0.012(8) 0.011(7) -0.003(7)
C51 0.120(11) 0.100(10) 0.113(11) -0.020(9) 0.026(9) -0.004(8)
F1 0.153(7) 0.112(6) 0.070(4) -0.012(5) -0.016(4) -0.010(4)
F2 0.106(5) 0.139(7) 0.113(6) 0.003(5) -0.024(5) 0.016(5)
F6 0.126(6) 0.118(6) 0.091(5) -0.031(5) 0.011(5) 0.013(4)
F7 0.145(7) 0.077(5) 0.124(7) 0.007(5) -0.006(5) 0.011(4)
F8 0.117(6) 0.175(8) 0.085(5) 0.011(6) 0.009(4) -0.013(5)
F9 0.118(7) 0.193(11) 0.128(8) -0.043(7) 0.033(6) -0.037(7)
F10 0.090(6) 0.357(19) 0.117(7) 0.002(8) -0.015(5) 0.024(9)
N1 0.110(7) 0.063(5) 0.078(6) -0.005(5) 0.010(5) -0.002(4)
N2 0.088(6) 0.100(7) 0.062(5) -0.001(5) -0.009(5) 0.001(5)
N3 0.098(6) 0.090(7) 0.055(5) -0.016(5) 0.001(4) -0.002(4)
N4 0.098(7) 0.083(6) 0.057(5) -0.008(5) -0.004(4) 0.001(4)
N5 0.093(6) 0.085(6) 0.067(5) -0.004(5) 0.000(5) 0.001(5)
O1 0.108(6) 0.079(5) 0.086(6) -0.008(5) 0.004(4) -0.005(4)
O2 0.096(6) 0.098(7) 0.070(5) 0.004(4) 0.003(4) 0.004(4)
O3 0.186(12) 0.193(14) 0.146(14) -0.042(12) 0.020(11) -0.002(13)
O4 0.183(12) 0.193(14) 0.147(14) 0.043(12) 0.023(11) 0.002(13)
C52 0.153(9) 0.164(9) 0.143(9) 0.000(9) 0.009(8) 0.000(9)
C53 0.154(13) 0.180(11) 0.161(14) 0.000(13) -0.004(12) 0.000(15)
O6 0.170(13) 0.156(12) 0.133(12) 0.001(11) -0.004(11) -0.027(10)
O7 0.158(13) 0.176(13) 0.148(12) 0.019(12) 0.017(10) -0.002(11)
C54 0.157(11) 0.162(11) 0.150(10) 0.003(8) 0.006(8) -0.005(8)
C55 0.147(14) 0.172(15) 0.148(16) -0.005(13) 0.015(11) -0.012(13)
loop_
_atom_type_symbol
_atom_type_description
_atom_type_scat_dispersion_real
_atom_type_scat_dispersion_imag
_atom_type_scat_source
C C 0.0033 0.0016 'International Tables Vol C Tables 4.2.6.8 and 6.1.1.4'
H H 0.0000 0.0000 'International Tables Vol C Tables 4.2.6.8 and 6.1.1.4'
F F 0.0171 0.0103 'International Tables Vol C Tables 4.2.6.8 and 6.1.1.4'
Ir Ir -1.4442 7.9887 'International Tables Vol C Tables 4.2.6.8 and 6.1.1.4'
N N 0.0061 0.0033 'International Tables Vol C Tables 4.2.6.8 and 6.1.1.4'
O O 0.0106 0.0060 'International Tables Vol C Tables 4.2.6.8 and 6.1.1.4'
loop_
_geom_angle_atom_site_label_1
_geom_angle_atom_site_label_2
_geom_angle_atom_site_label_3
_geom_angle_site_symmetry_1
_geom_angle_site_symmetry_3
_geom_angle
_geom_angle_publ_flag
C13 Ir1 C1 . . 91.4(4) ?
C13 Ir1 N2 . . 80.0(5) ?
C1 Ir1 N2 . . 95.0(5) ?
C13 Ir1 N1 . . 94.5(4) ?
C1 Ir1 N1 . . 80.7(5) ?
N2 Ir1 N1 . . 173.0(4) ?
C13 Ir1 N4 . . 97.9(4) ?
C1 Ir1 N4 . . 170.0(4) ?
N2 Ir1 N4 . . 90.3(4) ?
N1 Ir1 N4 . . 94.9(4) ?
C13 Ir1 N3 . . 174.0(4) ?
C1 Ir1 N3 . . 94.3(4) ?
N2 Ir1 N3 . . 97.6(4) ?
N1 Ir1 N3 . . 88.3(4) ?
N4 Ir1 N3 . . 76.6(3) ?
C2 C1 C6 . . 119.3(10) ?
C2 C1 Ir1 . . 126.7(10) ?
C6 C1 Ir1 . . 113.9(9) ?
C3 C2 C1 . . 118.5(12) ?
F1 C3 C2 . . 118.5(13) ?
F1 C3 C4 . . 118.1(12) ?
C2 C3 C4 . . 123.5(13) ?
C5 C4 C3 . . 117.2(12) ?
C4 C5 F2 . . 117.1(12) ?
C4 C5 C6 . . 123.2(14) ?
F2 C5 C6 . . 119.7(14) ?
C5 C6 C1 . . 118.3(13) ?
C5 C6 C7 . . 125.8(13) ?
C1 C6 C7 . . 115.9(11) ?
N1 C7 C8 . . 116.1(13) ?
N1 C7 C6 . . 114.0(11) ?
C8 C7 C6 . . 129.8(13) ?
C9 C8 C7 . . 123.1(15) ?
C8 C9 C10 . . 118.1(15) ?
C11 C10 C9 . . 119.6(14) ?
C11 C10 C12 . . 121.8(19) ?
C9 C10 C12 . . 118.4(18) ?
C11 C10 C12A . . 114.(2) ?
C9 C10 C12A . . 126.(2) ?
N1 C11 C10 . . 122.0(13) ?
F4 C12 F5 . . 111.(2) ?
F4 C12 F3 . . 106.(3) ?
F5 C12 F3 . . 103.(3) ?
F4 C12 C10 . . 114.(2) ?
F5 C12 C10 . . 113.(2) ?
F3 C12 C10 . . 108.(2) ?
F4A C12A F5A . . 109.(3) ?
F4A C12A F3A . . 105.(3) ?
F5A C12A F3A . . 100.(3) ?
F4A C12A C10 . . 113.(3) ?
F5A C12A C10 . . 115.(3) ?
F3A C12A C10 . . 113.(3) ?
C18 C13 C14 . . 119.5(10) ?
C18 C13 Ir1 . . 114.1(8) ?
C14 C13 Ir1 . . 126.4(9) ?
C15 C14 C13 . . 119.3(13) ?
F6 C15 C16 . . 118.5(14) ?
F6 C15 C14 . . 118.8(14) ?
C16 C15 C14 . . 122.6(13) ?
C17 C16 C15 . . 117.8(13) ?
F7 C17 C16 . . 117.1(14) ?
F7 C17 C18 . . 120.0(14) ?
C16 C17 C18 . . 122.9(15) ?
C13 C18 C17 . . 117.7(12) ?
C13 C18 C19 . . 116.7(10) ?
C17 C18 C19 . . 125.5(13) ?
C20 C19 N2 . . 119.6(12) ?
C20 C19 C18 . . 127.4(12) ?
N2 C19 C18 . . 113.0(10) ?
C21 C20 C19 . . 121.0(15) ?
C20 C21 C22 . . 119.9(15) ?
C21 C22 C23 . . 117.6(13) ?
C21 C22 C24 . . 121.7(16) ?
C23 C22 C24 . . 120.7(16) ?
N2 C23 C22 . . 122.3(14) ?
F10 C24 F8 . . 106.2(14) ?
F10 C24 F9 . . 104.9(15) ?
F8 C24 F9 . . 103.7(14) ?
F10 C24 C22 . . 113.0(15) ?
F8 C24 C22 . . 113.5(13) ?
F9 C24 C22 . . 114.7(15) ?
N3 C25 C26 . . 122.2(11) ?
C27 C26 C25 . . 120.1(10) ?
C26 C27 C28 . . 117.2(11) ?
C26 C27 C30 . . 122.0(10) ?
C28 C27 C30 . . 120.9(11) ?
C29 C28 C27 . . 120.2(11) ?
N3 C29 C28 . . 121.6(10) ?
N3 C29 C34 . . 114.8(10) ?
C28 C29 C34 . . 123.6(10) ?
C33 C30 C32 . . 115.4(13) ?
C33 C30 C31 . . 107.9(12) ?
C32 C30 C31 . . 104.4(12) ?
C33 C30 C27 . . 106.8(11) ?
C32 C30 C27 . . 110.4(10) ?
C31 C30 C27 . . 112.0(11) ?
N4 C34 C35 . . 121.5(10) ?
N4 C34 C29 . . 114.7(9) ?
C35 C34 C29 . . 123.8(11) ?
C34 C35 C36 . . 121.0(11) ?
C37 C36 C35 . . 116.7(10) ?
C37 C36 C39 . . 124.9(10) ?
C35 C36 C39 . . 118.4(11) ?
C36 C37 C38 . . 118.4(11) ?
C36 C37 C43 . . 124.3(10) ?
C38 C37 C43 . . 117.1(11) ?
N4 C38 C37 . . 124.4(11) ?
C41 C39 C40 . . 106.1(10) ?
C41 C39 C36 . . 111.6(10) ?
C40 C39 C36 . . 112.4(9) ?
C41 C39 C42 . . 113.9(10) ?
C40 C39 C42 . . 106.0(10) ?
C36 C39 C42 . . 106.8(9) ?
N5 C43 C37 . . 112.2(9) ?
N5 C43 C44 . . 100.5(10) ?
C37 C43 C44 . . 111.0(10) ?
C45 C44 C43 . . 104.0(11) ?
C44 C45 C46 . . 106.1(12) ?
N5 C46 C45 . . 101.7(11) ?
O2 C47 O1 . . 126.5(12) ?
O2 C47 N5 . . 123.2(11) ?
O1 C47 N5 . . 110.4(10) ?
O1 C48 C50 . . 110.3(11) ?
O1 C48 C49 . . 111.4(11) ?
C50 C48 C49 . . 111.9(12) ?
O1 C48 C51 . . 101.1(11) ?
C50 C48 C51 . . 110.8(12) ?
C49 C48 C51 . . 110.8(12) ?
C11 N1 C7 . . 120.8(12) ?
C11 N1 Ir1 . . 123.5(9) ?
C7 N1 Ir1 . . 115.4(8) ?
C23 N2 C19 . . 119.6(11) ?
C23 N2 Ir1 . . 124.2(10) ?
C19 N2 Ir1 . . 116.2(8) ?
C25 N3 C29 . . 118.7(10) ?
C25 N3 Ir1 . . 125.2(8) ?
C29 N3 Ir1 . . 116.1(7) ?
C38 N4 C34 . . 117.3(10) ?
C38 N4 Ir1 . . 125.1(8) ?
C34 N4 Ir1 . . 117.6(7) ?
C47 N5 C46 . . 124.7(11) ?
C47 N5 C43 . . 119.1(10) ?
C46 N5 C43 . . 115.8(10) ?
C47 O1 C48 . . 119.7(10) ?
O3 C52 O4 . . 110.736(2) ?
O3 C52 C53 . . 124.6360(10) ?
O4 C52 C53 . . 124.6280(10) ?
O7 C54 O6 . . 111.3(15) ?
O7 C54 C55 . . 121.9(16) ?
O6 C54 C55 . . 125.4(16) ?
loop_
_geom_bond_atom_site_label_1
_geom_bond_atom_site_label_2
_geom_bond_site_symmetry_2
_geom_bond_distance
_geom_bond_publ_flag
Ir1 C13 . 2.017(11) ?
Ir1 C1 . 2.020(10) ?
Ir1 N2 . 2.046(10) ?
Ir1 N1 . 2.052(10) ?
Ir1 N4 . 2.112(9) ?
Ir1 N3 . 2.134(9) ?
C1 C2 . 1.393(16) ?
C1 C6 . 1.417(18) ?
C2 C3 . 1.376(17) ?
C3 F1 . 1.341(15) ?
C3 C4 . 1.38(2) ?
C4 C5 . 1.36(2) ?
C5 F2 . 1.357(16) ?
C5 C6 . 1.384(17) ?
C6 C7 . 1.453(18) ?
C7 N1 . 1.380(16) ?
C7 C8 . 1.39(2) ?
C8 C9 . 1.33(2) ?
C9 C10 . 1.39(2) ?
C10 C11 . 1.337(18) ?
C10 C12 . 1.51(3) ?
C10 C12A . 1.54(3) ?
C11 N1 . 1.329(14) ?
C12 F4 . 1.29(3) ?
C12 F5 . 1.30(3) ?
C12 F3 . 1.35(3) ?
C12A F4A . 1.29(3) ?
C12A F5A . 1.31(3) ?
C12A F3A . 1.36(3) ?
C13 C18 . 1.402(17) ?
C13 C14 . 1.416(16) ?
C14 C15 . 1.375(18) ?
C15 F6 . 1.350(15) ?
C15 C16 . 1.38(2) ?
C16 C17 . 1.37(2) ?
C17 F7 . 1.339(18) ?
C17 C18 . 1.412(19) ?
C18 C19 . 1.443(17) ?
C19 C20 . 1.371(18) ?
C19 N2 . 1.376(15) ?
C20 C21 . 1.36(2) ?
C21 C22 . 1.39(2) ?
C22 C23 . 1.392(19) ?
C22 C24 . 1.45(2) ?
C23 N2 . 1.335(15) ?
C24 F10 . 1.322(17) ?
C24 F8 . 1.322(17) ?
C24 F9 . 1.35(2) ?
C25 N3 . 1.313(14) ?
C25 C26 . 1.399(16) ?
C26 C27 . 1.382(16) ?
C27 C28 . 1.391(15) ?
C27 C30 . 1.538(16) ?
C28 C29 . 1.377(16) ?
C29 N3 . 1.367(14) ?
C29 C34 . 1.494(15) ?
C30 C33 . 1.511(19) ?
C30 C32 . 1.519(17) ?
C30 C31 . 1.523(18) ?
C34 N4 . 1.347(14) ?
C34 C35 . 1.382(15) ?
C35 C36 . 1.414(15) ?
C36 C37 . 1.388(17) ?
C36 C39 . 1.557(15) ?
C37 C38 . 1.390(16) ?
C37 C43 . 1.504(16) ?
C38 N4 . 1.347(14) ?
C39 C41 . 1.539(16) ?
C39 C40 . 1.542(16) ?
C39 C42 . 1.558(17) ?
C43 N5 . 1.484(15) ?
C43 C44 . 1.579(18) ?
C44 C45 . 1.53(2) ?
C45 C46 . 1.55(2) ?
C46 N5 . 1.477(16) ?
C47 O2 . 1.219(13) ?
C47 O1 . 1.336(14) ?
C47 N5 . 1.354(15) ?
C48 O1 . 1.485(16) ?
C48 C50 . 1.510(18) ?
C48 C49 . 1.53(2) ?
C48 C51 . 1.543(19) ?
O3 C52 . 1.241359(15) ?
O4 C52 . 1.241619(15) ?
C52 C53 . 1.39201(2) ?
O6 C54 . 1.244(10) ?
O7 C54 . 1.242(10) ?
C54 C55 . 1.397(10) ?
