#------------------------------------------------------------------------------
#$Date: 2024-02-04 13:34:06 +0200 (Sun, 04 Feb 2024) $
#$Revision: 289428 $
#$URL: file:///home/coder/svn-repositories/cod/cif/1/57/05/1570520.cif $
#------------------------------------------------------------------------------
#
# This file is available in the Crystallography Open Database (COD),
# http://www.crystallography.net/
#
# All data on this site have been placed in the public domain by the
# contributors.
#
data_1570520
loop_
_publ_author_name
'Li, Dong-Yang'
'Kang, Huai-Yuan'
'Liu, Yu-Hang'
'Zhang, Jie'
'Yue, Cheng-Yang'
'Yan, Dongpeng'
'Lei, Xiao-Wu'
_publ_section_title
;
 A 0D hybrid lead-free halide with near-unity photoluminescence quantum
 yield toward multifunctional optoelectronic applications.
;
_journal_issue                   3
_journal_name_full               'Chemical science'
_journal_page_first              953
_journal_page_last               963
_journal_paper_doi               10.1039/d3sc05245a
_journal_volume                  15
_journal_year                    2024
_chemical_absolute_configuration unk
_chemical_formula_moiety         'Cl6 In, C10 H26 N3, H2 O'
_chemical_formula_sum            'C10 H28 Cl6 In N3 O'
_chemical_formula_weight         533.887
_space_group_crystal_system      orthorhombic
_space_group_IT_number           19
_space_group_name_Hall           'P 2ac 2ab'
_space_group_name_H-M_alt        'P 21 21 21'
_symmetry_Int_Tables_number      19
_atom_sites_solution_primary     dual
_audit_creation_date             2022-11-25
_audit_creation_method
;
Olex2 1.5
(compiled 2021.12.09 svn.r5202d8cf for OlexSys, GUI svn.r6439)
;
_audit_update_record
;
2022-12-30 deposited with the CCDC.	2023-12-05 downloaded from the CCDC.
;
_cell_angle_alpha                90
_cell_angle_beta                 90
_cell_angle_gamma                90
_cell_formula_units_Z            4
_cell_length_a                   9.3561(1)
_cell_length_b                   12.3477(2)
_cell_length_c                   18.1889(3)
_cell_measurement_reflns_used    9993
_cell_measurement_temperature    296.15
_cell_measurement_theta_max      30.58
_cell_measurement_theta_min      2.73
_cell_volume                     2101.30(5)
_computing_molecular_graphics    'Olex2 1.5 (Dolomanov et al., 2009)'
_computing_publication_material  'Olex2 1.5 (Dolomanov et al., 2009)'
_computing_structure_refinement  'olex2.refine 1.5 (Bourhis et al., 2015)'
_computing_structure_solution    'SHELXT 2014/5 (Sheldrick, 2014)'
_diffrn_ambient_temperature      296.15
_diffrn_measured_fraction_theta_full 1.0000
_diffrn_measured_fraction_theta_max 0.9995
_diffrn_measurement_device_type  'Bruker APEX-II CCD'
_diffrn_measurement_method       '\f and \w scans'
_diffrn_radiation_monochromator  graphite
_diffrn_radiation_type           'Mo K\a'
_diffrn_radiation_wavelength     0.71073
_diffrn_reflns_av_R_equivalents  0.0267
_diffrn_reflns_av_unetI/netI     0.0280
_diffrn_reflns_Laue_measured_fraction_full 1.0000
_diffrn_reflns_Laue_measured_fraction_max 0.9995
_diffrn_reflns_limit_h_max       13
_diffrn_reflns_limit_h_min       -13
_diffrn_reflns_limit_k_max       17
_diffrn_reflns_limit_k_min       -17
_diffrn_reflns_limit_l_max       17
_diffrn_reflns_limit_l_min       -26
_diffrn_reflns_number            26504
_diffrn_reflns_point_group_measured_fraction_full 1.0000
_diffrn_reflns_point_group_measured_fraction_max 0.9991
_diffrn_reflns_theta_full        25.2417
_diffrn_reflns_theta_max         30.71
_diffrn_reflns_theta_min         1.99
_diffrn_source_current           30.0
_diffrn_source_power             1.5
_diffrn_source_voltage           50.0
_diffrn_standards_number         0
_exptl_absorpt_coefficient_mu    1.889
_exptl_absorpt_correction_type   none
_exptl_crystal_colour            'metallic dark brown'
_exptl_crystal_colour_lustre     metallic
_exptl_crystal_colour_modifier   dark
_exptl_crystal_colour_primary    brown
_exptl_crystal_density_diffrn    1.688
_exptl_crystal_description       irregular
_exptl_crystal_F_000             1073.093
_exptl_crystal_size_max          0.12
_exptl_crystal_size_mid          0.11
_exptl_crystal_size_min          0.1
_refine_diff_density_max         0.5880
_refine_diff_density_min         -0.5134
_refine_diff_density_rms         0.0803
_refine_ls_abs_structure_details
'Hooft, R.W.W., Straver, L.H., Spek, A.L. (2010). J. Appl. Cryst., 43, 665-668.'
_refine_ls_abs_structure_Flack   -0.025(9)
_refine_ls_d_res_high            0.6959
_refine_ls_d_res_low             10.2161
_refine_ls_extinction_coef       0.00101(18)
_refine_ls_extinction_expression Fc^*^=kFc[1+0.001xFc^2^\l^3^/sin(2\q)]^-1/4^
_refine_ls_goodness_of_fit_ref   1.0168
_refine_ls_hydrogen_treatment    constr
_refine_ls_matrix_type           full
_refine_ls_number_constraints    40
_refine_ls_number_parameters     198
_refine_ls_number_reflns         6525
_refine_ls_number_restraints     0
_refine_ls_restrained_S_all      1.0168
_refine_ls_R_factor_all          0.0276
_refine_ls_R_factor_gt           0.0237
_refine_ls_shift/su_max          -0.0007
_refine_ls_shift/su_mean         0.0000
_refine_ls_structure_factor_coef Fsqd
_refine_ls_weighting_details
'w=1/[\s^2^(Fo^2^)+(0.0291P)^2^+0.3416P] where P=(Fo^2^+2Fc^2^)/3'
_refine_ls_weighting_scheme      calc
_refine_ls_wR_factor_gt          0.0543
_refine_ls_wR_factor_ref         0.0558
_reflns_Friedel_coverage         0.999
_reflns_limit_h_max              13
_reflns_limit_h_min              -13
_reflns_limit_k_max              17
_reflns_limit_k_min              -17
_reflns_limit_l_max              26
_reflns_limit_l_min              -26
_reflns_number_gt                6080
_reflns_number_total             6525
_reflns_threshold_expression     I>=2u(I)
_iucr_refine_instructions_details
;
TITL 1_a.res in P2(1)2(1)2(1)
REM Old TITL
REM SHELXT solution in P2(1)2(1)2(1)
REM R1 0.056, Rweak 0.030, Alpha 0.008, Orientation as input
REM Flack x = -0.013 ( 0.008 ) from Parsons' quotients
REM Formula found by SHELXT: C10 N4 Cl6 In
CELL 0.71073 9.3561 12.3477 18.1889 90 90 90
ZERR 4 0.0001 0.0002 0.0003 0 0 0
LATT -1
SYMM 0.5-X,-Y,0.5+Z
SYMM -X,0.5+Y,0.5-Z
SYMM 0.5+X,0.5-Y,-Z
SFAC C H Cl In N O
UNIT 40 112 24 4 12 4

L.S. 10
PLAN  20
TEMP 23
FMAP 2
list 4
MORE -1
CONF 
ACTA 
BOND $H
EXTI 0.00101
WGHT 0.029091 0.341579
FVAR 0.419519
REM <olex2.extras>
REM <HklSrc "%.\\1.hkl">
REM </olex2.extras>

In01  4     0.27406  0.46546  0.13262  11.00000  0.02426  0.02496  0.02147 =
 -0.00051 -0.00069  0.00112 
Cl02  3     0.07845  0.54513  0.05593  11.00000  0.03355  0.03895  0.03040 =
 0.00316 -0.00474  0.00580 
Cl03  3     0.34045  0.65242  0.17920  11.00000  0.03816  0.02706  0.04075 =
 -0.00355 -0.00906 -0.00071 
Cl04  3     0.45994  0.38701  0.21819  11.00000  0.03779  0.03540  0.03420 =
 -0.00595 -0.01235  0.01099 
Cl05  3     0.22988  0.27396  0.08609  11.00000  0.04119  0.02599  0.03301 =
 -0.00478  0.00081 -0.00317 
Cl06  3     0.08879  0.43735  0.23160  11.00000  0.03825  0.03891  0.03012 =
 0.00323  0.00948  0.00224 
Cl07  3     0.44732  0.47996  0.02839  11.00000  0.03700  0.05684  0.03717 =
 0.00089  0.01212 -0.00868 

N008  5     0.40038  0.10899  0.20120  11.00000  0.02514  0.02723  0.02662 =
 -0.00209  0.00006 -0.00083 
AFIX 23
H00a  2     0.39603  0.18051  0.19193  11.00000 -1.20000 
H00b  2     0.46283  0.09895  0.23821  11.00000 -1.20000 
AFIX 0
N009  5     0.79899  0.20989  0.08973  11.00000  0.03267  0.02941  0.02673 =
 0.00307  0.00159 -0.00189 
N00A  5     0.20338  0.20609  0.41332  11.00000  0.03684  0.03678  0.02647 =
 -0.00290 -0.00209 -0.00303 
C00B  1     0.25558  0.07056  0.22528  11.00000  0.02481  0.03403  0.03035 =
 -0.00170  0.00063 -0.00492 
AFIX 23
H00c  2     0.19225  0.06863  0.18308  11.00000 -1.20000 
H00d  2     0.26364 -0.00257  0.24431  11.00000 -1.20000 
AFIX 0
AFIX 6
O00C  6    -0.06297  0.29961  0.36428  11.00000  0.06461  0.07911  0.06416 =
 0.00915  0.00717 -0.01317 
H00z  2     0.00825  0.26362  0.37993  11.00000 -1.50000 
Ha    2    -0.03417  0.32750  0.32421  11.00000 -1.50000 
AFIX 0
C00D  1     0.64473  0.19115  0.10975  11.00000  0.03081  0.03028  0.03712 =
 0.00215  0.00479  0.00293 
AFIX 23
H00e  2     0.62249  0.23139  0.15410  11.00000 -1.20000 
H00f  2     0.58427  0.21852  0.07061  11.00000 -1.20000 
AFIX 0
C00E  1     0.61189  0.07301  0.12212  11.00000  0.03202  0.02803  0.02683 =
 -0.00222  0.00452  0.00301 
AFIX 23
H00g  2     0.64362  0.03180  0.07976  11.00000 -1.20000 
H00h  2     0.66501  0.04766  0.16456  11.00000 -1.20000 
AFIX 0
C00F  1     0.19105  0.14301  0.28401  11.00000  0.02464  0.03435  0.03093 =
 -0.00004 -0.00044 -0.00008 
AFIX 23
H00i  2     0.20145  0.21796  0.26896  11.00000 -1.20000 
H00j  2     0.08963  0.12767  0.28778  11.00000 -1.20000 
AFIX 0
C00G  1     0.25889  0.12865  0.35892  11.00000  0.03636  0.04195  0.03248 =
 -0.00164 -0.00075  0.00745 
AFIX 23
H00k  2     0.36149  0.13796  0.35456  11.00000 -1.20000 
H00l  2     0.24109  0.05553  0.37613  11.00000 -1.20000 
AFIX 0
C00H  1     0.45448  0.05220  0.13442  11.00000  0.03220  0.03330  0.02333 =
 -0.00648  0.00067 -0.00136 
AFIX 23
H00m  2     0.43875 -0.02506  0.13974  11.00000 -1.20000 
H00n  2     0.40116  0.07666  0.09181  11.00000 -1.20000 
AFIX 0
C00I  1     0.23752  0.17444  0.48975  11.00000  0.06158  0.06315  0.02968 =
 -0.00039 -0.00453 -0.00709 
AFIX 137
H00o  2     0.19015  0.10761  0.50132  11.00000 -1.50000 
H00p  2     0.33894  0.16518  0.49472  11.00000 -1.50000 
H00q  2     0.20562  0.22999  0.52284  11.00000 -1.50000 
AFIX 0
C00J  1     0.89920  0.16032  0.14286  11.00000  0.03216  0.07210  0.05874 =
 0.02785 -0.00630 -0.00776 
AFIX 137
H00r  2     0.87214  0.18038  0.19191  11.00000 -1.50000 
H00s  2     0.89607  0.08293  0.13806  11.00000 -1.50000 
H00t  2     0.99441  0.18546  0.13308  11.00000 -1.50000 
AFIX 0
C00K  1     0.82634  0.32784  0.08165  11.00000  0.06131  0.03491  0.04625 =
 0.00169  0.00012 -0.01396 
AFIX 137
H00u  2     0.75694  0.35865  0.04888  11.00000 -1.50000 
H00v  2     0.81928  0.36224  0.12884  11.00000 -1.50000 
H00w  2     0.92046  0.33883  0.06201  11.00000 -1.50000 
AFIX 0
C00L  1     0.26635  0.31656  0.40023  11.00000  0.12155  0.04504  0.05288 =
 -0.00317 -0.01883 -0.02741 
AFIX 137
H00x  2     0.36798  0.31368  0.40720  11.00000 -1.50000 
H00y  2     0.24572  0.33922  0.35087  11.00000 -1.50000 
H     2     0.22550  0.36727  0.43428  11.00000 -1.50000 
AFIX 0
HKLF 4

END
Q1 1 0.361111 0.455556 0.125 11 0.05 0.59
Q3 1 0.138889 0.311111 0.402778 11 0.05 0.38
Q5 1 0.222222 0.133333 0.319444 11 0.05 0.33
Q7 1 0.111111 0.188889 0.416667 11 0.05 0.32
Q8 1 0.222222 0.211111 0.444444 11 0.05 0.31
Q2 1 0.833333 0.166667 0.055556 11 0.05 0.42
Q4 1 0.194444 0.455556 0.125 11 0.05 0.38
Q6 1 0.277778 0.466667 0.180556 11 0.05 0.33
Q9 1 0.305556 0.277778 0.083333 11 0.05 0.29
Q10 1 0.722222 0.2 0.097222 11 0.05 0.29

  REM The information below was added by Olex2.
  REM
  REM R1 = 0.0237 for 6080 Fo > 4sig(Fo) and 0.0276 for all 6525 data
  REM 198 parameters refined using 0 restraints
  REM Highest difference peak 0.5880, deepest hole -0.5134
  REM Mean Shift 0.0000, Max Shift -0.0007.

  REM +++ Tabular Listing of Refinement Information +++
  REM R1_all = 0.0276
  REM R1_gt = 0.0237
  REM wR_ref = 0.0558
  REM GOOF = 1.0168
  REM Shift_max = -0.0007
  REM Shift_mean = 0.0000
  REM Reflections_all = 6525
  REM Reflections_gt = 6080
  REM Parameters = 198
  REM Hole = -0.5134
  REM Peak = 0.5880
  REM Flack = -0.025(9)
;
_cod_data_source_file            d3sc05245a2.cif
_cod_data_source_block           1
_cod_depositor_comments          'Adding full bibliography for 1570520.cif.'
_cod_original_sg_symbol_Hall     ' P 2ac 2ab'
_cod_database_code               1570520
_olex2_refinement_description
;
;
_iucr_refine_fcf_details
;
data_1_CCDC1
_computing_structure_refinement   'olex2.refine 1.5 (Bourhis et al., 2015)'
_shelx_refln_list_code            4
loop_
  _space_group_symop_id
  _space_group_symop_operation_xyz
  1  x,y,z
  2  x+1/2,-y+1/2,-z
  3  -x,y+1/2,-z+1/2
  4  -x+1/2,-y,z+1/2

_space_group_crystal_system       orthorhombic
_space_group_IT_number            19
_space_group_name_H-M_alt         'P 21 21 21'
_space_group_name_Hall            ' P 2ac 2ab'
_symmetry_space_group_name_H-M    'P 21 21 21'
_symmetry_space_group_name_Hall   ' P 2ac 2ab'
_symmetry_Int_Tables_number       19
_cell_length_a                    9.3561(1)
_cell_length_b                    12.3477(2)
_cell_length_c                    18.1889(3)
_cell_angle_alpha                 90
_cell_angle_beta                  90
_cell_angle_gamma                 90
_cell_volume                      2101.30(5)
loop_
  _refln_index_h
  _refln_index_k
  _refln_index_l
  _refln_F_squared_calc
  _refln_F_squared_meas
  _refln_F_squared_sigma
  _refln_F_squared_weight
  _refln_observed_status
-13 -4 -3 3.250 -5.813 17.115 355.153 o
-13 -4 -2 98.644 95.398 19.544 246.356 o
-13 -4 -1 117.324 122.825 20.648 217.706 o
-13 -3 -4 164.217 168.268 21.742 188.779 o
-13 -3 -3 448.845 433.458 29.428 88.073 o
-13 -3 -2 238.287 295.519 25.886 128.118 o
-13 -3 -1 118.770 125.476 20.734 215.642 o
-13 -2 -5 655.951 698.182 32.939 61.574 o
-13 -2 -4 260.107 261.947 23.013 154.234 o
-13 -2 -3 163.201 184.358 22.282 180.074 o
-13 -2 -2 313.611 299.860 26.216 119.376 o
-13 -2 -1 180.028 188.389 29.452 108.851 o
-13 -1 -6 161.793 212.482 24.656 149.850 o
-13 -1 -5 287.238 310.503 25.127 129.432 o
-13 -1 -4 81.843 92.777 20.212 234.951 o
-13 -1 -3 869.797 880.395 35.944 46.648 o
-13 -1 -2 32.681 20.225 16.224 381.132 o
-13 -1 -1 143.267 124.208 20.602 214.115 o
-12 -7 -5 35.329 40.497 14.923 440.956 o
-12 -7 -4 559.589 609.071 30.983 72.549 o
-12 -7 -3 59.307 53.051 25.771 151.930 o
-12 -7 -2 16.492 21.742 15.924 400.983 o
-12 -7 -1 207.082 224.626 22.860 164.581 o
-12 -6 -7 55.389 0.482 32.255 98.927 o
-12 -6 -6 642.286 615.080 33.789 61.446 o
-12 -6 -5 1.539 10.508 13.081 603.960 o
-12 -6 -4 27.396 13.586 13.880 519.215 o
-12 -6 -3 246.807 274.864 22.988 155.319 o
-12 -6 -2 820.490 774.482 35.460 50.115 o
-12 -6 -1 163.556 156.008 19.011 237.911 o
-12 -5 -9 452.564 451.704 80.968 15.152 o
-12 -5 -8 756.305 758.159 51.419 30.789 o
-12 -5 -7 109.857 120.249 29.032 116.863 o
-12 -5 -6 264.657 298.510 22.209 159.980 o
-12 -5 -5 472.492 517.601 27.826 91.327 o
-12 -5 -4 699.499 725.550 32.966 59.492 o
-12 -5 -3 174.213 182.742 20.648 203.156 o
-12 -5 -2 22.600 27.660 15.291 429.883 o
-12 -5 -1 290.134 341.244 23.896 137.990 o
-12 -4 -10 183.090 176.708 73.297 19.094 o
-12 -4 -9 152.032 154.450 19.499 230.644 o
-12 -4 -8 152.722 187.339 19.449 228.115 o
-12 -4 -7 485.053 455.662 35.742 63.945 o
-12 -4 -6 412.749 453.408 37.514 61.106 o
-12 -4 -5 59.389 62.596 14.449 448.527 o
-12 -4 -4 123.535 150.567 18.752 253.275 o
-12 -4 -3 521.781 515.417 29.043 83.466 o
-12 -4 -2 711.256 811.039 34.952 53.620 o
-12 -4 -1 194.458 190.372 19.525 217.848 o
-12 -3 -10 117.094 103.882 14.683 393.812 o
-12 -3 -9 636.379 665.195 41.184 45.946 o
-12 -3 -8 676.198 669.434 28.806 72.206 o
-12 -3 -7 141.127 162.251 17.413 280.045 o
-12 -3 -6 89.989 79.813 15.296 386.430 o
-12 -3 -5 234.066 252.269 20.446 190.012 o
-12 -3 -4 496.681 491.145 26.497 96.717 o
-12 -3 -3 251.150 258.049 22.473 161.452 o
-12 -3 -2 66.392 71.111 16.129 363.036 o
-12 -3 -1 528.842 528.440 30.290 78.142 o
-12 -2 -11 575.822 661.843 48.654 36.176 o
-12 -2 -10 305.389 338.870 32.578 83.150 o
-12 -2 -9 341.764 381.728 34.650 73.003 o
-12 -2 -8 102.024 122.067 22.851 183.198 o
-12 -2 -7 838.094 936.059 34.354 49.211 o
-12 -2 -6 337.039 324.280 22.319 147.819 o
-12 -2 -5 489.218 491.662 26.191 98.709 o
-12 -2 -4 140.616 135.361 17.492 282.077 o
-12 -2 -3 632.438 653.301 37.936 52.055 o
-12 -2 -2 251.795 232.785 19.886 196.671 o
-12 -2 -1 1326.590 1327.370 43.269 27.335 o
-12 -1 -11 97.638 107.552 16.914 316.813 o
-12 -1 -10 323.227 344.126 43.901 48.911 o
-12 -1 -9 1325.420 1456.900 42.006 27.310 o
-12 -1 -8 162.432 207.860 24.669 149.863 o
-12 -1 -7 94.973 84.995 16.260 344.424 o
-12 -1 -6 36.960 43.550 15.946 387.775 o
-12 -1 -5 798.155 807.619 32.297 56.065 o
-12 -1 -4 20.178 13.745 13.424 558.764 o
-12 -1 -3 342.312 329.549 32.324 82.967 o
-12 -1 -2 20.837 25.818 13.246 568.172 o
-12 -1 -1 875.643 935.680 36.421 45.123 o
-11 -10 -2 74.140 77.087 21.862 205.141 o
-11 -10 -1 320.956 329.466 60.513 27.011 o
-11 -9 -7 32.348 27.273 51.138 39.711 o
-11 -9 -6 561.696 531.916 32.947 68.094 o
-11 -9 -5 252.880 248.824 43.368 51.625 o
-11 -9 -4 20.348 10.824 15.370 430.317 o
-11 -9 -3 11.546 2.751 15.693 418.370 o
-11 -9 -2 700.129 712.357 38.283 49.061 o
-11 -9 -1 225.604 192.400 19.970 204.081 o
-11 -8 -9 138.991 65.910 70.456 20.799 o
-11 -8 -8 753.706 578.365 95.457 10.687 o
-11 -8 -7 59.165 71.633 39.390 66.151 o
-11 -8 -6 29.419 18.819 13.584 537.775 o
-11 -8 -5 2.594 2.466 18.972 289.058 o
-11 -8 -4 1181.170 1196.260 43.557 29.857 o
-11 -8 -3 126.247 154.935 18.907 248.624 o
-11 -8 -2 90.102 100.116 17.464 302.909 o
-11 -8 -1 125.378 127.690 17.086 299.273 o
-11 -7 -10 795.597 831.779 110.230 8.036 o
-11 -7 -9 11.480 -86.934 53.410 36.526 o
-11 -7 -8 198.729 168.185 69.888 20.948 o
-11 -7 -7 1.386 9.457 36.648 77.569 o
-11 -7 -6 1373.770 1430.480 46.565 24.337 o
-11 -7 -5 26.927 52.398 13.402 541.041 o
-11 -7 -4 30.601 11.922 12.825 601.783 o
-11 -7 -3 159.979 168.859 17.767 264.852 o
-11 -7 -2 1785.760 1890.340 42.780 19.838 o
-11 -7 -1 102.825 126.455 16.315 331.748 o
-11 -6 -12 521.043 488.590 101.139 9.817 o
-11 -6 -11 71.851 -21.591 65.910 23.907 o
-11 -6 -10 421.614 536.318 94.320 11.296 o
-11 -6 -9 42.737 -11.364 56.251 32.852 o
-11 -6 -8 1621.300 1501.570 122.162 5.933 o
-11 -6 -7 12.946 20.797 26.164 151.135 o
-11 -6 -6 467.908 440.172 23.253 119.135 o
-11 -6 -5 306.566 341.555 21.952 154.217 o
-11 -6 -4 851.795 838.117 32.395 53.586 o
-11 -6 -3 428.764 440.982 25.705 107.837 o
-11 -6 -2 23.296 5.156 12.549 637.374 o
-11 -6 -1 101.382 124.247 15.966 345.104 o
-11 -5 -13 242.838 214.209 82.388 15.085 o
-11 -5 -12 307.562 264.210 82.388 14.983 o
-11 -5 -11 285.584 255.687 80.683 15.640 o
-11 -5 -10 1635.500 1647.590 134.094 5.010 o
-11 -5 -9 127.090 142.617 64.774 24.507 o
-11 -5 -8 268.448 276.672 41.446 55.693 o
-11 -5 -7 864.527 918.338 40.506 40.095 o
-11 -5 -6 939.038 958.257 33.308 47.648 o
-11 -5 -5 131.856 147.876 15.339 349.879 o
-11 -5 -4 367.793 383.329 23.251 132.735 o
-11 -5 -3 137.132 137.107 17.091 293.893 o
-11 -5 -2 956.416 1002.050 45.664 32.429 o
-11 -5 -1 154.686 188.050 17.675 265.849 o
-11 -4 -13 268.904 258.891 25.468 130.527 o
-11 -4 -12 280.484 179.549 77.274 17.077 o
-11 -4 -11 306.495 361.883 84.093 14.342 o
-11 -4 -10 68.081 85.729 21.159 218.371 o
-11 -4 -9 912.691 1011.480 51.055 28.291 o
-11 -4 -8 1200.880 1130.980 50.765 25.113 o
-11 -4 -7 10.787 27.582 10.557 889.315 o
-11 -4 -6 47.266 34.778 14.875 439.026 o
-11 -4 -5 469.977 514.047 23.797 112.068 o
-11 -4 -4 806.172 838.238 29.553 60.738 o
-11 -4 -3 440.749 425.844 24.132 116.933 o
-11 -4 -2 167.018 171.113 16.960 282.517 o
-11 -4 -1 110.269 144.451 16.609 316.086 o
-11 -3 -14 51.068 48.308 29.734 115.450 o
-11 -3 -13 113.769 112.105 16.797 314.468 o
-11 -3 -12 320.789 280.644 22.400 151.867 o
-11 -3 -11 654.289 642.413 28.593 74.623 o
-11 -3 -10 968.044 991.678 33.690 45.856 o
-11 -3 -9 109.189 189.005 29.404 112.554 o
-11 -3 -8 35.164 56.341 23.592 182.172 o
-11 -3 -7 893.923 878.075 44.562 35.263 o
-11 -3 -6 320.886 320.923 20.227 172.138 o
-11 -3 -5 504.446 518.186 23.986 107.688 o
-11 -3 -4 121.051 126.986 14.519 392.616 o
-11 -3 -3 238.106 233.352 18.213 226.800 o
-11 -3 -2 1399.030 1387.560 37.355 29.634 o
-11 -3 -1 1410.120 1451.510 38.550 28.276 o
-11 -2 -14 85.121 72.527 18.530 276.967 o
-11 -2 -13 782.283 780.120 65.063 20.788 o
-11 -2 -12 223.717 235.384 20.916 186.548 o
-11 -2 -11 58.690 50.675 16.812 342.566 o
-11 -2 -10 51.099 50.621 14.680 443.611 o
-11 -2 -9 1534.150 1551.650 61.017 16.671 o
-11 -2 -8 328.197 304.935 27.946 106.712 o
-11 -2 -7 263.386 250.598 18.108 220.390 o
-11 -2 -6 132.592 131.719 27.015 132.044 o
-11 -2 -5 168.369 178.257 16.590 290.682 o
-11 -2 -4 97.956 80.941 20.197 233.510 o
-11 -2 -3 1117.080 1177.430 34.169 39.350 o
-11 -2 -2 295.090 297.281 20.545 174.641 o
-11 -2 -1 2102.550 2255.130 45.043 15.592 o
-11 -1 -14 49.339 49.653 18.266 295.791 o
-11 -1 -13 10.992 7.290 14.984 457.550 o
-11 -1 -12 83.207 96.516 16.695 330.933 o
-11 -1 -11 2694.320 2750.200 63.783 9.292 o
-11 -1 -10 464.953 548.669 29.195 85.050 o
-11 -1 -9 371.359 361.257 23.997 127.783 o
-11 -1 -8 276.510 312.527 28.630 105.488 o
-11 -1 -7 412.628 415.368 31.107 83.195 o
-11 -1 -6 48.997 29.904 11.709 680.732 o
-11 -1 -5 17.623 -14.627 14.986 456.027 o
-11 -1 -4 236.915 206.513 17.880 236.672 o
-11 -1 -3 943.120 952.818 31.820 49.813 o
-11 -1 -2 137.640 172.217 17.307 282.402 o
-11 -1 -1 2019.990 2064.320 43.238 17.186 o
-10 -11 -6 44.713 46.629 17.822 311.448 o
-10 -11 -5 218.854 185.724 24.480 147.555 o
-10 -11 -4 525.811 533.642 68.876 20.209 o
-10 -11 -3 219.294 223.330 30.274 100.955 o
-10 -11 -2 21.095 32.155 19.868 258.326 o
-10 -11 -1 178.823 153.891 25.252 144.753 o
-10 -10 -9 1.717 7.861 59.944 29.014 o
-10 -10 -8 240.315 226.883 24.238 145.838 o
-10 -10 -7 222.556 192.077 35.617 75.614 o
-10 -10 -6 738.674 756.665 55.686 27.269 o
-10 -10 -5 404.142 375.068 26.586 107.163 o
-10 -10 -4 275.083 255.263 24.738 136.392 o
-10 -10 -3 42.576 26.548 19.006 278.029 o
-10 -10 -2 404.513 363.203 59.944 27.047 o
-10 -10 -1 516.221 495.553 39.489 53.403 o
-10 -9 -11 80.802 65.699 50.604 40.244 o
-10 -9 -10 267.714 185.289 54.667 33.434 o
-10 -9 -9 208.149 167.698 52.890 36.014 o
-10 -9 -8 1096.470 1169.230 59.660 20.837 o
-10 -9 -7 90.550 90.166 16.312 343.178 o
-10 -9 -6 447.132 461.781 30.225 84.049 o
-10 -9 -5 9.653 20.866 19.188 279.668 o
-10 -9 -4 1512.850 1485.760 48.588 21.781 o
-10 -9 -3 578.831 580.264 33.276 65.626 o
-10 -9 -2 73.428 85.712 18.617 275.802 o
-10 -9 -1 160.746 148.089 21.911 188.151 o
-10 -8 -12 58.036 82.878 65.626 24.069 o
-10 -8 -11 141.399 163.100 69.604 21.223 o
-10 -8 -10 397.830 282.392 80.683 15.470 o
-10 -8 -9 262.374 151.708 75.570 17.887 o
-10 -8 -8 83.774 84.093 60.229 28.479 o
-10 -8 -7 6.110 -14.773 50.569 40.761 o
-10 -8 -6 1758.110 1722.900 54.914 16.840 o
-10 -8 -5 27.845 52.961 16.074 383.623 o
-10 -8 -4 186.346 225.655 27.958 118.055 o
-10 -8 -3 10.965 32.079 13.494 553.240 o
-10 -8 -2 1770.120 1810.150 43.227 20.174 o
-10 -8 -1 303.005 286.267 24.183 136.994 o
-10 -7 -14 144.408 119.816 54.637 34.224 o
-10 -7 -13 156.742 59.871 47.578 44.967 o
-10 -7 -12 400.973 363.587 88.070 13.009 o
-10 -7 -11 17.132 -68.183 60.797 28.186 o
-10 -7 -10 242.918 182.958 74.433 18.431 o
-10 -7 -9 34.895 -4.546 52.274 38.050 o
-10 -7 -8 1638.730 1577.700 122.162 5.895 o
-10 -7 -7 168.946 68.751 55.683 32.979 o
-10 -7 -6 341.115 341.005 31.036 88.519 o
-10 -7 -5 38.073 58.276 12.004 647.382 o
-10 -7 -4 2213.420 2146.140 46.811 14.894 o
-10 -7 -3 147.114 143.046 15.914 324.886 o
-10 -7 -2 229.291 242.721 17.274 245.692 o
-10 -7 -1 136.445 132.092 14.626 378.618 o
-10 -6 -15 110.550 38.069 67.047 23.017 o
-10 -6 -14 612.453 350.519 91.479 11.877 o
-10 -6 -13 137.775 35.228 71.592 20.173 o
-10 -6 -12 237.702 41.478 69.888 20.992 o
-10 -6 -11 31.527 -19.319 62.501 26.646 o
-10 -6 -10 1695.620 1642.480 131.253 5.167 o
-10 -6 -9 1.407 -68.751 50.001 41.710 o
-10 -6 -8 378.668 365.860 72.161 19.123 o
-10 -6 -7 487.000 466.184 45.454 43.006 o
-10 -6 -6 2636.730 2685.900 61.746 9.769 o
-10 -6 -5 565.831 550.406 28.410 82.466 o
-10 -6 -4 341.760 361.550 25.312 120.934 o
-10 -6 -3 741.365 721.368 31.780 60.715 o
-10 -6 -2 680.424 717.964 25.397 80.970 o
-10 -6 -1 87.013 84.058 12.891 516.728 o
-10 -5 -15 159.869 163.684 19.890 220.663 o
-10 -5 -14 370.320 377.980 27.557 103.833 o
-10 -5 -13 313.665 256.255 85.229 14.022 o
-10 -5 -12 751.338 660.185 101.139 9.555 o
-10 -5 -11 34.762 101.139 64.206 25.164 o
-10 -5 -10 279.294 381.201 79.547 16.001 o
-10 -5 -9 849.126 910.853 67.095 19.175 o
-10 -5 -8 2848.640 2923.820 100.543 5.769 o
-10 -5 -7 253.839 252.747 15.902 264.818 o
-10 -5 -6 174.382 195.035 14.247 356.319 o
-10 -5 -5 521.065 495.237 20.900 125.036 o
-10 -5 -4 1232.460 1157.310 38.068 33.694 o
-10 -5 -3 211.193 211.187 19.519 212.468 o
-10 -5 -2 203.011 216.491 15.731 293.968 o
-10 -5 -1 322.605 351.542 19.193 181.293 o
-10 -4 -16 401.121 419.714 31.748 81.007 o
-10 -4 -15 633.596 662.037 35.964 55.981 o
-10 -4 -14 41.471 35.702 13.933 499.089 o
-10 -4 -13 124.437 133.301 69.888 21.105 o
-10 -4 -12 330.717 299.908 21.817 155.121 o
-10 -4 -11 1024.660 1049.080 43.463 33.166 o
-10 -4 -10 1289.600 1258.960 33.952 35.057 o
-10 -4 -9 14.541 20.028 8.315 1391.310 o
-10 -4 -8 28.928 39.533 15.582 409.337 o
-10 -4 -7 1387.930 1446.730 52.883 21.052 o
-10 -4 -6 1391.200 1354.740 37.963 29.614 o
-10 -4 -5 266.085 290.749 22.216 160.223 o
-10 -4 -4 111.844 119.729 12.890 482.087 o
-10 -4 -3 889.182 926.058 48.855 30.834 o
-10 -4 -2 1675.250 1758.750 36.814 23.748 o
-10 -4 -1 439.239 459.545 32.280 76.534 o
-10 -3 -16 21.701 -0.459 42.614 57.269 o
-10 -3 -15 79.243 66.043 45.432 49.798 o
-10 -3 -14 400.761 339.937 25.655 114.524 o
-10 -3 -13 1179.510 1197.010 50.505 25.163 o
-10 -3 -12 362.948 362.342 23.813 129.989 o
-10 -3 -11 177.957 193.138 17.223 269.162 o
-10 -3 -10 107.259 107.195 13.067 480.352 o
-10 -3 -9 636.534 644.442 24.624 89.108 o
-10 -3 -8 898.054 884.967 29.188 56.894 o
-10 -3 -7 122.433 122.727 22.515 185.748 o
-10 -3 -6 7.405 18.936 9.121 1196.850 o
-10 -3 -5 818.767 860.311 26.532 66.217 o
-10 -3 -4 1124.970 1183.300 31.291 42.081 o
-10 -3 -3 1140.750 1047.260 30.337 44.546 o
-10 -3 -2 502.948 492.529 21.362 124.445 o
-10 -3 -1 1990.270 1953.370 39.378 18.835 o
-10 -2 -17 28.590 21.915 41.574 60.008 o
-10 -2 -16 163.550 182.729 22.573 176.158 o
-10 -2 -15 1018.000 1066.760 54.594 24.603 o
-10 -2 -14 155.596 151.770 19.660 227.037 o
-10 -2 -13 190.761 231.038 21.830 179.329 o
-10 -2 -12 110.506 117.282 17.319 298.645 o
-10 -2 -11 1804.230 1806.110 46.614 18.805 o
-10 -2 -10 817.770 836.465 30.820 57.750 o
-10 -2 -9 93.910 108.292 19.012 258.527 o
-10 -2 -8 7.136 10.272 9.513 1117.170 o
-10 -2 -7 180.991 166.811 14.958 336.181 o
-10 -2 -6 216.012 252.610 26.356 127.708 o
-10 -2 -5 984.320 988.396 39.639 38.200 o
-10 -2 -4 907.266 916.518 27.983 58.090 o
-10 -2 -3 1747.290 1735.880 42.465 20.979 o
-10 -2 -2 923.168 998.188 27.779 56.181 o
-10 -2 -1 2598.120 2601.200 46.592 11.884 o
-10 -1 -17 417.712 450.859 39.453 56.114 o
-10 -1 -16 110.199 108.995 38.279 68.931 o
-10 -1 -15 53.003 53.814 51.656 38.786 o
-10 -1 -14 19.523 18.855 16.631 367.873 o
-10 -1 -13 2989.980 2878.790 77.015 7.283 o
-10 -1 -12 537.416 559.339 51.760 33.468 o
-10 -1 -11 122.564 103.896 22.143 192.596 o
-10 -1 -10 31.695 35.333 12.541 615.534 o
-10 -1 -9 1940.870 1949.960 47.691 16.996 o
-10 -1 -8 296.725 313.749 19.960 180.099 o
-10 -1 -7 582.327 638.907 26.224 86.991 o
-10 -1 -6 322.993 336.669 25.031 125.768 o
-10 -1 -5 612.634 612.836 36.800 55.439 o
-10 -1 -4 5.960 26.450 16.219 389.788 o
-10 -1 -3 1166.550 1145.980 37.392 35.565 o
-10 -1 -2 713.576 656.552 25.626 80.090 o
-10 -1 -1 2374.890 2490.110 63.395 10.673 o
-9 -13 -3 665.693 607.343 56.251 27.898 o
-9 -13 -2 258.594 283.629 31.433 91.524 o
-9 -13 -1 724.816 776.571 63.904 21.713 o
-9 -12 -8 388.501 390.292 38.637 59.465 o
-9 -12 -7 37.796 25.177 34.660 85.928 o
-9 -12 -6 167.535 164.425 27.975 120.860 o
-9 -12 -5 842.565 850.582 42.608 38.502 o
-9 -12 -4 538.018 512.373 47.161 39.472 o
-9 -12 -3 420.772 387.588 42.218 50.520 o
-9 -12 -2 19.262 8.824 20.325 249.088 o
-9 -12 -1 310.611 258.012 29.742 98.634 o
-9 -11 -10 255.239 230.571 27.272 118.544 o
-9 -11 -9 69.266 59.324 20.408 235.588 o
-9 -11 -8 66.159 55.195 20.427 235.991 o
-9 -11 -7 850.496 817.673 46.247 34.511 o
-9 -11 -6 1009.510 898.635 44.883 33.139 o
-9 -11 -5 127.999 137.308 22.146 189.703 o
-9 -11 -4 41.454 30.280 26.344 147.285 o
-9 -11 -3 292.803 288.284 28.489 106.102 o
-9 -11 -2 164.028 109.123 22.285 184.801 o
-9 -11 -1 387.252 388.352 32.620 78.793 o
-9 -10 -12 560.472 427.464 51.906 33.686 o
-9 -10 -11 267.807 284.229 26.258 123.276 o
-9 -10 -10 256.902 268.630 25.631 129.780 o
-9 -10 -9 445.022 418.255 68.467 20.868 o
-9 -10 -8 1204.630 1142.840 49.010 26.120 o
-9 -10 -7 214.350 195.384 22.482 170.105 o
-9 -10 -6 439.872 439.570 63.578 23.942 o
-9 -10 -5 54.894 26.798 30.557 109.664 o
-9 -10 -4 1277.970 1280.630 43.153 28.317 o
-9 -10 -3 434.186 419.489 30.521 84.507 o
-9 -10 -2 105.733 87.463 28.410 122.763 o
-9 -10 -1 183.988 195.434 28.978 111.697 o
-9 -9 -14 650.301 646.683 43.895 41.633 o
-9 -9 -13 102.672 102.899 18.003 283.284 o
-9 -9 -12 204.143 195.325 36.115 74.111 o
-9 -9 -11 242.874 225.728 29.695 103.222 o
-9 -9 -10 292.178 281.164 32.776 83.885 o
-9 -9 -9 222.986 195.500 19.719 208.347 o
-9 -9 -8 206.969 243.541 59.680 28.362 o
-9 -9 -7 26.883 44.115 14.968 441.762 o
-9 -9 -6 1961.460 1918.710 58.576 14.277 o
-9 -9 -5 203.903 183.691 21.459 185.988 o
-9 -9 -4 677.077 733.547 37.761 50.299 o
-9 -9 -3 373.449 381.604 26.711 108.447 o
-9 -9 -2 1208.780 1210.600 43.908 29.142 o
-9 -9 -1 577.483 603.786 27.161 84.871 o
-9 -8 -15 44.462 67.020 18.207 296.665 o
-9 -8 -14 407.156 412.120 27.006 103.220 o
-9 -8 -13 36.909 33.686 27.550 135.037 o
-9 -8 -12 451.827 430.419 27.093 99.015 o
-9 -8 -11 181.674 95.678 47.226 45.299 o
-9 -8 -10 79.247 9.676 40.288 63.404 o
-9 -8 -9 63.709 55.840 48.865 43.243 o
-9 -8 -8 1017.290 1007.310 68.037 17.842 o
-9 -8 -7 44.859 27.738 12.479 612.022 o
-9 -8 -6 434.863 440.327 70.974 19.502 o
-9 -8 -5 204.793 211.763 20.048 204.912 o
-9 -8 -4 2962.660 2875.500 67.837 8.093 o
-9 -8 -3 167.892 185.600 15.947 307.448 o
-9 -8 -2 387.854 388.861 21.106 147.809 o
-9 -8 -1 281.061 315.268 19.776 185.122 o
-9 -7 -16 314.480 319.852 38.159 63.255 o
-9 -7 -15 136.195 122.328 18.567 257.941 o
-9 -7 -14 337.363 324.088 24.228 131.267 o
-9 -7 -13 289.356 265.810 28.939 104.222 o
-9 -7 -12 504.645 486.885 92.616 11.642 o
-9 -7 -11 31.235 33.523 60.797 28.126 o
-9 -7 -10 765.776 635.184 93.184 11.129 o
-9 -7 -9 266.326 201.141 63.638 24.927 o
-9 -7 -8 20.147 -7.387 46.592 47.939 o
-9 -7 -7 111.148 110.807 27.457 130.004 o
-9 -7 -6 2096.550 2061.120 46.084 16.011 o
-9 -7 -5 579.548 642.347 31.065 70.693 o
-9 -7 -4 492.783 515.802 25.424 101.328 o
-9 -7 -3 508.682 571.636 24.902 100.430 o
-9 -7 -2 2568.130 2531.290 45.922 12.255 o
-9 -7 -1 7.092 22.244 10.172 968.044 o
-9 -6 -17 71.417 90.316 19.793 246.321 o
-9 -6 -16 379.098 381.514 48.287 40.369 o
-9 -6 -15 126.150 152.171 28.685 117.946 o
-9 -6 -14 1090.850 1184.110 42.589 31.969 o
-9 -6 -13 389.265 350.429 59.660 27.390 o
-9 -6 -12 1810.720 1693.050 137.503 4.705 o
-9 -6 -11 99.188 141.480 65.910 23.737 o
-9 -6 -10 254.068 211.936 65.910 23.306 o
-9 -6 -9 494.220 520.409 78.979 15.746 o
-9 -6 -8 2504.640 2533.350 137.503 4.153 o
-9 -6 -7 883.627 962.935 56.103 25.075 o
-9 -6 -6 208.528 208.707 12.456 396.207 o
-9 -6 -5 198.535 237.763 14.984 311.608 o
-9 -6 -4 2568.500 2682.140 53.969 10.919 o
-9 -6 -3 150.349 171.883 12.931 430.948 o
-9 -6 -2 396.365 392.662 18.483 171.336 o
-9 -6 -1 294.305 302.033 17.563 215.282 o
-9 -5 -17 98.275 83.575 47.160 46.079 o
-9 -5 -16 397.084 344.188 56.618 30.169 o
-9 -5 -15 530.887 541.774 33.206 68.300 o
-9 -5 -14 1044.020 995.761 40.830 35.810 o
-9 -5 -13 132.126 158.648 59.092 29.322 o
-9 -5 -12 1054.270 1027.720 51.422 26.564 o
-9 -5 -11 886.684 941.952 103.980 8.828 o
-9 -5 -10 2644.460 2471.420 144.321 3.810 o
-9 -5 -9 208.111 178.843 33.730 84.192 o
-9 -5 -8 242.163 224.523 75.570 17.862 o
-9 -5 -7 337.650 392.177 40.086 56.818 o
-9 -5 -6 3173.650 3133.110 57.337 8.136 o
-9 -5 -5 51.139 58.717 8.476 1126.220 o
-9 -5 -4 454.620 444.087 18.146 159.081 o
-9 -5 -3 1978.590 1864.730 33.885 20.866 o
-9 -5 -2 964.284 912.212 25.159 60.803 o
-9 -5 -1 166.362 191.978 13.970 371.428 o
-9 -4 -18 398.522 376.389 34.669 71.190 o
-9 -4 -17 303.892 309.574 30.670 92.769 o
-9 -4 -16 282.604 292.688 28.415 107.046 o
-9 -4 -15 409.621 415.181 31.522 81.640 o
-9 -4 -14 699.147 673.596 35.185 55.547 o
-9 -4 -13 1377.780 1394.790 48.738 23.344 o
-9 -4 -12 764.544 729.904 36.933 49.638 o
-9 -4 -11 24.472 15.295 10.301 916.322 o
-9 -4 -10 196.804 198.080 20.812 195.509 o
-9 -4 -9 1246.420 1229.110 30.114 39.606 o
-9 -4 -8 1217.290 1201.900 54.374 22.604 o
-9 -4 -7 144.810 132.751 25.342 147.502 o
-9 -4 -6 591.451 635.736 46.066 39.502 o
-9 -4 -5 1708.640 1695.110 37.671 23.390 o
-9 -4 -4 2550.860 2464.190 49.096 12.051 o
-9 -4 -3 10.733 13.271 7.995 1533.970 o
-9 -4 -2 33.506 42.322 11.283 740.317 o
-9 -4 -1 1561.780 1548.870 35.588 27.080 o
-9 -3 -18 317.222 342.538 34.729 74.119 o
-9 -3 -17 91.375 86.549 62.217 26.684 o
-9 -3 -16 425.119 424.070 34.645 69.618 o
-9 -3 -15 1393.890 1465.180 60.235 17.940 o
-9 -3 -14 531.063 549.777 55.403 29.821 o
-9 -3 -13 595.006 623.310 68.583 19.982 o
-9 -3 -12 18.394 20.510 16.995 352.728 o
-9 -3 -11 515.863 516.570 21.999 117.759 o
-9 -3 -10 121.815 139.081 14.233 401.222 o
-9 -3 -9 227.976 250.554 14.305 314.140 o
-9 -3 -8 340.748 332.044 27.868 105.496 o
-9 -3 -7 670.033 644.860 21.336 99.164 o
-9 -3 -6 2025.340 2098.740 60.844 13.105 o
-9 -3 -5 421.857 453.205 31.703 79.557 o
-9 -3 -4 263.408 224.040 18.576 215.675 o
-9 -3 -3 3908.430 3838.250 77.116 5.202 o
-9 -3 -2 2272.260 2282.290 40.413 15.353 o
-9 -3 -1 1150.130 1178.170 28.073 44.918 o
-9 -2 -19 88.726 68.772 24.781 160.990 o
-9 -2 -18 183.197 200.831 35.161 78.348 o
-9 -2 -17 1020.310 1005.810 68.340 17.707 o
-9 -2 -16 511.806 570.455 33.950 66.300 o
-9 -2 -15 340.207 327.751 26.552 113.933 o
-9 -2 -14 159.478 169.379 27.736 123.089 o
-9 -2 -13 1694.000 1619.040 49.890 19.255 o
-9 -2 -12 76.977 56.354 11.977 607.961 o
-9 -2 -11 51.310 68.032 11.254 700.768 o
-9 -2 -10 437.853 408.471 19.765 150.723 o
-9 -2 -9 231.030 184.039 14.106 334.491 o
-9 -2 -8 362.618 350.133 17.967 188.258 o
-9 -2 -7 1117.730 1053.700 29.272 46.381 o
-9 -2 -6 1238.710 1169.940 31.595 39.143 o
-9 -2 -5 2605.020 2543.990 114.991 5.278 o
-9 -2 -4 2105.960 2154.150 42.393 16.469 o
-9 -2 -3 1996.100 1963.960 40.196 18.526 o
-9 -2 -2 25.125 23.035 8.794 1210.100 o
-9 -2 -1 2533.150 2493.220 43.124 12.885 o
-9 -1 -19 401.665 407.797 33.292 75.347 o
-9 -1 -18 259.538 263.466 28.214 110.632 o
-9 -1 -17 11.048 -11.626 32.606 97.865 o
-9 -1 -16 29.417 71.329 18.745 283.575 o
-9 -1 -15 3135.130 3138.480 119.822 4.391 o
-9 -1 -14 377.166 358.162 27.224 105.969 o
-9 -1 -13 109.882 94.854 17.126 308.168 o
-9 -1 -12 192.996 194.505 17.674 254.287 o
-9 -1 -11 2049.340 2030.880 47.299 16.125 o
-9 -1 -10 291.942 286.206 29.344 101.127 o
-9 -1 -9 47.449 47.784 10.432 821.343 o
-9 -1 -8 289.776 286.827 17.890 213.163 o
-9 -1 -7 3134.710 3068.570 80.527 6.623 o
-9 -1 -6 327.401 347.763 19.270 179.821 o
-9 -1 -5 3058.190 2971.490 57.590 8.607 o
-9 -1 -4 760.876 782.289 31.294 59.911 o
-9 -1 -3 2544.260 2512.540 47.202 12.232 o
-9 -1 -2 68.076 49.465 9.644 888.517 o
-9 -1 -1 621.155 544.192 20.085 114.995 o
-8 -14 -3 787.196 785.491 47.355 34.365 o
-8 -14 -2 22.768 58.389 23.654 182.213 o
-8 -14 -1 367.307 335.495 34.250 74.359 o
-8 -13 -8 279.627 300.617 35.618 72.625 o
-8 -13 -7 153.317 117.396 28.747 116.977 o
-8 -13 -6 197.618 183.406 44.319 50.590 o
-8 -13 -5 1006.320 967.529 59.313 22.226 o
-8 -13 -4 246.114 263.284 71.820 19.686 o
-8 -13 -3 499.037 476.036 80.208 15.325 o
-8 -13 -2 134.513 169.544 26.460 135.771 o
-8 -13 -1 596.612 660.064 64.657 22.122 o
-8 -12 -11 146.993 116.910 28.410 119.909 o
-8 -12 -10 195.722 218.432 30.169 102.792 o
-8 -12 -9 137.463 129.107 26.348 138.030 o
-8 -12 -8 103.368 74.991 24.325 165.225 o
-8 -12 -7 779.898 745.696 48.697 33.281 o
-8 -12 -6 716.589 749.341 50.285 32.339 o
-8 -12 -5 326.169 366.738 31.164 88.019 o
-8 -12 -4 199.806 181.487 31.551 95.385 o
-8 -12 -3 847.097 862.598 43.264 37.548 o
-8 -12 -2 66.929 54.193 23.220 184.955 o
-8 -12 -1 245.705 238.657 42.712 53.277 o
-8 -11 -13 629.373 665.302 65.910 21.235 o
-8 -11 -12 288.109 352.279 33.100 81.327 o
-8 -11 -11 176.396 170.402 60.797 27.579 o
-8 -11 -10 161.056 183.152 36.364 74.288 o
-8 -11 -9 716.613 645.083 65.058 21.392 o
-8 -11 -8 1264.210 1226.580 95.457 9.599 o
-8 -11 -7 236.707 228.880 28.978 107.958 o
-8 -11 -6 495.368 586.854 34.900 63.918 o
-8 -11 -5 1182.900 1143.500 45.325 28.875 o
-8 -11 -4 676.354 680.199 62.024 23.347 o
-8 -11 -3 70.414 84.493 22.460 194.989 o
-8 -11 -2 271.144 226.030 25.576 130.839 o
-8 -11 -1 107.321 79.400 20.110 233.822 o
-8 -10 -14 434.248 458.313 33.502 72.477 o
-8 -10 -13 102.819 97.520 20.440 226.262 o
-8 -10 -12 515.144 492.717 32.439 72.236 o
-8 -10 -11 549.474 567.524 34.299 64.090 o
-8 -10 -10 947.696 915.754 44.819 33.950 o
-8 -10 -9 301.786 294.462 27.108 114.241 o
-8 -10 -8 585.182 565.699 57.672 27.395 o
-8 -10 -7 731.504 737.445 35.094 53.830 o
-8 -10 -6 1319.310 1298.730 46.884 25.412 o
-8 -10 -5 224.616 223.388 22.493 166.852 o
-8 -10 -4 271.737 318.056 25.544 127.131 o
-8 -10 -3 412.121 416.441 29.599 89.744 o
-8 -10 -2 554.931 597.495 34.988 61.614 o
-8 -10 -1 179.845 190.596 23.135 166.507 o
-8 -9 -16 801.464 815.769 52.461 29.151 o
-8 -9 -15 463.100 409.781 31.160 80.793 o
-8 -9 -14 348.545 382.793 38.008 62.182 o
-8 -9 -13 330.380 334.168 28.422 102.837 o
-8 -9 -12 530.845 490.467 29.751 80.950 o
-8 -9 -11 418.781 377.021 30.717 85.450 o
-8 -9 -10 635.841 636.341 41.655 45.449 o
-8 -9 -9 9.474 6.276 13.249 584.346 o
-8 -9 -8 987.901 919.234 36.272 42.859 o
-8 -9 -7 306.664 311.819 21.544 160.458 o
-8 -9 -6 273.427 277.931 30.086 98.106 o
-8 -9 -5 371.994 370.987 27.259 105.680 o
-8 -9 -4 1798.500 1829.540 57.152 15.676 o
-8 -9 -3 387.252 381.946 28.366 98.200 o
-8 -9 -2 223.951 241.830 21.640 176.309 o
-8 -9 -1 184.160 228.408 17.917 246.890 o
-8 -8 -17 180.470 159.292 24.944 147.539 o
-8 -8 -16 475.575 471.509 32.824 72.948 o
-8 -8 -15 187.167 185.847 39.921 61.823 o
-8 -8 -14 582.681 616.619 86.144 13.165 o
-8 -8 -13 1000.970 949.898 51.951 27.058 o
-8 -8 -12 420.403 344.792 30.278 88.093 o
-8 -8 -11 46.173 5.443 14.408 474.895 o
-8 -8 -10 346.854 302.688 21.227 158.643 o
-8 -8 -9 289.459 283.950 24.784 133.282 o
-8 -8 -8 125.367 118.889 25.413 148.826 o
-8 -8 -7 80.559 99.010 17.980 290.301 o
-8 -8 -6 997.106 972.199 38.869 38.973 o
-8 -8 -5 304.276 304.061 20.244 176.154 o
-8 -8 -4 375.237 359.585 22.821 136.675 o
-8 -8 -3 86.511 99.127 12.793 517.290 o
-8 -8 -2 5921.110 5767.640 87.070 2.692 o
-8 -8 -1 392.659 433.058 21.529 140.596 o
-8 -7 -18 98.637 110.429 50.285 40.541 o
-8 -7 -17 128.822 127.581 43.855 52.644 o
-8 -7 -16 527.030 541.000 84.405 13.823 o
-8 -7 -15 415.568 416.902 46.181 43.073 o
-8 -7 -14 788.215 739.069 45.780 36.420 o
-8 -7 -13 11.018 11.030 11.965 709.319 o
-8 -7 -12 1358.320 1271.400 41.898 28.149 o
-8 -7 -11 839.272 843.182 40.029 41.928 o
-8 -7 -10 303.752 256.924 26.705 118.267 o
-8 -7 -9 2.808 -24.266 24.716 170.541 o
-8 -7 -8 999.719 985.438 41.990 35.465 o
-8 -7 -7 621.548 616.560 22.163 101.438 o
-8 -7 -6 118.753 107.833 10.730 629.566 o
-8 -7 -5 763.466 719.525 24.183 79.302 o
-8 -7 -4 3318.440 3417.780 68.726 6.784 o
-8 -7 -3 602.174 624.689 22.493 101.377 o
-8 -7 -2 151.367 143.881 12.843 444.636 o
-8 -7 -1 150.157 161.488 13.191 422.882 o
-8 -6 -19 68.742 41.972 41.478 59.805 o
-8 -6 -18 199.475 240.445 29.926 103.590 o
-8 -6 -17 131.020 146.694 24.390 158.718 o
-8 -6 -16 781.141 802.297 38.816 45.313 o
-8 -6 -15 101.550 155.714 20.040 229.428 o
-8 -6 -14 3147.590 3018.180 75.799 6.971 o
-8 -6 -13 760.511 716.268 33.141 57.187 o
-8 -6 -12 1338.940 1299.960 126.707 5.796 o
-8 -6 -11 938.227 872.588 108.497 8.151 o
-8 -6 -10 2665.740 2579.880 143.185 3.822 o
-8 -6 -9 771.830 579.501 77.274 15.714 o
-8 -6 -8 630.720 588.024 73.865 17.416 o
-8 -6 -7 225.131 227.759 41.215 57.333 o
-8 -6 -6 1657.260 1651.610 52.295 18.560 o
-8 -6 -5 409.350 379.792 15.630 202.190 o
-8 -6 -4 417.320 456.872 21.434 136.632 o
-8 -6 -3 919.075 867.209 24.457 65.413 o
-8 -6 -2 2029.050 2024.880 37.439 18.712 o
-8 -6 -1 890.337 844.170 23.462 69.660 o
-8 -5 -19 48.703 7.891 19.521 264.640 o
-8 -5 -18 106.577 120.804 29.262 115.270 o
-8 -5 -17 170.719 116.844 32.387 93.049 o
-8 -5 -16 642.533 662.041 37.735 52.092 o
-8 -5 -15 347.593 396.866 40.637 55.245 o
-8 -5 -14 1262.860 1237.030 71.876 15.058 o
-8 -5 -13 1331.330 1257.060 45.669 26.226 o
-8 -5 -12 2402.430 2361.310 66.098 10.415 o
-8 -5 -11 497.434 458.388 20.296 134.401 o
-8 -5 -10 660.319 513.591 75.570 16.724 o
-8 -5 -9 497.505 490.674 66.763 21.575 o
-8 -5 -8 1713.520 1696.670 71.968 12.670 o
-8 -5 -7 162.386 143.322 20.096 218.307 o
-8 -5 -6 199.518 205.900 20.831 194.136 o
-8 -5 -5 1077.230 1128.510 35.630 39.256 o
-8 -5 -4 2048.700 1950.350 37.229 18.915 o
-8 -5 -3 560.482 539.049 17.450 138.572 o
-8 -5 -2 410.549 442.141 16.031 189.326 o
-8 -5 -1 1853.510 1819.170 34.410 22.262 o
-8 -4 -20 237.272 239.385 47.160 44.318 o
-8 -4 -19 336.399 435.375 83.525 14.449 o
-8 -4 -18 74.040 26.516 19.668 254.639 o
-8 -4 -17 297.173 305.381 63.893 24.477 o
-8 -4 -16 1067.310 1066.670 49.259 27.778 o
-8 -4 -15 747.748 786.381 40.487 43.663 o
-8 -4 -14 1615.340 1613.020 55.784 17.769 o
-8 -4 -13 628.765 701.254 45.740 38.975 o
-8 -4 -12 319.836 311.676 20.951 164.925 o
-8 -4 -11 962.051 970.334 34.412 45.315 o
-8 -4 -10 437.508 406.355 14.836 200.409 o
-8 -4 -9 888.828 861.277 39.384 41.611 o
-8 -4 -8 366.575 326.714 27.033 108.972 o
-8 -4 -7 1120.340 1236.220 43.007 30.836 o
-8 -4 -6 4940.010 4919.850 109.624 3.041 o
-8 -4 -5 601.865 639.291 32.071 66.950 o
-8 -4 -4 1331.790 1356.370 28.001 37.770 o
-8 -4 -3 3668.190 3653.870 53.962 6.720 o
-8 -4 -2 4768.400 4679.700 61.245 4.279 o
-8 -4 -1 324.513 324.768 14.448 255.132 o
-8 -3 -20 57.862 16.154 55.115 34.147 o
-8 -3 -19 2.595 -5.940 19.319 279.007 o
-8 -3 -18 612.740 660.699 169.322 3.569 o
-8 -3 -17 1323.350 1315.490 58.834 19.354 o
-8 -3 -16 804.810 715.634 50.287 31.585 o
-8 -3 -15 382.183 389.263 37.875 61.674 o
-8 -3 -14 377.078 374.803 24.741 121.201 o
-8 -3 -13 1055.970 1070.790 36.426 39.479 o
-8 -3 -12 220.073 245.326 24.209 147.245 o
-8 -3 -11 356.060 342.811 17.069 202.083 o
-8 -3 -10 200.632 207.166 18.798 227.991 o
-8 -3 -9 443.085 475.446 16.837 170.182 o
-8 -3 -8 310.863 295.608 12.067 316.828 o
-8 -3 -7 474.245 424.745 13.951 197.409 o
-8 -3 -6 867.002 890.306 36.405 45.909 o
-8 -3 -5 5606.650 5549.770 87.494 2.898 o
-8 -3 -4 4709.330 4859.620 98.268 3.425 o
-8 -3 -3 919.976 880.990 24.353 65.222 o
-8 -3 -2 923.443 897.521 20.975 71.403 o
-8 -3 -1 4152.100 4011.990 54.204 5.606 o
-8 -2 -20 122.894 189.681 31.111 100.736 o
-8 -2 -19 1127.590 1050.740 46.533 29.219 o
-8 -2 -18 479.427 458.191 33.307 71.458 o
-8 -2 -17 228.990 216.465 25.031 139.780 o
-8 -2 -16 221.453 211.853 40.292 59.998 o
-8 -2 -15 2052.860 1924.610 56.264 14.342 o
-8 -2 -14 1410.290 1433.430 77.526 12.725 o
-8 -2 -13 46.178 59.809 12.779 570.507 o
-8 -2 -12 108.100 134.295 13.507 445.880 o
-8 -2 -11 219.924 223.426 18.198 232.762 o
-8 -2 -10 100.847 96.661 10.933 644.291 o
-8 -2 -9 232.267 243.512 22.791 161.148 o
-8 -2 -8 2982.380 3028.400 56.546 8.819 o
-8 -2 -7 3002.050 3030.930 54.805 8.908 o
-8 -2 -6 1828.950 1860.670 38.492 20.969 o
-8 -2 -5 1666.990 1637.330 36.258 24.805 o
-8 -2 -4 1239.680 1167.890 32.336 38.460 o
-8 -2 -3 3792.320 3675.520 58.575 6.269 o
-8 -2 -2 1317.860 1291.260 27.602 39.222 o
-8 -2 -1 711.981 678.491 19.476 100.830 o
-8 -1 -20 239.698 256.860 29.201 105.613 o
-8 -1 -19 65.302 54.568 21.321 217.772 o
-8 -1 -18 20.607 53.716 38.632 69.339 o
-8 -1 -17 2553.890 2564.660 112.589 5.465 o
-8 -1 -16 886.955 867.672 41.392 39.058 o
-8 -1 -15 77.115 115.815 19.642 246.320 o
-8 -1 -14 450.756 458.127 39.693 54.770 o
-8 -1 -13 1626.910 1535.780 46.545 21.420 o
-8 -1 -12 212.138 215.051 16.776 265.616 o
-8 -1 -11 211.629 228.584 22.471 168.452 o
-8 -1 -10 174.757 185.867 14.818 339.198 o
-8 -1 -9 2993.670 3007.020 65.765 8.050 o
-8 -1 -8 173.869 190.816 20.667 202.231 o
-8 -1 -7 1791.060 1788.310 51.003 17.603 o
-8 -1 -6 5327.190 5168.500 94.141 3.049 o
-8 -1 -5 8540.140 8104.730 123.331 1.342 o
-8 -1 -4 1104.160 1115.030 29.099 46.072 o
-8 -1 -3 3070.960 3109.670 83.800 6.468 o
-8 -1 -2 62.089 57.007 10.884 733.527 o
-8 -1 -1 156.391 150.169 11.158 528.420 o
-7 -15 -3 368.380 343.132 51.138 36.624 o
-7 -15 -2 53.804 38.299 23.309 185.598 o
-7 -15 -1 111.176 160.198 28.109 123.072 o
-7 -14 -8 338.377 315.174 38.716 61.192 o
-7 -14 -7 340.661 363.024 40.617 55.737 o
-7 -14 -6 771.244 802.334 55.113 27.292 o
-7 -14 -5 601.025 618.048 52.274 32.078 o
-7 -14 -4 18.236 22.008 21.303 226.339 o
-7 -14 -3 219.850 223.263 29.266 107.151 o
-7 -14 -2 278.954 260.235 31.024 93.239 o
-7 -14 -1 1013.090 1032.050 50.063 27.931 o
-7 -13 -11 209.443 141.910 30.967 99.105 o
-7 -13 -10 312.072 305.036 35.230 73.029 o
-7 -13 -9 276.352 243.150 56.819 30.869 o
-7 -13 -8 87.135 68.225 25.942 147.698 o
-7 -13 -7 448.084 397.799 39.417 56.118 o
-7 -13 -6 352.005 325.616 36.995 65.779 o
-7 -13 -5 255.259 235.620 28.902 107.228 o
-7 -13 -4 339.064 361.150 32.907 80.057 o
-7 -13 -3 1436.460 1483.230 55.075 19.628 o
-7 -13 -2 131.126 158.678 25.958 141.240 o
-7 -13 -1 553.023 496.562 37.664 56.602 o
-7 -12 -13 394.706 386.235 38.407 59.977 o
-7 -12 -12 72.082 23.818 23.058 188.444 o
-7 -12 -11 174.809 150.978 27.471 124.873 o
-7 -12 -10 36.074 28.883 21.213 225.525 o
-7 -12 -9 844.675 859.060 54.234 27.144 o
-7 -12 -8 824.351 790.501 51.109 30.236 o
-7 -12 -7 428.803 377.327 46.308 42.947 o
-7 -12 -6 402.433 370.751 36.933 64.069 o
-7 -12 -5 1565.420 1518.720 62.287 16.190 o
-7 -12 -4 234.778 226.798 59.738 28.237 o
-7 -12 -3 40.996 26.345 17.842 314.352 o
-7 -12 -2 487.075 403.959 32.402 75.281 o
-7 -12 -1 604.269 605.582 38.463 52.266 o
-7 -11 -15 455.471 446.552 47.728 40.023 o
-7 -11 -14 281.311 255.102 94.860 11.393 o
-7 -11 -13 326.807 333.044 40.910 55.549 o
-7 -11 -12 516.227 457.941 37.525 58.373 o
-7 -11 -11 534.327 528.180 51.706 33.697 o
-7 -11 -10 1464.330 1411.570 132.361 5.271 o
-7 -11 -9 416.964 406.870 34.600 70.317 o
-7 -11 -8 236.814 234.105 53.098 35.389 o
-7 -11 -7 1446.700 1418.390 58.316 18.492 o
-7 -11 -6 310.358 281.396 25.160 128.395 o
-7 -11 -5 847.783 864.595 38.753 43.282 o
-7 -11 -4 147.419 180.002 32.115 94.245 o
-7 -11 -3 1241.830 1234.860 48.681 25.479 o
-7 -11 -2 574.328 629.341 36.122 57.796 o
-7 -11 -1 63.898 44.152 18.235 293.890 o
-7 -10 -16 169.117 154.884 25.729 140.752 o
-7 -10 -15 359.188 333.404 31.420 86.124 o
-7 -10 -14 257.094 247.756 35.725 73.568 o
-7 -10 -13 258.267 242.079 26.110 126.844 o
-7 -10 -12 1645.140 1599.530 55.561 17.701 o
-7 -10 -11 148.043 153.171 38.915 65.820 o
-7 -10 -10 1149.220 1181.390 63.069 18.919 o
-7 -10 -9 367.349 369.884 30.681 88.248 o
-7 -10 -8 1215.200 1129.930 49.347 25.864 o
-7 -10 -7 1163.970 1076.720 74.706 14.775 o
-7 -10 -6 114.159 126.686 18.555 262.984 o
-7 -10 -5 1855.180 1858.950 53.050 16.386 o
-7 -10 -4 220.666 212.210 21.949 174.894 o
-7 -10 -3 524.257 554.112 31.430 73.873 o
-7 -10 -2 202.757 193.783 21.888 179.482 o
-7 -10 -1 44.989 43.839 16.854 346.523 o
-7 -9 -17 726.410 712.300 51.197 31.524 o
-7 -9 -16 85.264 94.586 21.267 213.242 o
-7 -9 -15 399.639 432.343 47.944 40.400 o
-7 -9 -14 873.456 836.587 73.573 16.464 o
-7 -9 -13 229.591 205.410 47.474 43.987 o
-7 -9 -12 1022.170 944.953 60.228 21.691 o
-7 -9 -11 36.217 29.118 15.702 402.536 o
-7 -9 -10 1665.820 1607.070 50.162 19.414 o
-7 -9 -9 176.155 151.135 19.152 232.817 o
-7 -9 -8 584.875 553.448 29.031 79.117 o
-7 -9 -7 412.230 395.141 23.089 128.467 o
-7 -9 -6 491.247 467.263 26.308 98.873 o
-7 -9 -5 2359.730 2147.250 94.607 7.362 o
-7 -9 -4 117.584 122.526 25.130 152.417 o
-7 -9 -3 519.719 498.544 31.323 75.647 o
-7 -9 -2 3912.310 3944.590 96.643 4.400 o
-7 -9 -1 262.329 226.563 21.816 169.713 o
-7 -8 -18 372.950 429.607 38.821 58.895 o
-7 -8 -17 93.871 71.092 20.984 219.061 o
-7 -8 -16 673.583 617.268 38.038 51.290 o
-7 -8 -15 688.529 707.046 37.675 50.501 o
-7 -8 -14 456.410 331.373 85.657 13.679 o
-7 -8 -13 0.380 -3.722 15.609 427.907 o
-7 -8 -12 1407.070 1386.240 45.727 24.666 o
-7 -8 -11 361.519 348.881 42.202 51.859 o
-7 -8 -10 791.798 733.316 32.583 56.985 o
-7 -8 -9 190.053 181.728 21.450 188.336 o
-7 -8 -8 559.444 590.785 23.886 100.279 o
-7 -8 -7 425.921 442.510 41.664 51.105 o
-7 -8 -6 741.088 771.338 39.310 45.755 o
-7 -8 -5 711.321 684.376 27.437 73.958 o
-7 -8 -4 2196.900 2162.040 52.541 13.817 o
-7 -8 -3 2506.920 2390.710 56.471 11.352 o
-7 -8 -2 131.192 111.136 13.223 452.484 o
-7 -8 -1 407.027 379.079 18.674 168.648 o
-7 -7 -19 194.057 184.985 38.069 67.487 o
-7 -7 -18 490.559 504.867 50.285 35.896 o
-7 -7 -17 176.063 190.596 26.576 131.057 o
-7 -7 -16 789.476 769.234 51.671 30.180 o
-7 -7 -15 17.054 20.877 15.728 410.723 o
-7 -7 -14 1283.560 1257.080 46.085 26.508 o
-7 -7 -13 850.079 850.025 53.839 27.442 o
-7 -7 -12 517.047 531.228 27.219 90.728 o
-7 -7 -11 363.078 328.252 34.380 74.147 o
-7 -7 -10 955.399 906.660 31.554 50.557 o
-7 -7 -9 426.454 403.574 21.506 138.319 o
-7 -7 -8 1177.720 1171.630 32.581 39.612 o
-7 -7 -7 864.361 835.472 41.302 39.866 o
-7 -7 -6 1550.210 1582.110 39.361 25.166 o
-7 -7 -5 584.198 560.437 20.802 114.533 o
-7 -7 -4 100.902 80.638 10.103 735.812 o
-7 -7 -3 226.497 225.021 21.159 183.573 o
-7 -7 -2 5842.760 5783.880 83.343 2.771 o
-7 -7 -1 1683.520 1658.430 32.566 26.024 o
-7 -6 -20 100.047 99.618 26.800 137.085 o
-7 -6 -19 189.481 202.757 34.944 79.062 o
-7 -6 -18 481.974 435.811 38.286 57.640 o
-7 -6 -17 84.886 103.447 22.584 190.262 o
-7 -6 -16 1156.370 1103.110 46.108 28.874 o
-7 -6 -15 720.168 723.202 35.846 52.902 o
-7 -6 -14 682.312 660.236 32.517 62.324 o
-7 -6 -13 354.801 373.805 38.970 59.516 o
-7 -6 -12 2223.360 2149.230 86.908 8.414 o
-7 -6 -11 1193.260 1103.600 37.412 35.444 o
-7 -6 -10 910.823 918.733 58.780 23.315 o
-7 -6 -9 1824.700 1747.930 46.898 18.781 o
-7 -6 -8 1407.530 1223.930 55.948 20.354 o
-7 -6 -7 258.530 309.361 25.774 126.781 o
-7 -6 -6 759.843 734.902 33.622 55.918 o
-7 -6 -5 141.469 149.900 16.074 320.624 o
-7 -6 -4 3597.900 3476.330 54.971 6.978 o
-7 -6 -3 2322.140 2222.140 36.842 15.868 o
-7 -6 -2 1096.260 1057.110 24.723 52.828 o
-7 -6 -1 430.897 437.931 17.145 173.595 o
-7 -5 -21 235.719 251.884 39.205 62.503 o
-7 -5 -20 109.259 95.234 26.669 137.913 o
-7 -5 -19 256.383 265.999 33.113 83.961 o
-7 -5 -18 207.030 162.804 94.036 11.666 o
-7 -5 -17 44.135 16.934 23.296 187.672 o
-7 -5 -16 814.029 745.459 42.267 40.322 o
-7 -5 -15 637.123 680.793 34.365 59.158 o
-7 -5 -14 3886.040 3753.350 133.437 3.300 o
-7 -5 -13 879.473 849.066 36.840 45.470 o
-7 -5 -12 991.858 965.191 37.217 41.084 o
-7 -5 -11 1069.870 1056.030 62.785 19.804 o
-7 -5 -10 2267.900 2224.140 55.395 12.820 o
-7 -5 -9 797.690 796.551 76.706 15.580 o
-7 -5 -8 2017.700 2023.460 59.135 13.653 o
-7 -5 -7 3486.250 3396.320 66.974 6.611 o
-7 -5 -6 3005.890 2902.400 58.098 8.792 o
-7 -5 -5 90.379 90.551 13.735 460.524 o
-7 -5 -4 984.104 957.329 27.192 55.556 o
-7 -5 -3 725.295 715.218 18.453 101.434 o
-7 -5 -2 3041.990 3018.800 40.921 9.930 o
-7 -5 -1 1654.290 1541.770 26.178 30.233 o
-7 -4 -21 394.204 409.473 49.717 38.020 o
-7 -4 -20 123.739 137.648 29.733 110.730 o
-7 -4 -19 404.780 413.154 38.542 59.080 o
-7 -4 -18 680.600 692.150 45.108 39.135 o
-7 -4 -17 894.326 967.613 49.590 29.906 o
-7 -4 -16 1100.510 1087.370 113.639 7.291 o
-7 -4 -15 355.203 378.459 66.166 22.607 o
-7 -4 -14 758.318 781.104 37.092 48.876 o
-7 -4 -13 392.594 366.341 24.971 118.599 o
-7 -4 -12 1989.110 1989.800 58.327 14.036 o
-7 -4 -11 1634.500 1710.330 60.344 15.947 o
-7 -4 -10 1483.760 1465.910 36.118 28.515 o
-7 -4 -9 3260.670 3290.610 76.481 6.510 o
-7 -4 -8 983.018 978.385 48.197 30.026 o
-7 -4 -7 1333.470 1350.220 42.542 27.557 o
-7 -4 -6 766.086 727.957 27.172 70.660 o
-7 -4 -5 3699.320 3586.490 62.147 6.336 o
-7 -4 -4 3333.140 3290.780 48.282 8.156 o
-7 -4 -3 1147.550 1166.250 20.561 53.664 o
-7 -4 -2 3521.280 3413.470 42.975 7.831 o
-7 -4 -1 1001.700 1007.300 18.821 67.314 o
-7 -3 -21 36.920 47.728 55.683 33.472 o
-7 -3 -20 199.009 180.371 31.264 97.037 o
-7 -3 -19 1521.230 1604.310 67.808 14.571 o
-7 -3 -18 124.943 151.130 25.942 142.134 o
-7 -3 -17 563.525 578.112 40.322 49.819 o
-7 -3 -16 1210.300 1152.330 43.092 30.107 o
-7 -3 -15 769.488 722.563 66.531 20.193 o
-7 -3 -14 943.357 899.740 34.207 47.033 o
-7 -3 -13 215.690 248.089 33.431 84.215 o
-7 -3 -12 559.779 569.876 25.320 94.654 o
-7 -3 -11 227.975 219.643 13.966 331.218 o
-7 -3 -10 220.891 219.349 12.625 378.185 o
-7 -3 -9 787.479 769.607 41.006 42.304 o
-7 -3 -8 621.307 571.470 29.771 74.372 o
-7 -3 -7 3218.800 3131.910 70.691 7.096 o
-7 -3 -6 1134.100 1088.880 30.822 43.602 o
-7 -3 -5 876.032 866.395 29.874 56.826 o
-7 -3 -4 1121.110 1071.210 25.834 50.213 o
-7 -3 -3 2386.300 2462.220 38.060 14.497 o
-7 -3 -2 6053.050 5933.630 66.767 2.810 o
-7 -3 -1 2388.510 2344.920 31.464 15.873 o
-7 -2 -22 170.172 241.189 36.097 74.442 o
-7 -2 -21 1651.950 1682.300 74.389 12.358 o
-7 -2 -20 165.527 148.063 25.330 145.311 o
-7 -2 -19 1071.720 1157.880 57.189 22.326 o
-7 -2 -18 495.885 526.164 39.357 53.803 o
-7 -2 -17 2294.740 2282.980 65.562 10.953 o
-7 -2 -16 389.063 382.934 32.550 79.101 o
-7 -2 -15 514.206 478.149 33.967 67.781 o
-7 -2 -14 642.910 652.032 30.486 69.382 o
-7 -2 -13 169.286 171.445 17.394 270.832 o
-7 -2 -12 1215.530 1224.540 34.537 36.395 o
-7 -2 -11 920.123 900.114 27.088 59.531 o
-7 -2 -10 812.659 835.298 24.528 71.872 o
-7 -2 -9 2361.310 2413.330 81.101 8.564 o
-7 -2 -8 248.093 227.414 11.861 382.983 o
-7 -2 -7 3718.010 3529.060 50.953 6.884 o
-7 -2 -6 1070.320 1082.960 21.986 57.067 o
-7 -2 -5 5750.580 5615.210 73.380 2.990 o
-7 -2 -4 2488.110 2502.760 38.860 13.684 o
-7 -2 -3 5226.860 5200.920 62.788 3.625 o
-7 -2 -2 573.657 624.051 14.772 145.879 o
-7 -2 -1 4216.780 4113.310 46.703 5.664 o
-7 -1 -22 317.638 324.525 33.544 78.946 o
-7 -1 -21 67.550 55.594 29.041 120.086 o
-7 -1 -20 17.388 14.935 19.167 279.420 o
-7 -1 -19 1886.090 1890.150 61.655 13.979 o
-7 -1 -18 344.657 350.612 30.811 89.184 o
-7 -1 -17 839.438 883.499 45.236 35.288 o
-7 -1 -16 1172.420 1123.920 57.151 21.762 o
-7 -1 -15 1526.880 1520.930 82.071 11.306 o
-7 -1 -14 747.859 761.535 49.870 32.358 o
-7 -1 -13 675.996 713.996 30.649 66.178 o
-7 -1 -12 213.625 200.927 16.376 276.784 o
-7 -1 -11 2049.960 2086.190 44.987 16.485 o
-7 -1 -10 1212.500 1195.240 31.853 39.220 o
-7 -1 -9 1365.210 1344.920 31.566 34.510 o
-7 -1 -8 3411.630 3412.300 56.730 7.327 o
-7 -1 -7 9162.050 9138.430 112.018 1.204 o
-7 -1 -6 145.522 143.079 9.572 656.855 o
-7 -1 -5 1955.430 1899.770 36.683 20.126 o
-7 -1 -4 4639.890 4613.580 62.173 4.420 o
-7 -1 -3 2297.630 2268.520 34.350 16.318 o
-7 -1 -2 271.770 263.837 12.875 326.941 o
-7 -1 -1 1963.990 1953.170 28.359 22.067 o
-6 -15 -7 121.696 65.298 29.736 112.347 o
-6 -15 -6 527.516 506.515 47.893 38.615 o
-6 -15 -5 560.247 487.973 48.350 37.731 o
-6 -15 -4 51.552 80.291 40.342 63.151 o
-6 -15 -3 123.472 111.696 25.245 151.096 o
-6 -15 -2 392.772 392.817 36.146 66.375 o
-6 -15 -1 580.933 534.899 39.886 50.755 o
-6 -14 -11 495.688 463.589 52.274 33.673 o
-6 -14 -10 83.472 84.187 29.208 117.495 o
-6 -14 -9 153.700 168.924 31.913 95.329 o
-6 -14 -8 199.322 161.914 53.694 35.039 o
-6 -14 -7 570.903 534.157 46.888 39.306 o
-6 -14 -6 319.101 348.143 39.863 58.171 o
-6 -14 -5 73.809 55.784 27.892 129.557 o
-6 -14 -4 537.849 536.834 49.272 36.520 o
-6 -14 -3 817.274 853.978 44.440 36.716 o
-6 -14 -2 39.885 89.631 24.515 167.414 o
-6 -14 -1 436.856 413.150 35.709 66.120 o
-6 -13 -13 499.302 457.870 43.332 46.498 o
-6 -13 -12 205.865 192.508 32.982 87.571 o
-6 -13 -11 148.201 170.793 40.910 59.687 o
-6 -13 -10 200.567 188.799 49.433 41.004 o
-6 -13 -9 376.608 341.480 38.868 59.664 o
-6 -13 -8 414.314 425.312 43.183 48.388 o
-6 -13 -7 459.584 421.411 40.944 52.197 o
-6 -13 -6 270.532 248.031 33.916 80.305 o
-6 -13 -5 506.224 519.165 39.829 52.638 o
-6 -13 -4 173.437 158.534 23.835 160.538 o
-6 -13 -3 248.497 213.811 26.676 124.150 o
-6 -13 -2 1033.480 1020.090 46.554 30.541 o
-6 -13 -1 1391.590 1423.940 53.810 20.698 o
-6 -12 -15 236.411 243.343 45.711 46.994 o
-6 -12 -14 215.797 179.004 59.092 28.999 o
-6 -12 -13 287.092 318.271 35.926 71.083 o
-6 -12 -12 315.427 331.376 72.416 19.169 o
-6 -12 -11 682.897 598.328 45.757 38.914 o
-6 -12 -10 970.737 882.023 51.444 28.054 o
-6 -12 -9 1013.100 1028.070 54.504 24.858 o
-6 -12 -8 35.641 -4.670 20.820 235.929 o
-6 -12 -7 496.302 451.417 38.650 56.244 o
-6 -12 -6 48.916 24.244 36.080 79.185 o
-6 -12 -5 333.589 302.743 27.434 109.608 o
-6 -12 -4 640.322 669.799 37.558 52.399 o
-6 -12 -3 1379.610 1412.060 49.400 22.915 o
-6 -12 -2 964.500 987.195 45.618 32.463 o
-6 -12 -1 655.470 693.398 37.488 51.854 o
-6 -11 -16 128.687 136.114 25.782 144.037 o
-6 -11 -15 568.984 526.021 37.952 55.177 o
-6 -11 -14 354.153 336.318 36.270 67.852 o
-6 -11 -13 561.773 558.716 62.501 23.898 o
-6 -11 -12 1628.370 1665.590 66.132 14.461 o
-6 -11 -11 210.770 170.274 27.074 125.154 o
-6 -11 -10 227.217 224.042 28.999 108.473 o
-6 -11 -9 939.277 838.775 47.760 31.751 o
-6 -11 -8 584.147 530.899 39.599 51.299 o
-6 -11 -7 663.296 566.967 57.956 26.662 o
-6 -11 -6 234.970 235.543 23.058 158.310 o
-6 -11 -5 1006.640 984.488 40.556 36.839 o
-6 -11 -4 363.147 362.737 27.895 102.887 o
-6 -11 -3 65.922 40.482 17.003 334.778 o
-6 -11 -2 1616.180 1494.820 49.866 20.346 o
-6 -11 -1 271.415 277.584 25.941 125.710 o
-6 -10 -18 220.303 266.196 31.914 91.011 o
-6 -10 -17 441.439 455.824 37.221 61.121 o
-6 -10 -16 186.793 188.585 26.869 127.864 o
-6 -10 -15 635.728 659.183 40.344 47.450 o
-6 -10 -14 1229.870 1172.440 49.360 25.497 o
-6 -10 -13 145.010 160.061 23.899 162.593 o
-6 -10 -12 592.727 554.315 34.733 61.744 o
-6 -10 -11 624.841 614.190 35.683 57.551 o
-6 -10 -10 3314.740 3104.810 78.113 6.470 o
-6 -10 -9 248.361 241.754 26.882 121.557 o
-6 -10 -8 1108.220 1053.840 47.738 28.520 o
-6 -10 -7 1133.470 1127.700 48.074 27.582 o
-6 -10 -6 797.821 762.420 33.782 53.967 o
-6 -10 -5 551.585 556.462 30.816 74.626 o
-6 -10 -4 444.222 430.135 40.462 53.463 o
-6 -10 -3 1370.550 1327.590 44.122 26.293 o
-6 -10 -2 1475.290 1564.070 48.052 22.005 o
-6 -10 -1 398.378 421.367 28.741 94.447 o
-6 -9 -19 642.495 641.196 51.990 31.883 o
-6 -9 -18 527.536 548.149 39.763 52.008 o
-6 -9 -17 327.561 379.021 33.544 77.629 o
-6 -9 -16 268.867 255.807 28.193 110.432 o
-6 -9 -15 380.244 325.847 74.505 18.026 o
-6 -9 -14 653.381 689.749 37.652 51.635 o
-6 -9 -13 145.142 205.959 23.642 163.318 o
-6 -9 -12 1555.980 1499.640 63.160 16.011 o
-6 -9 -11 136.424 92.898 21.896 195.426 o
-6 -9 -10 1390.100 1404.460 46.307 24.439 o
-6 -9 -9 202.299 205.796 29.839 104.827 o
-6 -9 -8 822.566 788.628 34.579 51.381 o
-6 -9 -7 1552.980 1480.170 55.816 18.573 o
-6 -9 -6 583.193 555.050 25.608 92.263 o
-6 -9 -5 338.145 316.171 24.314 130.893 o
-6 -9 -4 980.597 913.738 34.746 45.113 o
-6 -9 -3 2311.320 2270.650 53.452 12.860 o
-6 -9 -2 38.767 24.733 16.648 359.885 o
-6 -9 -1 1006.490 953.274 42.585 35.015 o
-6 -8 -20 974.612 937.722 62.501 20.780 o
-6 -8 -19 150.890 170.239 56.535 31.885 o
-6 -8 -18 572.196 677.025 46.779 38.519 o
-6 -8 -17 635.806 587.703 38.950 50.779 o
-6 -8 -16 636.419 636.189 38.946 50.217 o
-6 -8 -15 141.389 110.203 21.217 204.727 o
-6 -8 -14 266.465 256.923 25.229 132.844 o
-6 -8 -13 369.361 378.932 27.256 105.603 o
-6 -8 -12 166.173 174.690 20.008 216.273 o
-6 -8 -11 681.488 650.726 40.626 46.126 o
-6 -8 -10 930.624 930.148 35.087 45.711 o
-6 -8 -9 1009.540 938.174 35.155 43.548 o
-6 -8 -8 684.779 696.260 29.278 69.822 o
-6 -8 -7 265.840 259.663 17.688 225.813 o
-6 -8 -6 2913.980 2843.410 57.170 9.208 o
-6 -8 -5 3729.350 3569.720 66.070 6.114 o
-6 -8 -4 659.974 611.723 26.572 81.679 o
-6 -8 -3 230.107 201.339 13.588 346.374 o
-6 -8 -2 7003.140 6911.010 97.993 1.963 o
-6 -8 -1 1939.640 1899.630 38.894 19.637 o
-6 -7 -20 262.784 263.450 35.788 72.977 o
-6 -7 -19 1065.140 1082.900 63.354 19.493 o
-6 -7 -18 1327.370 1470.350 64.617 16.700 o
-6 -7 -17 6.441 9.423 20.569 245.018 o
-6 -7 -16 1035.180 1059.540 54.100 24.806 o
-6 -7 -15 591.127 568.924 33.154 65.721 o
-6 -7 -14 108.170 83.706 17.961 285.552 o
-6 -7 -13 49.135 45.120 16.260 368.996 o
-6 -7 -12 1006.100 1075.130 38.545 38.153 o
-6 -7 -11 1508.100 1450.010 47.226 22.601 o
-6 -7 -10 1213.060 1201.500 42.348 30.284 o
-6 -7 -9 418.937 397.918 21.963 136.034 o
-6 -7 -8 2433.890 2422.490 54.947 11.789 o
-6 -7 -7 3301.020 3172.670 66.253 7.199 o
-6 -7 -6 624.475 621.266 22.892 97.845 o
-6 -7 -5 104.468 140.560 11.738 551.671 o
-6 -7 -4 4702.750 4598.330 63.844 4.326 o
-6 -7 -3 3019.480 2887.410 46.017 9.815 o
-6 -7 -2 1196.020 1185.370 25.888 45.724 o
-6 -7 -1 397.528 376.433 15.264 210.520 o
-6 -6 -21 648.958 695.272 53.694 29.939 o
-6 -6 -20 333.136 358.453 50.541 37.654 o
-6 -6 -19 338.598 303.212 35.576 71.061 o
-6 -6 -18 821.927 805.062 49.596 31.580 o
-6 -6 -17 1224.060 1141.150 54.504 22.718 o
-6 -6 -16 203.193 139.477 22.516 174.656 o
-6 -6 -15 628.897 597.456 33.055 64.081 o
-6 -6 -14 1707.860 1623.090 51.268 18.659 o
-6 -6 -13 402.631 424.775 32.904 76.407 o
-6 -6 -12 734.102 744.063 57.504 25.951 o
-6 -6 -11 367.388 357.394 40.713 55.063 o
-6 -6 -10 2344.180 2185.390 90.059 7.820 o
-6 -6 -9 1752.020 1744.930 41.856 21.111 o
-6 -6 -8 4275.740 4109.470 78.972 4.584 o
-6 -6 -7 2567.420 2447.250 44.344 12.664 o
-6 -6 -6 2328.240 2214.980 40.020 15.284 o
-6 -6 -5 2378.990 2282.260 37.769 15.140 o
-6 -6 -4 122.089 134.788 8.777 780.103 o
-6 -6 -3 610.473 561.656 14.769 144.873 o
-6 -6 -2 1473.570 1375.700 24.461 36.624 o
-6 -6 -1 3008.240 2900.520 41.260 10.230 o
-6 -5 -22 255.369 292.340 38.004 65.332 o
-6 -5 -21 201.033 254.901 36.032 73.776 o
-6 -5 -20 233.314 228.612 34.100 81.008 o
-6 -5 -19 1342.330 1391.630 65.598 16.477 o
-6 -5 -18 811.400 779.138 47.695 33.743 o
-6 -5 -17 1033.400 1007.300 50.613 27.444 o
-6 -5 -16 1395.570 1461.110 58.518 18.595 o
-6 -5 -15 305.535 286.529 24.613 133.073 o
-6 -5 -14 672.700 694.984 53.469 29.946 o
-6 -5 -13 706.706 692.046 33.223 59.246 o
-6 -5 -12 2912.130 2884.330 76.364 7.474 o
-6 -5 -11 1773.370 1749.750 111.366 6.667 o
-6 -5 -10 1707.910 1764.940 48.429 19.105 o
-6 -5 -9 7344.170 7147.290 151.858 1.482 o
-6 -5 -8 4036.790 3896.510 66.502 5.415 o
-6 -5 -7 1593.960 1570.620 33.855 27.322 o
-6 -5 -6 657.057 646.349 21.653 99.001 o
-6 -5 -5 3039.790 3077.060 49.602 9.159 o
-6 -5 -4 2364.160 2310.040 36.657 15.330 o
-6 -5 -3 2356.420 2376.050 29.288 16.321 o
-6 -5 -2 1273.380 1299.920 22.225 44.890 o
-6 -5 -1 695.950 695.953 17.203 110.533 o
-6 -4 -22 279.668 276.271 38.073 64.765 o
-6 -4 -21 482.357 483.409 44.702 44.185 o
-6 -4 -20 727.059 755.777 51.237 31.263 o
-6 -4 -19 1069.080 1055.780 68.183 17.464 o
-6 -4 -18 341.181 357.147 35.593 70.145 o
-6 -4 -17 689.499 654.807 49.433 34.037 o
-6 -4 -16 828.341 800.175 74.149 16.436 o
-6 -4 -15 727.796 784.929 35.383 52.698 o
-6 -4 -14 86.607 102.320 16.522 334.813 o
-6 -4 -13 965.615 916.306 39.180 39.780 o
-6 -4 -12 286.935 282.093 18.529 204.619 o
-6 -4 -11 808.801 819.359 27.096 66.426 o
-6 -4 -10 1714.310 1708.580 37.288 23.401 o
-6 -4 -9 4015.690 3852.150 74.049 5.185 o
-6 -4 -8 61.977 62.749 13.041 535.903 o
-6 -4 -7 6614.370 6362.320 85.745 2.283 o
-6 -4 -6 848.685 833.445 23.523 72.238 o
-6 -4 -5 1462.430 1402.380 29.777 33.213 o
-6 -4 -4 1276.350 1246.370 24.869 43.308 o
-6 -4 -3 773.090 749.321 18.844 93.793 o
-6 -4 -2 6408.930 6454.340 64.144 2.529 o
-6 -4 -1 1763.870 1790.540 26.767 26.194 o
-6 -3 -22 404.668 358.852 41.901 51.708 o
-6 -3 -21 766.482 802.086 54.712 27.649 o
-6 -3 -20 881.444 977.429 55.992 25.111 o
-6 -3 -19 1039.770 1012.010 55.183 24.277 o
-6 -3 -18 895.418 882.599 62.189 21.531 o
-6 -3 -17 1223.840 1175.520 44.540 28.725 o
-6 -3 -16 111.224 124.235 18.559 263.885 o
-6 -3 -15 87.953 74.804 27.810 129.101 o
-6 -3 -14 1574.650 1608.690 47.213 21.286 o
-6 -3 -13 54.189 64.104 12.892 552.901 o
-6 -3 -12 1133.810 1141.040 33.071 40.513 o
-6 -3 -11 1941.260 1976.040 43.806 17.940 o
-6 -3 -10 845.069 883.744 23.352 71.368 o
-6 -3 -9 5363.690 5323.680 75.001 3.292 o
-6 -3 -8 2530.090 2460.910 48.480 12.233 o
-6 -3 -7 1199.370 1179.070 36.801 35.171 o
-6 -3 -6 126.621 159.175 18.206 264.418 o
-6 -3 -5 2142.890 2002.180 35.268 18.369 o
-6 -3 -4 1560.430 1555.800 35.447 27.120 o
-6 -3 -3 6946.680 6844.610 80.793 2.114 o
-6 -3 -2 7128.270 6694.700 71.456 2.139 o
-6 -3 -1 1002.740 961.497 17.508 70.847 o
-6 -2 -23 620.398 570.523 51.344 33.099 o
-6 -2 -22 373.928 399.093 43.127 49.329 o
-6 -2 -21 748.141 808.138 44.792 37.678 o
-6 -2 -20 405.885 426.577 44.310 46.382 o
-6 -2 -19 2317.060 2311.080 67.683 10.527 o
-6 -2 -18 86.487 101.543 23.666 174.281 o
-6 -2 -17 234.113 215.092 22.906 161.349 o
-6 -2 -16 1007.580 1003.350 71.255 16.613 o
-6 -2 -15 921.298 934.707 35.827 44.856 o
-6 -2 -14 304.356 298.322 40.972 56.091 o
-6 -2 -13 378.707 372.974 21.682 145.057 o
-6 -2 -12 2890.560 2858.550 63.486 8.667 o
-6 -2 -11 4451.330 4434.310 70.166 4.502 o
-6 -2 -10 2891.770 2949.400 51.185 9.670 o
-6 -2 -9 727.831 742.088 21.810 88.376 o
-6 -2 -8 1618.550 1556.550 31.716 28.093 o
-6 -2 -7 5059.570 4923.990 75.906 3.627 o
-6 -2 -6 157.316 136.400 12.500 459.974 o
-6 -2 -5 1357.370 1367.760 30.642 35.104 o
-6 -2 -4 1646.800 1664.460 32.325 26.599 o
-6 -2 -3 3360.550 3326.790 33.690 8.859 o
-6 -2 -2 1207.010 1164.840 18.486 53.385 o
-6 -2 -1 7887.760 7574.230 71.200 1.768 o
-6 -1 -23 100.485 129.975 33.984 86.704 o
-6 -1 -22 34.129 36.487 21.609 217.323 o
-6 -1 -21 1068.830 1057.800 63.466 19.487 o
-6 -1 -20 535.010 446.738 35.010 64.588 o
-6 -1 -19 545.113 551.328 36.170 59.645 o
-6 -1 -18 830.099 772.163 55.166 26.903 o
-6 -1 -17 826.151 807.138 37.238 46.654 o
-6 -1 -16 155.541 119.558 21.238 201.521 o
-6 -1 -15 284.394 281.357 27.331 114.389 o
-6 -1 -14 341.993 321.344 23.325 138.397 o
-6 -1 -13 2305.390 2266.220 51.820 13.176 o
-6 -1 -12 3482.760 3375.470 58.671 7.107 o
-6 -1 -11 1682.160 1673.140 36.717 24.210 o
-6 -1 -10 4040.550 3994.030 64.126 5.433 o
-6 -1 -9 5320.480 5194.710 76.917 3.332 o
-6 -1 -8 1502.390 1554.790 31.101 30.306 o
-6 -1 -7 333.634 339.161 12.578 283.371 o
-6 -1 -6 938.868 900.973 15.543 81.225 o
-6 -1 -5 1040.770 1078.480 16.395 66.532 o
-6 -1 -4 1461.320 1449.900 20.677 38.298 o
-6 -1 -3 2185.070 2102.610 24.872 19.696 o
-6 -1 -2 4748.980 4638.420 47.875 4.596 o
-6 -1 -1 6982.880 6930.610 62.387 2.203 o
-5 -16 -5 583.133 590.091 52.414 32.216 o
-5 -16 -4 123.474 99.254 34.944 82.007 o
-5 -16 -3 208.967 200.832 82.104 15.231 o
-5 -16 -2 365.405 391.276 36.455 66.214 o
-5 -16 -1 99.605 49.333 24.267 167.408 o
-5 -15 -10 43.794 21.023 31.251 105.338 o
-5 -15 -9 81.020 96.075 30.887 105.380 o
-5 -15 -8 410.480 419.081 44.961 45.202 o
-5 -15 -7 553.946 488.358 47.720 38.648 o
-5 -15 -6 30.658 -0.211 26.232 149.969 o
-5 -15 -5 34.501 23.444 27.016 140.710 o
-5 -15 -4 874.636 809.075 58.286 24.232 o
-5 -15 -3 365.974 397.927 36.101 67.200 o
-5 -15 -2 36.494 14.569 21.562 219.289 o
-5 -15 -1 189.952 175.486 27.902 119.769 o
-5 -14 -12 255.179 310.268 39.900 59.637 o
-5 -14 -11 169.647 164.838 33.695 85.722 o
-5 -14 -10 422.883 416.701 43.298 48.099 o
-5 -14 -9 363.058 292.651 38.206 62.328 o
-5 -14 -8 198.566 227.802 47.728 43.713 o
-5 -14 -7 167.415 149.480 54.547 34.166 o
-5 -14 -6 326.027 277.297 86.621 13.562 o
-5 -14 -5 363.878 361.860 45.740 44.803 o
-5 -14 -4 153.365 162.552 24.729 152.108 o
-5 -14 -3 958.354 958.407 48.620 30.068 o
-5 -14 -2 1248.370 1187.640 49.902 24.914 o
-5 -14 -1 903.902 882.630 44.951 34.677 o
-5 -13 -14 290.904 245.767 36.606 69.594 o
-5 -13 -13 15.935 36.687 26.299 149.021 o
-5 -13 -12 702.623 653.913 50.161 33.117 o
-5 -13 -11 608.592 607.359 47.495 37.563 o
-5 -13 -10 274.072 230.970 34.057 79.877 o
-5 -13 -9 130.768 92.484 28.016 124.609 o
-5 -13 -8 249.186 239.101 67.587 22.176 o
-5 -13 -7 136.964 95.633 28.272 122.091 o
-5 -13 -6 541.247 481.052 42.029 47.967 o
-5 -13 -5 269.344 248.597 36.904 69.076 o
-5 -13 -4 269.321 230.570 26.648 122.218 o
-5 -13 -3 475.208 555.832 42.408 47.769 o
-5 -13 -2 585.630 546.923 36.113 58.679 o
-5 -13 -1 880.065 951.064 55.704 25.420 o
-5 -12 -16 180.018 171.503 32.696 90.210 o
-5 -12 -15 389.144 375.577 40.175 55.755 o
-5 -12 -14 457.943 471.676 43.337 47.040 o
-5 -12 -13 887.247 880.288 53.845 26.989 o
-5 -12 -12 449.904 490.122 48.012 39.429 o
-5 -12 -11 1472.660 1509.740 66.593 15.319 o
-5 -12 -10 410.984 437.964 39.484 56.322 o
-5 -12 -9 1352.940 1346.130 60.057 18.584 o
-5 -12 -8 107.273 79.358 24.394 163.815 o
-5 -12 -7 379.781 359.913 45.456 45.119 o
-5 -12 -6 324.174 315.111 34.131 76.578 o
-5 -12 -5 313.216 288.546 26.188 120.054 o
-5 -12 -4 915.859 913.671 48.900 30.562 o
-5 -12 -3 487.744 505.680 32.707 72.191 o
-5 -12 -2 2045.300 2033.120 78.281 10.075 o
-5 -12 -1 439.268 441.444 32.071 77.675 o
-5 -11 -18 127.163 133.831 27.706 126.266 o
-5 -11 -17 254.870 258.727 31.289 92.951 o
-5 -11 -16 271.770 290.765 35.575 73.136 o
-5 -11 -15 444.554 418.475 40.633 53.193 o
-5 -11 -14 948.036 927.744 46.299 32.441 o
-5 -11 -13 692.590 665.688 87.786 12.512 o
-5 -11 -12 198.801 233.367 31.051 97.158 o
-5 -11 -11 1297.460 1221.500 56.174 21.028 o
-5 -11 -10 191.561 195.331 57.388 30.759 o
-5 -11 -9 850.613 786.178 67.331 19.319 o
-5 -11 -8 710.135 713.009 43.053 41.315 o
-5 -11 -7 819.368 774.036 67.899 19.198 o
-5 -11 -6 1079.080 1110.220 41.158 33.965 o
-5 -11 -5 126.309 122.994 19.506 238.913 o
-5 -11 -4 757.723 725.728 39.019 46.353 o
-5 -11 -3 505.611 464.266 30.285 80.853 o
-5 -11 -2 775.912 837.849 49.702 31.803 o
-5 -11 -1 836.100 813.437 37.708 45.625 o
-5 -10 -19 622.391 711.718 52.552 31.184 o
-5 -10 -18 304.851 329.034 33.697 78.698 o
-5 -10 -17 566.100 617.279 50.287 34.583 o
-5 -10 -16 418.604 405.972 34.036 72.160 o
-5 -10 -15 307.837 271.568 29.270 101.081 o
-5 -10 -14 560.839 568.133 49.551 35.763 o
-5 -10 -13 210.369 215.601 25.795 134.413 o
-5 -10 -12 1483.490 1460.810 51.488 20.864 o
-5 -10 -11 1025.780 1017.650 42.837 33.969 o
-5 -10 -10 515.176 479.067 31.808 74.611 o
-5 -10 -9 1174.630 1175.600 53.978 23.262 o
-5 -10 -8 413.757 382.774 31.965 80.391 o
-5 -10 -7 452.452 459.172 34.062 69.973 o
-5 -10 -6 1396.020 1272.910 41.626 27.816 o
-5 -10 -5 508.635 545.846 28.187 86.751 o
-5 -10 -4 1620.320 1626.550 47.828 20.574 o
-5 -10 -3 1757.660 1704.800 48.942 18.785 o
-5 -10 -2 294.670 277.989 23.436 145.111 o
-5 -10 -1 3614.050 3511.750 78.992 5.696 o
-5 -9 -20 255.752 294.255 37.925 65.547 o
-5 -9 -19 408.225 446.863 42.676 49.308 o
-5 -9 -18 144.212 159.103 27.580 125.587 o
-5 -9 -17 1348.050 1298.770 53.392 21.700 o
-5 -9 -16 914.530 951.115 49.167 30.136 o
-5 -9 -15 1.574 -4.024 21.283 230.065 o
-5 -9 -14 811.574 778.068 39.304 44.184 o
-5 -9 -13 314.219 352.345 28.843 100.859 o
-5 -9 -12 413.790 450.125 34.512 69.993 o
-5 -9 -11 501.755 514.705 36.567 60.400 o
-5 -9 -10 2052.630 2070.440 56.655 13.907 o
-5 -9 -9 1794.490 1751.030 65.885 13.668 o
-5 -9 -8 551.273 562.016 30.350 76.060 o
-5 -9 -7 11.518 17.762 11.231 796.511 o
-5 -9 -6 3026.000 2966.480 55.284 8.890 o
-5 -9 -5 2715.600 2697.270 56.684 10.075 o
-5 -9 -4 553.265 568.945 26.402 90.547 o
-5 -9 -3 834.259 824.948 30.456 58.066 o
-5 -9 -2 1971.500 1877.630 47.415 17.107 o
-5 -9 -1 2845.250 2789.480 83.853 7.067 o
-5 -8 -21 3.973 -26.735 24.716 170.466 o
-5 -8 -20 367.270 425.705 57.103 29.633 o
-5 -8 -19 1445.840 1472.240 67.360 15.281 o
-5 -8 -18 666.218 702.324 48.312 35.294 o
-5 -8 -17 47.352 54.657 27.428 135.196 o
-5 -8 -16 251.426 247.880 31.812 90.650 o
-5 -8 -15 443.651 399.724 38.383 58.739 o
-5 -8 -14 733.331 705.315 44.941 38.476 o
-5 -8 -13 749.260 769.835 48.210 34.012 o
-5 -8 -12 819.131 838.363 39.037 43.772 o
-5 -8 -11 840.092 752.801 34.250 51.973 o
-5 -8 -10 331.169 289.695 35.055 73.317 o
-5 -8 -9 276.644 246.700 21.159 174.129 o
-5 -8 -8 3020.440 2853.020 60.950 8.573 o
-5 -8 -7 5415.520 5168.760 80.491 3.222 o
-5 -8 -6 787.471 799.015 32.760 55.669 o
-5 -8 -5 372.166 351.803 18.655 178.040 o
-5 -8 -4 2294.790 2284.700 44.497 14.473 o
-5 -8 -3 2114.010 2036.200 39.524 17.483 o
-5 -8 -2 482.051 502.350 17.916 151.112 o
-5 -8 -1 1961.200 1845.650 32.907 21.424 o
-5 -7 -21 710.219 704.682 52.654 30.326 o
-5 -7 -20 959.541 930.046 73.269 16.154 o
-5 -7 -19 52.640 81.874 35.512 81.117 o
-5 -7 -18 404.791 406.109 39.225 57.429 o
-5 -7 -17 2097.950 1972.500 68.153 11.686 o
-5 -7 -16 785.891 750.783 39.538 44.666 o
-5 -7 -15 162.781 150.113 22.036 185.905 o
-5 -7 -14 227.892 214.976 22.515 166.711 o
-5 -7 -13 154.620 151.355 28.341 119.109 o
-5 -7 -12 1369.940 1388.660 62.772 17.344 o
-5 -7 -11 1334.990 1274.820 42.166 28.261 o
-5 -7 -10 2132.640 2097.340 61.423 12.560 o
-5 -7 -9 4321.130 4249.870 78.661 4.479 o
-5 -7 -8 1225.120 1187.070 28.192 42.517 o
-5 -7 -7 198.366 219.208 13.700 355.350 o
-5 -7 -6 3756.920 3780.580 57.362 6.294 o
-5 -7 -5 4576.640 4413.250 68.879 4.420 o
-5 -7 -4 709.859 699.497 18.578 103.388 o
-5 -7 -3 2179.080 2096.080 33.319 18.100 o
-5 -7 -2 2939.780 2872.200 41.063 10.551 o
-5 -7 -1 1285.530 1211.840 26.609 41.979 o
-5 -6 -22 707.689 777.716 55.689 27.422 o
-5 -6 -21 71.555 74.860 28.016 128.100 o
-5 -6 -20 546.079 503.646 59.944 25.979 o
-5 -6 -19 2048.410 2077.830 78.479 9.983 o
-5 -6 -18 859.905 840.848 51.022 29.702 o
-5 -6 -17 822.787 844.999 48.381 32.515 o
-5 -6 -16 592.597 571.234 59.791 25.656 o
-5 -6 -15 751.101 746.830 38.101 47.767 o
-5 -6 -14 429.101 448.504 28.720 91.954 o
-5 -6 -13 65.545 28.692 14.130 473.552 o
-5 -6 -12 402.232 409.887 24.225 120.741 o
-5 -6 -11 758.503 769.907 29.610 64.026 o
-5 -6 -10 1102.630 1095.720 52.324 25.203 o
-5 -6 -9 468.040 501.752 20.909 131.137 o
-5 -6 -8 7228.370 6954.420 99.975 1.878 o
-5 -6 -7 4309.850 4211.840 65.330 4.917 o
-5 -6 -6 762.882 728.030 20.066 91.734 o
-5 -6 -5 4452.950 4420.560 60.357 4.771 o
-5 -6 -4 5223.720 5042.340 60.823 3.722 o
-5 -6 -3 1475.580 1477.640 24.224 35.529 o
-5 -6 -2 563.312 516.315 15.057 156.222 o
-5 -6 -1 2072.570 2078.620 31.515 19.515 o
-5 -5 -23 88.283 128.415 32.594 94.310 o
-5 -5 -22 135.389 129.872 39.489 64.374 o
-5 -5 -21 1204.550 1282.380 84.093 11.888 o
-5 -5 -20 1227.610 1281.170 63.069 18.246 o
-5 -5 -19 331.475 319.125 35.890 69.968 o
-5 -5 -18 2249.770 2177.490 78.284 9.412 o
-5 -5 -17 1187.620 1233.670 73.581 14.794 o
-5 -5 -16 238.498 224.326 33.239 84.726 o
-5 -5 -15 808.990 803.651 37.820 46.199 o
-5 -5 -14 169.990 185.791 20.310 209.273 o
-5 -5 -13 1480.820 1479.960 42.468 25.045 o
-5 -5 -12 474.159 417.715 34.117 69.763 o
-5 -5 -11 1264.020 1234.300 35.191 34.790 o
-5 -5 -10 3399.440 3310.170 65.702 6.917 o
-5 -5 -9 4834.870 4648.980 71.427 4.010 o
-5 -5 -8 305.473 322.466 11.767 319.274 o
-5 -5 -7 4805.870 4635.480 66.479 4.150 o
-5 -5 -6 2513.970 2418.380 40.697 13.513 o
-5 -5 -5 1857.620 1784.550 33.264 22.787 o
-5 -5 -4 3882.640 3795.360 50.497 6.346 o
-5 -5 -3 2025.000 1939.940 24.631 22.369 o
-5 -5 -2 3939.310 3859.150 38.746 6.604 o
-5 -5 -1 1256.100 1217.590 20.107 48.802 o
-5 -4 -23 86.210 96.044 30.110 110.483 o
-5 -4 -22 368.378 372.731 42.103 51.765 o
-5 -4 -21 60.039 79.376 28.864 121.330 o
-5 -4 -20 1855.910 1922.520 76.194 11.057 o
-5 -4 -19 354.013 353.648 37.206 64.733 o
-5 -4 -18 1143.810 1079.000 66.195 17.887 o
-5 -4 -17 504.452 489.556 60.513 25.793 o
-5 -4 -16 766.136 760.250 87.786 12.325 o
-5 -4 -15 503.688 458.331 29.995 82.214 o
-5 -4 -14 694.001 696.484 32.359 61.601 o
-5 -4 -13 2401.150 2407.340 49.083 12.848 o
-5 -4 -12 945.699 899.801 28.644 55.746 o
-5 -4 -11 3208.210 3205.120 61.216 7.698 o
-5 -4 -10 268.328 256.489 15.044 277.530 o
-5 -4 -9 4205.930 4178.290 59.495 5.247 o
-5 -4 -8 7537.080 7316.280 106.806 1.707 o
-5 -4 -7 2614.220 2494.660 41.388 12.717 o
-5 -4 -6 2054.130 2014.830 35.934 18.915 o
-5 -4 -5 1168.150 1127.270 24.956 48.617 o
-5 -4 -4 2096.850 2083.770 31.781 19.206 o
-5 -4 -3 945.378 885.143 18.623 75.168 o
-5 -4 -2 12434.800 12231.400 124.205 0.700 o
-5 -4 -1 774.575 822.477 13.762 105.528 o
-5 -3 -23 520.793 509.932 47.236 39.591 o
-5 -3 -22 427.196 437.369 62.501 24.770 o
-5 -3 -21 1137.920 1147.300 63.060 19.073 o
-5 -3 -20 1107.720 1095.270 113.071 7.348 o
-5 -3 -19 656.077 621.658 45.757 39.127 o
-5 -3 -18 741.443 797.016 51.961 30.244 o
-5 -3 -17 269.086 295.811 25.196 131.157 o
-5 -3 -16 1600.400 1572.060 48.265 20.796 o
-5 -3 -15 1123.840 1120.520 59.159 21.069 o
-5 -3 -14 379.977 405.348 22.437 136.551 o
-5 -3 -13 2568.010 2514.510 54.104 11.212 o
-5 -3 -12 2581.070 2410.230 52.501 11.575 o
-5 -3 -11 5146.220 4973.910 86.139 3.356 o
-5 -3 -10 3959.560 4062.490 63.243 5.529 o
-5 -3 -9 5420.480 5391.560 76.685 3.208 o
-5 -3 -8 1973.360 1955.280 39.673 18.889 o
-5 -3 -7 1276.800 1211.840 29.404 39.707 o
-5 -3 -6 5899.270 5696.100 75.597 2.858 o
-5 -3 -5 4873.640 4750.910 59.643 4.176 o
-5 -3 -4 3211.390 3157.670 41.023 9.145 o
-5 -3 -3 2682.610 2732.740 33.255 12.728 o
-5 -3 -2 3263.450 3379.460 38.808 8.792 o
-5 -3 -1 11980.900 11646.000 101.342 0.781 o
-5 -2 -24 556.882 559.799 52.062 32.959 o
-5 -2 -23 715.070 767.324 55.812 27.307 o
-5 -2 -22 170.613 166.450 33.553 86.347 o
-5 -2 -21 1117.280 1128.190 69.610 16.576 o
-5 -2 -20 530.948 571.356 47.097 39.284 o
-5 -2 -19 764.471 738.542 38.620 46.702 o
-5 -2 -18 1065.540 1072.220 51.526 26.175 o
-5 -2 -17 638.034 618.706 36.561 55.180 o
-5 -2 -16 238.648 262.713 22.854 158.484 o
-5 -2 -15 98.564 104.374 16.923 316.743 o
-5 -2 -14 1912.460 1810.180 59.174 14.629 o
-5 -2 -13 2116.650 2169.920 49.867 14.749 o
-5 -2 -12 1944.070 1958.160 45.573 17.509 o
-5 -2 -11 439.947 413.971 21.061 139.371 o
-5 -2 -10 7452.050 7472.020 101.426 1.741 o
-5 -2 -9 1441.150 1469.320 30.219 32.701 o
-5 -2 -8 6083.250 6192.240 75.558 2.641 o
-5 -2 -7 2755.890 2650.480 42.859 11.549 o
-5 -2 -6 242.780 327.363 14.268 291.097 o
-5 -2 -5 1088.700 1086.510 21.565 56.731 o
-5 -2 -4 255.651 293.546 11.468 367.133 o
-5 -2 -3 9226.710 8906.800 86.549 1.288 o
-5 -2 -2 9580.890 9517.580 97.712 1.157 o
-5 -2 -1 12050.400 11570.300 103.434 0.776 o
-5 -1 -24 28.276 55.200 22.380 202.598 o
-5 -1 -23 430.376 471.436 38.258 58.518 o
-5 -1 -22 321.485 332.221 32.743 81.955 o
-5 -1 -21 805.399 768.249 43.622 38.543 o
-5 -1 -20 597.956 635.341 39.548 49.952 o
-5 -1 -19 839.141 891.230 41.271 39.857 o
-5 -1 -18 511.242 502.147 32.524 71.927 o
-5 -1 -17 496.746 468.328 29.947 82.499 o
-5 -1 -16 10.789 3.383 17.550 335.443 o
-5 -1 -15 2056.930 2038.690 63.522 12.573 o
-5 -1 -14 1376.840 1353.740 42.593 26.961 o
-5 -1 -13 232.453 219.249 23.419 155.573 o
-5 -1 -12 5416.350 5487.000 84.796 3.059 o
-5 -1 -11 7145.250 7114.710 101.376 1.869 o
-5 -1 -10 3120.190 3040.990 50.893 8.878 o
-5 -1 -9 707.668 677.842 20.065 99.053 o
-5 -1 -8 2430.750 2539.370 39.132 13.861 o
-5 -1 -7 500.519 492.893 11.495 203.656 o
-5 -1 -6 141.241 158.814 5.658 1036.960 o
-5 -1 -5 373.905 392.618 12.480 255.683 o
-5 -1 -4 1183.220 1329.900 23.962 45.747 o
-5 -1 -3 6521.200 6519.630 60.481 2.491 o
-5 -1 -2 1090.910 1184.610 14.942 62.369 o
-5 -1 -1 14493.600 14685.200 118.874 0.526 o
-4 -16 -8 569.883 546.561 51.054 34.017 o
-4 -16 -7 273.680 304.066 41.727 54.711 o
-4 -16 -6 114.730 158.625 35.624 78.569 o
-4 -16 -5 25.155 17.908 27.844 133.109 o
-4 -16 -4 555.180 502.846 49.146 36.675 o
-4 -16 -3 489.045 443.671 46.365 41.690 o
-4 -16 -2 52.566 59.837 22.736 193.765 o
-4 -16 -1 397.069 418.230 50.110 37.417 o
-4 -15 -11 267.243 315.286 41.406 55.501 o
-4 -15 -10 605.021 625.818 53.106 31.168 o
-4 -15 -9 300.439 230.182 36.972 68.323 o
-4 -15 -8 6.904 -17.439 24.560 172.442 o
-4 -15 -7 51.260 17.835 26.844 141.764 o
-4 -15 -6 328.680 300.286 40.248 57.458 o
-4 -15 -5 501.169 539.310 54.547 30.908 o
-4 -15 -4 34.845 59.017 28.691 124.252 o
-4 -15 -3 320.127 349.669 32.746 81.661 o
-4 -15 -2 1171.170 1158.380 50.314 25.547 o
-4 -15 -1 152.555 206.043 28.108 119.492 o
-4 -14 -14 169.500 157.390 40.342 61.092 o
-4 -14 -13 69.105 92.174 30.200 110.568 o
-4 -14 -12 839.066 844.624 56.650 25.469 o
-4 -14 -11 282.760 279.784 38.365 63.775 o
-4 -14 -10 195.189 217.184 35.535 76.314 o
-4 -14 -9 72.924 52.592 26.742 140.664 o
-4 -14 -8 1137.410 1157.320 62.436 19.326 o
-4 -14 -7 781.404 795.344 53.810 28.287 o
-4 -14 -6 322.159 364.724 40.678 55.911 o
-4 -14 -5 854.787 868.555 61.052 22.448 o
-4 -14 -4 790.534 854.237 48.250 32.973 o
-4 -14 -3 51.378 27.208 18.265 297.969 o
-4 -14 -2 186.654 166.169 25.441 141.694 o
-4 -14 -1 462.602 412.163 42.254 49.525 o
-4 -13 -15 43.937 60.403 27.336 136.120 o
-4 -13 -14 544.918 563.025 48.448 37.350 o
-4 -13 -13 398.093 436.163 44.035 46.933 o
-4 -13 -12 231.974 208.855 33.540 83.829 o
-4 -13 -11 378.052 395.711 41.034 53.769 o
-4 -13 -10 1231.520 1260.930 62.220 18.626 o
-4 -13 -9 518.929 512.499 42.925 46.454 o
-4 -13 -8 232.895 218.828 32.781 87.156 o
-4 -13 -7 389.624 408.943 39.062 58.139 o
-4 -13 -6 377.988 348.076 47.132 42.366 o
-4 -13 -5 194.628 134.385 29.019 112.448 o
-4 -13 -4 1739.880 1802.270 56.547 16.239 o
-4 -13 -3 2149.100 2049.360 60.936 12.681 o
-4 -13 -2 1341.190 1282.780 60.646 18.598 o
-4 -13 -1 24.133 30.458 17.817 318.964 o
-4 -12 -17 13.361 11.888 24.632 170.621 o
-4 -12 -16 257.698 294.418 45.711 46.489 o
-4 -12 -15 377.042 417.597 76.990 16.849 o
-4 -12 -14 710.549 741.165 52.054 30.715 o
-4 -12 -13 818.086 797.677 52.330 29.193 o
-4 -12 -12 417.440 415.833 54.263 32.250 o
-4 -12 -11 821.208 839.192 51.191 29.951 o
-4 -12 -10 511.745 491.761 62.501 24.283 o
-4 -12 -9 1039.670 1015.550 53.765 25.169 o
-4 -12 -8 1036.390 1079.220 54.416 24.515 o
-4 -12 -7 631.966 613.277 43.880 42.215 o
-4 -12 -6 707.822 755.703 47.835 35.012 o
-4 -12 -5 742.365 713.969 53.792 28.983 o
-4 -12 -4 2293.110 2323.950 62.528 11.353 o
-4 -12 -3 181.703 189.692 22.765 170.980 o
-4 -12 -2 740.185 842.983 38.099 46.903 o
-4 -12 -1 1094.030 1111.180 43.362 31.802 o
-4 -11 -18 203.714 207.251 29.410 107.466 o
-4 -11 -17 178.915 206.846 30.196 103.665 o
-4 -11 -16 1452.160 1396.650 55.666 19.575 o
-4 -11 -15 594.595 517.905 37.484 55.670 o
-4 -11 -14 33.410 40.408 19.965 253.208 o
-4 -11 -13 998.880 954.333 47.518 30.553 o
-4 -11 -12 176.270 176.353 28.463 116.309 o
-4 -11 -11 1724.930 1650.320 72.161 12.666 o
-4 -11 -10 344.973 329.084 33.683 77.358 o
-4 -11 -9 1494.690 1421.200 102.247 8.157 o
-4 -11 -8 50.080 13.761 19.919 253.788 o
-4 -11 -7 547.155 546.667 49.433 36.167 o
-4 -11 -6 2597.850 2671.280 141.524 3.900 o
-4 -11 -5 457.723 506.042 30.133 82.782 o
-4 -11 -4 2534.550 2432.690 62.762 10.341 o
-4 -11 -3 446.194 446.529 38.038 58.992 o
-4 -11 -2 1590.010 1576.520 49.288 20.457 o
-4 -11 -1 1394.530 1399.650 46.332 24.405 o
-4 -10 -20 48.342 98.403 42.331 57.378 o
-4 -10 -19 44.563 86.958 33.523 90.944 o
-4 -10 -18 560.534 499.300 38.605 54.271 o
-4 -10 -17 850.918 884.848 47.192 33.101 o
-4 -10 -16 293.722 263.088 29.917 98.401 o
-4 -10 -15 216.397 235.299 34.925 77.959 o
-4 -10 -14 1616.890 1635.210 57.215 17.218 o
-4 -10 -13 834.429 845.596 41.559 39.991 o
-4 -10 -12 579.850 477.111 42.749 46.030 o
-4 -10 -11 808.154 781.482 38.495 45.433 o
-4 -10 -10 92.436 104.650 32.434 95.436 o
-4 -10 -9 630.672 635.583 39.949 48.502 o
-4 -10 -8 2390.610 2341.250 72.723 9.595 o
-4 -10 -7 774.006 773.692 41.370 42.009 o
-4 -10 -6 3255.760 3213.630 71.999 6.868 o
-4 -10 -5 544.306 534.733 29.833 78.852 o
-4 -10 -4 2145.330 1972.170 52.615 14.547 o
-4 -10 -3 1239.800 1212.590 40.391 31.284 o
-4 -10 -2 113.675 169.628 20.060 225.539 o
-4 -10 -1 3861.630 3782.950 81.880 5.097 o
-4 -9 -21 388.397 418.156 45.062 45.328 o
-4 -9 -20 9.148 14.010 38.637 69.686 o
-4 -9 -19 991.322 1008.970 94.036 10.403 o
-4 -9 -18 429.548 451.288 36.728 62.842 o
-4 -9 -17 28.923 36.583 20.421 243.337 o
-4 -9 -16 655.617 655.738 39.675 48.241 o
-4 -9 -15 718.478 695.184 38.941 47.697 o
-4 -9 -14 1147.190 1160.370 46.028 28.698 o
-4 -9 -13 480.709 496.648 31.927 75.289 o
-4 -9 -12 334.161 339.132 27.093 110.461 o
-4 -9 -11 1041.650 1034.830 41.468 34.894 o
-4 -9 -10 613.559 612.721 32.468 65.927 o
-4 -9 -9 332.205 322.018 28.357 103.472 o
-4 -9 -8 3691.070 3652.560 74.178 5.728 o
-4 -9 -7 1770.090 1857.300 43.402 19.912 o
-4 -9 -6 2567.730 2525.820 48.549 11.921 o
-4 -9 -5 1377.840 1325.800 36.641 30.914 o
-4 -9 -4 3575.360 3591.700 64.905 6.403 o
-4 -9 -3 2974.810 2886.080 56.050 9.078 o
-4 -9 -2 227.430 245.726 18.884 216.150 o
-4 -9 -1 8351.790 8239.010 128.907 1.338 o
-4 -8 -21 776.941 682.048 99.434 9.828 o
-4 -8 -20 573.274 601.559 61.649 24.328 o
-4 -8 -19 50.999 23.969 23.615 181.860 o
-4 -8 -18 137.774 98.917 27.045 132.476 o
-4 -8 -17 973.011 952.260 45.346 32.837 o
-4 -8 -16 1218.720 1231.430 48.318 25.956 o
-4 -8 -15 588.380 538.324 34.261 63.373 o
-4 -8 -14 27.816 29.644 16.696 360.678 o
-4 -8 -13 1879.400 1781.660 54.947 15.956 o
-4 -8 -12 802.248 810.095 36.573 48.267 o
-4 -8 -11 881.216 918.907 38.310 42.587 o
-4 -8 -10 871.673 920.641 33.879 49.232 o
-4 -8 -9 4805.820 4742.100 78.856 3.831 o
-4 -8 -8 691.965 635.852 26.149 80.388 o
-4 -8 -7 1011.010 955.072 25.878 56.617 o
-4 -8 -6 6605.640 6467.880 86.920 2.257 o
-4 -8 -5 4237.920 4148.000 62.332 5.136 o
-4 -8 -4 104.423 113.274 12.344 524.607 o
-4 -8 -3 1243.110 1235.940 28.420 41.154 o
-4 -8 -2 1968.760 1876.460 39.611 19.279 o
-4 -8 -1 4033.510 4010.000 57.748 5.660 o
-4 -7 -22 450.286 425.607 54.547 31.684 o
-4 -7 -21 79.525 130.231 55.967 32.868 o
-4 -7 -20 288.062 254.400 35.789 72.413 o
-4 -7 -19 1337.160 1334.690 63.783 17.279 o
-4 -7 -18 253.281 229.990 31.999 90.001 o
-4 -7 -17 136.101 71.415 46.308 47.522 o
-4 -7 -16 44.917 26.397 17.314 331.861 o
-4 -7 -15 2866.870 2828.130 126.278 4.380 o
-4 -7 -14 1423.160 1258.450 95.471 9.340 o
-4 -7 -13 818.622 786.104 35.975 49.141 o
-4 -7 -12 1537.870 1535.130 44.306 23.243 o
-4 -7 -11 4223.010 4203.990 80.304 4.547 o
-4 -7 -10 1557.870 1499.350 43.012 23.821 o
-4 -7 -9 1083.250 996.396 30.829 46.327 o
-4 -7 -8 2910.060 2770.360 48.080 10.196 o
-4 -7 -7 6223.340 5884.700 80.005 2.602 o
-4 -7 -6 364.545 361.393 16.198 209.271 o
-4 -7 -5 2521.490 2410.130 40.562 13.514 o
-4 -7 -4 1501.520 1505.300 27.900 32.562 o
-4 -7 -3 3361.040 3295.030 42.380 8.430 o
-4 -7 -2 3227.530 3089.930 40.135 9.259 o
-4 -7 -1 2150.200 2094.390 30.448 18.961 o
-4 -6 -23 353.620 362.686 44.342 47.500 o
-4 -6 -22 282.463 257.107 38.105 64.814 o
-4 -6 -21 715.415 664.142 51.714 31.361 o
-4 -6 -20 261.942 298.081 36.653 69.504 o
-4 -6 -19 228.818 210.578 52.274 36.586 o
-4 -6 -18 806.032 709.346 50.285 31.608 o
-4 -6 -17 1785.920 1872.060 69.265 12.712 o
-4 -6 -16 435.878 413.603 30.606 84.215 o
-4 -6 -15 560.937 651.036 34.633 61.463 o
-4 -6 -14 472.142 487.315 34.317 68.015 o
-4 -6 -13 2384.060 2564.530 88.878 7.563 o
-4 -6 -12 2180.020 2130.020 51.062 14.273 o
-4 -6 -11 376.405 343.269 44.547 46.932 o
-4 -6 -10 5486.470 5416.340 85.191 3.033 o
-4 -6 -9 4011.010 3915.770 66.287 5.445 o
-4 -6 -8 1462.360 1459.530 29.665 32.728 o
-4 -6 -7 1090.720 1094.670 24.083 53.150 o
-4 -6 -6 2989.640 3022.730 41.032 10.098 o
-4 -6 -5 4198.930 4237.800 55.035 5.354 o
-4 -6 -4 9349.480 9169.850 96.073 1.221 o
-4 -6 -3 14286.800 14019.500 138.733 0.536 o
-4 -6 -2 1707.110 1709.570 23.769 28.834 o
-4 -6 -1 1651.260 1656.290 23.100 30.581 o
-4 -5 -23 762.521 821.504 62.473 22.248 o
-4 -5 -22 668.095 700.092 53.840 29.625 o
-4 -5 -21 210.055 186.176 33.895 83.272 o
-4 -5 -20 1312.090 1217.210 119.037 6.521 o
-4 -5 -19 766.623 749.142 48.183 33.958 o
-4 -5 -18 387.338 449.450 38.156 60.072 o
-4 -5 -17 683.317 632.319 40.203 46.987 o
-4 -5 -16 348.122 308.130 30.885 89.670 o
-4 -5 -15 3228.530 3231.880 76.573 6.603 o
-4 -5 -14 274.359 309.065 25.294 129.293 o
-4 -5 -13 1405.520 1410.810 42.783 26.157 o
-4 -5 -12 854.902 847.961 45.797 34.721 o
-4 -5 -11 3150.080 3110.130 62.510 7.838 o
-4 -5 -10 406.219 417.400 32.183 79.132 o
-4 -5 -9 376.347 363.787 15.588 214.008 o
-4 -5 -8 3446.360 3395.700 51.427 7.574 o
-4 -5 -7 3941.380 4007.280 44.808 6.262 o
-4 -5 -6 2399.740 2380.850 29.185 16.003 o
-4 -5 -5 6303.300 6300.610 68.164 2.581 o
-4 -5 -4 1496.110 1524.600 18.654 37.507 o
-4 -5 -3 1466.330 1644.670 22.078 35.013 o
-4 -5 -2 11954.800 11873.600 108.483 0.765 o
-4 -5 -1 8542.650 8659.220 80.393 1.454 o
-4 -4 -24 402.455 400.549 45.509 44.475 o
-4 -4 -23 209.659 275.094 39.809 61.022 o
-4 -4 -22 681.411 768.456 56.506 27.000 o
-4 -4 -21 227.095 291.273 37.300 68.237 o
-4 -4 -20 1670.820 1521.830 73.297 12.796 o
-4 -4 -19 62.566 54.407 36.648 76.317 o
-4 -4 -18 2079.190 2133.410 74.812 10.392 o
-4 -4 -17 1557.890 1501.460 59.665 17.125 o
-4 -4 -16 752.679 739.427 44.887 38.004 o
-4 -4 -15 1619.350 1595.750 58.758 16.820 o
-4 -4 -14 88.549 69.489 18.120 288.010 o
-4 -4 -13 4802.820 4759.940 76.443 3.879 o
-4 -4 -12 255.204 243.972 16.150 260.592 o
-4 -4 -11 4386.390 4241.450 67.461 4.749 o
-4 -4 -10 551.390 545.747 27.392 87.380 o
-4 -4 -9 4413.570 4352.310 61.607 4.822 o
-4 -4 -8 1871.190 1703.510 22.623 26.601 o
-4 -4 -7 68.695 78.307 4.900 1969.710 o
-4 -4 -6 2578.000 2423.850 34.594 13.976 o
-4 -4 -5 3593.110 3710.450 46.283 7.169 o
-4 -4 -4 9906.010 9550.450 106.885 1.088 o
-4 -4 -3 7149.260 7135.670 76.418 2.026 o
-4 -4 -2 3309.090 3445.590 36.596 8.685 o
-4 -4 -1 413.926 477.191 9.400 262.640 o
-4 -3 -24 337.204 320.111 41.929 53.095 o
-4 -3 -23 685.990 726.540 55.738 27.739 o
-4 -3 -22 753.557 746.896 55.065 27.689 o
-4 -3 -21 195.280 222.839 34.131 82.110 o
-4 -3 -20 971.810 1064.120 56.732 23.641 o
-4 -3 -19 42.578 43.738 21.903 210.277 o
-4 -3 -18 1294.720 1259.710 45.320 26.843 o
-4 -3 -17 249.640 265.975 28.083 112.040 o
-4 -3 -16 374.520 345.530 25.136 120.001 o
-4 -3 -15 1396.310 1456.170 44.432 25.098 o
-4 -3 -14 1858.670 1946.440 56.251 15.280 o
-4 -3 -13 6478.520 6541.020 97.436 2.197 o
-4 -3 -12 52.250 46.871 10.909 753.609 o
-4 -3 -11 4003.910 3997.590 69.387 5.285 o
-4 -3 -10 1072.800 1116.310 40.741 34.400 o
-4 -3 -9 1995.930 2042.170 34.176 19.758 o
-4 -3 -8 7288.340 7278.330 76.513 1.958 o
-4 -3 -7 6508.330 6340.320 77.941 2.397 o
-4 -3 -6 5612.310 5849.070 64.368 3.113 o
-4 -3 -5 1084.560 1090.930 22.909 55.026 o
-4 -3 -4 4272.260 4210.660 48.651 5.455 o
-4 -3 -3 2631.750 2626.020 34.046 13.184 o
-4 -3 -2 4341.200 4052.590 43.403 5.612 o
-4 -3 -1 2864.350 2626.120 27.934 12.573 o
-4 -2 -24 97.616 121.177 33.094 91.435 o
-4 -2 -23 182.926 202.112 36.876 71.687 o
-4 -2 -22 333.704 350.546 32.970 80.204 o
-4 -2 -21 455.641 457.010 34.739 67.784 o
-4 -2 -20 1003.610 985.518 44.301 33.156 o
-4 -2 -19 69.442 88.234 18.651 275.494 o
-4 -2 -18 830.254 786.100 37.254 46.782 o
-4 -2 -17 1204.300 1157.040 43.529 29.830 o
-4 -2 -16 1567.010 1597.410 48.815 20.748 o
-4 -2 -15 1899.650 1880.220 51.944 16.352 o
-4 -2 -14 923.721 942.378 34.659 46.337 o
-4 -2 -13 1095.360 1131.050 36.488 37.964 o
-4 -2 -12 6507.790 6465.640 105.381 2.128 o
-4 -2 -11 4555.390 4590.780 79.597 4.082 o
-4 -2 -10 3338.050 3363.210 50.709 7.906 o
-4 -2 -9 129.997 148.020 10.255 623.466 o
-4 -2 -8 6494.160 6603.920 77.861 2.350 o
-4 -2 -7 324.910 370.134 8.527 363.823 o
-4 -2 -6 13133.000 13096.700 138.754 0.616 o
-4 -2 -5 5820.650 5794.090 63.074 3.019 o
-4 -2 -4 7133.380 7574.660 78.544 1.949 o
-4 -2 -3 4790.210 5071.180 52.672 4.235 o
-4 -2 -2 1281.000 1274.250 17.716 48.861 o
-4 -2 -1 6717.110 6787.850 75.589 2.244 o
-4 -1 -24 475.653 576.812 42.662 47.115 o
-4 -1 -23 1143.650 1183.100 52.995 24.052 o
-4 -1 -22 796.267 832.465 45.940 35.480 o
-4 -1 -21 308.422 286.239 29.611 98.733 o
-4 -1 -20 608.659 599.771 37.862 53.459 o
-4 -1 -19 228.987 227.302 25.233 137.431 o
-4 -1 -18 152.745 155.348 20.887 205.024 o
-4 -1 -17 1415.890 1289.570 45.547 25.186 o
-4 -1 -16 4260.550 4265.240 90.486 4.169 o
-4 -1 -15 1164.470 1155.320 50.559 25.471 o
-4 -1 -14 3440.490 3372.570 73.532 6.336 o
-4 -1 -13 4586.320 4422.450 77.858 4.174 o
-4 -1 -12 368.312 345.111 18.193 184.853 o
-4 -1 -11 908.073 929.713 25.078 63.188 o
-4 -1 -10 7312.350 7139.170 92.475 1.877 o
-4 -1 -9 1076.870 1051.190 18.033 62.981 o
-4 -1 -8 2495.550 2489.180 30.001 14.871 o
-4 -1 -7 1655.270 1643.980 21.982 31.081 o
-4 -1 -6 12658.100 12701.700 110.679 0.684 o
-4 -1 -5 3622.610 3947.860 42.351 7.024 o
-4 -1 -4 356.250 381.169 9.491 318.872 o
-4 -1 -3 2384.420 2478.910 28.436 15.866 o
-4 -1 -2 15565.800 16147.700 135.348 0.446 o
-4 -1 -1 11721.200 11855.600 97.342 0.798 o
-3 -17 -4 143.071 129.430 39.774 63.381 o
-3 -17 -3 589.855 588.363 88.354 12.563 o
-3 -17 -2 133.084 212.400 37.454 70.526 o
-3 -17 -1 250.487 283.966 32.337 87.422 o
-3 -16 -9 120.241 150.630 34.505 83.467 o
-3 -16 -8 45.526 26.056 28.637 124.947 o
-3 -16 -7 65.099 60.100 29.941 113.177 o
-3 -16 -6 717.457 692.077 56.110 27.331 o
-3 -16 -5 376.280 377.911 43.753 48.212 o
-3 -16 -4 79.191 116.684 50.569 40.180 o
-3 -16 -3 15.365 65.342 28.628 125.451 o
-3 -16 -2 1201.350 1286.020 54.075 22.557 o
-3 -16 -1 659.601 712.835 43.909 40.937 o
-3 -15 -12 475.448 410.050 44.645 44.909 o
-3 -15 -11 218.826 223.132 93.724 11.718 o
-3 -15 -10 189.370 156.577 34.476 81.702 o
-3 -15 -9 113.652 144.829 58.524 29.965 o
-3 -15 -8 1218.050 1271.660 71.024 15.430 o
-3 -15 -7 444.995 455.144 45.596 43.414 o
-3 -15 -6 19.004 3.792 26.486 147.630 o
-3 -15 -5 69.265 55.611 28.877 121.338 o
-3 -15 -4 1141.460 1118.830 84.945 12.000 o
-3 -15 -3 487.753 522.753 37.658 57.948 o
-3 -15 -2 271.109 277.990 41.135 56.413 o
-3 -15 -1 192.579 171.801 35.405 77.479 o
-3 -14 -14 258.259 261.813 39.461 61.250 o
-3 -14 -13 260.518 299.201 41.166 56.336 o
-3 -14 -12 318.527 276.455 84.917 14.107 o
-3 -14 -11 20.247 16.804 26.571 146.308 o
-3 -14 -10 869.449 749.547 58.240 24.496 o
-3 -14 -9 528.560 535.037 46.400 40.539 o
-3 -14 -8 433.100 419.467 62.217 24.994 o
-3 -14 -7 437.338 491.361 74.433 17.763 o
-3 -14 -6 1942.790 1944.320 85.201 9.380 o
-3 -14 -5 118.781 144.115 37.785 70.238 o
-3 -14 -4 244.465 293.639 30.531 96.672 o
-3 -14 -3 621.198 652.605 39.218 49.866 o
-3 -14 -2 831.412 876.412 56.711 25.366 o
-3 -14 -1 24.102 17.261 18.359 302.366 o
-3 -13 -16 579.586 622.029 52.230 32.298 o
-3 -13 -15 343.747 361.331 41.612 53.363 o
-3 -13 -14 227.162 253.895 64.746 24.143 o
-3 -13 -13 36.507 47.152 27.322 136.950 o
-3 -13 -12 1072.800 986.464 58.630 22.112 o
-3 -13 -11 455.622 384.817 40.886 52.749 o
-3 -13 -10 317.168 307.807 36.640 68.022 o
-3 -13 -9 327.714 288.488 35.358 72.352 o
-3 -13 -8 2368.100 2281.540 118.753 5.340 o
-3 -13 -7 831.840 817.944 51.188 29.954 o
-3 -13 -6 1068.970 1002.500 54.996 24.201 o
-3 -13 -5 1175.480 1203.010 58.431 20.832 o
-3 -13 -4 1570.730 1476.510 64.928 15.458 o
-3 -13 -3 80.112 59.867 26.164 146.035 o
-3 -13 -2 516.525 480.896 33.188 70.025 o
-3 -13 -1 178.190 191.129 24.089 155.475 o
-3 -12 -18 391.905 365.853 35.087 70.170 o
-3 -12 -17 437.087 494.900 46.400 41.967 o
-3 -12 -16 762.159 741.833 54.374 28.206 o
-3 -12 -15 330.721 308.946 37.406 65.254 o
-3 -12 -14 254.237 272.086 36.474 70.636 o
-3 -12 -13 373.654 314.554 76.678 17.079 o
-3 -12 -12 169.669 129.553 58.808 29.524 o
-3 -12 -11 1175.340 1200.450 58.286 20.911 o
-3 -12 -10 630.762 569.133 63.354 22.986 o
-3 -12 -9 773.035 747.437 46.948 35.236 o
-3 -12 -8 328.282 320.966 33.941 77.074 o
-3 -12 -7 725.994 752.830 47.720 34.935 o
-3 -12 -6 2530.020 2620.340 83.823 7.756 o
-3 -12 -5 263.073 256.688 23.960 144.684 o
-3 -12 -4 772.859 736.879 35.219 52.403 o
-3 -12 -3 967.696 966.783 39.668 38.685 o
-3 -12 -2 652.533 621.460 33.546 61.577 o
-3 -12 -1 46.271 34.703 17.139 336.713 o
-3 -11 -19 134.561 157.884 52.650 36.752 o
-3 -11 -18 1377.350 1357.740 55.690 20.212 o
-3 -11 -17 705.220 765.982 45.278 38.017 o
-3 -11 -16 37.149 31.439 20.777 234.479 o
-3 -11 -15 343.242 363.733 35.576 70.045 o
-3 -11 -14 513.545 519.652 36.427 60.355 o
-3 -11 -13 798.750 783.218 40.325 42.916 o
-3 -11 -12 121.730 63.224 23.680 172.529 o
-3 -11 -11 259.303 253.385 31.402 92.290 o
-3 -11 -10 150.676 139.933 46.308 47.128 o
-3 -11 -9 1104.810 1126.970 67.899 17.276 o
-3 -11 -8 2029.380 1963.440 71.564 11.315 o
-3 -11 -7 1457.660 1449.840 58.402 18.299 o
-3 -11 -6 853.707 819.545 46.002 34.714 o
-3 -11 -5 1239.750 1299.430 43.144 28.696 o
-3 -11 -4 3379.840 3329.860 74.840 6.390 o
-3 -11 -3 1274.360 1256.780 42.790 28.763 o
-3 -11 -2 698.442 694.358 34.022 57.722 o
-3 -11 -1 964.337 899.954 37.234 42.382 o
-3 -10 -20 308.082 357.145 42.312 52.402 o
-3 -10 -19 920.680 984.952 59.651 22.520 o
-3 -10 -18 74.740 77.779 25.565 152.412 o
-3 -10 -17 78.875 71.435 27.224 135.066 o
-3 -10 -16 1477.400 1475.290 54.605 19.562 o
-3 -10 -15 918.697 978.097 68.876 17.951 o
-3 -10 -14 161.580 161.347 23.901 160.819 o
-3 -10 -13 80.391 89.905 20.788 223.530 o
-3 -10 -12 92.770 71.956 19.417 252.782 o
-3 -10 -11 1208.510 1173.970 44.605 28.882 o
-3 -10 -10 1006.350 1018.420 54.318 25.073 o
-3 -10 -9 574.583 545.710 33.009 67.171 o
-3 -10 -8 607.259 542.120 110.514 8.210 o
-3 -10 -7 543.558 519.931 37.251 57.512 o
-3 -10 -6 1868.300 1911.830 50.659 16.796 o
-3 -10 -5 3560.800 3498.450 74.463 6.008 o
-3 -10 -4 1846.290 1802.250 49.462 17.643 o
-3 -10 -3 4223.380 4162.040 99.126 3.979 o
-3 -10 -2 1307.990 1260.630 39.594 30.476 o
-3 -10 -1 4429.990 4369.300 89.249 4.022 o
-3 -9 -21 612.533 683.777 54.736 29.329 o
-3 -9 -20 160.826 196.695 33.799 85.024 o
-3 -9 -19 100.795 119.103 29.431 114.308 o
-3 -9 -18 195.479 181.701 28.796 112.718 o
-3 -9 -17 1043.010 1072.410 46.559 30.095 o
-3 -9 -16 425.819 450.002 33.142 74.182 o
-3 -9 -15 125.563 123.911 22.085 191.827 o
-3 -9 -14 295.885 332.661 27.933 107.981 o
-3 -9 -13 3233.670 3137.720 75.389 6.749 o
-3 -9 -12 2041.420 2080.910 58.654 13.519 o
-3 -9 -11 76.316 109.490 34.325 85.873 o
-3 -9 -10 784.839 803.120 33.129 54.975 o
-3 -9 -9 1671.830 1658.690 43.618 21.615 o
-3 -9 -8 1369.200 1332.500 36.973 30.776 o
-3 -9 -7 752.327 734.235 28.010 69.031 o
-3 -9 -6 3122.820 3195.010 51.593 8.607 o
-3 -9 -5 2789.670 2755.070 52.528 10.185 o
-3 -9 -4 700.257 677.452 34.808 56.246 o
-3 -9 -3 2574.020 2638.050 51.008 11.350 o
-3 -9 -2 232.197 266.760 18.411 220.735 o
-3 -9 -1 3915.890 3983.330 71.574 5.323 o
-3 -8 -22 247.877 251.655 39.254 62.136 o
-3 -8 -21 24.075 32.161 53.126 36.825 o
-3 -8 -20 34.614 -4.854 31.535 104.005 o
-3 -8 -19 373.611 401.469 40.257 55.608 o
-3 -8 -18 109.063 55.425 23.680 174.136 o
-3 -8 -17 987.561 995.537 44.349 33.269 o
-3 -8 -16 333.886 382.183 30.660 89.657 o
-3 -8 -15 3667.590 3732.040 85.903 5.174 o
-3 -8 -14 1968.560 2004.690 63.811 12.927 o
-3 -8 -13 350.661 411.727 39.143 58.743 o
-3 -8 -12 1807.960 1863.850 53.942 16.405 o
-3 -8 -11 9027.710 8972.590 130.590 1.174 o
-3 -8 -10 734.826 671.605 26.317 76.266 o
-3 -8 -9 244.190 251.422 17.772 230.969 o
-3 -8 -8 2907.950 2773.590 50.611 9.954 o
-3 -8 -7 4842.180 4777.050 64.164 4.101 o
-3 -8 -6 162.727 174.979 12.948 420.231 o
-3 -8 -5 364.016 387.919 16.859 197.378 o
-3 -8 -4 2102.020 2122.090 35.712 18.110 o
-3 -8 -3 5280.220 5117.780 67.026 3.548 o
-3 -8 -2 261.759 259.316 15.380 272.098 o
-3 -8 -1 1737.350 1681.120 34.526 24.375 o
-3 -7 -23 249.331 249.594 39.423 61.640 o
-3 -7 -22 104.137 96.745 53.126 36.392 o
-3 -7 -21 329.640 312.191 39.207 60.059 o
-3 -7 -20 22.695 27.067 24.522 170.952 o
-3 -7 -19 159.418 180.437 39.774 62.743 o
-3 -7 -18 739.747 739.170 46.852 35.832 o
-3 -7 -17 1215.760 1120.130 54.423 22.909 o
-3 -7 -16 718.763 649.519 51.530 31.579 o
-3 -7 -15 194.337 232.530 24.653 145.909 o
-3 -7 -14 345.443 385.625 28.199 101.580 o
-3 -7 -13 8298.650 8287.780 152.256 1.238 o
-3 -7 -12 926.403 934.752 34.356 46.802 o
-3 -7 -11 798.775 757.049 28.918 64.154 o
-3 -7 -10 2267.040 2187.550 47.323 14.379 o
-3 -7 -9 3209.820 3236.830 54.554 8.120 o
-3 -7 -8 393.983 467.454 20.076 150.237 o
-3 -7 -7 521.261 508.399 17.465 147.350 o
-3 -7 -6 1878.730 1923.930 33.135 21.819 o
-3 -7 -5 4171.120 4075.960 55.481 5.491 o
-3 -7 -4 1029.290 1029.640 22.276 59.780 o
-3 -7 -3 3976.940 3899.050 47.070 6.217 o
-3 -7 -2 2372.100 2289.210 35.958 15.461 o
-3 -7 -1 8835.370 8641.690 87.947 1.375 o
-3 -6 -23 2040.190 2165.830 87.767 8.632 o
-3 -6 -22 558.232 517.810 47.915 38.160 o
-3 -6 -21 195.271 216.333 53.410 35.277 o
-3 -6 -20 181.594 191.197 37.217 70.607 o
-3 -6 -19 664.005 657.363 46.875 37.328 o
-3 -6 -18 284.077 328.025 48.552 41.144 o
-3 -6 -17 37.875 32.008 19.312 269.973 o
-3 -6 -16 331.358 399.673 30.157 91.767 o
-3 -6 -15 5066.430 5039.090 104.313 3.045 o
-3 -6 -14 1248.790 1179.950 42.566 29.779 o
-3 -6 -13 8.706 1.714 13.368 576.483 o
-3 -6 -12 2457.190 2555.730 53.046 11.703 o
-3 -6 -11 2789.960 2753.980 53.824 10.051 o
-3 -6 -10 729.052 683.551 25.123 79.838 o
-3 -6 -9 119.862 135.540 12.838 472.356 o
-3 -6 -8 781.878 830.020 24.449 74.013 o
-3 -6 -7 899.474 936.193 21.437 70.735 o
-3 -6 -6 628.011 612.629 15.816 131.810 o
-3 -6 -5 8977.080 9176.120 87.402 1.305 o
-3 -6 -4 4697.360 4666.340 48.211 4.632 o
-3 -6 -3 3298.920 3248.430 35.646 9.063 o
-3 -6 -2 1482.280 1415.550 21.971 37.442 o
-3 -6 -1 11343.400 11769.500 106.776 0.821 o
-3 -5 -24 334.994 348.653 44.213 48.099 o
-3 -5 -23 200.153 226.149 37.520 68.794 o
-3 -5 -22 1101.460 1300.590 74.718 14.616 o
-3 -5 -21 565.275 613.996 48.570 36.673 o
-3 -5 -20 662.604 666.738 47.821 36.128 o
-3 -5 -19 48.593 49.645 21.521 216.430 o
-3 -5 -18 696.969 696.418 44.040 40.292 o
-3 -5 -17 1504.220 1466.990 59.415 17.608 o
-3 -5 -16 67.508 125.456 23.106 182.996 o
-3 -5 -15 606.393 647.279 33.678 62.401 o
-3 -5 -14 2429.700 2448.750 63.542 10.543 o
-3 -5 -13 6768.030 6836.900 112.988 1.927 o
-3 -5 -12 482.739 514.504 23.817 110.746 o
-3 -5 -11 1072.880 1047.180 30.407 46.420 o
-3 -5 -10 129.843 145.062 13.919 408.635 o
-3 -5 -9 738.360 752.109 24.247 79.686 o
-3 -5 -8 3453.970 3495.210 50.995 7.470 o
-3 -5 -7 949.739 976.263 18.931 71.266 o
-3 -5 -6 2537.090 2630.580 30.268 14.141 o
-3 -5 -5 3279.060 3288.590 35.027 9.097 o
-3 -5 -4 8723.340 8549.340 80.404 1.429 o
-3 -5 -3 12974.400 13018.000 122.499 0.643 o
-3 -5 -2 6998.010 7278.420 73.877 2.068 o
-3 -5 -1 4512.570 4589.120 48.811 4.882 o
-3 -4 -24 634.094 685.860 55.002 28.916 o
-3 -4 -23 326.181 414.157 45.001 46.281 o
-3 -4 -22 637.987 665.319 52.714 31.094 o
-3 -4 -21 149.203 141.644 36.933 72.814 o
-3 -4 -20 707.042 647.799 70.456 18.628 o
-3 -4 -19 123.030 105.777 30.398 106.884 o
-3 -4 -18 356.480 358.871 34.787 72.416 o
-3 -4 -17 17.130 33.015 42.331 57.942 o
-3 -4 -16 2296.700 2262.420 72.977 9.908 o
-3 -4 -15 8130.540 7925.590 177.086 1.170 o
-3 -4 -14 360.292 375.444 24.055 127.746 o
-3 -4 -13 5970.570 5959.560 89.057 2.601 o
-3 -4 -12 1339.240 1361.120 30.877 35.380 o
-3 -4 -11 5165.510 5187.240 72.133 3.522 o
-3 -4 -10 1453.350 1533.560 30.368 31.780 o
-3 -4 -9 2837.670 2851.240 41.209 10.972 o
-3 -4 -8 1947.620 1984.610 26.957 22.443 o
-3 -4 -7 12832.000 12986.800 131.888 0.643 o
-3 -4 -6 4781.460 4869.260 56.927 4.262 o
-3 -4 -5 6718.630 6607.170 72.042 2.305 o
-3 -4 -4 7449.410 8163.640 86.832 1.733 o
-3 -4 -3 5859.710 5837.810 62.071 2.994 o
-3 -4 -2 9609.940 9954.770 100.695 1.115 o
-3 -4 -1 3863.290 3632.110 42.520 6.846 o
-3 -3 -25 405.602 410.112 46.550 42.634 o
-3 -3 -24 239.617 234.947 56.791 31.091 o
-3 -3 -23 317.395 282.055 40.153 58.080 o
-3 -3 -22 858.753 779.963 54.584 27.087 o
-3 -3 -21 4.281 -20.019 21.331 228.706 o
-3 -3 -20 599.318 593.209 46.010 39.764 o
-3 -3 -19 6.893 1.887 19.545 271.725 o
-3 -3 -18 553.812 522.334 31.939 71.653 o
-3 -3 -17 1417.480 1427.260 46.207 24.094 o
-3 -3 -16 1692.950 1727.620 50.450 18.670 o
-3 -3 -15 3754.210 3680.440 100.814 4.494 o
-3 -3 -14 3184.300 3213.010 64.562 7.507 o
-3 -3 -13 5195.780 5089.720 77.814 3.436 o
-3 -3 -12 2341.160 2354.830 41.752 14.483 o
-3 -3 -11 2608.310 2565.270 42.447 12.442 o
-3 -3 -10 417.127 424.037 15.556 195.260 o
-3 -3 -9 8145.690 8264.380 90.297 1.542 o
-3 -3 -8 9605.330 9744.650 101.155 1.129 o
-3 -3 -7 205.865 189.668 10.760 477.846 o
-3 -3 -6 7536.180 7516.050 79.753 1.833 o
-3 -3 -5 13009.800 13055.100 139.657 0.623 o
-3 -3 -4 14086.000 14968.800 143.661 0.520 o
-3 -3 -3 8393.590 8753.350 103.554 1.391 o
-3 -3 -2 4042.640 4169.720 54.956 5.626 o
-3 -3 -1 1480.820 1348.650 25.951 35.825 o
-3 -2 -25 399.686 432.923 47.021 41.816 o
-3 -2 -24 785.333 760.719 58.114 25.108 o
-3 -2 -23 281.511 234.484 37.099 68.301 o
-3 -2 -22 486.128 487.395 53.690 32.099 o
-3 -2 -21 481.666 479.825 44.674 44.269 o
-3 -2 -20 595.383 608.650 37.074 55.362 o
-3 -2 -19 177.486 148.773 21.465 192.431 o
-3 -2 -18 1007.520 1015.190 40.621 36.486 o
-3 -2 -17 936.528 873.740 37.378 43.109 o
-3 -2 -16 2071.890 2067.910 66.659 11.880 o
-3 -2 -15 4008.390 3930.970 102.327 4.130 o
-3 -2 -14 4572.080 4642.620 82.396 3.976 o
-3 -2 -13 1576.850 1628.160 39.725 24.410 o
-3 -2 -12 706.178 728.474 22.217 89.268 o
-3 -2 -11 265.042 258.095 13.574 313.748 o
-3 -2 -10 4496.130 4645.880 63.146 4.529 o
-3 -2 -9 2009.800 1942.950 28.634 21.540 o
-3 -2 -8 3730.290 3553.580 43.149 7.181 o
-3 -2 -7 5743.930 6113.240 66.727 2.931 o
-3 -2 -6 29343.100 29460.400 294.673 0.126 o
-3 -2 -5 3330.780 3376.370 44.267 8.292 o
-3 -2 -4 7783.350 7856.840 105.827 1.593 o
-3 -2 -3 3578.790 4075.020 61.353 6.169 o
-3 -2 -2 5979.720 5907.020 78.723 2.727 o
-3 -2 -1 4279.270 4830.690 54.851 4.876 o
-3 -1 -25 344.567 377.981 44.017 48.149 o
-3 -1 -24 942.697 1012.840 50.401 28.495 o
-3 -1 -23 287.788 281.548 46.929 44.024 o
-3 -1 -22 672.752 652.448 48.264 35.567 o
-3 -1 -21 359.767 351.651 43.647 48.851 o
-3 -1 -20 131.944 172.572 24.203 159.618 o
-3 -1 -19 931.488 959.861 41.224 37.649 o
-3 -1 -18 4562.560 4697.130 99.097 3.552 o
-3 -1 -17 885.004 949.834 39.084 41.177 o
-3 -1 -16 3300.000 3273.150 74.934 6.557 o
-3 -1 -15 2020.110 2034.160 62.469 12.934 o
-3 -1 -14 2144.830 2162.920 48.480 14.899 o
-3 -1 -13 109.428 120.119 15.148 374.007 o
-3 -1 -12 2089.960 2146.090 39.597 17.235 o
-3 -1 -11 491.231 530.901 17.931 147.063 o
-3 -1 -10 1141.620 1135.850 23.477 51.131 o
-3 -1 -9 804.901 916.703 17.946 86.197 o
-3 -1 -8 7492.320 7598.280 77.085 1.847 o
-3 -1 -7 7133.870 7450.450 75.088 1.988 o
-3 -1 -6 5356.700 5702.480 57.979 3.412 o
-3 -1 -5 4785.530 4970.280 50.714 4.326 o
-3 -1 -4 47040.500 46955.000 489.391 0.049 o
-3 -1 -3 23859.000 23419.600 220.675 0.196 o
-3 -1 -2 3076.260 2643.230 32.006 11.214 o
-3 -1 -1 3881.230 3608.590 40.441 6.912 o
-2 -17 -6 241.991 290.184 41.415 56.081 o
-2 -17 -5 404.719 456.480 56.535 29.874 o
-2 -17 -4 287.750 276.556 40.505 57.752 o
-2 -17 -3 33.016 91.639 58.524 30.271 o
-2 -17 -2 535.211 602.205 69.036 19.982 o
-2 -17 -1 689.881 694.998 45.387 38.614 o
-2 -16 -10 53.090 24.718 27.222 137.674 o
-2 -16 -9 23.206 -22.651 24.706 169.342 o
-2 -16 -8 484.951 539.484 81.252 14.925 o
-2 -16 -7 103.969 145.579 35.796 78.218 o
-2 -16 -6 39.963 61.249 29.072 120.832 o
-2 -16 -5 21.710 75.645 46.592 47.716 o
-2 -16 -4 1072.770 1039.610 100.286 9.170 o
-2 -16 -3 958.317 1069.870 80.683 13.565 o
-2 -16 -2 106.173 128.825 25.080 153.640 o
-2 -16 -1 414.696 508.382 49.574 37.540 o
-2 -15 -13 140.627 107.061 69.604 21.271 o
-2 -15 -12 202.350 202.331 46.876 45.323 o
-2 -15 -11 13.038 -8.379 25.073 165.097 o
-2 -15 -10 489.625 428.478 45.311 43.461 o
-2 -15 -9 341.425 319.614 50.257 38.142 o
-2 -15 -8 255.257 247.865 59.632 28.215 o
-2 -15 -7 179.462 182.155 34.769 80.346 o
-2 -15 -6 1287.560 1224.680 64.787 17.418 o
-2 -15 -5 62.202 55.710 28.533 124.503 o
-2 -15 -4 28.438 -7.923 24.993 165.171 o
-2 -15 -3 26.339 39.538 19.866 256.894 o
-2 -15 -2 1931.190 1944.790 62.603 13.455 o
-2 -15 -1 136.899 188.259 26.139 137.972 o
-2 -14 -15 244.437 227.864 63.325 25.192 o
-2 -14 -14 164.472 141.198 32.669 91.359 o
-2 -14 -13 40.301 32.712 25.930 151.930 o
-2 -14 -12 709.031 673.799 53.103 30.060 o
-2 -14 -11 391.933 330.812 55.370 31.512 o
-2 -14 -10 708.011 688.779 100.570 9.683 o
-2 -14 -9 466.872 421.118 42.849 48.219 o
-2 -14 -8 2431.170 2567.060 90.296 7.350 o
-2 -14 -7 611.105 621.369 48.163 36.605 o
-2 -14 -6 431.859 492.290 50.001 36.887 o
-2 -14 -5 26.754 16.229 30.683 109.804 o
-2 -14 -4 2038.520 2015.250 92.871 8.142 o
-2 -14 -3 207.681 212.209 26.085 132.196 o
-2 -14 -2 69.816 71.963 21.917 205.036 o
-2 -14 -1 185.959 203.680 25.509 139.547 o
-2 -13 -17 47.643 81.226 42.331 57.465 o
-2 -13 -16 429.652 452.516 45.454 43.871 o
-2 -13 -15 386.567 372.567 41.164 53.528 o
-2 -13 -14 950.987 996.842 128.980 5.874 o
-2 -13 -13 104.889 138.483 30.377 107.095 o
-2 -13 -12 530.581 586.190 47.970 38.009 o
-2 -13 -11 389.629 494.344 44.051 46.601 o
-2 -13 -10 1960.500 2040.950 77.904 10.336 o
-2 -13 -9 368.417 350.369 37.933 62.308 o
-2 -13 -8 1104.990 1246.660 66.195 17.680 o
-2 -13 -7 1368.740 1496.410 64.461 16.495 o
-2 -13 -6 3111.610 3085.460 124.690 4.213 o
-2 -13 -5 96.015 107.212 27.168 133.611 o
-2 -13 -4 355.797 372.699 28.642 98.916 o
-2 -13 -3 552.548 536.049 33.222 67.557 o
-2 -13 -2 762.988 776.660 38.091 47.155 o
-2 -13 -1 23.761 21.649 17.268 340.249 o
-2 -12 -18 1126.430 1304.340 55.911 22.092 o
-2 -12 -17 252.805 256.175 49.520 40.213 o
-2 -12 -16 299.157 346.604 40.199 57.701 o
-2 -12 -15 362.039 338.624 38.772 60.269 o
-2 -12 -14 562.874 583.538 64.774 22.356 o
-2 -12 -13 453.911 463.487 42.515 48.724 o
-2 -12 -12 448.307 438.021 40.617 52.962 o
-2 -12 -11 171.616 166.285 29.431 109.941 o
-2 -12 -10 375.227 380.161 37.233 63.781 o
-2 -12 -9 1520.410 1391.910 60.341 17.401 o
-2 -12 -8 1920.710 1874.140 69.624 12.170 o
-2 -12 -7 236.239 252.537 46.563 45.342 o
-2 -12 -6 161.542 146.363 27.013 129.736 o
-2 -12 -5 1324.040 1361.920 45.549 25.794 o
-2 -12 -4 3916.270 3763.230 82.387 5.026 o
-2 -12 -3 309.221 365.206 27.763 107.104 o
-2 -12 -2 817.353 835.796 43.254 38.258 o
-2 -12 -1 344.174 319.443 26.977 111.189 o
-2 -11 -20 989.836 1132.780 64.787 19.092 o
-2 -11 -19 678.214 699.443 47.529 36.082 o
-2 -11 -18 85.044 101.356 26.198 144.019 o
-2 -11 -17 246.586 251.516 29.004 106.620 o
-2 -11 -16 1007.850 1071.870 63.164 19.912 o
-2 -11 -15 982.601 1033.270 46.066 31.519 o
-2 -11 -14 174.588 185.251 24.604 150.484 o
-2 -11 -13 51.615 55.383 18.083 300.208 o
-2 -11 -12 292.575 292.033 41.360 55.389 o
-2 -11 -11 562.342 527.494 40.358 50.297 o
-2 -11 -10 825.491 821.673 46.957 34.067 o
-2 -11 -9 20.024 13.968 19.291 275.487 o
-2 -11 -8 60.225 45.876 22.113 204.290 o
-2 -11 -7 2263.200 2140.090 78.411 9.407 o
-2 -11 -6 2999.670 2954.380 88.378 6.372 o
-2 -11 -5 2227.100 2257.560 52.750 13.401 o
-2 -11 -4 163.135 182.195 18.603 243.512 o
-2 -11 -3 2134.100 2200.970 52.893 13.963 o
-2 -11 -2 5944.050 5850.960 102.068 2.482 o
-2 -11 -1 685.386 708.184 33.885 58.223 o
-2 -10 -21 677.175 647.478 56.251 27.672 o
-2 -10 -20 259.977 316.090 40.854 56.993 o
-2 -10 -19 166.652 198.135 47.728 44.098 o
-2 -10 -18 337.621 400.258 56.712 30.252 o
-2 -10 -17 1384.280 1603.230 57.101 18.773 o
-2 -10 -16 76.993 107.401 22.624 190.299 o
-2 -10 -15 83.951 117.451 21.990 199.138 o
-2 -10 -14 306.446 349.045 40.098 57.800 o
-2 -10 -13 1328.120 1322.320 46.727 25.284 o
-2 -10 -12 1631.750 1652.280 51.876 18.883 o
-2 -10 -11 268.195 256.051 24.982 134.853 o
-2 -10 -10 1116.030 1154.160 41.708 32.558 o
-2 -10 -9 797.519 756.409 32.169 57.225 o
-2 -10 -8 1195.110 1173.100 40.282 32.367 o
-2 -10 -7 2760.320 2598.410 62.123 9.497 o
-2 -10 -6 1057.310 1055.900 31.383 45.520 o
-2 -10 -5 1871.410 1817.260 41.622 19.781 o
-2 -10 -4 1074.080 1095.390 32.069 43.692 o
-2 -10 -3 3161.830 3143.970 58.550 8.063 o
-2 -10 -2 1195.960 1147.590 33.051 39.011 o
-2 -10 -1 2054.690 2064.010 40.447 17.610 o
-2 -9 -22 177.939 230.280 85.485 14.081 o
-2 -9 -21 154.333 189.066 34.918 80.271 o
-2 -9 -20 41.007 -9.871 23.017 193.226 o
-2 -9 -19 688.032 737.819 53.380 29.711 o
-2 -9 -18 96.607 127.807 27.745 127.805 o
-2 -9 -17 284.166 297.892 32.045 87.196 o
-2 -9 -16 256.697 274.088 31.644 90.743 o
-2 -9 -15 2515.000 2527.410 87.989 7.464 o
-2 -9 -14 657.359 642.971 46.834 37.560 o
-2 -9 -13 307.221 308.487 29.052 101.336 o
-2 -9 -12 910.517 939.281 39.524 40.223 o
-2 -9 -11 2281.470 2236.780 58.769 12.162 o
-2 -9 -10 2405.680 2368.160 51.523 12.537 o
-2 -9 -9 1187.000 1134.430 34.244 38.209 o
-2 -9 -8 2131.660 1971.350 44.470 16.444 o
-2 -9 -7 2425.220 2415.700 49.473 12.658 o
-2 -9 -6 419.648 418.597 20.921 142.925 o
-2 -9 -5 5643.650 5548.560 84.587 2.919 o
-2 -9 -4 1803.700 1840.740 39.460 20.991 o
-2 -9 -3 3130.240 3154.270 55.299 8.367 o
-2 -9 -2 720.162 735.762 23.026 85.262 o
-2 -9 -1 2169.290 2118.960 43.335 15.961 o
-2 -8 -22 0.698 -7.888 24.159 178.638 o
-2 -8 -21 632.497 636.214 51.983 32.005 o
-2 -8 -20 182.711 130.907 33.523 86.659 o
-2 -8 -19 3.961 21.696 22.113 211.792 o
-2 -8 -18 13.316 17.498 21.753 218.002 o
-2 -8 -17 1526.710 1518.690 53.261 19.593 o
-2 -8 -16 610.621 624.661 35.684 57.814 o
-2 -8 -15 224.529 224.680 24.214 147.783 o
-2 -8 -14 153.228 167.959 22.025 186.146 o
-2 -8 -13 8306.910 8294.870 152.240 1.236 o
-2 -8 -12 482.246 490.525 28.540 88.439 o
-2 -8 -11 1128.000 1073.380 39.940 34.573 o
-2 -8 -10 699.225 712.582 28.268 71.507 o
-2 -8 -9 5990.280 6009.390 87.147 2.602 o
-2 -8 -8 124.767 121.472 18.507 262.239 o
-2 -8 -7 3563.700 3614.020 58.462 6.733 o
-2 -8 -6 205.270 205.715 13.080 376.569 o
-2 -8 -5 6604.670 6614.960 79.758 2.288 o
-2 -8 -4 3071.710 3090.260 45.581 9.357 o
-2 -8 -3 2043.960 2066.570 34.520 19.122 o
-2 -8 -2 1144.130 1186.190 25.474 47.849 o
-2 -8 -1 5497.400 5647.080 69.853 3.178 o
-2 -7 -23 1149.770 1227.110 182.646 2.986 o
-2 -7 -22 154.909 155.899 45.456 48.744 o
-2 -7 -21 210.812 178.211 41.478 57.223 o
-2 -7 -20 43.256 45.933 33.807 89.933 o
-2 -7 -19 609.583 753.340 97.445 10.340 o
-2 -7 -18 421.571 386.837 75.002 17.654 o
-2 -7 -17 98.508 132.194 25.718 147.076 o
-2 -7 -16 626.494 706.777 36.377 54.673 o
-2 -7 -15 5771.710 5760.960 114.390 2.414 o
-2 -7 -14 353.480 350.177 46.271 44.071 o
-2 -7 -13 203.780 212.149 20.749 194.146 o
-2 -7 -12 737.757 743.851 30.079 64.353 o
-2 -7 -11 10638.700 10547.000 145.894 0.868 o
-2 -7 -10 1486.460 1548.420 37.769 26.994 o
-2 -7 -9 851.313 832.205 26.072 66.320 o
-2 -7 -8 289.115 327.677 27.354 112.317 o
-2 -7 -7 3401.750 3519.750 48.512 7.697 o
-2 -7 -6 153.689 161.660 11.206 522.329 o
-2 -7 -5 2750.750 2740.460 38.145 11.877 o
-2 -7 -4 3807.410 3897.700 47.258 6.516 o
-2 -7 -3 11200.800 11238.600 110.340 0.852 o
-2 -7 -2 3872.830 3945.100 45.022 6.434 o
-2 -7 -1 5840.380 6067.510 61.450 2.945 o
-2 -6 -24 66.779 147.220 36.648 75.439 o
-2 -6 -23 286.479 297.207 51.677 36.712 o
-2 -6 -22 83.765 154.838 32.794 92.960 o
-2 -6 -21 1450.890 1543.760 70.395 14.248 o
-2 -6 -20 88.600 52.803 23.439 179.640 o
-2 -6 -19 586.313 588.490 45.537 40.648 o
-2 -6 -18 173.261 169.465 27.539 123.834 o
-2 -6 -17 2377.570 2398.370 88.638 7.735 o
-2 -6 -16 637.746 637.474 55.967 28.232 o
-2 -6 -15 157.690 121.561 19.986 223.255 o
-2 -6 -14 3390.750 3228.590 66.816 6.941 o
-2 -6 -13 9284.650 9022.520 141.519 1.101 o
-2 -6 -12 660.280 691.260 28.834 72.373 o
-2 -6 -11 83.298 113.179 15.274 382.733 o
-2 -6 -10 5.487 14.275 10.124 989.198 o
-2 -6 -9 2899.950 2993.530 53.401 9.376 o
-2 -6 -8 3485.110 3516.850 55.284 7.147 o
-2 -6 -7 1847.730 1823.090 31.439 23.278 o
-2 -6 -6 173.981 186.043 9.920 560.625 o
-2 -6 -5 7596.340 7989.960 73.526 1.780 o
-2 -6 -4 440.574 465.418 12.027 222.629 o
-2 -6 -3 6202.580 6035.150 60.382 2.765 o
-2 -6 -2 4141.370 4217.500 45.806 5.726 o
-2 -6 -1 15012.300 15499.300 139.356 0.475 o
-2 -5 -24 587.204 656.409 55.155 29.249 o
-2 -5 -23 1615.350 1776.660 79.233 11.329 o
-2 -5 -22 400.342 385.383 42.563 50.167 o
-2 -5 -21 219.656 235.950 35.002 77.546 o
-2 -5 -20 236.360 261.709 34.369 79.278 o
-2 -5 -19 992.903 1049.840 54.325 25.050 o
-2 -5 -18 360.616 356.955 34.981 71.643 o
-2 -5 -17 256.048 275.617 32.359 87.266 o
-2 -5 -16 1786.090 1796.670 64.131 14.028 o
-2 -5 -15 4559.430 4556.990 84.782 3.961 o
-2 -5 -14 143.146 137.020 17.860 271.583 o
-2 -5 -13 23.468 32.739 13.756 524.354 o
-2 -5 -12 2899.960 2956.940 56.720 9.129 o
-2 -5 -11 3104.080 3067.720 56.649 8.441 o
-2 -5 -10 1530.200 1490.960 34.871 28.325 o
-2 -5 -9 1253.030 1180.790 28.978 41.098 o
-2 -5 -8 2471.260 2467.490 33.249 14.664 o
-2 -5 -7 2178.330 2176.340 29.645 18.505 o
-2 -5 -6 4003.010 4062.000 45.504 6.085 o
-2 -5 -5 3436.270 3251.150 37.630 8.544 o
-2 -5 -4 2465.470 2568.590 33.311 14.381 o
-2 -5 -3 14609.000 14668.000 137.516 0.509 o
-2 -5 -2 8723.820 8552.450 83.144 1.420 o
-2 -5 -1 16162.700 15954.400 137.781 0.428 o
-2 -4 -25 1006.610 1029.680 66.610 18.446 o
-2 -4 -24 849.177 953.936 63.469 20.893 o
-2 -4 -23 238.483 276.768 39.541 61.251 o
-2 -4 -22 985.688 927.837 98.837 9.578 o
-2 -4 -21 340.358 359.157 39.992 57.322 o
-2 -4 -20 315.691 339.412 36.441 68.296 o
-2 -4 -19 365.587 348.244 34.660 72.739 o
-2 -4 -18 596.659 571.607 42.178 45.886 o
-2 -4 -17 3858.670 3636.070 103.063 4.339 o
-2 -4 -16 345.136 313.544 27.421 108.532 o
-2 -4 -15 842.542 864.327 38.933 43.146 o
-2 -4 -14 4338.100 4415.220 71.411 4.593 o
-2 -4 -13 5607.840 5586.820 82.996 2.950 o
-2 -4 -12 766.871 766.180 25.961 72.768 o
-2 -4 -11 530.748 541.933 18.901 133.439 o
-2 -4 -10 338.283 399.356 16.165 211.701 o
-2 -4 -9 6021.360 6126.500 70.864 2.735 o
-2 -4 -8 5880.150 6090.810 70.728 2.819 o
-2 -4 -7 5000.080 4992.040 54.228 4.045 o
-2 -4 -6 2787.700 2836.450 33.145 11.974 o
-2 -4 -5 16416.200 16577.700 146.861 0.406 o
-2 -4 -4 8591.640 9113.960 88.148 1.376 o
-2 -4 -3 11469.200 12074.800 115.119 0.787 o
-2 -4 -2 11800.700 11949.500 117.870 0.762 o
-2 -4 -1 4181.620 4179.960 46.777 5.665 o
-2 -3 -25 77.101 96.147 37.501 72.390 o
-2 -3 -24 695.309 660.264 54.745 28.762 o
-2 -3 -23 200.606 270.900 98.269 10.668 o
-2 -3 -22 279.905 251.281 37.757 66.018 o
-2 -3 -21 114.244 122.420 28.689 119.252 o
-2 -3 -20 423.799 351.534 65.030 23.173 o
-2 -3 -19 761.687 742.218 36.142 50.953 o
-2 -3 -18 442.235 423.066 29.319 89.200 o
-2 -3 -17 1312.310 1244.550 41.889 28.947 o
-2 -3 -16 857.331 785.176 31.467 55.998 o
-2 -3 -15 3555.690 3376.270 60.824 6.845 o
-2 -3 -14 4171.970 4138.770 69.463 4.991 o
-2 -3 -13 883.523 923.740 27.361 60.083 o
-2 -3 -12 3342.250 3324.330 51.466 7.896 o
-2 -3 -11 3450.420 3470.270 52.642 7.415 o
-2 -3 -10 5829.970 5846.600 68.032 2.943 o
-2 -3 -9 3535.980 3693.830 43.046 7.462 o
-2 -3 -8 355.517 353.883 12.221 276.461 o
-2 -3 -7 8617.650 9072.660 93.033 1.359 o
-2 -3 -6 20178.700 20559.100 185.916 0.267 o
-2 -3 -5 3338.460 3515.530 49.480 7.796 o
-2 -3 -4 3318.610 3510.800 44.233 8.151 o
-2 -3 -3 800.693 1022.980 20.963 75.255 o
-2 -3 -2 5211.370 5707.270 70.415 3.336 o
-2 -3 -1 3312.710 3392.740 39.398 8.598 o
-2 -2 -25 252.994 291.192 41.199 56.439 o
-2 -2 -24 106.733 76.123 29.524 114.294 o
-2 -2 -23 70.605 83.506 25.852 149.278 o
-2 -2 -22 539.439 568.916 38.911 53.292 o
-2 -2 -21 125.252 130.677 23.148 175.904 o
-2 -2 -20 667.931 689.710 36.842 52.841 o
-2 -2 -19 851.504 906.884 67.045 19.197 o
-2 -2 -18 548.420 594.770 33.702 65.284 o
-2 -2 -17 3100.390 3093.200 65.991 7.705 o
-2 -2 -16 5118.460 5021.820 90.923 3.270 o
-2 -2 -15 1228.310 1175.310 33.095 37.936 o
-2 -2 -14 3054.480 3116.400 66.317 7.754 o
-2 -2 -13 1474.200 1474.810 31.508 31.263 o
-2 -2 -12 8633.620 8500.760 98.872 1.388 o
-2 -2 -11 608.881 614.854 20.068 112.484 o
-2 -2 -10 5179.160 5129.250 57.155 3.781 o
-2 -2 -9 1981.030 2046.380 29.174 21.155 o
-2 -2 -8 16362.700 16255.300 173.077 0.399 o
-2 -2 -7 9282.650 9773.650 106.914 1.157 o
-2 -2 -6 10470.400 10637.700 114.337 0.944 o
-2 -2 -5 4831.620 5042.340 58.526 4.100 o
-2 -2 -4 27171.200 26581.100 259.811 0.151 o
-2 -2 -3 16175.500 16735.700 169.980 0.400 o
-2 -2 -2 10947.800 11509.500 118.137 0.850 o
-2 -2 -1 2345.650 2559.870 34.937 14.920 o
-2 -1 -25 108.827 97.186 25.470 150.303 o
-2 -1 -24 1135.970 1189.330 53.143 24.004 o
-2 -1 -23 269.536 280.676 31.295 91.817 o
-2 -1 -22 345.649 345.083 31.965 84.054 o
-2 -1 -21 803.310 753.226 41.261 41.803 o
-2 -1 -20 2661.280 2662.380 71.419 8.687 o
-2 -1 -19 379.640 399.990 30.005 90.013 o
-2 -1 -18 1899.520 1908.810 59.547 14.367 o
-2 -1 -17 736.736 849.513 62.558 22.259 o
-2 -1 -16 5037.060 4995.300 91.300 3.321 o
-2 -1 -15 370.707 388.516 20.090 159.886 o
-2 -1 -14 7403.240 7434.270 97.779 1.780 o
-2 -1 -13 114.893 110.416 11.394 581.206 o
-2 -1 -12 2170.820 2194.090 35.855 17.249 o
-2 -1 -11 2702.460 2591.130 35.916 12.699 o
-2 -1 -10 2778.430 2848.370 37.583 11.572 o
-2 -1 -9 1032.650 1053.050 19.606 63.063 o
-2 -1 -8 4264.650 4192.310 49.754 5.448 o
-2 -1 -7 179.640 150.061 8.553 670.526 o
-2 -1 -6 54014.300 52865.900 563.074 0.038 o
-2 -1 -5 20599.700 21293.900 236.081 0.242 o
-2 -1 -4 4016.410 3892.850 46.424 6.176 o
-2 -1 -3 2217.500 2259.910 26.545 18.357 o
-2 -1 -2 25484.300 24754.900 265.450 0.169 o
-2 -1 -1 1258.710 1333.320 17.139 49.045 o
-1 -17 -7 243.882 335.725 43.525 50.828 o
-1 -17 -6 410.266 407.060 46.199 43.171 o
-1 -17 -5 177.555 224.070 82.360 15.158 o
-1 -17 -4 717.392 798.513 60.027 24.106 o
-1 -17 -3 310.444 381.132 130.656 6.036 o
-1 -17 -2 15.562 20.359 27.312 138.680 o
-1 -17 -1 145.567 209.357 41.043 59.089 o
-1 -16 -11 11.606 15.501 27.011 142.066 o
-1 -16 -10 146.221 118.783 33.402 88.502 o
-1 -16 -9 41.320 24.573 51.990 38.397 o
-1 -16 -8 204.685 210.463 42.046 55.635 o
-1 -16 -7 102.182 130.082 32.354 95.211 o
-1 -16 -6 1113.810 1108.220 90.059 10.936 o
-1 -16 -5 16.871 35.932 27.409 137.289 o
-1 -16 -4 15.894 17.840 36.933 76.132 o
-1 -16 -3 175.704 239.540 37.163 70.413 o
-1 -16 -2 2236.610 2224.310 68.844 10.730 o
-1 -16 -1 94.668 127.352 25.127 154.090 o
-1 -15 -13 6.662 -8.196 32.387 99.284 o
-1 -15 -12 461.615 447.785 45.708 43.060 o
-1 -15 -11 129.820 94.651 49.433 41.788 o
-1 -15 -10 212.494 215.779 36.860 70.936 o
-1 -15 -9 189.092 208.302 48.012 43.378 o
-1 -15 -8 762.947 746.502 57.956 25.418 o
-1 -15 -7 41.770 2.587 25.664 155.860 o
-1 -15 -6 125.681 91.835 29.741 111.580 o
-1 -15 -5 328.575 360.011 99.974 10.217 o
-1 -15 -4 2115.990 2155.090 82.802 9.133 o
-1 -15 -3 279.035 306.022 30.412 95.378 o
-1 -15 -2 218.021 192.693 26.312 130.189 o
-1 -15 -1 169.124 221.266 26.656 129.771 o
-1 -14 -15 264.485 253.866 76.962 17.182 o
-1 -14 -14 1200.140 1184.780 65.204 17.772 o
-1 -14 -13 82.616 57.156 27.643 131.330 o
-1 -14 -12 542.043 561.528 49.822 35.666 o
-1 -14 -11 119.497 168.220 33.172 89.729 o
-1 -14 -10 1829.110 1908.880 116.167 6.119 o
-1 -14 -9 25.651 15.300 57.956 30.976 o
-1 -14 -8 640.079 660.174 51.856 31.953 o
-1 -14 -7 184.860 155.838 31.517 96.647 o
-1 -14 -6 1938.780 1873.110 74.065 11.275 o
-1 -14 -5 289.578 336.507 40.910 56.171 o
-1 -14 -4 39.807 -0.418 29.546 118.162 o
-1 -14 -3 327.665 379.444 34.674 73.405 o
-1 -14 -2 1621.640 1652.020 53.918 18.240 o
-1 -14 -1 440.045 495.210 34.038 69.853 o
-1 -13 -17 130.249 107.129 66.763 23.116 o
-1 -13 -16 423.521 316.355 41.208 53.270 o
-1 -13 -15 111.173 127.112 30.951 103.342 o
-1 -13 -14 839.745 884.769 57.469 24.755 o
-1 -13 -13 215.974 263.629 36.997 69.833 o
-1 -13 -12 2376.880 2484.240 89.067 7.622 o
-1 -13 -11 455.984 490.478 43.953 45.812 o
-1 -13 -10 1039.990 1088.430 57.681 22.517 o
-1 -13 -9 1054.090 1099.330 57.101 22.706 o
-1 -13 -8 2644.920 2650.240 98.298 6.323 o
-1 -13 -7 31.081 28.420 24.432 171.528 o
-1 -13 -6 256.814 205.358 30.555 98.013 o
-1 -13 -5 307.527 338.401 40.626 56.543 o
-1 -13 -4 1179.530 1197.060 43.687 29.776 o
-1 -13 -3 279.781 282.469 26.101 123.599 o
-1 -13 -2 9.229 7.026 15.092 452.006 o
-1 -13 -1 13.395 16.614 15.973 400.740 o
-1 -12 -19 176.214 257.248 46.224 46.537 o
-1 -12 -18 369.976 418.818 38.945 58.761 o
-1 -12 -17 184.253 203.348 28.224 116.864 o
-1 -12 -16 689.039 700.327 55.375 28.117 o
-1 -12 -15 638.055 674.860 51.824 31.936 o
-1 -12 -14 1166.200 1238.860 74.433 14.594 o
-1 -12 -13 453.105 408.207 40.121 54.268 o
-1 -12 -12 919.132 831.490 65.882 19.624 o
-1 -12 -11 760.125 721.802 47.756 34.665 o
-1 -12 -10 1737.860 1683.880 134.662 4.914 o
-1 -12 -9 97.746 129.658 26.610 138.127 o
-1 -12 -8 401.784 409.651 37.108 63.073 o
-1 -12 -7 2003.560 2027.810 71.722 11.268 o
-1 -12 -6 1816.640 1775.570 91.763 8.848 o
-1 -12 -5 211.929 223.404 29.898 103.572 o
-1 -12 -4 212.562 271.696 24.348 145.294 o
-1 -12 -3 901.141 894.814 37.645 43.307 o
-1 -12 -2 2931.330 3016.630 70.638 7.775 o
-1 -12 -1 265.798 282.382 20.990 175.115 o
-1 -11 -20 236.727 260.165 37.816 66.674 o
-1 -11 -19 59.468 42.211 26.130 148.231 o
-1 -11 -18 696.250 769.693 54.056 28.907 o
-1 -11 -17 1223.710 1144.680 120.023 6.507 o
-1 -11 -16 484.760 540.006 79.483 15.558 o
-1 -11 -15 39.324 59.544 19.639 258.647 o
-1 -11 -14 635.353 662.052 37.805 52.132 o
-1 -11 -13 825.108 806.161 38.924 44.152 o
-1 -11 -12 189.768 192.019 23.801 157.475 o
-1 -11 -11 286.319 243.106 30.773 94.602 o
-1 -11 -10 869.751 993.872 49.830 29.825 o
-1 -11 -9 756.300 720.686 44.587 38.466 o
-1 -11 -8 397.881 410.445 35.488 68.008 o
-1 -11 -7 293.401 286.775 27.872 110.004 o
-1 -11 -6 1193.730 1085.310 44.293 29.872 o
-1 -11 -5 2694.580 2662.200 54.632 10.432 o
-1 -11 -4 2995.000 2955.160 56.708 8.870 o
-1 -11 -3 1685.570 1780.630 38.108 23.000 o
-1 -11 -2 1043.640 1104.440 30.385 46.465 o
-1 -11 -1 2288.000 2354.430 45.180 14.196 o
-1 -10 -21 157.096 173.982 34.812 80.855 o
-1 -10 -20 838.428 676.696 188.072 2.884 o
-1 -10 -19 1525.670 1527.070 70.142 14.070 o
-1 -10 -18 547.973 572.927 38.924 53.022 o
-1 -10 -17 804.509 870.958 44.453 36.765 o
-1 -10 -16 66.831 57.075 19.985 245.666 o
-1 -10 -15 964.059 1071.440 81.279 13.382 o
-1 -10 -14 270.863 258.622 26.225 124.288 o
-1 -10 -13 374.727 378.890 29.078 95.359 o
-1 -10 -12 514.766 487.610 39.873 52.700 o
-1 -10 -11 743.166 687.019 34.399 55.626 o
-1 -10 -10 187.890 218.594 32.760 88.827 o
-1 -10 -9 485.134 548.880 42.975 46.625 o
-1 -10 -8 341.445 340.321 30.164 92.722 o
-1 -10 -7 780.905 800.125 34.061 53.383 o
-1 -10 -6 1200.620 1213.110 40.234 32.005 o
-1 -10 -5 5672.980 5525.330 86.920 2.878 o
-1 -10 -4 307.283 300.637 18.541 197.999 o
-1 -10 -3 3823.790 3834.470 59.433 6.051 o
-1 -10 -2 5266.170 5064.050 73.539 3.470 o
-1 -10 -1 6018.510 5862.620 81.092 2.692 o
-1 -9 -22 62.571 44.058 59.092 29.681 o
-1 -9 -21 847.055 833.359 59.590 23.492 o
-1 -9 -20 35.247 37.505 25.803 153.561 o
-1 -9 -19 123.908 135.271 30.031 108.720 o
-1 -9 -18 0.446 0.944 21.226 231.385 o
-1 -9 -17 1820.520 1895.470 59.604 14.761 o
-1 -9 -16 1165.230 1183.390 46.058 28.322 o
-1 -9 -15 159.119 145.886 22.885 174.750 o
-1 -9 -14 22.094 33.930 18.577 294.125 o
-1 -9 -13 3791.140 3662.890 82.796 5.208 o
-1 -9 -12 1450.860 1536.210 48.059 22.347 o
-1 -9 -11 2685.490 2643.460 64.572 9.377 o
-1 -9 -10 1946.950 1968.240 48.944 16.569 o
-1 -9 -9 6004.310 5879.890 95.676 2.526 o
-1 -9 -8 597.038 602.453 26.004 88.066 o
-1 -9 -7 3630.360 3580.510 62.579 6.437 o
-1 -9 -6 1977.210 1998.110 36.919 19.412 o
-1 -9 -5 5251.790 5265.860 73.378 3.412 o
-1 -9 -4 1130.830 1131.560 27.722 46.611 o
-1 -9 -3 4147.410 4053.380 60.223 5.384 o
-1 -9 -2 1183.870 1156.720 27.526 44.818 o
-1 -9 -1 3429.760 3236.310 51.605 7.785 o
-1 -8 -23 332.725 369.717 44.495 47.441 o
-1 -8 -22 26.093 9.664 26.069 151.807 o
-1 -8 -21 15.062 -35.596 23.341 190.206 o
-1 -8 -20 34.960 2.181 25.569 157.434 o
-1 -8 -19 1015.380 1047.660 57.255 23.075 o
-1 -8 -18 230.760 201.515 30.683 98.553 o
-1 -8 -17 190.467 209.378 24.894 144.914 o
-1 -8 -16 83.566 75.804 19.071 262.759 o
-1 -8 -15 4343.360 4412.520 93.407 3.958 o
-1 -8 -14 263.771 268.215 46.706 44.730 o
-1 -8 -13 469.416 510.668 30.666 80.041 o
-1 -8 -12 2649.380 2610.150 63.623 9.630 o
-1 -8 -11 11770.000 11519.800 172.171 0.699 o
-1 -8 -10 1545.610 1542.920 40.942 24.695 o
-1 -8 -9 2067.840 2076.370 44.252 16.570 o
-1 -8 -8 629.442 652.343 29.353 73.308 o
-1 -8 -7 13121.600 13171.900 170.810 0.580 o
-1 -8 -6 3.200 8.772 8.006 1583.980 o
-1 -8 -5 2804.710 2888.810 41.143 11.035 o
-1 -8 -4 735.174 763.088 18.509 97.843 o
-1 -8 -3 3841.770 3850.260 51.789 6.319 o
-1 -8 -2 1835.910 1883.840 32.933 22.577 o
-1 -8 -1 3124.440 3125.340 43.644 9.283 o
-1 -7 -23 72.668 66.198 29.635 115.045 o
-1 -7 -22 28.275 -8.449 25.527 158.411 o
-1 -7 -21 1283.780 1219.910 64.305 17.631 o
-1 -7 -20 126.699 140.135 30.357 106.322 o
-1 -7 -19 245.855 183.431 30.810 97.561 o
-1 -7 -18 69.402 76.449 25.376 155.010 o
-1 -7 -17 3454.410 3463.700 100.543 4.872 o
-1 -7 -16 226.367 220.598 23.475 155.574 o
-1 -7 -15 308.886 304.696 26.040 120.836 o
-1 -7 -14 960.750 944.854 37.654 41.440 o
-1 -7 -13 3646.250 3622.370 73.279 5.854 o
-1 -7 -12 168.040 159.337 17.514 270.037 o
-1 -7 -11 1513.530 1485.130 48.699 21.729 o
-1 -7 -10 68.552 78.135 13.319 505.608 o
-1 -7 -9 12525.800 12399.100 163.783 0.640 o
-1 -7 -8 3395.800 3349.830 53.844 7.599 o
-1 -7 -7 2553.000 2632.290 42.575 12.529 o
-1 -7 -6 4396.090 4528.810 60.945 4.759 o
-1 -7 -5 8428.270 8850.100 80.591 1.457 o
-1 -7 -4 4887.440 5020.950 53.450 4.151 o
-1 -7 -3 2179.990 2243.920 29.234 18.273 o
-1 -7 -2 964.243 933.900 18.377 72.726 o
-1 -7 -1 4373.070 4451.040 51.935 5.068 o
-1 -6 -24 26.744 38.359 27.395 136.919 o
-1 -6 -23 1426.130 1518.730 73.598 13.525 o
-1 -6 -22 122.370 118.809 31.071 102.325 o
-1 -6 -21 279.723 250.846 36.172 71.318 o
-1 -6 -20 165.678 168.571 30.579 102.698 o
-1 -6 -19 5036.740 4934.180 130.615 2.611 o
-1 -6 -18 573.018 603.730 44.096 42.891 o
-1 -6 -17 203.567 178.461 27.841 119.319 o
-1 -6 -16 566.217 529.188 38.471 54.070 o
-1 -6 -15 2106.150 2095.720 56.571 13.615 o
-1 -6 -14 2236.800 2175.010 51.182 13.845 o
-1 -6 -13 803.389 825.952 31.341 57.438 o
-1 -6 -12 161.110 163.156 17.153 280.635 o
-1 -6 -11 955.723 972.708 31.251 49.968 o
-1 -6 -10 411.679 388.144 20.012 154.181 o
-1 -6 -9 2157.510 2183.020 43.261 15.846 o
-1 -6 -8 6123.230 5956.090 76.134 2.673 o
-1 -6 -7 5996.880 5891.720 65.143 2.868 o
-1 -6 -6 2012.070 2133.690 29.294 20.351 o
-1 -6 -5 7486.670 7901.990 77.216 1.805 o
-1 -6 -4 1712.590 1773.080 27.105 26.967 o
-1 -6 -3 11853.900 11933.100 115.299 0.762 o
-1 -6 -2 6802.700 6678.730 64.500 2.309 o
-1 -6 -1 16321.600 17424.600 161.039 0.390 o
-1 -5 -24 177.860 205.859 37.538 69.403 o
-1 -5 -23 223.892 222.337 36.569 71.639 o
-1 -5 -22 303.254 256.625 37.131 67.413 o
-1 -5 -21 4117.760 4171.470 121.399 3.406 o
-1 -5 -20 81.266 58.302 24.593 164.355 o
-1 -5 -19 628.364 653.045 64.774 21.928 o
-1 -5 -18 1110.890 1121.230 52.339 25.005 o
-1 -5 -17 3754.420 3751.030 103.630 4.356 o
-1 -5 -16 172.709 150.942 22.154 182.816 o
-1 -5 -15 5.724 -10.630 12.909 620.999 o
-1 -5 -14 2103.210 2140.430 49.016 15.086 o
-1 -5 -13 1092.950 1112.760 34.457 40.329 o
-1 -5 -12 827.425 844.971 29.156 60.553 o
-1 -5 -11 254.145 245.837 17.336 237.097 o
-1 -5 -10 288.930 286.221 16.074 244.268 o
-1 -5 -9 3761.540 3710.060 52.826 6.545 o
-1 -5 -8 7037.390 7038.890 76.231 2.080 o
-1 -5 -7 5134.460 5202.600 54.543 3.828 o
-1 -5 -6 444.609 450.782 12.409 219.382 o
-1 -5 -5 9310.790 9337.780 91.889 1.225 o
-1 -5 -4 10825.300 11174.600 105.631 0.897 o
-1 -5 -3 4113.340 4459.900 48.643 5.505 o
-1 -5 -2 6420.960 6578.380 67.052 2.473 o
-1 -5 -1 20368.900 20729.900 189.397 0.262 o
-1 -4 -25 145.667 117.945 33.085 90.142 o
-1 -4 -24 449.949 454.380 80.400 15.358 o
-1 -4 -23 465.190 455.475 46.143 42.265 o
-1 -4 -22 240.187 235.236 92.871 11.913 o
-1 -4 -21 38.632 35.838 23.647 181.935 o
-1 -4 -20 999.984 992.482 54.711 24.974 o
-1 -4 -19 3067.180 3066.660 94.409 5.820 o
-1 -4 -18 277.745 287.035 31.526 90.178 o
-1 -4 -17 720.614 681.930 43.166 41.241 o
-1 -4 -16 2775.130 2705.100 92.879 6.529 o
-1 -4 -15 1604.290 1678.640 46.640 20.952 o
-1 -4 -14 890.525 928.926 27.225 59.927 o
-1 -4 -13 1029.430 1025.310 24.679 56.233 o
-1 -4 -12 2691.430 2750.910 46.459 11.208 o
-1 -4 -11 6582.170 6698.500 79.138 2.286 o
-1 -4 -10 6090.750 6315.620 70.278 2.659 o
-1 -4 -9 4185.880 4390.870 50.802 5.390 o
-1 -4 -8 2918.780 3084.650 39.423 10.372 o
-1 -4 -7 11520.200 12004.600 115.000 0.786 o
-1 -4 -6 10916.700 10979.700 100.265 0.907 o
-1 -4 -5 424.617 430.010 11.230 245.024 o
-1 -4 -4 3330.660 3378.720 38.347 8.625 o
-1 -4 -3 15437.800 16266.900 159.272 0.435 o
-1 -4 -2 21771.100 21983.100 205.590 0.230 o
-1 -4 -1 3566.120 3562.210 44.506 7.475 o
-1 -3 -25 105.466 130.811 33.720 87.868 o
-1 -3 -24 279.161 251.359 42.018 54.338 o
-1 -3 -23 171.175 197.409 33.678 85.273 o
-1 -3 -22 624.066 569.252 71.308 18.616 o
-1 -3 -21 857.970 900.956 52.833 27.936 o
-1 -3 -20 577.944 626.402 46.239 39.510 o
-1 -3 -19 238.951 282.891 26.370 124.685 o
-1 -3 -18 1534.240 1565.280 54.891 18.759 o
-1 -3 -17 2010.800 2074.160 69.471 11.570 o
-1 -3 -16 2107.910 2064.500 45.637 16.029 o
-1 -3 -15 52.858 51.356 11.000 738.561 o
-1 -3 -14 5701.150 5436.430 141.108 2.151 o
-1 -3 -13 6191.010 6077.290 75.130 2.621 o
-1 -3 -12 8127.310 7951.610 97.541 1.548 o
-1 -3 -11 1624.190 1656.280 29.121 28.430 o
-1 -3 -10 4851.430 4797.180 51.155 4.339 o
-1 -3 -9 12887.900 12925.000 132.141 0.641 o
-1 -3 -8 13492.300 13899.000 138.685 0.576 o
-1 -3 -7 2298.110 2226.640 33.645 16.591 o
-1 -3 -6 2881.300 2817.070 41.889 10.804 o
-1 -3 -5 5791.910 5971.270 65.219 2.960 o
-1 -3 -4 3516.200 3623.000 41.413 7.666 o
-1 -3 -3 8598.170 8942.080 90.775 1.382 o
-1 -3 -2 5442.310 6085.760 62.144 3.172 o
-1 -3 -1 13140.400 13681.200 129.905 0.608 o
-1 -2 -25 28.191 0.684 25.540 158.239 o
-1 -2 -24 990.482 1004.770 63.142 20.192 o
-1 -2 -23 636.254 613.661 40.835 47.047 o
-1 -2 -22 72.838 77.477 21.846 205.568 o
-1 -2 -21 424.785 531.072 35.880 64.227 o
-1 -2 -20 1025.760 1039.280 43.887 32.835 o
-1 -2 -19 1067.930 1017.210 45.461 31.035 o
-1 -2 -18 1671.230 1673.900 51.198 18.762 o
-1 -2 -17 1018.460 943.011 30.705 49.263 o
-1 -2 -16 1471.790 1323.130 33.796 31.228 o
-1 -2 -15 2073.910 2024.790 39.359 17.875 o
-1 -2 -14 3928.490 3761.840 58.445 5.983 o
-1 -2 -13 837.032 827.954 23.021 74.309 o
-1 -2 -12 5424.430 5137.510 64.031 3.482 o
-1 -2 -11 8003.110 7880.800 82.775 1.650 o
-1 -2 -10 17971.900 17785.900 166.319 0.342 o
-1 -2 -9 8875.360 8771.030 93.240 1.340 o
-1 -2 -8 1276.840 1282.340 23.877 43.627 o
-1 -2 -7 5588.510 5544.030 65.667 3.208 o
-1 -2 -6 7418.190 7365.420 88.603 1.838 o
-1 -2 -5 7085.020 6997.070 83.916 2.022 o
-1 -2 -4 1699.650 1787.000 26.058 27.455 o
-1 -2 -3 6709.100 6905.040 75.575 2.225 o
-1 -2 -2 36454.000 37363.100 339.980 0.082 o
-1 -2 -1 8028.640 8483.540 81.248 1.580 o
-1 -1 -26 900.563 947.056 53.841 26.592 o
-1 -1 -25 208.151 277.717 42.374 54.323 o
-1 -1 -24 95.615 110.480 25.229 153.510 o
-1 -1 -23 197.493 237.782 31.122 96.720 o
-1 -1 -22 1882.260 1932.920 62.814 13.639 o
-1 -1 -21 787.800 814.277 73.471 16.802 o
-1 -1 -20 1790.050 1722.720 55.602 16.451 o
-1 -1 -19 453.057 492.302 41.186 51.139 o
-1 -1 -18 1487.070 1421.050 60.481 17.456 o
-1 -1 -17 1844.800 1807.200 41.209 20.192 o
-1 -1 -16 3369.870 3341.180 60.689 7.249 o
-1 -1 -15 2461.830 2436.250 43.687 13.303 o
-1 -1 -14 1344.170 1308.090 29.510 36.883 o
-1 -1 -13 849.993 867.496 23.619 70.945 o
-1 -1 -12 6513.460 6638.840 86.109 2.266 o
-1 -1 -11 276.175 271.769 11.962 346.731 o
-1 -1 -10 6937.260 6989.010 71.792 2.152 o
-1 -1 -9 179.886 160.666 8.576 658.913 o
-1 -1 -8 10060.000 10121.900 110.381 1.026 o
-1 -1 -7 9272.740 9601.250 112.974 1.153 o
-1 -1 -6 749.504 801.450 18.760 93.831 o
-1 -1 -5 4366.510 4581.550 57.772 4.846 o
-1 -1 -4 24775.800 24152.500 259.944 0.178 o
-1 -1 -3 388.461 442.247 9.265 286.194 o
-1 -1 -2 1552.960 1461.140 17.942 37.205 o
-1 -1 -1 4560.100 4484.570 55.335 4.737 o
0 0 2 3155.810 2515.970 190.885 2.330 o
0 0 4 36673.200 33446.000 435.677 0.082 o
0 0 6 2776.890 3049.370 61.666 8.882 o
0 0 8 14325.200 13999.400 196.223 0.486 o
0 0 10 1165.610 1128.610 27.285 46.066 o
0 0 12 9583.820 9763.720 167.540 0.948 o
0 0 14 6727.880 6353.900 120.670 1.942 o
0 0 16 383.241 360.213 27.023 106.650 o
0 0 18 2724.040 2606.930 80.789 7.700 o
0 0 20 3858.230 3820.810 108.825 4.062 o
0 0 22 5559.760 5692.990 148.808 2.060 o
0 0 24 94.002 117.616 46.592 47.098 o
0 0 26 1519.470 1635.090 111.366 6.958 o
0 1 1 2927.440 3471.460 55.982 8.428 o
0 1 2 48201.300 45099.800 1063.560 0.034 o
0 1 3 2136.920 2303.670 33.370 17.586 o
0 1 4 116.070 127.142 8.767 802.883 o
0 1 5 5646.020 5900.510 75.616 2.940 o
0 1 6 1430.790 1594.640 25.758 34.328 o
0 1 7 4468.990 4493.540 56.500 4.809 o
0 1 8 3151.560 3075.100 37.336 9.718 o
0 1 9 5412.950 5487.480 55.564 3.480 o
0 1 10 17936.900 17613.900 155.078 0.349 o
0 1 11 1253.420 1372.850 22.586 44.057 o
0 1 12 7017.930 6833.520 87.782 2.044 o
0 1 13 876.427 755.094 21.718 77.330 o
0 1 14 1313.570 1306.500 29.959 37.242 o
0 1 15 0.368 -12.827 10.128 1015.880 o
0 1 16 700.956 688.960 24.074 84.880 o
0 1 17 929.414 896.446 29.667 54.670 o
0 1 18 2848.360 2878.740 60.734 9.006 o
0 1 19 416.324 402.188 25.695 110.457 o
0 1 20 1939.430 1993.310 51.834 15.807 o
0 1 21 2.346 16.291 15.326 439.472 o
0 1 22 466.047 486.301 36.836 61.078 o
0 1 23 201.746 213.768 28.288 115.074 o
0 1 24 1915.190 1937.940 82.127 9.904 o
0 1 25 57.359 107.334 38.637 68.490 o
0 1 26 0.930 16.235 27.285 139.696 o
0 2 0 21959.500 22410.700 291.597 0.206 o
0 2 1 152.323 188.703 5.587 945.757 o
0 2 2 1786.860 1972.410 25.051 25.122 o
0 2 3 160.530 338.725 9.947 485.100 o
0 2 4 347.329 395.627 11.786 278.252 o
0 2 5 1447.330 1521.830 28.756 32.963 o
0 2 6 5061.380 5478.760 77.063 3.408 o
0 2 7 9005.450 8962.680 127.822 1.188 o
0 2 8 16813.700 17426.100 181.744 0.367 o
0 2 9 4496.060 4339.830 49.416 5.045 o
0 2 10 17967.200 17885.300 157.594 0.344 o
0 2 11 271.630 264.572 16.064 253.503 o
0 2 12 24314.900 24263.000 269.879 0.180 o
0 2 13 1534.010 1561.940 31.970 29.255 o
0 2 14 1706.000 1721.950 34.884 24.368 o
0 2 15 1649.050 1691.580 35.685 24.935 o
0 2 16 3839.610 3768.060 60.390 6.038 o
0 2 17 23.868 37.536 12.102 664.889 o
0 2 18 339.275 334.778 23.137 139.572 o
0 2 19 0.347 11.653 13.361 579.581 o
0 2 20 1470.270 1458.220 43.975 24.516 o
0 2 21 1144.160 1147.030 46.879 28.199 o
0 2 22 619.000 609.540 39.443 49.972 o
0 2 23 3.199 17.681 19.987 259.259 o
0 2 24 28.218 35.786 24.104 176.081 o
0 2 25 12.023 57.956 43.751 54.203 o
0 3 1 2503.740 2346.890 28.189 15.525 o
0 3 2 15719.000 15583.000 158.497 0.438 o
0 3 3 21243.100 21741.200 218.812 0.235 o
0 3 4 4512.000 5207.430 60.997 4.277 o
0 3 5 3593.120 3636.120 50.638 7.042 o
0 3 6 12818.500 12326.600 131.530 0.664 o
0 3 7 5203.810 5028.590 95.166 3.140 o
0 3 8 7614.790 8044.240 92.308 1.679 o
0 3 9 15550.000 15991.200 157.393 0.437 o
0 3 10 17382.200 17497.100 153.865 0.364 o
0 3 11 19283.400 18755.700 183.638 0.299 o
0 3 12 1997.460 1913.960 31.783 21.002 o
0 3 13 8.306 3.706 8.665 1346.930 o
0 3 14 5134.890 5076.730 72.172 3.584 o
0 3 15 816.971 813.562 25.247 70.499 o
0 3 16 615.046 551.821 23.436 99.263 o
0 3 17 26.843 7.763 11.843 706.532 o
0 3 18 461.120 428.610 25.487 106.971 o
0 3 19 2345.800 2298.260 64.183 10.967 o
0 3 20 970.056 979.131 45.860 32.220 o
0 3 21 40.727 62.982 25.884 151.500 o
0 3 22 4.758 -6.635 23.208 193.239 o
0 3 23 417.802 345.196 40.365 55.040 o
0 3 24 77.710 100.796 29.464 115.439 o
0 3 25 50.403 30.569 36.876 75.771 o
0 4 0 4705.940 5092.620 78.337 3.783 o
0 4 1 13799.300 15016.600 145.017 0.530 o
0 4 2 24737.600 25370.300 238.401 0.176 o
0 4 3 2188.950 2271.440 32.880 17.395 o
0 4 4 14243.900 14181.300 149.679 0.526 o
0 4 5 6307.260 6434.520 81.852 2.426 o
0 4 6 1141.620 1257.030 29.043 43.005 o
0 4 7 773.414 792.469 17.070 97.260 o
0 4 8 6124.340 6115.960 68.844 2.706 o
0 4 9 9470.990 9197.470 97.039 1.198 o
0 4 10 3021.980 2958.730 40.558 10.134 o
0 4 11 1855.110 1735.410 30.727 23.961 o
0 4 12 480.636 488.784 17.388 156.795 o
0 4 13 324.704 316.343 16.189 226.842 o
0 4 14 59.690 50.995 10.284 815.473 o
0 4 15 162.831 134.085 13.566 406.964 o
0 4 16 464.605 477.000 26.907 97.468 o
0 4 17 1496.430 1389.310 51.325 21.116 o
0 4 18 3618.280 3775.340 105.511 4.384 o
0 4 19 20.739 49.577 24.432 171.511 o
0 4 20 143.540 152.346 28.797 116.206 o
0 4 21 2357.490 2505.580 88.059 7.737 o
0 4 22 438.849 352.958 55.115 31.412 o
0 4 23 158.235 171.173 33.166 88.544 o
0 4 24 188.226 203.611 35.869 75.343 o
0 4 25 114.197 118.448 33.634 88.229 o
0 5 1 19413.300 19513.600 187.931 0.288 o
0 5 2 3559.790 3888.370 43.914 7.155 o
0 5 3 26357.700 27826.400 303.605 0.147 o
0 5 4 3820.860 3885.930 46.858 6.517 o
0 5 5 344.129 365.845 12.460 274.643 o
0 5 6 710.773 818.043 17.511 100.935 o
0 5 7 11068.800 11282.400 115.960 0.853 o
0 5 8 2616.730 2611.950 37.406 12.907 o
0 5 9 5858.550 5869.120 67.870 2.922 o
0 5 10 57.846 79.171 9.278 932.599 o
0 5 11 2912.460 2956.240 53.446 9.390 o
0 5 12 309.241 284.401 16.509 230.731 o
0 5 13 24.001 22.712 10.395 894.557 o
0 5 14 563.477 542.564 22.624 108.186 o
0 5 15 560.624 624.247 50.001 34.935 o
0 5 16 1611.630 1693.710 61.873 15.656 o
0 5 17 29.907 31.765 19.952 254.821 o
0 5 18 556.553 548.878 42.225 46.728 o
0 5 19 8345.660 8194.160 191.650 1.066 o
0 5 20 982.501 994.369 55.819 24.389 o
0 5 21 153.756 198.605 33.144 88.366 o
0 5 22 251.986 216.862 50.853 38.386 o
0 5 23 1731.460 1708.410 77.231 11.501 o
0 5 24 36.660 56.897 28.461 126.193 o
0 5 25 90.968 117.152 34.124 86.414 o
0 6 0 2193.790 2437.830 41.490 15.161 o
0 6 1 12672.300 12716.400 108.467 0.685 o
0 6 2 2230.060 2624.110 31.625 15.982 o
0 6 3 2225.980 1968.840 26.272 19.686 o
0 6 4 2635.210 2656.040 42.021 12.161 o
0 6 5 15208.800 15569.800 138.288 0.467 o
0 6 6 6987.620 6806.610 68.323 2.189 o
0 6 7 1307.070 1314.840 23.375 42.651 o
0 6 8 68.625 68.867 9.435 895.338 o
0 6 9 10322.300 10148.900 122.865 0.968 o
0 6 10 157.507 205.119 13.728 381.874 o
0 6 11 865.585 845.330 25.796 65.884 o
0 6 12 77.795 88.649 13.280 497.198 o
0 6 13 920.192 902.923 30.963 52.707 o
0 6 14 442.321 416.183 26.795 101.728 o
0 6 15 52.578 34.645 21.967 208.457 o
0 6 16 481.934 509.086 46.876 40.596 o
0 6 17 6074.070 6379.650 154.237 1.793 o
0 6 18 458.825 443.880 39.578 55.014 o
0 6 19 515.625 529.194 43.821 44.820 o
0 6 20 59.363 91.475 27.439 133.543 o
0 6 21 3283.940 3365.740 111.366 4.572 o
0 6 22 2.348 -5.788 22.493 205.920 o
0 6 23 12.344 -28.031 31.819 102.721 o
0 6 24 0.680 10.994 25.938 154.696 o
0 7 1 2400.500 2601.620 32.163 14.835 o
0 7 2 1795.240 1804.290 25.391 26.102 o
0 7 3 4291.780 4223.330 46.055 5.489 o
0 7 4 2832.480 2706.440 33.654 12.021 o
0 7 5 5016.550 5237.560 54.852 3.910 o
0 7 6 60.955 85.599 9.252 920.676 o
0 7 7 21750.300 21646.200 225.681 0.228 o
0 7 8 1941.130 1917.170 35.801 20.431 o
0 7 9 1127.570 1115.070 29.955 44.398 o
0 7 10 651.792 644.324 30.030 70.449 o
0 7 11 7770.990 7640.140 120.581 1.540 o
0 7 12 982.408 1019.430 33.378 45.517 o
0 7 13 267.498 242.792 22.072 164.862 o
0 7 14 445.490 406.422 27.165 99.906 o
0 7 15 2279.190 2367.960 65.211 10.918 o
0 7 16 0.169 -1.138 14.503 495.763 o
0 7 17 123.148 82.136 24.846 156.861 o
0 7 18 27.169 30.596 23.208 189.980 o
0 7 19 5188.550 5209.300 138.035 2.388 o
0 7 20 38.264 73.404 26.212 147.672 o
0 7 21 78.611 59.109 26.073 147.139 o
0 7 22 183.793 185.558 42.046 56.082 o
0 7 23 359.749 329.201 47.444 42.160 o
0 7 24 47.473 27.210 26.621 144.053 o
0 8 0 2646.210 2824.900 62.886 9.417 o
0 8 1 727.926 880.959 22.582 80.878 o
0 8 2 102.260 114.401 11.316 599.673 o
0 8 3 3503.170 3704.190 54.156 6.981 o
0 8 4 1299.000 1337.140 25.244 41.038 o
0 8 5 5238.250 5538.740 67.765 3.416 o
0 8 6 957.693 944.563 21.936 66.178 o
0 8 7 3253.860 3178.630 50.391 8.367 o
0 8 8 1187.980 1199.740 28.994 42.568 o
0 8 9 11060.400 10992.900 162.746 0.782 o
0 8 10 769.949 809.190 29.871 62.130 o
0 8 11 1874.650 1871.880 47.124 17.883 o
0 8 12 5.790 3.425 19.289 279.013 o
0 8 13 2346.810 2354.780 60.447 11.426 o
0 8 14 11.630 55.349 27.510 136.096 o
0 8 15 0.789 -27.799 14.111 523.323 o
0 8 16 753.061 816.377 38.043 47.002 o
0 8 17 2857.310 2793.880 72.646 7.990 o
0 8 18 68.004 80.873 25.226 156.725 o
0 8 19 229.507 174.694 32.251 90.686 o
0 8 20 7.479 -13.162 59.660 29.287 o
0 8 21 932.558 797.840 78.382 14.661 o
0 8 22 127.621 189.870 34.665 82.057 o
0 8 23 18.912 6.626 30.683 110.170 o
0 9 1 2904.280 2976.860 47.863 9.887 o
0 9 2 539.369 518.690 19.988 126.975 o
0 9 3 742.597 762.879 24.622 77.981 o
0 9 4 360.079 414.536 18.792 172.837 o
0 9 5 3177.860 3329.830 47.955 8.532 o
0 9 6 5.818 15.742 8.963 1248.640 o
0 9 7 8229.820 8221.280 105.901 1.463 o
0 9 8 1178.070 1114.220 39.284 33.963 o
0 9 9 967.131 1064.180 38.956 38.565 o
0 9 10 6.334 -0.571 13.582 560.893 o
0 9 11 2968.090 2898.050 68.120 8.032 o
0 9 12 346.287 353.717 30.753 89.307 o
0 9 13 77.068 60.707 21.315 215.866 o
0 9 14 1067.460 1124.290 67.047 17.782 o
0 9 15 1929.980 1953.510 57.984 14.481 o
0 9 16 210.884 190.423 28.946 110.619 o
0 9 17 770.190 800.495 42.167 40.741 o
0 9 18 898.509 965.926 65.342 19.671 o
0 9 19 1963.430 2220.020 83.525 9.288 o
0 9 20 57.420 88.775 27.467 133.454 o
0 9 21 21.278 1.918 36.648 77.348 o
0 9 22 237.849 245.914 46.308 45.832 o
0 10 0 5509.840 5346.340 106.859 2.711 o
0 10 1 3957.740 3957.830 67.870 5.428 o
0 10 2 235.698 234.208 16.314 265.163 o
0 10 3 3274.350 3233.740 53.066 8.067 o
0 10 4 1619.510 1610.770 34.534 26.360 o
0 10 5 2399.350 2354.750 43.218 13.917 o
0 10 6 584.212 546.713 25.761 91.844 o
0 10 7 435.305 416.366 31.353 81.143 o
0 10 8 378.328 368.608 25.511 116.140 o
0 10 9 2640.440 2658.950 66.260 9.293 o
0 10 10 2288.490 2251.110 58.792 12.102 o
0 10 11 950.656 991.613 65.007 19.522 o
0 10 12 390.189 374.652 28.093 99.688 o
0 10 13 1006.300 1041.790 43.430 33.522 o
0 10 14 76.068 67.909 24.439 166.373 o
0 10 15 189.797 254.767 45.336 48.163 o
0 10 16 1786.810 1783.800 57.105 15.875 o
0 10 17 1262.480 1229.650 49.452 24.840 o
0 10 18 36.694 71.013 32.279 98.362 o
0 10 19 2.291 7.930 36.080 80.027 o
0 10 20 209.453 254.937 37.526 68.273 o
0 10 21 1299.140 1312.130 70.090 15.347 o
0 11 1 2461.720 2289.430 44.115 13.616 o
0 11 2 9111.000 9119.880 117.825 1.195 o
0 11 3 1829.600 1787.260 38.522 21.313 o
0 11 4 16.866 2.576 12.300 670.467 o
0 11 5 125.064 114.183 15.475 355.436 o
0 11 6 945.004 962.877 46.434 32.127 o
0 11 7 750.359 729.305 44.056 39.171 o
0 11 8 21.331 27.563 19.381 271.531 o
0 11 9 24.142 23.994 20.049 253.951 o
0 11 10 531.408 505.069 39.794 52.325 o
0 11 11 212.329 174.362 22.653 169.556 o
0 11 12 788.518 732.298 37.572 47.927 o
0 11 13 545.779 524.891 33.656 66.750 o
0 11 14 541.837 591.437 36.746 57.786 o
0 11 15 798.627 617.679 107.918 8.438 o
0 11 16 117.482 142.886 24.219 162.193 o
0 11 17 96.658 84.646 23.976 169.926 o
0 11 18 318.992 304.327 34.043 77.270 o
0 11 19 322.429 289.073 38.471 62.511 o
0 11 20 533.253 652.313 54.306 30.472 o
0 12 0 6418.820 6502.060 152.271 1.722 o
0 12 1 1464.100 1476.150 69.037 14.706 o
0 12 2 9.259 10.227 14.283 502.978 o
0 12 3 172.318 151.850 17.938 259.778 o
0 12 4 2606.430 2505.010 55.291 10.936 o
0 12 5 1518.460 1412.230 57.992 18.198 o
0 12 6 97.460 84.534 23.596 175.012 o
0 12 7 436.994 412.678 37.501 61.045 o
0 12 8 1272.830 1446.120 87.758 10.803 o
0 12 9 1286.410 1346.970 63.922 17.449 o
0 12 10 787.316 736.828 47.229 34.809 o
0 12 11 481.128 512.288 43.243 46.512 o
0 12 12 1702.700 1741.140 70.202 13.029 o
0 12 13 1129.620 1016.430 55.634 23.295 o
0 12 14 1446.720 1460.170 66.692 15.507 o
0 12 15 92.183 103.159 28.396 123.157 o
0 12 16 369.543 380.867 33.253 77.185 o
0 12 17 262.448 287.945 31.428 91.292 o
0 12 18 480.810 486.871 37.680 58.527 o
0 12 19 87.649 78.085 23.819 173.184 o
0 13 1 418.397 471.709 35.347 66.881 o
0 13 2 1128.810 1146.760 38.317 35.406 o
0 13 3 57.341 44.395 19.437 261.859 o
0 13 4 2.303 -15.800 14.152 519.370 o
0 13 5 0.730 -14.351 18.141 316.747 o
0 13 6 1357.100 1243.760 75.854 13.584 o
0 13 7 220.746 203.620 31.384 95.024 o
0 13 8 583.478 690.052 49.105 35.389 o
0 13 9 93.996 90.699 31.535 100.915 o
0 13 10 3915.890 3770.030 110.626 3.978 o
0 13 11 188.916 294.488 36.160 73.108 o
0 13 12 2115.890 2271.620 94.888 7.601 o
0 13 13 284.663 250.963 37.250 67.537 o
0 13 14 1662.590 1654.660 72.911 12.696 o
0 13 15 368.730 457.847 69.036 20.708 o
0 13 16 404.529 435.823 83.525 14.358 o
0 13 17 78.680 66.067 37.217 73.694 o
0 14 0 1407.420 1386.290 61.262 17.704 o
0 14 1 4.375 10.451 23.209 192.817 o
0 14 2 28.923 57.908 19.462 265.229 o
0 14 3 2025.850 2006.120 88.511 8.710 o
0 14 4 1324.480 1319.030 61.648 18.192 o
0 14 5 63.308 59.035 31.535 102.367 o
0 14 6 294.954 246.854 57.075 30.507 o
0 14 7 43.867 11.521 23.044 191.976 o
0 14 8 1285.450 1285.160 195.714 2.598 o
0 14 9 2.314 22.202 24.245 176.485 o
0 14 10 455.736 394.296 58.240 28.181 o
0 14 11 4.453 -0.973 30.967 108.645 o
0 14 12 2130.290 2165.330 84.412 8.884 o
0 14 13 17.953 32.547 25.658 156.465 o
0 14 14 702.516 710.584 55.376 27.974 o
0 14 15 47.996 47.856 30.398 110.670 o
0 14 16 447.295 468.075 91.763 11.919 o
0 15 1 74.159 104.872 27.110 135.477 o
0 15 2 3316.800 3567.360 87.667 5.598 o
0 15 3 1009.550 1152.090 51.136 26.595 o
0 15 4 59.759 78.892 27.583 132.502 o
0 15 5 559.603 531.299 46.743 39.670 o
0 15 6 1563.800 1549.690 70.709 13.742 o
0 15 7 3.023 17.896 25.114 164.631 o
0 15 8 104.675 81.115 29.027 118.037 o
0 15 9 89.140 50.569 41.194 60.357 o
0 15 10 494.194 546.432 97.161 10.603 o
0 15 11 18.775 24.441 27.003 141.591 o
0 15 12 75.992 93.729 38.069 70.331 o
0 15 13 1.164 -9.906 33.807 91.228 o
0 16 0 1585.950 1735.090 102.275 7.852 o
0 16 1 596.995 779.967 56.362 27.680 o
0 16 2 59.905 71.662 44.035 53.094 o
0 16 3 26.538 73.606 57.388 31.516 o
0 16 4 1761.600 1845.940 127.844 5.303 o
0 16 5 111.884 161.044 32.828 91.855 o
0 16 6 266.062 300.029 102.815 9.719 o
0 16 7 427.873 372.042 62.785 24.693 o
0 16 8 68.527 31.238 58.524 30.257 o
0 16 9 42.023 8.763 78.127 17.055 o
0 16 10 47.069 36.280 53.694 35.969 o
0 16 11 28.822 46.083 26.838 142.264 o
0 17 1 85.380 144.227 32.112 96.894 o
0 17 2 658.508 699.390 81.252 14.458 o
0 17 3 260.547 380.065 64.774 23.840 o
0 17 4 174.229 253.983 55.683 32.558 o
0 17 5 237.277 358.474 63.069 25.205 o
0 17 6 610.432 692.572 84.093 13.662 o
0 17 7 74.763 139.052 53.694 35.671 o
1 0 1 2449.430 2701.120 33.137 14.104 o
1 0 2 26659.500 26827.700 265.390 0.153 o
1 0 3 799.306 897.371 15.339 94.359 o
1 0 4 8534.890 9171.820 104.539 1.326 o
1 0 5 3432.220 4051.920 81.353 5.470 o
1 0 6 641.734 693.620 17.408 116.438 o
1 0 7 2288.520 2353.610 34.438 16.065 o
1 0 8 2524.880 2595.090 32.581 14.042 o
1 0 9 346.829 431.682 11.571 273.669 o
1 0 10 8358.080 8516.100 85.638 1.488 o
1 0 11 7778.920 7807.220 80.958 1.722 o
1 0 12 4561.410 4588.380 67.715 4.378 o
1 0 13 77.961 64.434 9.981 806.792 o
1 0 14 3678.470 3637.620 56.321 6.605 o
1 0 15 202.501 209.472 17.589 251.401 o
1 0 16 886.207 894.741 27.059 61.178 o
1 0 17 120.530 111.947 14.651 391.244 o
1 0 18 3686.470 3660.850 71.395 5.859 o
1 0 19 1.265 10.346 12.996 612.089 o
1 0 20 3674.740 3649.330 86.659 5.179 o
1 0 21 381.099 368.360 30.856 86.838 o
1 0 22 631.468 716.880 42.618 43.270 o
1 0 23 404.684 441.720 39.442 56.518 o
1 0 24 1494.940 1494.800 58.664 17.848 o
1 0 25 9.919 34.122 21.986 212.936 o
1 0 26 71.078 116.480 33.347 90.866 o
1 1 0 53627.400 49059.200 1074.520 0.030 o
1 1 1 4390.160 4259.030 115.951 3.373 o
1 1 2 1458.080 1368.380 18.922 40.549 o
1 1 3 445.654 500.795 9.686 239.999 o
1 1 4 24962.100 24210.500 240.818 0.179 o
1 1 5 4252.940 4478.920 53.393 5.167 o
1 1 6 799.399 868.432 19.337 84.982 o
1 1 7 9236.510 9522.350 98.321 1.205 o
1 1 8 9838.770 9938.070 97.252 1.094 o
1 1 9 195.583 172.606 8.232 644.396 o
1 1 10 6678.230 6731.350 67.867 2.326 o
1 1 11 298.239 285.663 11.824 332.757 o
1 1 12 6616.290 6697.860 86.284 2.216 o
1 1 13 878.551 868.668 23.563 69.413 o
1 1 14 1180.420 1143.850 28.642 43.925 o
1 1 15 2380.770 2337.030 43.615 14.002 o
1 1 16 3433.250 3411.840 56.369 7.303 o
1 1 17 1771.830 1659.850 40.558 21.803 o
1 1 18 1553.430 1542.950 42.719 23.771 o
1 1 19 443.128 426.588 46.255 42.551 o
1 1 20 1713.310 1702.750 54.456 17.314 o
1 1 21 823.777 867.414 42.518 38.787 o
1 1 22 1851.650 1978.520 63.153 13.596 o
1 1 23 193.647 226.381 29.212 108.792 o
1 1 24 102.826 71.547 24.312 165.585 o
1 1 25 203.580 127.562 33.905 84.288 o
1 1 26 905.235 917.543 93.439 10.706 o
1 2 0 105.665 68.734 4.055 1872.150 o
1 2 1 7900.420 8374.810 86.815 1.598 o
1 2 2 36086.800 36308.100 390.824 0.082 o
1 2 3 6968.780 7228.110 75.853 2.074 o
1 2 4 1849.470 1931.550 26.469 24.127 o
1 2 5 6958.400 6908.310 77.465 2.122 o
1 2 6 7237.220 7058.070 81.469 1.980 o
1 2 7 5589.380 5527.720 55.273 3.343 o
1 2 8 1379.970 1383.790 20.388 41.683 o
1 2 9 8888.710 8877.530 83.213 1.359 o
1 2 10 18047.000 18062.000 158.303 0.340 o
1 2 11 8148.600 8075.360 82.861 1.592 o
1 2 12 5351.590 5169.390 70.348 3.425 o
1 2 13 827.116 817.280 22.914 75.529 o
1 2 14 4151.760 4070.070 59.904 5.378 o
1 2 15 1952.520 1821.990 38.216 20.069 o
1 2 16 1609.980 1497.540 36.260 26.440 o
1 2 17 1007.240 985.194 33.535 45.105 o
1 2 18 1586.160 1489.100 42.444 23.836 o
1 2 19 1003.370 993.617 50.277 28.067 o
1 2 20 1053.820 1050.330 48.961 28.229 o
1 2 21 435.917 431.485 28.488 93.146 o
1 2 22 62.374 64.150 22.190 201.630 o
1 2 23 674.634 691.832 45.553 38.639 o
1 2 24 992.478 1144.000 65.176 18.877 o
1 2 25 31.430 71.592 45.456 50.064 o
1 3 0 17699.600 17953.300 168.909 0.345 o
1 3 1 12987.100 13471.500 138.806 0.613 o
1 3 2 5342.300 5885.250 61.845 3.308 o
1 3 3 8891.580 9247.540 97.193 1.284 o
1 3 4 3234.920 3272.390 43.036 8.774 o
1 3 5 5787.910 5982.270 69.492 2.912 o
1 3 6 2998.130 2923.500 40.351 10.300 o
1 3 7 2371.730 2334.340 28.158 16.530 o
1 3 8 13348.800 13739.800 137.115 0.589 o
1 3 9 12995.300 13136.200 123.374 0.637 o
1 3 10 4803.740 4745.080 48.398 4.467 o
1 3 11 1731.390 1794.630 28.055 26.173 o
1 3 12 8095.960 7871.120 91.116 1.593 o
1 3 13 6316.820 6165.490 82.181 2.476 o
1 3 14 5614.290 5549.100 76.855 3.042 o
1 3 15 50.001 62.240 14.445 454.226 o
1 3 16 2197.760 2089.460 50.921 14.315 o
1 3 17 1844.620 1783.040 45.568 18.910 o
1 3 18 1606.650 1621.540 54.456 18.252 o
1 3 19 252.405 232.502 25.260 134.900 o
1 3 20 525.265 585.933 31.326 73.474 o
1 3 21 911.274 983.937 47.641 31.321 o
1 3 22 576.260 482.782 47.599 38.580 o
1 3 23 156.318 172.163 51.138 38.737 o
1 3 24 293.073 352.792 64.206 24.186 o
1 3 25 135.007 236.937 58.524 29.739 o
1 4 0 2787.790 2555.600 34.662 12.499 o
1 4 1 4023.390 4049.890 54.255 5.768 o
1 4 2 21231.400 21329.700 205.119 0.241 o
1 4 3 15783.900 16652.700 159.404 0.418 o
1 4 4 3232.890 3251.090 44.106 8.742 o
1 4 5 386.289 373.159 12.031 261.631 o
1 4 6 11064.200 11069.100 99.747 0.889 o
1 4 7 11435.500 12013.900 107.797 0.802 o
1 4 8 3021.520 3218.060 38.250 9.855 o
1 4 9 3966.330 4149.870 48.541 5.974 o
1 4 10 6129.530 6246.250 66.364 2.694 o
1 4 11 6597.220 6590.590 78.427 2.307 o
1 4 12 2700.000 2720.850 40.577 11.889 o
1 4 13 1050.900 1035.980 23.929 56.203 o
1 4 14 849.645 852.390 27.086 63.733 o
1 4 15 1580.390 1646.610 41.157 23.626 o
1 4 16 2774.730 2655.490 57.097 9.909 o
1 4 17 750.159 756.380 35.259 52.700 o
1 4 18 256.681 251.372 24.433 141.117 o
1 4 19 3016.680 3050.150 76.659 7.110 o
1 4 20 1029.330 1079.780 56.140 23.515 o
1 4 21 46.163 43.976 23.421 184.326 o
1 4 22 218.600 195.800 33.030 86.859 o
1 4 23 499.445 433.475 69.320 20.207 o
1 4 24 457.451 507.340 73.865 17.956 o
1 4 25 129.643 121.594 51.138 39.031 o
1 5 0 13578.000 14960.700 146.326 0.540 o
1 5 1 20582.900 21300.300 200.742 0.252 o
1 5 2 6472.820 6671.430 63.587 2.456 o
1 5 3 4082.270 4386.280 45.893 5.684 o
1 5 4 10560.900 10791.900 94.550 0.963 o
1 5 5 9147.560 9229.740 85.746 1.276 o
1 5 6 407.974 410.424 11.312 254.977 o
1 5 7 4974.100 5022.340 53.729 4.064 o
1 5 8 7391.960 7467.070 74.249 1.910 o
1 5 9 3716.860 3753.780 46.435 6.862 o
1 5 10 336.269 328.880 15.066 239.597 o
1 5 11 220.061 222.599 14.360 322.923 o
1 5 12 798.533 761.434 23.550 77.474 o
1 5 13 1230.880 1248.430 34.332 36.019 o
1 5 14 1999.170 2047.150 45.202 16.908 o
1 5 15 6.276 8.130 13.701 548.577 o
1 5 16 205.232 181.072 20.181 205.494 o
1 5 17 3709.330 3694.910 83.673 5.246 o
1 5 18 1095.820 1086.940 53.618 24.488 o
1 5 19 642.707 707.412 56.251 27.704 o
1 5 20 84.266 109.898 26.889 136.866 o
1 5 21 4103.930 4186.790 128.952 3.210 o
1 5 22 303.597 334.873 39.637 59.197 o
1 5 23 206.957 189.209 56.251 31.923 o
1 5 24 189.672 148.867 54.547 34.064 o
1 6 0 73.828 105.522 7.718 1104.520 o
1 6 1 16494.200 17611.900 145.331 0.390 o
1 6 2 6441.500 6419.870 61.322 2.544 o
1 6 3 11798.300 12040.000 114.146 0.764 o
1 6 4 1815.870 1853.920 26.485 25.097 o
1 6 5 7637.730 7982.800 79.624 1.742 o
1 6 6 2032.880 2073.090 29.159 20.479 o
1 6 7 5787.950 5740.200 62.247 3.064 o
1 6 8 6287.220 6179.490 72.637 2.576 o
1 6 9 2133.370 2216.680 40.133 16.551 o
1 6 10 449.783 451.250 16.665 172.924 o
1 6 11 901.209 931.569 25.688 62.302 o
1 6 12 135.582 164.413 14.136 390.240 o
1 6 13 837.526 815.714 27.388 64.496 o
1 6 14 2173.970 2026.240 52.594 14.262 o
1 6 15 2192.800 2190.720 49.990 14.259 o
1 6 16 523.335 464.262 37.859 57.305 o
1 6 17 192.672 222.869 30.337 101.812 o
1 6 18 574.783 560.970 43.846 43.595 o
1 6 19 5064.610 4747.720 129.516 2.655 o
1 6 20 186.203 242.068 46.848 45.342 o
1 6 21 285.128 289.573 55.939 31.637 o
1 6 22 109.989 126.327 32.022 96.919 o
1 6 23 1389.520 1370.350 141.168 4.736 o
1 6 24 27.199 -10.227 41.478 60.393 o
1 7 0 649.687 690.200 15.883 122.549 o
1 7 1 4794.270 4945.470 50.329 4.336 o
1 7 2 999.092 980.648 17.929 69.762 o
1 7 3 2091.700 2147.990 28.965 19.570 o
1 7 4 4809.370 4827.960 48.998 4.406 o
1 7 5 8299.330 8497.160 82.315 1.515 o
1 7 6 4417.770 4505.410 59.114 4.795 o
1 7 7 2604.660 2679.650 44.121 11.992 o
1 7 8 3437.070 3360.410 47.561 7.855 o
1 7 9 12623.300 12352.100 144.859 0.659 o
1 7 10 75.070 76.154 10.311 761.829 o
1 7 11 1467.680 1403.790 44.582 24.528 o
1 7 12 158.571 182.171 19.704 222.598 o
1 7 13 3620.420 3600.150 78.081 5.674 o
1 7 14 941.003 934.011 36.531 43.441 o
1 7 15 316.751 347.974 27.000 111.983 o
1 7 16 213.283 226.820 23.230 159.425 o
1 7 17 3585.940 3506.910 120.173 3.953 o
1 7 18 66.876 54.402 24.351 168.842 o
1 7 19 265.128 238.518 34.668 77.542 o
1 7 20 121.611 124.778 32.955 91.431 o
1 7 21 1283.880 1218.790 63.338 18.009 o
1 7 22 28.027 23.702 25.910 153.150 o
1 7 23 73.326 109.590 38.470 68.828 o
1 8 0 1167.690 1097.960 22.782 51.672 o
1 8 1 2753.970 2711.370 42.003 11.521 o
1 8 2 1947.820 2051.260 42.226 18.026 o
1 8 3 3633.430 3637.490 51.269 6.929 o
1 8 4 692.548 717.887 18.272 105.435 o
1 8 5 3166.160 3283.850 44.157 8.884 o
1 8 6 4.300 10.227 8.375 1442.300 o
1 8 7 12959.800 12867.900 155.345 0.613 o
1 8 8 605.537 559.006 21.853 107.108 o
1 8 9 2074.910 2023.510 41.167 17.437 o
1 8 10 1550.970 1403.420 38.161 26.894 o
1 8 11 11698.500 11287.000 209.803 0.647 o
1 8 12 2616.650 2592.370 63.286 9.788 o
1 8 13 458.483 514.427 49.355 37.360 o
1 8 14 270.770 248.058 23.475 149.074 o
1 8 15 4225.050 4168.530 92.221 4.186 o
1 8 16 93.738 104.297 44.120 52.466 o
1 8 17 184.787 147.497 33.523 86.347 o
1 8 18 235.925 175.562 28.852 110.295 o
1 8 19 1059.670 996.238 57.302 22.917 o
1 8 20 29.989 51.659 63.638 25.665 o
1 8 21 20.963 29.955 24.573 170.275 o
1 8 22 22.795 47.891 27.816 132.829 o
1 8 23 293.827 366.997 67.047 22.239 o
1 9 0 1239.920 1280.990 29.000 40.126 o
1 9 1 3610.360 3447.820 52.513 7.107 o
1 9 2 1117.030 1047.330 26.809 49.549 o
1 9 3 4157.790 4117.590 60.514 5.317 o
1 9 4 1192.320 1188.580 28.361 43.244 o
1 9 5 5254.660 5239.100 66.520 3.531 o
1 9 6 1890.650 1924.070 35.407 21.009 o
1 9 7 3696.400 3568.940 59.718 6.473 o
1 9 8 581.952 598.997 23.688 98.941 o
1 9 9 6183.620 6056.480 98.195 2.389 o
1 9 10 1924.090 1850.290 51.078 16.525 o
1 9 11 2596.180 2626.300 74.356 8.572 o
1 9 12 1434.800 1434.590 45.936 24.018 o
1 9 13 3690.400 3735.630 83.527 5.251 o
1 9 14 17.204 5.836 15.260 438.931 o
1 9 15 166.028 148.604 26.981 129.650 o
1 9 16 1180.830 1189.600 45.430 28.541 o
1 9 17 1889.930 1839.960 58.910 14.731 o
1 9 18 1.980 -2.560 21.357 228.421 o
1 9 19 128.352 149.536 29.769 110.020 o
1 9 20 30.265 19.440 24.154 175.830 o
1 9 21 860.500 895.353 61.483 22.088 o
1 9 22 59.764 79.114 30.337 110.169 o
1 10 0 3777.890 3799.900 59.228 6.162 o
1 10 1 5903.520 5840.350 81.251 2.752 o
1 10 2 5263.560 5264.380 74.114 3.393 o
1 10 3 3739.220 3788.280 59.308 6.231 o
1 10 4 270.829 253.064 16.764 242.042 o
1 10 5 5816.960 5683.550 85.095 2.788 o
1 10 6 1268.190 1290.780 50.145 24.100 o
1 10 7 790.196 726.817 34.466 53.452 o
1 10 8 374.628 400.009 22.963 133.311 o
1 10 9 487.521 485.879 33.183 71.039 o
1 10 10 162.637 167.781 20.194 214.251 o
1 10 11 784.503 755.033 34.952 52.300 o
1 10 12 566.473 512.957 66.308 21.553 o
1 10 13 348.872 318.669 27.117 109.989 o
1 10 14 273.509 268.436 25.780 127.192 o
1 10 15 937.576 887.162 48.123 31.152 o
1 10 16 45.553 46.996 18.715 283.570 o
1 10 17 817.253 838.788 41.694 40.188 o
1 10 18 575.323 587.151 38.567 52.962 o
1 10 19 1554.710 1606.820 71.124 13.567 o
1 10 20 872.542 844.451 61.052 22.415 o
1 10 21 150.379 231.448 37.709 69.105 o
1 11 0 7076.550 6929.660 94.843 1.961 o
1 11 1 2351.690 2401.750 58.048 11.685 o
1 11 2 1078.070 1074.640 32.480 43.377 o
1 11 3 1695.220 1717.720 43.557 21.144 o
1 11 4 2838.870 2813.500 58.686 9.320 o
1 11 5 2693.990 2653.460 56.089 10.283 o
1 11 6 1147.130 1082.050 48.154 27.626 o
1 11 7 340.260 315.817 26.519 114.600 o
1 11 8 447.260 432.347 57.103 29.153 o
1 11 9 710.268 707.025 48.581 34.444 o
1 11 10 925.657 980.177 48.941 30.043 o
1 11 11 255.926 238.677 38.297 64.976 o
1 11 12 153.971 170.526 23.019 172.136 o
1 11 13 794.748 768.869 37.020 48.239 o
1 11 14 590.605 607.050 37.049 55.565 o
1 11 15 34.368 25.521 18.383 298.418 o
1 11 16 496.252 534.006 37.104 58.935 o
1 11 17 1229.470 1309.110 51.565 23.579 o
1 11 18 687.876 799.681 59.249 24.813 o
1 11 19 62.103 71.823 27.297 135.260 o
1 11 20 232.981 224.260 36.485 71.703 o
1 12 0 1833.800 1871.960 43.841 19.178 o
1 12 1 276.633 288.008 21.695 164.761 o
1 12 2 2835.070 2854.120 80.043 7.339 o
1 12 3 968.550 963.244 33.712 46.194 o
1 12 4 198.080 231.292 21.151 187.639 o
1 12 5 241.497 231.228 24.375 144.170 o
1 12 6 1806.260 1816.350 86.380 9.611 o
1 12 7 1990.790 1940.870 70.142 11.728 o
1 12 8 416.941 433.725 37.859 60.331 o
1 12 9 113.196 152.044 28.047 123.691 o
1 12 10 1715.650 1773.290 68.431 13.332 o
1 12 11 732.920 662.136 47.563 35.590 o
1 12 12 922.116 944.356 84.093 12.844 o
1 12 13 446.881 414.410 40.199 54.156 o
1 12 14 1179.080 1145.910 59.179 20.629 o
1 12 15 685.849 776.772 43.939 39.969 o
1 12 16 658.806 684.578 45.945 38.401 o
1 12 17 176.177 171.994 26.163 135.438 o
1 12 18 374.190 348.945 33.110 78.154 o
1 12 19 179.957 192.409 31.557 95.909 o
1 13 0 927.566 905.169 35.790 45.116 o
1 13 1 22.575 10.936 14.257 496.769 o
1 13 2 8.501 -0.579 20.503 246.946 o
1 13 3 275.374 286.302 22.922 151.892 o
1 13 4 1127.650 1109.510 37.826 36.231 o
1 13 5 316.063 324.789 29.053 100.367 o
1 13 6 221.160 237.110 42.899 53.182 o
1 13 7 34.367 58.230 24.066 175.237 o
1 13 8 2684.940 2700.400 88.346 7.024 o
1 13 9 1003.760 1014.340 64.490 19.452 o
1 13 10 1068.300 1018.520 56.397 23.301 o
1 13 11 451.114 448.535 43.751 46.570 o
1 13 12 2422.060 2519.150 88.438 7.581 o
1 13 13 241.392 297.931 37.839 66.094 o
1 13 14 798.435 776.523 56.305 26.270 o
1 13 15 102.400 103.007 96.877 11.061 o
1 13 16 435.044 404.056 43.655 47.331 o
1 13 17 136.228 150.580 39.489 64.204 o
1 14 0 2.158 20.167 28.326 129.524 o
1 14 1 450.776 485.811 40.966 51.702 o
1 14 2 1621.980 1663.790 67.093 14.238 o
1 14 3 327.899 361.386 26.651 112.946 o
1 14 4 39.258 17.033 18.904 282.564 o
1 14 5 272.419 280.100 35.944 71.933 o
1 14 6 1908.200 1861.990 98.582 7.785 o
1 14 7 179.153 215.806 32.926 88.349 o
1 14 8 687.857 856.301 72.700 17.359 o
1 14 9 25.269 70.407 49.433 42.417 o
1 14 10 1808.910 1819.920 80.683 10.525 o
1 14 11 115.727 109.104 42.331 56.634 o
1 14 12 562.716 579.083 66.763 21.178 o
1 14 13 83.142 59.034 27.344 134.034 o
1 14 14 1205.960 1289.950 67.466 16.656 o
1 14 15 272.580 307.324 80.087 15.852 o
1 15 0 2577.370 2542.190 71.467 9.026 o
1 15 1 165.205 186.748 26.091 136.375 o
1 15 2 216.037 278.810 35.370 75.602 o
1 15 3 270.951 263.909 36.346 70.765 o
1 15 4 2172.330 2291.870 119.889 5.412 o
1 15 5 324.026 417.566 62.501 25.225 o
1 15 6 138.038 193.825 36.967 72.383 o
1 15 7 38.327 66.618 27.869 131.198 o
1 15 8 734.045 699.306 53.766 29.138 o
1 15 9 194.969 232.248 36.324 73.104 o
1 15 10 220.153 227.424 36.393 72.304 o
1 15 11 132.651 108.729 51.422 38.628 o
1 15 12 483.610 474.585 46.839 40.843 o
1 15 13 5.228 44.229 26.535 146.766 o
1 16 0 83.843 146.900 26.306 141.489 o
1 16 1 83.414 108.248 34.350 85.602 o
1 16 2 2253.550 2324.820 125.003 5.016 o
1 16 3 157.192 205.118 51.138 38.633 o
1 16 4 17.429 47.160 38.069 71.472 o
1 16 5 15.069 42.046 39.205 67.470 o
1 16 6 1103.050 1110.710 89.775 11.011 o
1 16 7 92.874 119.889 45.456 49.433 o
1 16 8 208.602 156.822 50.001 40.168 o
1 16 9 41.116 30.683 42.046 58.528 o
1 16 10 159.444 234.664 53.978 34.701 o
1 16 11 8.692 65.910 42.046 58.657 o
1 17 0 624.777 799.060 73.553 17.273 o
1 17 1 159.929 246.264 35.944 75.219 o
1 17 2 16.145 150.003 44.319 52.460 o
1 17 3 307.313 413.588 62.501 25.296 o
1 17 4 725.612 827.234 86.934 12.558 o
1 17 5 177.519 226.141 52.842 36.085 o
1 17 6 428.438 525.523 72.161 18.811 o
1 17 7 245.758 349.382 61.933 26.087 o
2 0 0 36088.700 36121.700 474.013 0.078 o
2 0 1 3298.610 3918.750 42.131 7.800 o
2 0 2 765.768 763.999 11.695 116.707 o
2 0 3 7677.970 8222.470 80.278 1.698 o
2 0 4 56196.600 55901.900 552.255 0.035 o
2 0 5 5441.300 5213.550 60.534 3.493 o
2 0 6 74.313 68.808 6.971 1340.560 o
2 0 7 1558.760 1372.580 24.797 34.512 o
2 0 8 9065.410 9392.180 87.254 1.272 o
2 0 9 93.112 115.046 7.439 1062.360 o
2 0 10 343.124 347.271 11.364 300.333 o
2 0 11 532.552 546.739 15.367 157.074 o
2 0 12 112.822 111.233 10.580 647.898 o
2 0 13 509.279 483.252 18.637 142.786 o
2 0 14 2006.820 1979.540 38.156 18.909 o
2 0 15 485.080 397.783 19.465 146.772 o
2 0 16 2325.090 2282.540 49.139 13.504 o
2 0 17 1737.150 1719.600 77.373 11.443 o
2 0 18 4919.800 4895.090 102.207 3.205 o
2 0 19 977.938 873.054 49.573 29.527 o
2 0 20 439.208 409.801 31.671 79.872 o
2 0 21 194.452 195.616 28.355 115.538 o
2 0 22 2830.460 2765.760 87.069 6.854 o
2 0 23 689.932 761.157 45.220 38.347 o
2 0 24 748.432 745.041 50.845 31.479 o
2 0 25 132.009 181.199 40.968 59.675 o
2 1 0 59.573 25.088 4.423 2749.070 o
2 1 1 1249.950 1360.540 17.281 48.746 o
2 1 2 25277.700 24911.400 538.566 0.125 o
2 1 3 2308.690 2361.500 36.750 15.508 o
2 1 4 3958.100 3878.500 42.617 6.422 o
2 1 5 20942.900 21676.500 203.425 0.243 o
2 1 6 54105.300 52634.700 487.956 0.039 o
2 1 7 151.319 123.442 6.968 913.746 o
2 1 8 4279.460 4251.170 44.968 5.515 o
2 1 9 942.765 900.684 17.149 77.755 o
2 1 10 2951.230 3005.740 40.584 10.302 o
2 1 11 2800.030 2694.040 36.082 11.967 o
2 1 12 2042.670 2030.430 45.778 16.531 o
2 1 13 101.465 99.063 11.479 596.854 o
2 1 14 7622.530 7557.500 98.225 1.706 o
2 1 15 349.411 357.498 18.624 182.320 o
2 1 16 5075.240 5120.450 87.823 3.324 o
2 1 17 710.002 743.016 30.359 64.863 o
2 1 18 1968.880 2050.680 83.353 9.480 o
2 1 19 403.097 452.316 31.652 80.594 o
2 1 20 2748.850 2749.850 72.288 8.303 o
2 1 21 799.807 803.270 42.151 40.218 o
2 1 22 333.844 375.065 33.646 77.083 o
2 1 23 294.373 329.263 40.109 58.183 o
2 1 24 1138.230 1147.810 52.758 24.391 o
2 1 25 124.086 140.391 26.651 135.669 o
2 2 0 2493.560 3426.970 39.575 11.359 o
2 2 1 2552.810 2738.320 31.847 13.557 o
2 2 2 11182.800 11620.500 127.331 0.810 o
2 2 3 16404.700 16928.700 183.962 0.383 o
2 2 4 25860.800 25149.800 257.825 0.165 o
2 2 5 4816.400 4911.090 58.401 4.179 o
2 2 6 10439.800 10571.600 100.091 0.978 o
2 2 7 9145.350 9678.680 99.646 1.203 o
2 2 8 16486.600 16562.100 152.168 0.402 o
2 2 9 2092.840 2178.450 28.420 19.528 o
2 2 10 5211.120 5183.060 53.899 3.781 o
2 2 11 562.013 576.129 14.305 155.661 o
2 2 12 8647.780 8655.410 123.907 1.278 o
2 2 13 1574.310 1576.930 32.472 28.246 o
2 2 14 2978.920 3014.770 51.194 9.301 o
2 2 15 1305.040 1210.690 33.023 35.985 o
2 2 16 5041.400 5090.950 88.136 3.349 o
2 2 17 3006.940 2965.820 62.100 8.370 o
2 2 18 593.107 610.257 29.591 75.377 o
2 2 19 806.233 777.607 38.900 44.906 o
2 2 20 594.407 609.211 37.445 54.581 o
2 2 21 158.407 179.506 24.389 154.630 o
2 2 22 517.141 551.230 38.008 56.026 o
2 2 23 85.441 98.422 23.644 174.836 o
2 2 24 107.150 123.517 36.613 75.047 o
2 2 25 251.251 197.163 36.629 71.074 o
2 3 0 2801.450 2966.300 37.062 11.270 o
2 3 1 3631.240 3705.010 42.821 7.246 o
2 3 2 4668.840 5000.520 59.996 4.246 o
2 3 3 955.344 1180.330 20.994 61.672 o
2 3 4 3375.180 3573.640 44.179 7.931 o
2 3 5 3256.150 3421.870 41.115 8.618 o
2 3 6 20125.900 20533.000 196.184 0.265 o
2 3 7 8450.240 8768.290 78.707 1.467 o
2 3 8 417.892 424.389 11.340 247.493 o
2 3 9 3372.140 3503.460 36.584 8.424 o
2 3 10 5798.160 5880.500 58.905 3.051 o
2 3 11 3581.040 3607.470 44.676 7.382 o
2 3 12 3249.170 3202.230 45.465 8.677 o
2 3 13 927.975 952.969 26.939 58.348 o
2 3 14 4242.170 4147.370 66.837 4.988 o
2 3 15 3427.870 3258.500 63.371 7.053 o
2 3 16 857.059 832.381 30.390 57.202 o
2 3 17 1370.670 1261.250 38.251 30.448 o
2 3 18 467.926 520.763 28.252 89.637 o
2 3 19 663.216 591.712 39.707 48.712 o
2 3 20 480.298 466.467 33.567 70.433 o
2 3 21 104.654 86.627 21.710 203.198 o
2 3 22 262.555 234.132 34.782 77.231 o
2 3 23 246.528 223.505 51.422 37.596 o
2 3 24 685.026 573.648 59.651 25.223 o
2 3 25 72.700 126.707 50.001 41.092 o
2 4 0 7922.480 8283.180 94.057 1.572 o
2 4 1 4004.920 3968.270 46.396 6.132 o
2 4 2 11798.500 11821.200 117.040 0.769 o
2 4 3 11922.800 12606.500 114.964 0.733 o
2 4 4 8453.520 9115.280 87.744 1.403 o
2 4 5 16714.400 17037.700 139.215 0.394 o
2 4 6 2661.450 2715.390 35.097 12.683 o
2 4 7 4811.880 4777.340 49.445 4.422 o
2 4 8 6185.570 6415.040 64.451 2.642 o
2 4 9 6042.690 6096.540 58.480 2.851 o
2 4 10 362.146 398.300 12.707 255.755 o
2 4 11 517.724 513.787 15.468 162.621 o
2 4 12 719.991 723.853 20.602 93.866 o
2 4 13 5632.110 5527.790 74.140 3.074 o
2 4 14 4278.770 4286.530 72.194 4.701 o
2 4 15 902.639 979.251 46.984 32.054 o
2 4 16 398.086 376.957 23.890 125.096 o
2 4 17 3812.330 3875.630 118.253 3.761 o
2 4 18 609.579 552.396 33.605 64.135 o
2 4 19 367.717 456.639 32.921 77.076 o
2 4 20 298.314 274.940 37.188 67.129 o
2 4 21 349.914 322.146 44.007 48.483 o
2 4 22 962.743 884.439 141.168 4.969 o
2 4 23 222.322 250.574 51.706 37.273 o
2 4 24 854.423 913.542 93.184 10.832 o
2 4 25 1024.060 1212.410 100.002 9.172 o
2 5 0 2062.530 2114.680 25.952 20.673 o
2 5 1 15948.300 15602.200 144.794 0.437 o
2 5 2 8520.930 8314.200 87.353 1.469 o
2 5 3 14764.500 14898.700 145.344 0.492 o
2 5 4 2566.630 2695.720 30.927 13.702 o
2 5 5 3457.430 3332.060 35.976 8.456 o
2 5 6 4215.470 4227.410 45.431 5.616 o
2 5 7 2177.130 2174.070 28.624 18.723 o
2 5 8 2418.010 2373.300 31.444 15.574 o
2 5 9 1240.450 1185.770 21.439 48.706 o
2 5 10 1548.050 1467.590 26.190 32.963 o
2 5 11 3211.310 3207.400 55.944 8.056 o
2 5 12 2944.690 2898.560 49.820 9.707 o
2 5 13 24.331 25.846 9.990 958.535 o
2 5 14 103.730 144.154 15.184 369.566 o
2 5 15 4558.990 4549.680 122.415 3.058 o
2 5 16 1771.790 1755.730 51.946 17.551 o
2 5 17 257.200 296.978 25.657 128.348 o
2 5 18 332.911 328.775 27.842 106.266 o
2 5 19 962.086 964.070 49.147 29.556 o
2 5 20 247.772 245.536 33.580 82.534 o
2 5 21 208.776 272.165 52.842 35.772 o
2 5 22 387.011 428.361 66.479 22.227 o
2 5 23 1631.150 1801.000 117.616 6.200 o
2 5 24 600.693 803.369 89.775 12.035 o
2 6 0 2740.230 2896.820 34.233 11.954 o
2 6 1 15368.900 16157.000 139.802 0.450 o
2 6 2 4229.530 4351.030 48.360 5.424 o
2 6 3 6061.350 5949.230 59.514 2.872 o
2 6 4 425.852 441.993 13.902 209.455 o
2 6 5 7453.410 7803.450 78.317 1.823 o
2 6 6 224.371 237.662 10.086 465.232 o
2 6 7 1875.560 1855.310 26.789 24.189 o
2 6 8 3559.270 3565.330 46.932 7.369 o
2 6 9 2813.570 2884.240 47.856 10.355 o
2 6 10 6.174 7.016 7.681 1703.260 o
2 6 11 76.255 104.146 10.654 700.334 o
2 6 12 599.392 612.843 25.644 88.951 o
2 6 13 9177.900 8996.940 136.113 1.134 o
2 6 14 3351.830 3192.650 62.060 7.351 o
2 6 15 159.176 158.981 16.878 289.176 o
2 6 16 604.462 583.945 33.579 63.829 o
2 6 17 2463.940 2514.830 66.090 10.005 o
2 6 18 151.003 149.732 22.172 185.497 o
2 6 19 607.322 508.676 78.979 15.536 o
2 6 20 66.641 22.160 36.364 77.695 o
2 6 21 1456.310 1558.950 104.548 7.830 o
2 6 22 90.973 69.888 45.456 49.644 o
2 6 23 290.833 297.677 61.933 26.018 o
2 6 24 67.492 89.775 45.456 49.745 o
2 7 0 1460.440 1386.190 22.556 38.014 o
2 7 1 5520.720 5809.970 60.242 3.234 o
2 7 2 3864.560 3952.910 46.266 6.397 o
2 7 3 10919.800 11071.600 102.013 0.899 o
2 7 4 3921.770 3977.260 42.925 6.388 o
2 7 5 2986.840 2951.880 34.531 10.752 o
2 7 6 167.858 200.965 10.804 508.963 o
2 7 7 3200.600 3173.670 48.162 8.669 o
2 7 8 279.924 289.895 14.522 277.720 o
2 7 9 904.059 878.929 22.552 69.832 o
2 7 10 1484.480 1456.270 30.354 31.927 o
2 7 11 10549.100 10414.100 128.384 0.919 o
2 7 12 778.435 758.148 26.692 70.469 o
2 7 13 220.534 271.635 19.363 206.996 o
2 7 14 354.088 361.257 22.445 142.270 o
2 7 15 5722.350 5647.560 135.884 2.178 o
2 7 16 592.555 642.760 46.784 38.469 o
2 7 17 102.033 66.647 23.339 179.066 o
2 7 18 418.891 376.982 38.986 58.038 o
2 7 19 667.285 689.753 59.092 25.390 o
2 7 20 38.191 44.887 39.205 67.189 o
2 7 21 230.747 237.505 53.978 34.316 o
2 7 22 167.034 118.753 48.865 42.420 o
2 7 23 1091.260 1177.180 92.047 10.517 o
2 8 0 394.980 398.729 15.565 204.309 o
2 8 1 5696.120 5694.430 72.278 3.012 o
2 8 2 1160.370 1186.820 23.070 49.938 o
2 8 3 1944.900 1985.820 30.720 21.464 o
2 8 4 3178.200 3152.740 40.917 9.263 o
2 8 5 6377.200 6375.730 72.585 2.492 o
2 8 6 212.146 215.304 12.276 398.085 o
2 8 7 3623.930 3747.400 53.753 6.725 o
2 8 8 136.667 138.823 12.902 454.710 o
2 8 9 6237.350 6278.870 82.120 2.486 o
2 8 10 790.380 762.330 28.066 66.398 o
2 8 11 1046.100 989.954 71.308 16.478 o
2 8 12 469.693 483.268 29.613 84.844 o
2 8 13 8414.250 8423.580 198.640 1.020 o
2 8 14 155.071 171.376 23.251 168.964 o
2 8 15 231.298 186.138 22.059 173.805 o
2 8 16 571.575 609.924 35.428 59.811 o
2 8 17 1669.660 1654.440 66.161 14.305 o
2 8 18 7.606 -6.872 21.011 235.306 o
2 8 19 3.803 -25.747 24.186 178.033 o
2 8 20 185.948 123.866 45.456 48.604 o
2 8 21 646.255 711.322 80.683 14.657 o
2 8 22 0.420 67.615 42.046 58.719 o
2 9 0 1368.450 1418.670 31.188 33.976 o
2 9 1 2134.310 2032.710 38.276 17.628 o
2 9 2 793.980 795.814 23.522 76.741 o
2 9 3 3025.900 2939.980 49.212 9.440 o
2 9 4 1743.530 1683.280 32.886 24.927 o
2 9 5 5738.070 5480.370 73.257 3.038 o
2 9 6 461.166 502.085 19.388 143.093 o
2 9 7 2480.560 2455.730 46.207 12.793 o
2 9 8 2124.310 2051.240 45.947 15.897 o
2 9 9 1078.600 1043.110 32.724 43.486 o
2 9 10 2394.410 2225.870 50.624 13.056 o
2 9 11 2193.470 2156.010 70.056 10.776 o
2 9 12 957.046 908.556 37.806 41.720 o
2 9 13 291.821 267.475 25.111 131.090 o
2 9 14 673.390 694.141 35.594 55.152 o
2 9 15 2476.960 2526.680 73.144 9.098 o
2 9 16 253.997 264.383 26.471 123.464 o
2 9 17 276.592 296.385 42.391 53.168 o
2 9 18 104.928 61.978 25.114 155.984 o
2 9 19 729.136 745.414 81.252 14.268 o
2 9 20 51.549 89.207 44.319 52.420 o
2 9 21 158.511 318.700 60.797 27.398 o
2 9 22 191.394 155.117 52.274 36.970 o
2 10 0 2406.170 2423.680 44.615 13.478 o
2 10 1 2092.900 2076.700 40.366 17.295 o
2 10 2 1107.980 1114.450 31.561 43.127 o
2 10 3 3313.100 3251.180 56.499 7.731 o
2 10 4 996.929 1002.490 31.722 47.586 o
2 10 5 1842.990 1789.690 43.215 19.640 o
2 10 6 989.598 905.690 37.768 41.102 o
2 10 7 2878.480 2803.120 56.267 9.455 o
2 10 8 1119.430 1091.030 34.001 40.458 o
2 10 9 823.489 729.861 29.135 63.182 o
2 10 10 1171.110 1164.100 38.831 34.048 o
2 10 11 250.330 272.021 24.586 139.320 o
2 10 12 1590.280 1621.570 50.952 19.636 o
2 10 13 1254.500 1249.280 54.657 21.987 o
2 10 14 280.074 288.790 26.560 119.899 o
2 10 15 81.612 44.647 18.121 292.866 o
2 10 16 96.003 118.459 21.401 207.586 o
2 10 17 1366.380 1369.470 66.604 16.081 o
2 10 18 356.151 343.375 53.694 33.556 o
2 10 19 156.692 186.936 48.865 42.254 o
2 10 20 264.804 292.563 57.956 29.662 o
2 10 21 657.669 706.208 84.093 13.569 o
2 11 0 4000.150 3927.380 84.143 4.781 o
2 11 1 662.258 697.209 29.315 70.761 o
2 11 2 5769.870 5867.840 98.225 2.599 o
2 11 3 2299.640 2378.530 53.062 12.737 o
2 11 4 140.825 137.225 17.881 271.648 o
2 11 5 2244.310 2236.550 87.538 8.224 o
2 11 6 2959.950 2967.310 71.348 7.709 o
2 11 7 2347.700 2408.150 62.540 11.019 o
2 11 8 77.615 68.186 18.660 275.681 o
2 11 9 24.108 46.154 17.132 341.853 o
2 11 10 849.599 804.873 63.041 21.509 o
2 11 11 532.690 513.213 32.639 70.501 o
2 11 12 316.269 309.058 38.151 63.359 o
2 11 13 45.415 18.601 16.149 380.091 o
2 11 14 192.610 197.291 24.461 149.720 o
2 11 15 1001.650 1016.540 91.019 10.995 o
2 11 16 990.841 1033.980 48.550 29.332 o
2 11 17 227.370 274.898 37.307 68.393 o
2 11 18 92.493 114.533 29.528 114.050 o
2 11 19 678.924 674.958 77.843 15.614 o
2 11 20 1009.340 1149.340 98.866 9.414 o
2 12 0 1348.090 1359.120 46.119 25.222 o
2 12 1 371.597 307.840 40.819 55.191 o
2 12 2 841.321 816.519 39.112 43.427 o
2 12 3 363.786 369.386 26.505 110.885 o
2 12 4 3864.770 3674.260 72.189 5.566 o
2 12 5 1332.350 1304.380 90.941 10.221 o
2 12 6 137.093 138.894 21.546 197.784 o
2 12 7 240.024 252.446 26.726 122.969 o
2 12 8 1982.240 1923.060 59.056 14.061 o
2 12 9 1432.000 1352.870 60.442 17.965 o
2 12 10 402.013 442.713 39.975 55.295 o
2 12 11 180.918 189.822 29.480 108.584 o
2 12 12 446.072 488.296 42.471 48.731 o
2 12 13 455.992 467.241 43.077 47.589 o
2 12 14 501.899 429.222 44.362 44.872 o
2 12 15 344.367 412.097 42.384 51.233 o
2 12 16 333.180 345.927 53.978 33.371 o
2 12 17 277.814 263.057 37.149 67.885 o
2 12 18 1141.590 1243.310 64.652 18.136 o
2 13 0 516.024 596.271 35.338 61.952 o
2 13 1 34.114 18.953 17.376 333.656 o
2 13 2 685.486 634.357 37.200 52.401 o
2 13 3 563.840 582.168 35.389 60.566 o
2 13 4 334.485 354.462 29.063 98.419 o
2 13 5 86.304 55.766 24.716 162.499 o
2 13 6 3145.940 3124.540 119.861 4.386 o
2 13 7 1328.040 1367.830 98.553 8.919 o
2 13 8 1091.600 956.157 78.411 14.032 o
2 13 9 372.206 437.453 60.797 26.322 o
2 13 10 1995.240 2076.520 113.639 6.111 o
2 13 11 392.275 406.202 61.365 25.850 o
2 13 12 523.707 544.841 69.888 19.663 o
2 13 13 108.891 115.343 43.183 54.515 o
2 13 14 952.807 894.224 80.683 13.785 o
2 13 15 407.019 446.544 65.342 22.858 o
2 13 16 408.465 447.112 65.342 22.852 o
2 13 17 39.075 77.274 42.614 56.806 o
2 14 0 300.102 315.552 29.152 100.967 o
2 14 1 199.350 210.825 30.931 98.293 o
2 14 2 60.923 66.574 20.926 225.399 o
2 14 3 201.229 215.418 25.350 139.265 o
2 14 4 2061.770 1976.750 76.736 10.344 o
2 14 5 22.486 24.315 28.126 130.466 o
2 14 6 432.709 544.094 49.149 37.748 o
2 14 7 579.443 648.821 72.161 18.232 o
2 14 8 2449.840 2435.050 126.707 4.752 o
2 14 9 448.075 444.839 64.206 23.467 o
2 14 10 736.167 660.753 76.138 16.125 o
2 14 11 403.240 513.591 67.615 21.346 o
2 14 12 701.185 706.208 80.683 14.550 o
2 14 13 44.100 109.661 44.887 51.097 o
2 14 14 144.597 167.617 49.433 41.465 o
2 14 15 259.670 262.506 55.683 32.119 o
2 15 0 525.808 521.710 36.966 58.645 o
2 15 1 129.768 177.751 26.327 137.065 o
2 15 2 1986.020 1965.260 63.412 13.018 o
2 15 3 26.662 6.818 25.312 160.978 o
2 15 4 24.437 24.637 33.239 93.643 o
2 15 5 52.400 86.526 29.027 120.183 o
2 15 6 1304.030 1360.710 93.184 9.824 o
2 15 7 173.427 153.412 45.456 48.583 o
2 15 8 291.252 248.301 53.410 34.624 o
2 15 9 317.749 336.882 60.229 27.251 o
2 15 10 479.132 574.387 73.865 17.823 o
2 15 11 9.629 60.797 36.933 75.920 o
2 15 12 194.872 232.960 53.410 35.234 o
2 15 13 159.278 240.346 54.547 33.990 o
2 16 0 1950.440 2041.070 115.348 6.028 o
2 16 1 409.851 441.590 36.957 62.864 o
2 16 2 106.020 177.013 39.168 65.483 o
2 16 3 968.181 942.420 94.292 10.431 o
2 16 4 1051.930 1205.590 93.184 10.336 o
2 16 5 18.087 34.092 35.228 83.470 o
2 16 6 49.204 110.798 44.319 52.353 o
2 16 7 108.277 144.889 46.592 46.889 o
2 16 8 463.831 520.409 72.729 18.454 o
2 16 9 29.502 48.297 36.933 75.722 o
2 16 10 66.143 26.705 35.228 82.675 o
2 17 0 110.886 170.661 38.121 68.961 o
2 17 1 680.239 690.492 44.471 40.009 o
2 17 2 538.850 638.274 54.430 30.363 o
2 17 3 29.028 85.229 45.456 50.034 o
2 17 4 290.995 313.586 60.229 27.410 o
2 17 5 416.417 435.180 67.047 21.769 o
2 17 6 218.048 264.778 59.660 28.299 o
3 0 1 809.236 592.347 10.712 126.253 o
3 0 2 2171.610 2701.070 32.575 15.973 o
3 0 3 671.605 516.705 10.851 159.276 o
3 0 4 300.400 297.505 8.677 411.491 o
3 0 5 21456.000 21637.200 219.130 0.233 o
3 0 6 49616.100 50397.900 437.650 0.045 o
3 0 7 158.799 164.611 7.601 775.151 o
3 0 8 754.607 725.375 14.491 111.669 o
3 0 9 2150.770 2206.650 27.511 19.029 o
3 0 10 234.206 261.818 11.064 407.870 o
3 0 11 0.473 9.357 6.643 2301.320 o
3 0 12 89.023 77.922 10.476 719.031 o
3 0 13 715.885 682.950 25.743 78.772 o
3 0 14 3767.060 3698.810 69.327 5.810 o
3 0 15 3804.330 3768.610 81.135 5.202 o
3 0 16 3556.810 3601.020 80.250 5.651 o
3 0 17 1565.730 1674.790 51.458 19.431 o
3 0 18 647.720 613.172 40.812 46.863 o
3 0 19 138.001 128.335 21.192 204.284 o
3 0 20 1835.760 1868.710 59.024 14.897 o
3 0 21 69.081 48.238 20.145 242.359 o
3 0 22 1083.740 1031.730 48.763 28.153 o
3 0 23 160.815 152.321 39.786 62.902 o
3 0 24 446.131 442.455 38.030 59.063 o
3 0 25 52.327 112.194 25.154 157.578 o
3 1 0 1572.170 1938.150 23.713 29.214 o
3 1 1 3619.300 3325.910 37.238 7.971 o
3 1 2 3154.390 2718.170 30.356 10.851 o
3 1 3 24459.500 23900.400 255.501 0.182 o
3 1 4 46951.900 46160.800 506.937 0.049 o
3 1 5 4675.920 4754.220 49.405 4.583 o
3 1 6 5395.170 5617.470 51.727 3.493 o
3 1 7 7230.490 7589.270 67.606 1.975 o
3 1 8 7479.170 7555.190 71.962 1.882 o
3 1 9 773.179 838.838 16.108 97.835 o
3 1 10 996.957 1009.820 18.412 68.193 o
3 1 11 428.493 465.202 12.814 217.678 o
3 1 12 2125.560 2054.550 35.008 18.354 o
3 1 13 119.202 145.276 15.059 366.845 o
3 1 14 2068.730 2026.240 47.665 15.932 o
3 1 15 1961.600 1988.380 54.322 15.093 o
3 1 16 3267.150 3246.360 75.407 6.603 o
3 1 17 910.496 958.221 39.994 39.471 o
3 1 18 4607.710 4553.240 98.988 3.573 o
3 1 19 912.983 955.491 41.925 37.222 o
3 1 20 91.988 77.107 20.408 230.426 o
3 1 21 342.500 300.748 30.116 93.910 o
3 1 22 704.252 678.651 42.420 42.626 o
3 1 23 272.427 232.620 30.826 95.195 o
3 1 24 913.989 941.473 50.643 28.960 o
3 1 25 345.189 384.631 36.451 66.865 o
3 2 0 3269.740 3572.290 45.417 8.130 o
3 2 1 4373.470 4992.010 59.910 4.554 o
3 2 2 5685.070 5618.490 77.601 2.972 o
3 2 3 3821.560 4280.290 47.265 6.149 o
3 2 4 7926.240 7982.760 87.058 1.637 o
3 2 5 3510.100 3592.650 36.026 7.963 o
3 2 6 29179.500 28947.000 232.508 0.134 o
3 2 7 5909.250 6196.510 56.375 2.918 o
3 2 8 3565.010 3371.970 35.827 8.116 o
3 2 9 1786.760 1682.590 23.226 27.918 o
3 2 10 4596.530 4668.150 48.956 4.732 o
3 2 11 225.727 213.645 9.958 481.752 o
3 2 12 682.322 690.562 18.249 108.163 o
3 2 13 1644.890 1671.250 36.097 24.938 o
3 2 14 4671.140 4714.380 83.196 3.848 o
3 2 15 3899.910 3770.730 83.029 5.014 o
3 2 16 2105.610 2159.370 58.105 13.172 o
3 2 17 881.685 895.944 39.039 41.855 o
3 2 18 1039.630 982.062 41.318 35.511 o
3 2 19 157.108 171.746 35.660 77.303 o
3 2 20 648.279 633.700 38.484 50.846 o
3 2 21 458.469 454.300 35.007 66.922 o
3 2 22 484.381 484.035 37.169 59.752 o
3 2 23 281.560 321.263 32.591 84.353 o
3 2 24 778.598 819.116 49.243 32.325 o
3 2 25 411.407 466.117 41.619 51.246 o
3 3 0 1515.790 1665.680 24.930 32.278 o
3 3 1 1672.840 1510.540 20.278 32.779 o
3 3 2 4142.160 4233.580 42.915 5.794 o
3 3 3 8439.260 8773.230 81.977 1.458 o
3 3 4 13853.800 14670.500 140.685 0.539 o
3 3 5 13226.000 13209.000 119.961 0.625 o
3 3 6 7654.100 7622.520 70.039 1.831 o
3 3 7 148.479 127.022 6.672 950.764 o
3 3 8 9487.630 9647.720 89.052 1.182 o
3 3 9 8391.210 8445.160 78.596 1.514 o
3 3 10 447.838 473.119 13.043 207.689 o
3 3 11 2528.790 2400.180 39.542 13.646 o
3 3 12 2308.060 2245.080 35.233 16.172 o
3 3 13 5077.580 4997.180 85.245 3.410 o
3 3 14 3233.750 3113.700 61.540 7.720 o
3 3 15 3867.260 3840.500 94.157 4.578 o
3 3 16 1714.540 1750.280 52.649 17.725 o
3 3 17 1368.280 1365.730 52.507 21.698 o
3 3 18 559.827 523.426 34.071 65.112 o
3 3 19 16.377 4.735 16.678 369.084 o
3 3 20 606.484 655.560 40.111 48.510 o
3 3 21 9.361 -20.187 18.686 296.844 o
3 3 22 865.436 808.244 107.360 8.396 o
3 3 23 316.332 384.483 41.820 53.156 o
3 3 24 230.775 240.113 37.294 68.748 o
3 3 25 412.513 431.325 45.682 43.852 o
3 4 0 1092.690 1116.190 18.148 60.276 o
3 4 1 3867.410 3632.930 39.400 6.954 o
3 4 2 9640.430 9875.470 93.285 1.134 o
3 4 3 5608.780 5519.820 56.261 3.320 o
3 4 4 7610.390 8221.060 78.595 1.723 o
3 4 5 6899.670 6749.680 66.241 2.246 o
3 4 6 4966.500 5014.510 49.897 4.138 o
3 4 7 12913.700 12960.100 110.299 0.660 o
3 4 8 1797.350 1849.690 26.147 25.495 o
3 4 9 2643.670 2614.550 33.433 13.220 o
3 4 10 1474.590 1495.070 28.313 32.953 o
3 4 11 5191.460 5084.960 63.045 3.694 o
3 4 12 1391.590 1436.020 29.323 34.601 o
3 4 13 6051.810 5968.120 78.960 2.674 o
3 4 14 335.073 321.406 27.630 107.658 o
3 4 15 8030.080 7950.910 145.419 1.336 o
3 4 16 2265.820 2214.400 99.805 6.949 o
3 4 17 27.140 7.947 17.140 346.206 o
3 4 18 369.752 388.901 35.620 68.749 o
3 4 19 178.508 200.428 27.644 121.714 o
3 4 20 693.339 725.166 50.101 32.901 o
3 4 21 129.026 96.269 26.851 134.902 o
3 4 22 632.806 668.448 58.808 25.877 o
3 4 23 326.134 325.475 40.341 57.035 o
3 4 24 651.404 631.129 53.833 30.057 o
3 5 0 7913.720 7769.180 82.039 1.688 o
3 5 1 4276.160 4312.140 47.920 5.397 o
3 5 2 7177.910 7477.750 72.644 1.983 o
3 5 3 12925.500 12995.600 120.723 0.648 o
3 5 4 8768.170 8558.170 83.221 1.411 o
3 5 5 2978.780 3023.800 36.736 10.474 o
3 5 6 2382.370 2371.170 31.258 15.856 o
3 5 7 1001.850 1032.020 18.440 67.189 o
3 5 8 3448.560 3548.700 40.640 7.961 o
3 5 9 863.160 891.359 17.973 82.418 o
3 5 10 168.532 190.862 11.043 500.764 o
3 5 11 1020.240 987.029 22.151 61.449 o
3 5 12 467.150 457.860 17.765 158.902 o
3 5 13 6726.940 6606.290 105.944 2.031 o
3 5 14 2490.190 2426.440 51.390 12.067 o
3 5 15 629.638 623.658 37.217 53.958 o
3 5 16 65.561 60.932 20.049 244.076 o
3 5 17 1532.320 1411.130 57.569 18.273 o
3 5 18 651.258 609.335 44.564 40.942 o
3 5 19 37.045 21.402 21.297 224.149 o
3 5 20 637.751 723.075 87.786 12.551 o
3 5 21 582.014 672.729 59.376 25.739 o
3 5 22 1120.720 1173.550 63.743 18.797 o
3 5 23 213.351 236.369 58.524 29.446 o
3 5 24 339.114 397.679 67.047 22.065 o
3 6 0 5483.360 5579.860 54.330 3.410 o
3 6 1 11226.400 11601.800 105.198 0.841 o
3 6 2 1589.720 1522.890 22.482 33.426 o
3 6 3 3193.090 3105.980 37.714 9.502 o
3 6 4 4822.570 4834.980 52.083 4.332 o
3 6 5 8932.930 9199.230 89.697 1.304 o
3 6 6 655.108 639.527 14.388 132.611 o
3 6 7 877.069 888.168 18.448 80.369 o
3 6 8 743.138 799.969 19.999 90.551 o
3 6 9 156.426 144.100 11.029 539.564 o
3 6 10 687.591 622.470 18.816 109.009 o
3 6 11 2759.890 2693.100 43.938 11.326 o
3 6 12 2582.310 2634.060 47.424 11.777 o
3 6 13 8.371 40.294 12.548 634.926 o
3 6 14 1231.250 1156.980 36.249 35.258 o
3 6 15 5186.660 5112.830 104.825 2.954 o
3 6 16 307.723 315.443 32.828 82.435 o
3 6 17 34.835 36.899 20.069 250.739 o
3 6 18 290.423 315.382 66.734 22.520 o
3 6 19 690.589 696.628 47.649 35.804 o
3 6 20 180.644 184.838 38.353 66.804 o
3 6 21 194.708 202.277 51.706 37.600 o
3 6 22 586.513 638.025 80.115 15.043 o
3 6 23 2008.490 2208.910 130.116 4.900 o
3 7 0 148.383 136.346 9.378 673.273 o
3 7 1 8955.610 8713.360 87.412 1.349 o
3 7 2 2534.290 2495.290 30.997 14.482 o
3 7 3 3816.110 3771.410 41.873 6.826 o
3 7 4 1071.130 1077.030 19.125 61.104 o
3 7 5 4244.700 4165.130 46.745 5.582 o
3 7 6 1792.700 1835.680 28.307 24.939 o
3 7 7 489.737 479.850 16.783 160.924 o
3 7 8 369.629 372.790 16.197 206.425 o
3 7 9 3103.370 3079.060 48.024 9.091 o
3 7 10 2292.970 2265.270 41.858 15.015 o
3 7 11 829.300 796.088 25.355 70.045 o
3 7 12 904.572 920.668 28.028 58.034 o
3 7 13 8343.980 8385.590 130.155 1.322 o
3 7 14 326.021 339.043 23.047 141.629 o
3 7 15 198.194 195.861 21.890 179.938 o
3 7 16 672.331 684.889 41.051 45.275 o
3 7 17 1308.240 1284.470 57.788 20.000 o
3 7 18 686.052 708.929 53.234 29.986 o
3 7 19 167.526 171.026 42.614 54.958 o
3 7 20 20.289 6.250 36.364 78.540 o
3 7 21 300.249 347.678 60.797 26.819 o
3 7 22 99.476 84.093 45.456 49.523 o
3 7 23 246.593 190.913 54.547 33.673 o
3 8 0 224.223 267.961 21.029 182.311 o
3 8 1 1807.760 1763.050 28.606 25.125 o
3 8 2 240.289 241.096 11.550 394.233 o
3 8 3 5346.700 5286.460 63.593 3.491 o
3 8 4 1937.450 1891.550 31.401 21.868 o
3 8 5 340.674 340.173 14.453 246.366 o
3 8 6 183.587 198.633 12.413 419.511 o
3 8 7 4783.410 4590.030 64.180 4.244 o
3 8 8 2891.750 2828.710 45.191 10.432 o
3 8 9 264.525 276.776 17.237 231.799 o
3 8 10 764.031 693.894 24.581 78.923 o
3 8 11 8859.290 8788.750 122.152 1.241 o
3 8 12 1835.490 1898.650 78.169 10.795 o
3 8 13 361.616 391.327 24.844 121.137 o
3 8 14 1975.020 1962.150 57.869 14.270 o
3 8 15 3664.690 3604.120 102.769 4.525 o
3 8 16 312.442 314.723 33.634 78.934 o
3 8 17 967.849 1085.710 80.115 13.685 o
3 8 18 88.911 83.525 38.069 70.211 o
3 8 19 321.637 358.474 57.956 29.236 o
3 8 20 45.687 62.501 43.183 55.343 o
3 8 21 25.370 27.841 37.501 73.662 o
3 8 22 277.845 385.747 65.910 22.999 o
3 9 0 487.716 458.934 29.524 84.898 o
3 9 1 3820.020 3845.970 70.953 5.563 o
3 9 2 213.957 248.636 19.225 212.987 o
3 9 3 2710.650 2742.930 50.424 10.708 o
3 9 4 705.970 687.295 20.962 95.435 o
3 9 5 2939.250 2818.240 45.300 10.271 o
3 9 6 2994.890 2925.380 52.706 9.257 o
3 9 7 726.057 687.356 26.596 75.501 o
3 9 8 1433.930 1343.530 39.439 28.167 o
3 9 9 1681.920 1588.910 41.194 22.834 o
3 9 10 783.278 762.525 29.385 63.643 o
3 9 11 94.372 140.432 20.243 227.982 o
3 9 12 2028.460 2067.510 69.909 11.446 o
3 9 13 3225.470 2947.130 101.139 5.320 o
3 9 14 304.015 356.626 35.329 72.153 o
3 9 15 123.249 157.780 42.614 55.552 o
3 9 16 403.241 388.335 89.775 12.521 o
3 9 17 1062.180 1035.350 65.058 18.856 o
3 9 18 175.851 289.154 53.410 35.184 o
3 9 19 104.018 107.957 43.751 53.224 o
3 9 20 173.907 192.618 52.842 36.197 o
3 9 21 598.620 640.866 78.979 15.417 o
3 10 0 277.592 244.883 22.840 154.974 o
3 10 1 4432.500 4376.500 89.727 4.004 o
3 10 2 1304.580 1368.380 43.411 27.266 o
3 10 3 4269.090 4319.460 88.529 4.197 o
3 10 4 1833.240 1892.260 53.185 16.380 o
3 10 5 3481.730 3348.410 94.776 5.174 o
3 10 6 1913.160 1987.270 67.093 12.503 o
3 10 7 640.977 645.411 29.987 71.045 o
3 10 8 645.915 613.473 31.265 67.907 o
3 10 9 519.745 517.486 31.206 75.628 o
3 10 10 1024.400 1060.900 41.873 34.571 o
3 10 11 1248.610 1283.490 46.502 26.491 o
3 10 12 125.053 122.936 24.066 164.308 o
3 10 13 103.001 117.570 24.186 165.119 o
3 10 14 162.687 170.551 28.124 119.800 o
3 10 15 924.331 893.320 50.795 28.976 o
3 10 16 1453.510 1640.200 68.478 14.584 o
3 10 17 80.326 75.106 26.078 146.450 o
3 10 18 58.104 47.160 36.933 75.295 o
3 10 19 910.947 984.567 85.797 12.384 o
3 10 20 303.728 327.791 61.933 25.915 o
3 11 0 1492.260 1594.330 49.555 21.076 o
3 11 1 896.600 865.668 49.370 30.630 o
3 11 2 730.264 738.617 35.627 52.822 o
3 11 3 1288.190 1264.540 44.347 27.510 o
3 11 4 3332.510 3285.530 108.735 4.684 o
3 11 5 1227.960 1228.820 44.935 28.070 o
3 11 6 868.103 839.857 47.105 33.255 o
3 11 7 1441.300 1371.460 97.701 8.890 o
3 11 8 1995.980 1951.280 71.864 11.383 o
3 11 9 1113.940 1113.750 70.740 16.208 o
3 11 10 140.004 187.084 22.417 181.002 o
3 11 11 305.401 329.080 32.682 82.893 o
3 11 12 147.336 172.216 26.661 132.945 o
3 11 13 756.984 801.142 49.267 32.644 o
3 11 14 523.381 561.479 44.510 43.321 o
3 11 15 332.155 433.600 41.359 53.513 o
3 11 16 40.069 29.925 32.387 98.150 o
3 11 17 686.214 683.310 53.034 30.282 o
3 11 18 1390.410 1463.570 68.707 15.120 o
3 11 19 139.976 85.797 42.046 57.237 o
3 12 0 190.342 196.765 23.503 160.578 o
3 12 1 64.029 39.317 17.410 321.120 o
3 12 2 638.996 651.652 36.117 55.644 o
3 12 3 976.890 984.647 41.139 36.738 o
3 12 4 788.722 771.913 38.604 45.807 o
3 12 5 310.024 340.217 34.545 75.062 o
3 12 6 2478.760 2557.930 84.573 7.830 o
3 12 7 730.345 811.174 55.086 27.602 o
3 12 8 305.334 298.817 35.957 70.744 o
3 12 9 760.760 742.252 51.824 30.447 o
3 12 10 615.630 665.298 69.888 19.177 o
3 12 11 1190.840 1229.460 84.661 11.845 o
3 12 12 129.452 89.207 38.637 67.554 o
3 12 13 380.262 326.655 55.683 31.267 o
3 12 14 289.363 311.670 37.928 64.600 o
3 12 15 321.742 328.903 38.514 61.971 o
3 12 16 801.449 886.397 55.427 26.482 o
3 12 17 407.316 398.133 42.582 49.910 o
3 12 18 384.362 379.472 42.582 50.433 o
3 13 0 917.470 887.777 40.816 39.017 o
3 13 1 185.020 233.647 25.157 141.726 o
3 13 2 495.748 505.454 33.894 68.168 o
3 13 3 99.989 93.405 20.987 216.396 o
3 13 4 1562.080 1492.710 78.382 12.024 o
3 13 5 1157.690 1258.700 59.638 20.193 o
3 13 6 1077.010 1086.180 99.718 9.230 o
3 13 7 800.782 778.924 117.588 7.128 o
3 13 8 2359.710 2496.350 87.380 7.811 o
3 13 9 333.403 367.812 43.655 49.097 o
3 13 10 305.567 318.700 55.115 32.341 o
3 13 11 464.616 424.952 63.638 23.831 o
3 13 12 1082.140 1035.700 84.093 12.418 o
3 13 13 46.547 36.933 42.614 56.916 o
3 13 14 234.777 221.596 52.842 35.767 o
3 13 15 338.988 406.202 63.638 24.346 o
3 13 16 582.454 645.412 76.138 16.525 o
3 14 0 168.673 139.804 30.541 103.413 o
3 14 1 29.502 15.389 27.600 135.317 o
3 14 2 802.783 841.620 43.275 38.421 o
3 14 3 626.295 605.974 39.113 50.474 o
3 14 4 229.920 248.897 34.265 80.100 o
3 14 5 115.629 93.870 29.077 116.867 o
3 14 6 1960.750 2029.990 79.660 10.073 o
3 14 7 416.675 424.369 43.982 46.845 o
3 14 8 450.504 462.880 46.921 41.194 o
3 14 9 483.208 511.318 67.615 21.089 o
3 14 10 853.388 861.268 84.661 12.908 o
3 14 11 18.395 36.364 36.933 75.969 o
3 14 12 340.645 444.839 67.615 21.641 o
3 14 13 285.196 334.041 61.365 26.433 o
3 14 14 238.118 341.428 58.524 29.124 o
3 15 0 2579.800 2572.820 73.575 8.752 o
3 15 1 217.072 285.637 31.484 92.960 o
3 15 2 274.634 304.266 31.489 90.122 o
3 15 3 515.361 492.858 46.183 41.310 o
3 15 4 1146.740 1147.990 62.615 19.221 o
3 15 5 73.549 91.193 29.930 112.351 o
3 15 6 17.961 21.207 26.032 152.370 o
3 15 7 424.996 404.315 46.941 41.814 o
3 15 8 1252.260 1317.530 93.752 9.841 o
3 15 9 110.161 184.663 48.865 42.581 o
3 15 10 218.562 255.687 55.683 32.343 o
3 15 11 213.781 250.005 57.956 29.976 o
3 15 12 430.446 488.590 71.592 19.135 o
3 16 0 6.548 36.503 21.903 214.762 o
3 16 1 683.786 697.585 43.690 40.980 o
3 16 2 1189.150 1306.310 61.498 19.038 o
3 16 3 9.299 41.648 32.671 97.053 o
3 16 4 76.510 109.310 33.145 91.897 o
3 16 5 375.276 368.895 43.591 48.611 o
3 16 6 772.690 906.724 90.911 11.449 o
3 16 7 52.297 68.751 39.774 65.001 o
3 16 8 38.259 43.183 36.933 75.630 o
3 16 9 116.761 166.481 52.274 37.339 o
3 17 0 568.597 599.398 58.121 27.024 o
3 17 1 267.284 306.050 35.307 74.031 o
3 17 2 149.759 213.485 42.899 54.222 o
3 17 3 591.671 527.449 51.225 33.708 o
3 17 4 136.067 146.312 44.603 50.787 o
4 0 0 14770.000 13057.300 159.296 0.519 o
4 0 1 5206.580 5090.320 43.371 3.973 o
4 0 2 1026.250 943.902 12.027 78.412 o
4 0 3 7252.280 6829.910 61.614 2.127 o
4 0 4 10562.000 9927.240 87.018 1.025 o
4 0 5 3299.110 3346.320 32.921 9.057 o
4 0 6 46.524 44.541 4.328 2882.890 o
4 0 7 358.597 288.595 9.159 355.315 o
4 0 8 9614.460 9230.940 85.670 1.202 o
4 0 9 202.306 191.487 9.293 555.813 o
4 0 10 90.977 110.999 8.185 961.976 o
4 0 11 1823.510 1848.040 38.238 21.167 o
4 0 12 2787.460 2625.550 44.004 11.344 o
4 0 13 102.090 85.685 15.500 370.938 o
4 0 14 4711.460 4576.670 92.309 3.654 o
4 0 15 2086.690 2103.320 56.147 13.774 o
4 0 16 1.795 -6.776 13.438 576.256 o
4 0 17 2346.280 2260.890 88.053 7.967 o
4 0 18 3091.180 3100.350 76.529 6.945 o
4 0 19 707.562 724.988 47.416 35.685 o
4 0 20 595.663 634.573 38.947 51.169 o
4 0 21 667.740 753.561 42.707 42.189 o
4 0 22 1358.890 1467.170 56.646 19.560 o
4 0 23 465.243 522.200 45.782 42.399 o
4 0 24 465.257 542.152 41.281 50.245 o
4 1 0 7982.870 7325.870 60.596 1.819 o
4 1 1 11397.900 11640.600 89.001 0.846 o
4 1 2 15277.100 15684.700 128.353 0.468 o
4 1 3 2439.120 2517.420 25.127 15.762 o
4 1 4 366.807 403.850 12.422 257.218 o
4 1 5 3568.260 3844.310 40.966 7.310 o
4 1 6 12437.500 12434.100 105.023 0.714 o
4 1 7 1792.670 1760.810 21.228 27.835 o
4 1 8 2471.550 2444.260 28.166 15.414 o
4 1 9 970.157 958.159 17.378 73.343 o
4 1 10 7361.890 7100.900 76.866 1.961 o
4 1 11 878.691 884.896 20.478 75.757 o
4 1 12 400.544 406.746 17.784 176.474 o
4 1 13 4531.730 4375.000 81.445 4.148 o
4 1 14 3352.890 3410.470 75.532 6.329 o
4 1 15 1227.550 1199.510 41.808 30.496 o
4 1 16 4287.480 4201.990 91.274 4.149 o
4 1 17 1394.680 1383.910 47.657 23.789 o
4 1 18 167.002 124.503 21.266 198.954 o
4 1 19 236.432 195.981 25.190 138.546 o
4 1 20 634.233 636.476 39.059 50.052 o
4 1 21 323.730 305.271 30.472 92.923 o
4 1 22 773.918 724.597 44.275 38.561 o
4 1 23 1144.290 1177.230 53.711 23.655 o
4 1 24 486.983 480.116 39.099 55.092 o
4 2 0 3259.760 3712.350 43.668 8.075 o
4 2 1 6297.580 6220.070 56.201 2.703 o
4 2 2 1332.060 1333.750 16.610 46.685 o
4 2 3 4959.200 5215.440 52.585 4.007 o
4 2 4 7231.750 7501.710 73.599 1.957 o
4 2 5 5747.630 5716.730 62.138 3.097 o
4 2 6 13063.500 12829.200 121.282 0.644 o
4 2 7 252.354 284.406 8.263 481.334 o
4 2 8 6659.020 6678.310 64.466 2.369 o
4 2 9 181.128 180.163 8.801 624.929 o
4 2 10 3325.910 3286.500 41.917 8.565 o
4 2 11 4660.540 4702.050 56.435 4.481 o
4 2 12 6555.840 6514.450 83.200 2.298 o
4 2 13 1066.370 1091.690 49.371 27.574 o
4 2 14 887.091 886.374 38.264 42.872 o
4 2 15 1986.380 1934.540 65.729 12.605 o
4 2 16 1612.640 1714.400 99.317 8.199 o
4 2 17 1308.440 1336.350 46.757 25.401 o
4 2 18 800.603 871.339 40.548 41.708 o
4 2 19 66.467 60.323 19.653 253.295 o
4 2 20 1039.220 1027.290 45.968 30.914 o
4 2 21 426.030 395.962 43.375 48.062 o
4 2 22 371.780 370.934 34.954 71.168 o
4 2 23 213.317 227.859 31.043 96.704 o
4 2 24 75.376 72.209 24.705 162.853 o
4 3 0 27.023 30.666 4.587 3325.340 o
4 3 1 2845.690 2620.510 27.769 12.697 o
4 3 2 4429.460 4177.990 39.866 5.473 o
4 3 3 2697.150 2659.850 33.104 12.856 o
4 3 4 4225.760 4073.350 49.982 5.585 o
4 3 5 977.617 907.442 17.552 74.252 o
4 3 6 5497.170 5517.030 59.592 3.357 o
4 3 7 6708.460 6529.500 62.076 2.396 o
4 3 8 7217.120 7103.550 71.658 2.037 o
4 3 9 1943.010 1944.500 27.172 22.679 o
4 3 10 1114.750 1122.150 25.905 49.452 o
4 3 11 3827.580 3783.350 50.665 6.449 o
4 3 12 88.030 80.699 10.366 729.875 o
4 3 13 6451.580 6590.990 89.260 2.271 o
4 3 14 1817.350 1754.890 51.951 17.256 o
4 3 15 1401.370 1443.130 47.027 23.756 o
4 3 16 354.366 347.805 27.695 105.105 o
4 3 17 273.132 254.943 25.515 129.942 o
4 3 18 1310.490 1289.360 52.287 22.589 o
4 3 19 48.437 64.408 20.169 243.915 o
4 3 20 955.696 935.030 45.426 33.115 o
4 3 21 217.581 230.586 31.094 96.182 o
4 3 22 740.057 722.407 46.981 35.788 o
4 3 23 653.111 657.456 52.099 31.600 o
4 3 24 331.640 359.689 41.904 52.918 o
4 4 0 9676.680 9364.870 84.673 1.185 o
4 4 1 436.708 494.571 9.737 244.517 o
4 4 2 3283.620 3372.100 33.750 9.022 o
4 4 3 7151.880 7119.410 62.779 2.105 o
4 4 4 10063.000 9621.040 98.161 1.084 o
4 4 5 3680.190 3775.800 48.110 6.842 o
4 4 6 2551.130 2435.500 35.483 13.980 o
4 4 7 53.692 60.573 6.469 1639.210 o
4 4 8 1647.600 1506.650 22.597 32.334 o
4 4 9 4496.430 4385.620 50.914 4.979 o
4 4 10 514.883 510.675 15.127 166.248 o
4 4 11 4403.740 4301.210 59.576 4.919 o
4 4 12 263.089 307.785 20.510 179.507 o
4 4 13 4699.380 4737.810 73.512 4.042 o
4 4 14 130.185 121.771 19.548 237.379 o
4 4 15 1615.920 1630.470 50.518 19.572 o
4 4 16 751.171 733.152 36.486 50.734 o
4 4 17 1575.470 1470.160 51.488 20.114 o
4 4 18 2108.520 2066.960 62.775 12.461 o
4 4 19 46.524 61.533 22.662 195.514 o
4 4 20 1713.860 1669.030 98.013 8.258 o
4 4 21 199.322 207.469 33.934 83.098 o
4 4 22 673.528 642.109 66.195 20.941 o
4 4 23 230.722 229.307 36.289 72.406 o
4 4 24 395.917 355.275 86.621 13.444 o
4 5 0 3816.210 3756.030 39.897 6.914 o
4 5 1 8669.680 8738.950 84.673 1.408 o
4 5 2 12385.300 12417.300 108.135 0.714 o
4 5 3 1422.960 1596.450 21.240 37.080 o
4 5 4 1344.340 1361.110 20.058 43.354 o
4 5 5 6365.220 6439.990 64.038 2.554 o
4 5 6 2444.450 2393.280 29.427 15.609 o
4 5 7 4046.520 4075.740 44.965 6.018 o
4 5 8 3429.150 3408.160 41.555 8.144 o
4 5 9 415.036 422.069 15.307 198.917 o
4 5 10 348.088 356.482 13.700 253.297 o
4 5 11 3098.190 3033.460 46.946 9.258 o
4 5 12 853.305 807.010 26.337 66.263 o
4 5 13 1359.540 1421.690 34.414 31.913 o
4 5 14 329.007 432.058 26.254 112.736 o
4 5 15 3248.200 3299.260 92.599 5.573 o
4 5 16 340.577 264.999 38.893 61.185 o
4 5 17 629.806 528.559 41.194 47.380 o
4 5 18 337.003 342.396 34.613 73.920 o
4 5 19 830.076 811.398 49.820 31.246 o
4 5 20 1297.240 1357.430 62.696 17.830 o
4 5 21 192.388 239.267 34.947 78.476 o
4 5 22 686.005 645.968 54.547 29.067 o
4 5 23 749.282 725.196 57.113 26.204 o
4 6 0 4.455 25.965 5.796 2768.320 o
4 6 1 1682.970 1697.260 26.494 28.272 o
4 6 2 1627.220 1643.360 23.754 30.878 o
4 6 3 14200.900 13869.300 129.720 0.550 o
4 6 4 9544.290 9229.630 89.483 1.204 o
4 6 5 4165.890 4213.280 46.916 5.660 o
4 6 6 2999.330 3040.980 38.044 10.265 o
4 6 7 1166.080 1138.900 20.224 53.838 o
4 6 8 1427.980 1448.070 24.970 36.524 o
4 6 9 3966.040 3960.760 54.851 5.905 o
4 6 10 5452.970 5404.380 78.248 3.161 o
4 6 11 418.441 393.249 21.647 138.886 o
4 6 12 2190.820 2077.080 46.882 15.212 o
4 6 13 2366.270 2294.490 51.620 12.863 o
4 6 14 463.329 512.986 30.107 82.430 o
4 6 15 567.725 553.811 29.872 77.083 o
4 6 16 389.446 394.915 65.910 22.636 o
4 6 17 1763.030 1845.730 69.915 12.698 o
4 6 18 790.269 826.582 49.531 31.872 o
4 6 19 219.695 222.125 32.514 88.865 o
4 6 20 276.415 287.775 37.454 66.644 o
4 6 21 716.940 759.069 54.570 28.342 o
4 6 22 261.741 285.461 39.478 60.913 o
4 6 23 374.617 416.998 69.320 20.587 o
4 7 0 1469.670 1482.690 25.525 34.837 o
4 7 1 2120.080 2091.130 35.185 18.207 o
4 7 2 3251.100 3090.000 39.353 9.235 o
4 7 3 3418.860 3365.620 50.923 7.700 o
4 7 4 1568.150 1528.170 26.535 31.787 o
4 7 5 2346.800 2294.370 35.047 15.765 o
4 7 6 379.060 359.792 15.304 217.729 o
4 7 7 6195.640 5878.270 76.856 2.649 o
4 7 8 2933.920 2738.430 47.270 10.246 o
4 7 9 1166.420 1157.500 27.951 44.873 o
4 7 10 1457.460 1482.020 70.439 14.326 o
4 7 11 4211.850 4153.780 75.141 4.751 o
4 7 12 1678.890 1665.950 46.501 20.420 o
4 7 13 823.779 835.096 40.743 41.349 o
4 7 14 1440.200 1408.020 45.389 24.381 o
4 7 15 2867.950 2765.420 68.275 8.394 o
4 7 16 29.044 62.413 17.201 335.383 o
4 7 17 137.486 133.056 54.831 33.988 o
4 7 18 255.618 190.466 31.061 95.595 o
4 7 19 1304.970 1391.640 64.476 17.046 o
4 7 20 293.497 250.240 35.992 71.596 o
4 7 21 81.275 100.570 46.024 48.404 o
4 7 22 482.445 541.432 74.433 17.602 o
4 8 0 412.621 406.300 15.594 198.276 o
4 8 1 3823.860 3726.580 51.645 6.467 o
4 8 2 1981.860 1928.800 35.472 20.079 o
4 8 3 1231.450 1235.610 26.586 43.200 o
4 8 4 131.406 138.248 11.685 528.513 o
4 8 5 4309.470 4259.750 59.286 5.068 o
4 8 6 6547.120 6349.440 82.516 2.340 o
4 8 7 927.515 846.027 27.536 59.535 o
4 8 8 736.685 689.550 25.937 76.747 o
4 8 9 4717.090 4494.660 80.248 3.970 o
4 8 10 930.370 952.838 31.910 50.070 o
4 8 11 937.876 1025.770 49.535 29.167 o
4 8 12 777.562 807.904 30.886 59.663 o
4 8 13 2012.240 2024.400 55.619 14.440 o
4 8 14 19.938 33.715 15.306 428.884 o
4 8 15 574.074 566.918 34.455 62.865 o
4 8 16 1207.800 1234.840 46.363 27.315 o
4 8 17 971.759 927.592 58.729 22.916 o
4 8 18 119.442 100.002 40.342 62.196 o
4 8 19 47.727 66.479 38.637 68.898 o
4 8 20 566.042 594.274 75.570 16.855 o
4 8 21 780.438 828.938 86.365 12.614 o
4 9 0 28.889 34.390 13.246 558.447 o
4 9 1 8549.110 8415.840 129.450 1.290 o
4 9 2 202.523 206.701 19.002 223.838 o
4 9 3 2899.950 2860.350 55.976 9.336 o
4 9 4 3629.300 3699.110 59.737 6.475 o
4 9 5 1297.290 1224.420 31.006 37.684 o
4 9 6 2589.840 2463.670 46.711 12.204 o
4 9 7 1769.210 1855.940 43.752 19.810 o
4 9 8 3573.680 3525.970 67.598 6.322 o
4 9 9 329.377 362.808 22.371 145.886 o
4 9 10 626.089 622.957 29.603 73.422 o
4 9 11 1083.470 1148.600 64.739 18.616 o
4 9 12 366.417 385.737 26.874 107.827 o
4 9 13 465.466 417.883 46.308 42.240 o
4 9 14 1163.460 1227.740 78.979 13.319 o
4 9 15 774.590 778.660 46.476 35.539 o
4 9 16 663.089 663.553 49.118 34.633 o
4 9 17 23.383 62.697 24.351 171.949 o
4 9 18 431.068 564.160 71.024 19.320 o
4 9 19 953.786 943.088 84.661 12.632 o
4 9 20 13.114 0.568 33.523 92.546 o
4 9 21 373.271 469.271 70.456 19.898 o
4 10 0 31.691 56.523 17.093 339.526 o
4 10 1 3837.930 3878.880 87.103 4.861 o
4 10 2 155.207 167.820 31.023 100.440 o
4 10 3 1301.860 1252.240 67.510 16.309 o
4 10 4 2074.090 1964.270 54.917 14.435 o
4 10 5 686.235 701.623 34.770 56.387 o
4 10 6 3267.910 3309.970 73.843 6.647 o
4 10 7 671.010 700.344 33.175 60.447 o
4 10 8 2323.840 2214.800 59.361 11.942 o
4 10 9 627.054 607.448 33.067 63.936 o
4 10 10 93.359 104.601 19.701 242.942 o
4 10 11 826.089 788.258 37.493 46.484 o
4 10 12 612.943 565.951 35.160 59.865 o
4 10 13 804.637 831.489 47.207 34.010 o
4 10 14 1657.050 1630.010 66.091 14.426 o
4 10 15 248.782 242.697 32.544 87.282 o
4 10 16 294.600 321.509 37.953 64.294 o
4 10 17 780.179 822.156 54.200 27.866 o
4 10 18 558.648 520.977 69.320 19.888 o
4 10 19 50.677 123.298 44.319 52.290 o
4 10 20 46.016 65.910 40.342 63.293 o
4 11 0 10.883 46.787 24.328 173.791 o
4 11 1 1423.670 1486.990 80.790 11.869 o
4 11 2 1608.150 1580.850 93.528 9.103 o
4 11 3 452.043 446.682 30.701 82.258 o
4 11 4 2607.050 2624.060 107.882 5.697 o
4 11 5 437.882 544.487 35.696 64.156 o
4 11 6 2519.880 2544.360 120.713 5.004 o
4 11 7 600.223 586.615 43.178 44.041 o
4 11 8 58.725 44.908 21.651 212.958 o
4 11 9 1486.430 1535.700 52.757 20.025 o
4 11 10 335.053 408.407 30.830 88.187 o
4 11 11 1740.400 1712.290 55.222 16.885 o
4 11 12 152.481 178.194 28.628 116.334 o
4 11 13 1021.450 1141.950 93.752 10.320 o
4 11 14 42.978 58.613 24.305 171.211 o
4 11 15 553.875 549.727 48.297 37.521 o
4 11 16 1466.820 1464.320 190.317 2.706 o
4 11 17 181.616 234.331 35.823 75.309 o
4 11 18 189.802 190.919 34.892 79.430 o
4 12 0 2471.240 2482.250 66.432 9.988 o
4 12 1 1104.570 1129.380 44.127 30.898 o
4 12 2 741.660 767.057 38.216 47.561 o
4 12 3 227.702 237.511 26.055 129.897 o
4 12 4 2285.980 2246.310 72.878 9.972 o
4 12 5 690.118 704.522 45.352 38.586 o
4 12 6 707.149 811.152 50.504 31.896 o
4 12 7 602.688 627.505 47.146 37.962 o
4 12 8 1067.300 1126.700 57.880 22.089 o
4 12 9 1086.860 1097.820 57.645 22.181 o
4 12 10 460.079 470.003 64.206 23.372 o
4 12 11 776.879 792.022 65.648 20.473 o
4 12 12 455.373 497.681 65.910 22.232 o
4 12 13 824.076 931.156 90.343 11.485 o
4 12 14 727.231 786.056 52.579 29.869 o
4 12 15 385.188 408.377 69.888 20.254 o
4 12 16 250.437 318.097 41.169 56.339 o
4 12 17 13.550 65.383 43.751 54.165 o
4 13 0 42.239 58.257 19.813 253.919 o
4 13 1 28.327 18.584 17.634 325.870 o
4 13 2 1366.010 1474.780 61.468 17.613 o
4 13 3 2114.780 2123.780 63.073 12.274 o
4 13 4 1719.070 1760.790 70.740 12.816 o
4 13 5 207.258 181.363 31.089 97.675 o
4 13 6 397.917 401.610 40.555 54.436 o
4 13 7 389.487 391.034 41.289 53.029 o
4 13 8 212.935 230.126 35.876 74.375 o
4 13 9 505.311 500.468 63.069 23.896 o
4 13 10 1231.640 1198.820 104.832 8.233 o
4 13 11 390.108 388.020 63.638 24.192 o
4 13 12 229.102 270.460 56.251 31.632 o
4 13 13 397.627 451.657 65.910 22.514 o
4 13 14 519.124 502.795 69.320 20.041 o
4 13 15 37.661 53.410 39.774 65.259 o
4 14 0 1500.750 1496.250 54.502 19.368 o
4 14 1 502.219 494.359 36.333 61.278 o
4 14 2 177.325 177.915 26.528 131.845 o
4 14 3 31.617 54.368 23.238 188.020 o
4 14 4 833.406 799.318 59.064 24.024 o
4 14 5 858.862 926.701 56.582 25.070 o
4 14 6 311.512 355.937 41.408 54.428 o
4 14 7 775.355 762.361 57.014 25.963 o
4 14 8 1175.630 1147.470 63.923 18.506 o
4 14 9 71.550 80.661 30.967 105.441 o
4 14 10 183.890 218.755 52.842 36.070 o
4 14 11 301.308 306.768 59.660 27.881 o
4 14 12 808.162 949.907 93.184 10.870 o
4 14 13 65.473 148.299 49.433 42.008 o
4 15 0 16.816 -20.489 20.081 256.143 o
4 15 1 134.452 128.650 26.205 139.645 o
4 15 2 1172.910 1206.980 62.428 19.001 o
4 15 3 335.882 349.644 40.975 55.084 o
4 15 4 36.085 -0.330 24.871 166.263 o
4 15 5 498.828 502.757 48.208 38.534 o
4 15 6 360.956 367.826 85.201 13.915 o
4 15 7 42.125 48.887 30.101 113.007 o
4 15 8 8.016 -30.363 25.783 156.451 o
4 15 9 302.228 280.688 57.388 30.075 o
4 15 10 591.062 510.181 73.297 17.875 o
4 15 11 254.148 269.892 58.524 29.209 o
4 16 0 892.445 1012.120 82.817 13.180 o
4 16 1 386.228 401.864 44.548 46.396 o
4 16 2 48.541 83.532 28.517 124.622 o
4 16 3 478.986 479.787 47.980 39.205 o
4 16 4 562.990 541.989 51.430 33.680 o
4 16 5 33.469 25.744 28.624 125.552 o
4 16 6 99.567 97.941 33.905 87.517 o
4 16 7 277.678 264.369 61.337 26.614 o
4 16 8 565.251 564.728 76.706 16.432 o
5 0 1 6460.330 6496.950 55.340 2.561 o
5 0 2 24032.800 23560.700 180.898 0.199 o
5 0 3 11.744 11.305 3.503 6379.700 o
5 0 4 1298.890 1335.830 17.635 47.110 o
5 0 5 2308.330 2422.210 27.367 16.797 o
5 0 6 776.212 786.789 16.434 99.238 o
5 0 7 45.498 59.039 5.768 1987.910 o
5 0 8 246.989 282.629 11.470 376.939 o
5 0 9 11950.000 11592.700 125.682 0.754 o
5 0 10 14774.500 14732.200 157.186 0.487 o
5 0 11 41.635 64.121 13.298 533.022 o
5 0 12 4687.760 4622.860 66.968 4.256 o
5 0 13 6830.480 6713.970 124.105 1.838 o
5 0 14 393.864 409.404 26.265 108.537 o
5 0 15 1084.600 964.048 37.971 38.319 o
5 0 16 1514.390 1437.880 47.288 22.571 o
5 0 17 599.453 608.854 34.022 62.429 o
5 0 18 192.794 209.294 24.349 150.307 o
5 0 19 105.095 74.472 20.320 230.265 o
5 0 20 674.299 673.943 42.483 43.102 o
5 0 21 569.302 605.490 40.893 48.355 o
5 0 22 723.853 755.617 45.365 37.714 o
5 0 23 599.012 673.659 44.069 41.976 o
5 0 24 563.836 660.906 62.713 23.503 o
5 1 0 15182.000 14284.900 108.326 0.511 o
5 1 1 14108.800 14051.200 108.575 0.565 o
5 1 2 1048.960 1134.810 17.144 63.413 o
5 1 3 6616.940 6528.170 58.036 2.463 o
5 1 4 1422.550 1551.890 18.250 39.331 o
5 1 5 378.848 374.759 9.498 306.975 o
5 1 6 111.163 125.786 6.733 1082.210 o
5 1 7 591.160 576.233 12.364 161.974 o
5 1 8 2493.080 2544.290 35.827 13.956 o
5 1 9 772.579 747.250 16.028 103.051 o
5 1 10 3007.220 2980.260 39.199 10.257 o
5 1 11 7221.120 7149.670 84.644 1.951 o
5 1 12 5563.750 5610.440 77.140 3.050 o
5 1 13 253.615 219.203 17.928 229.843 o
5 1 14 1421.880 1369.920 66.576 15.846 o
5 1 15 1952.610 1941.730 55.330 15.024 o
5 1 16 9.092 -1.259 14.136 516.465 o
5 1 17 522.980 495.157 51.085 34.667 o
5 1 18 499.407 465.080 60.483 25.902 o
5 1 19 867.831 803.411 40.999 40.483 o
5 1 20 571.368 573.443 38.860 52.608 o
5 1 21 811.248 793.411 59.654 23.798 o
5 1 22 309.133 297.085 40.423 57.399 o
5 1 23 402.561 499.377 71.518 19.230 o
5 1 24 30.794 19.068 21.829 214.465 o
5 2 0 4455.970 4564.370 41.280 5.134 o
5 2 1 12068.500 11795.100 94.193 0.776 o
5 2 2 9900.240 9779.690 82.857 1.127 o
5 2 3 9225.910 8882.980 86.196 1.291 o
5 2 4 301.022 329.488 10.461 351.046 o
5 2 5 894.562 871.434 17.736 81.282 o
5 2 6 160.375 209.577 11.272 487.616 o
5 2 7 2818.980 2740.420 41.127 11.280 o
5 2 8 6149.190 6178.820 65.413 2.710 o
5 2 9 1519.510 1540.110 23.237 34.386 o
5 2 10 7160.280 7088.130 77.684 2.022 o
5 2 11 377.872 354.420 20.276 159.616 o
5 2 12 1911.950 1930.100 34.988 20.890 o
5 2 13 2026.070 2121.490 48.525 15.703 o
5 2 14 1943.710 1971.290 53.834 15.354 o
5 2 15 79.158 68.049 16.892 330.132 o
5 2 16 274.665 257.594 24.792 135.846 o
5 2 17 605.230 606.213 35.189 59.412 o
5 2 18 1031.830 1054.830 44.616 31.991 o
5 2 19 754.616 757.799 40.735 43.442 o
5 2 20 513.479 482.642 36.776 59.987 o
5 2 21 1130.960 1133.290 51.460 25.322 o
5 2 22 165.702 156.247 27.376 126.059 o
5 2 23 707.309 747.913 47.786 35.122 o
5 2 24 537.755 607.017 43.761 43.954 o
5 3 0 13963.600 13926.400 121.023 0.566 o
5 3 1 11878.100 11397.900 131.547 0.758 o
5 3 2 3110.760 3181.330 31.059 10.078 o
5 3 3 2456.560 2466.060 30.382 15.151 o
5 3 4 3268.300 3186.490 42.514 8.835 o
5 3 5 4910.750 4817.600 60.741 4.089 o
5 3 6 6116.790 5955.530 74.665 2.691 o
5 3 7 1288.640 1250.600 25.154 42.632 o
5 3 8 1833.550 1796.090 32.730 23.177 o
5 3 9 5365.090 5267.340 71.525 3.364 o
5 3 10 3974.490 4022.340 47.916 6.087 o
5 3 11 5226.050 5142.900 62.775 3.649 o
5 3 12 2636.170 2566.310 41.499 12.427 o
5 3 13 2469.030 2359.160 47.377 12.903 o
5 3 14 404.837 444.543 28.769 93.256 o
5 3 15 1064.720 1027.970 41.736 34.321 o
5 3 16 1552.460 1572.890 51.492 19.897 o
5 3 17 285.731 327.024 29.106 101.712 o
5 3 18 742.925 752.563 39.778 45.182 o
5 3 19 708.131 754.957 51.187 31.503 o
5 3 20 1135.130 1203.230 52.227 24.495 o
5 3 21 1145.940 1186.890 52.435 24.348 o
5 3 22 405.322 372.863 38.078 60.763 o
5 3 23 510.494 491.735 46.434 41.003 o
5 4 0 4907.730 4847.280 48.056 4.310 o
5 4 1 686.352 721.185 14.589 120.777 o
5 4 2 12641.900 12577.400 104.272 0.695 o
5 4 3 899.701 879.184 17.776 80.497 o
5 4 4 1947.320 1927.500 30.001 21.955 o
5 4 5 1147.000 1104.210 23.324 51.713 o
5 4 6 2077.550 2112.950 34.830 18.554 o
5 4 7 2529.860 2426.360 43.092 13.071 o
5 4 8 7736.880 7717.590 95.256 1.674 o
5 4 9 4301.630 4293.580 60.834 5.012 o
5 4 10 302.246 306.973 16.780 225.029 o
5 4 11 3248.910 3212.360 42.798 8.836 o
5 4 12 862.729 776.181 22.417 75.805 o
5 4 13 2451.860 2455.330 47.273 12.773 o
5 4 14 695.764 676.752 34.114 57.894 o
5 4 15 591.646 574.617 33.154 65.597 o
5 4 16 778.700 779.513 38.315 46.402 o
5 4 17 467.781 439.522 46.558 41.684 o
5 4 18 1135.200 1120.480 50.195 26.160 o
5 4 19 373.949 398.716 48.581 39.894 o
5 4 20 1858.560 1864.740 74.504 11.440 o
5 4 21 73.897 80.472 27.816 129.622 o
5 4 22 380.592 292.353 37.678 63.439 o
5 4 23 86.137 111.082 29.338 115.816 o
5 5 0 1536.640 1488.890 21.483 35.497 o
5 5 1 1149.690 1140.820 19.428 55.416 o
5 5 2 3669.990 3567.660 40.362 7.419 o
5 5 3 2134.650 2072.350 24.847 20.366 o
5 5 4 4006.810 3899.570 49.522 6.080 o
5 5 5 1927.690 1872.430 29.731 22.569 o
5 5 6 2471.190 2389.810 39.289 14.030 o
5 5 7 4844.770 4801.760 65.095 4.069 o
5 5 8 304.652 361.984 16.148 226.696 o
5 5 9 4694.590 4621.100 69.743 4.186 o
5 5 10 3440.160 3463.110 56.568 7.224 o
5 5 11 1307.090 1262.660 24.437 42.536 o
5 5 12 500.298 474.185 22.226 120.372 o
5 5 13 1519.970 1468.200 35.862 28.108 o
5 5 14 147.424 159.973 17.923 265.734 o
5 5 15 740.428 745.585 42.446 41.365 o
5 5 16 229.605 202.488 28.372 113.177 o
5 5 17 1233.810 1275.840 55.059 21.840 o
5 5 18 2296.870 2382.850 81.264 8.709 o
5 5 19 307.565 286.067 34.706 75.386 o
5 5 20 1236.840 1266.440 62.122 18.622 o
5 5 21 1199.720 1195.910 62.370 18.911 o
5 5 22 141.881 166.472 31.806 96.393 o
5 5 23 100.852 151.701 31.806 98.055 o
5 6 0 3674.420 3589.540 43.590 7.245 o
5 6 1 2066.470 2091.680 29.324 20.010 o
5 6 2 619.752 598.171 13.399 147.658 o
5 6 3 1670.650 1652.820 22.559 30.470 o
5 6 4 5059.440 4830.930 51.224 4.115 o
5 6 5 4316.090 4320.710 66.097 4.824 o
5 6 6 717.170 710.777 20.695 94.367 o
5 6 7 4275.560 4099.640 59.748 5.199 o
5 6 8 7326.810 7075.590 97.289 1.851 o
5 6 9 483.521 525.688 21.263 125.413 o
5 6 10 1077.560 1117.340 32.992 42.257 o
5 6 11 790.813 764.440 27.389 67.952 o
5 6 12 377.018 379.278 22.703 136.291 o
5 6 13 63.825 47.135 13.127 534.608 o
5 6 14 381.316 376.856 26.724 107.961 o
5 6 15 809.661 889.762 36.687 46.903 o
5 6 16 617.540 666.264 67.047 20.645 o
5 6 17 802.063 840.537 105.372 8.732 o
5 6 18 900.645 987.194 52.665 27.286 o
5 6 19 1993.470 1991.050 76.688 10.511 o
5 6 20 534.221 511.516 45.494 41.981 o
5 6 21 72.762 116.234 29.338 116.276 o
5 6 22 718.035 721.787 58.240 25.591 o
5 7 0 101.342 85.501 9.031 853.631 o
5 7 1 1247.640 1193.840 23.584 46.230 o
5 7 2 2926.260 2900.300 44.503 10.244 o
5 7 3 2207.730 2093.710 30.304 18.480 o
5 7 4 711.112 732.422 16.491 109.344 o
5 7 5 4627.300 4417.950 54.636 4.715 o
5 7 6 3754.350 3777.330 51.042 6.573 o
5 7 7 177.984 181.979 12.602 421.793 o
5 7 8 1156.850 1110.580 21.362 53.517 o
5 7 9 4192.290 3985.930 54.712 5.550 o
5 7 10 2157.960 2183.050 48.462 14.772 o
5 7 11 1378.560 1370.680 38.273 29.487 o
5 7 12 1277.760 1224.280 55.833 21.323 o
5 7 13 196.893 191.451 18.282 240.814 o
5 7 14 242.287 235.956 23.588 151.749 o
5 7 15 163.081 150.687 20.194 215.723 o
5 7 16 811.307 802.506 46.747 34.598 o
5 7 17 2025.710 1920.800 92.871 8.239 o
5 7 18 395.159 423.781 46.308 43.074 o
5 7 19 53.839 74.924 26.204 146.777 o
5 7 20 944.342 1041.320 59.537 22.259 o
5 7 21 698.283 602.598 51.531 32.003 o
5 8 0 426.551 488.571 17.500 165.995 o
5 8 1 2055.610 1986.700 33.227 19.697 o
5 8 2 487.589 494.706 20.267 133.492 o
5 8 3 2233.190 2132.840 39.376 16.304 o
5 8 4 2256.400 2269.970 41.572 15.278 o
5 8 5 316.315 305.610 16.433 226.899 o
5 8 6 811.844 818.619 22.918 76.451 o
5 8 7 5465.920 5272.750 88.055 3.041 o
5 8 8 2995.520 2925.880 58.544 8.750 o
5 8 9 300.842 304.494 20.958 168.313 o
5 8 10 332.719 313.537 21.459 157.521 o
5 8 11 877.815 854.377 31.328 54.343 o
5 8 12 754.464 759.743 31.123 60.957 o
5 8 13 751.816 696.117 31.307 61.873 o
5 8 14 785.963 813.651 37.130 47.724 o
5 8 15 436.549 497.970 33.531 71.572 o
5 8 16 266.491 247.151 26.289 124.582 o
5 8 17 41.987 75.683 29.830 114.556 o
5 8 18 712.999 756.940 54.200 28.698 o
5 8 19 1432.300 1391.770 67.269 15.536 o
5 8 20 360.694 454.498 69.320 20.574 o
5 8 21 3.068 81.252 44.319 52.811 o
5 9 0 385.253 366.843 25.202 117.676 o
5 9 1 2787.660 2702.970 64.739 9.008 o
5 9 2 2032.130 1963.390 39.614 18.388 o
5 9 3 792.518 805.736 30.992 58.916 o
5 9 4 550.970 575.594 27.110 87.600 o
5 9 5 2677.340 2601.800 48.869 11.279 o
5 9 6 3068.040 2976.190 53.721 8.890 o
5 9 7 14.990 24.879 11.659 732.085 o
5 9 8 562.504 625.064 32.754 66.852 o
5 9 9 1828.940 1925.100 61.337 14.231 o
5 9 10 1994.070 1953.710 60.804 13.556 o
5 9 11 509.208 549.153 32.969 69.692 o
5 9 12 429.282 469.851 27.353 97.895 o
5 9 13 344.403 359.998 28.078 103.136 o
5 9 14 823.786 792.255 37.967 45.762 o
5 9 15 3.343 -0.936 16.497 382.170 o
5 9 16 941.010 902.137 53.984 26.336 o
5 9 17 1276.980 1402.920 70.435 15.150 o
5 9 18 148.011 181.822 48.297 43.303 o
5 9 19 417.367 441.430 67.047 21.756 o
5 9 20 221.946 288.586 61.365 26.745 o
5 10 0 458.215 474.887 40.831 51.948 o
5 10 1 3631.640 3653.450 80.529 5.508 o
5 10 2 279.468 255.081 24.222 140.616 o
5 10 3 1730.310 1628.400 50.969 18.582 o
5 10 4 1727.610 1684.210 51.433 18.251 o
5 10 5 462.947 468.602 27.198 96.444 o
5 10 6 1375.480 1269.500 60.469 18.511 o
5 10 7 459.163 431.784 30.264 84.039 o
5 10 8 407.040 446.689 30.042 87.236 o
5 10 9 1109.480 1099.130 42.084 32.754 o
5 10 10 532.932 578.531 34.936 62.751 o
5 10 11 1064.300 1036.610 42.898 33.186 o
5 10 12 1419.060 1335.410 50.174 22.523 o
5 10 13 214.667 245.524 32.828 87.104 o
5 10 14 558.375 557.488 45.536 41.259 o
5 10 15 283.647 265.320 34.947 75.503 o
5 10 16 394.261 373.557 41.110 53.503 o
5 10 17 589.838 606.059 51.020 33.575 o
5 10 18 295.949 235.801 57.956 29.650 o
5 10 19 640.725 601.092 76.706 16.216 o
5 11 0 1849.220 1793.510 54.547 16.203 o
5 11 1 797.681 826.555 38.859 44.620 o
5 11 2 820.704 866.656 39.350 42.998 o
5 11 3 477.643 482.301 32.459 73.885 o
5 11 4 784.720 753.327 42.732 40.147 o
5 11 5 106.554 100.041 21.651 203.042 o
5 11 6 1154.030 1066.600 52.421 24.814 o
5 11 7 820.890 802.609 51.393 29.957 o
5 11 8 679.517 732.001 46.925 36.579 o
5 11 9 906.717 982.893 48.741 30.412 o
5 11 10 185.648 186.654 24.181 153.936 o
5 11 11 1262.840 1253.540 48.942 25.019 o
5 11 12 215.908 260.463 35.531 75.230 o
5 11 13 693.368 640.039 48.610 34.999 o
5 11 14 965.141 1046.180 56.248 24.054 o
5 11 15 481.089 434.393 43.762 46.198 o
5 11 16 266.323 269.257 37.339 67.461 o
5 11 17 226.756 284.676 84.348 14.385 o
5 11 18 140.591 161.565 33.742 86.382 o
5 12 0 847.506 833.459 40.422 41.338 o
5 12 1 442.316 461.478 48.577 38.867 o
5 12 2 2084.040 2168.180 67.540 11.514 o
5 12 3 448.664 456.112 33.556 71.811 o
5 12 4 922.605 883.040 42.727 36.773 o
5 12 5 354.109 374.908 38.069 61.973 o
5 12 6 311.085 298.434 40.029 58.367 o
5 12 7 398.975 406.893 40.341 54.861 o
5 12 8 83.701 70.063 26.106 146.097 o
5 12 9 1334.320 1283.340 63.657 17.467 o
5 12 10 445.467 487.378 45.315 43.655 o
5 12 11 1493.550 1527.800 69.877 14.260 o
5 12 12 445.934 502.795 69.320 20.263 o
5 12 13 896.719 896.844 94.008 10.616 o
5 12 14 452.094 489.708 45.038 44.009 o
5 12 15 370.315 410.480 43.441 48.673 o
5 12 16 186.832 198.975 34.545 80.883 o
5 13 0 2070.020 2081.480 86.539 8.811 o
5 13 1 855.772 886.591 45.178 35.096 o
5 13 2 561.932 565.288 37.526 55.807 o
5 13 3 451.162 416.666 34.827 68.314 o
5 13 4 313.130 252.301 33.282 81.460 o
5 13 5 247.501 247.579 34.336 79.290 o
5 13 6 540.365 524.904 45.400 41.945 o
5 13 7 160.882 176.293 47.160 45.264 o
5 13 8 217.010 159.796 47.728 43.844 o
5 13 9 134.553 189.362 35.876 76.738 o
5 13 10 252.018 235.325 38.368 64.872 o
5 13 11 590.211 593.531 76.422 16.455 o
5 13 12 711.988 721.550 81.820 14.148 o
5 13 13 15.149 106.252 44.319 52.634 o
5 13 14 304.813 293.131 57.388 30.032 o
5 14 0 81.006 127.193 28.277 124.098 o
5 14 1 850.736 807.603 50.814 30.145 o
5 14 2 1265.450 1240.690 52.805 22.895 o
5 14 3 953.726 976.156 56.020 24.548 o
5 14 4 145.457 142.187 31.491 98.515 o
5 14 5 341.666 377.487 42.374 51.575 o
5 14 6 297.542 210.441 35.349 74.373 o
5 14 7 165.280 162.080 34.553 81.941 o
5 14 8 194.151 246.562 38.514 65.449 o
5 14 9 390.214 304.386 41.180 54.038 o
5 14 10 389.399 426.080 47.910 40.596 o
5 14 11 158.042 202.845 55.115 33.406 o
5 14 12 277.957 314.154 59.660 27.964 o
5 15 0 1494.410 1572.710 59.744 17.252 o
5 15 1 187.309 161.420 28.023 119.418 o
5 15 2 33.923 25.986 21.756 215.106 o
5 15 3 348.592 317.951 41.110 54.819 o
5 15 4 874.710 962.292 58.859 23.360 o
5 15 5 26.922 24.625 27.100 140.196 o
5 15 6 24.898 0.009 38.921 68.579 o
5 15 7 606.036 624.537 102.843 9.393 o
5 15 8 401.412 405.004 46.743 42.402 o
5 15 9 73.748 130.865 33.130 91.761 o
5 16 0 4.981 10.262 22.172 211.139 o
5 16 1 101.879 47.697 27.596 131.005 o
5 16 2 399.559 424.533 75.002 17.661 o
5 16 3 201.868 179.085 35.140 78.234 o
5 16 4 110.209 163.206 34.844 82.018 o
5 16 5 580.479 569.431 52.640 32.095 o
6 0 0 22992.000 22048.800 265.085 0.203 o
6 0 1 7746.170 7626.090 71.907 1.796 o
6 0 2 190.075 180.013 7.646 687.252 o
6 0 3 2810.460 2782.940 33.387 11.971 o
6 0 4 1115.450 1064.650 17.454 61.309 o
6 0 5 146.185 155.681 8.214 759.261 o
6 0 6 867.078 860.596 17.744 83.880 o
6 0 7 2512.930 2413.900 34.761 14.365 o
6 0 8 5630.110 5366.750 65.119 3.246 o
6 0 9 4705.220 4549.230 63.701 4.351 o
6 0 10 3048.770 2891.270 46.190 9.698 o
6 0 11 8371.250 8248.980 116.152 1.389 o
6 0 12 2291.300 2140.050 44.353 14.937 o
6 0 13 122.481 130.681 21.978 193.467 o
6 0 14 2467.030 2492.920 62.554 10.487 o
6 0 15 792.158 727.986 33.894 54.466 o
6 0 16 272.189 227.194 23.332 151.540 o
6 0 17 85.463 61.877 17.637 304.344 o
6 0 18 407.658 433.998 32.374 78.001 o
6 0 19 1597.300 1532.630 55.127 18.366 o
6 0 20 159.679 121.817 25.440 145.714 o
6 0 21 18.110 13.004 20.506 244.642 o
6 0 22 719.697 818.070 46.932 35.488 o
6 0 23 865.683 881.276 48.815 31.393 o
6 1 0 1189.520 1309.010 17.437 52.069 o
6 1 1 6938.530 6886.450 66.004 2.207 o
6 1 2 4858.970 4781.990 45.516 4.439 o
6 1 3 1997.030 1952.970 26.887 22.070 o
6 1 4 1431.600 1465.110 21.426 38.435 o
6 1 5 888.158 916.474 18.068 79.317 o
6 1 6 975.582 905.196 17.479 74.606 o
6 1 7 413.389 397.959 10.626 265.109 o
6 1 8 1486.290 1482.560 22.957 35.955 o
6 1 9 5332.610 5182.130 58.786 3.612 o
6 1 10 4086.620 3999.430 49.211 5.879 o
6 1 11 1716.200 1700.850 30.430 26.151 o
6 1 12 3447.180 3320.280 59.848 7.165 o
6 1 13 2260.400 2165.780 49.589 14.047 o
6 1 14 323.962 304.727 23.649 138.491 o
6 1 15 276.336 272.124 24.619 136.514 o
6 1 16 139.844 117.966 25.899 142.692 o
6 1 17 838.381 760.132 51.548 29.857 o
6 1 18 786.331 738.584 40.546 43.286 o
6 1 19 547.843 550.749 38.034 55.214 o
6 1 20 512.655 518.327 38.116 56.295 o
6 1 21 1069.180 1034.500 50.599 26.962 o
6 1 22 44.936 57.107 28.458 125.861 o
6 1 23 112.132 112.822 26.025 143.583 o
6 2 0 11439.200 11210.100 96.249 0.852 o
6 2 1 7900.130 7590.350 79.680 1.725 o
6 2 2 1258.780 1195.100 19.507 49.678 o
6 2 3 3238.990 3177.030 38.747 9.176 o
6 2 4 1835.500 1916.200 31.432 22.874 o
6 2 5 1318.150 1329.360 26.977 39.236 o
6 2 6 212.204 209.572 11.727 421.391 o
6 2 7 5073.770 5078.750 67.593 3.711 o
6 2 8 1662.980 1614.580 40.360 23.245 o
6 2 9 759.530 810.247 24.009 77.151 o
6 2 10 2933.040 2967.690 48.014 9.794 o
6 2 11 4413.080 4385.840 52.427 5.046 o
6 2 12 2911.320 2853.270 51.192 9.760 o
6 2 13 420.976 399.570 23.291 125.843 o
6 2 14 294.423 309.992 25.318 127.297 o
6 2 15 957.287 926.726 39.232 39.780 o
6 2 16 987.000 991.206 42.056 35.557 o
6 2 17 210.427 214.586 27.275 122.085 o
6 2 18 65.050 44.733 19.775 252.013 o
6 2 19 2362.160 2429.540 71.268 9.742 o
6 2 20 383.741 400.318 35.638 68.108 o
6 2 21 772.237 886.072 47.897 33.360 o
6 2 22 376.922 319.362 34.337 73.992 o
6 2 23 608.061 587.610 42.858 44.417 o
6 3 0 10425.300 9759.830 93.549 1.039 o
6 3 1 993.457 985.253 19.150 67.909 o
6 3 2 7108.350 6686.240 65.874 2.182 o
6 3 3 6883.740 7005.890 79.978 2.114 o
6 3 4 1638.540 1657.470 27.420 28.943 o
6 3 5 1949.380 1822.350 32.815 21.701 o
6 3 6 80.620 68.851 8.933 939.749 o
6 3 7 1146.210 1166.500 25.864 47.671 o
6 3 8 2543.210 2516.720 41.716 12.969 o
6 3 9 5613.680 5505.730 74.350 3.089 o
6 3 10 880.359 862.959 30.859 54.941 o
6 3 11 1915.910 1913.840 39.594 19.581 o
6 3 12 1137.650 1118.390 30.195 43.800 o
6 3 13 37.111 62.556 12.502 600.665 o
6 3 14 1588.650 1590.910 67.742 14.346 o
6 3 15 115.265 100.874 19.230 249.592 o
6 3 16 112.219 111.325 20.960 213.655 o
6 3 17 1287.870 1263.760 49.125 24.617 o
6 3 18 885.871 894.748 44.434 35.394 o
6 3 19 1026.210 1002.850 48.062 29.498 o
6 3 20 847.315 856.520 45.569 35.010 o
6 3 21 777.445 852.953 48.289 33.097 o
6 3 22 413.054 418.668 37.019 62.910 o
6 4 0 5577.880 5424.140 56.692 3.370 o
6 4 1 1910.330 1954.390 26.730 23.135 o
6 4 2 6318.100 6356.500 63.411 2.601 o
6 4 3 662.776 635.005 17.033 119.223 o
6 4 4 1161.650 1197.350 23.590 49.129 o
6 4 5 1477.530 1455.220 26.426 34.427 o
6 4 6 857.021 853.665 22.147 74.345 o
6 4 7 6564.300 6497.610 84.029 2.291 o
6 4 8 34.113 58.651 10.159 875.137 o
6 4 9 3872.760 3832.750 57.872 6.038 o
6 4 10 1694.370 1669.510 36.314 24.252 o
6 4 11 807.638 816.281 30.371 59.419 o
6 4 12 294.970 315.056 31.453 89.190 o
6 4 13 1059.680 984.274 29.669 48.749 o
6 4 14 83.052 87.597 16.347 345.150 o
6 4 15 660.458 661.081 36.839 53.425 o
6 4 16 841.650 789.377 39.089 43.740 o
6 4 17 666.961 635.783 39.326 48.834 o
6 4 18 362.499 449.102 35.854 67.339 o
6 4 19 1073.230 1091.450 71.500 16.128 o
6 4 20 706.587 705.275 101.707 9.475 o
6 4 21 463.657 495.002 45.051 43.788 o
6 4 22 286.222 269.599 37.250 67.281 o
6 5 0 5349.010 5135.610 54.706 3.676 o
6 5 1 757.459 771.557 15.136 106.309 o
6 5 2 1259.180 1297.960 19.047 48.132 o
6 5 3 2455.610 2501.090 36.781 14.164 o
6 5 4 2306.220 2220.830 35.042 16.304 o
6 5 5 3065.950 3184.220 44.550 9.307 o
6 5 6 719.720 725.384 19.570 97.457 o
6 5 7 1523.230 1569.590 31.804 29.456 o
6 5 8 3942.760 3893.710 58.531 5.855 o
6 5 9 7430.150 7428.180 103.093 1.742 o
6 5 10 1714.800 1741.090 38.169 22.873 o
6 5 11 1769.460 1729.070 38.393 22.269 o
6 5 12 2786.550 2824.430 53.146 10.017 o
6 5 13 635.771 607.009 25.648 86.655 o
6 5 14 667.394 650.845 27.076 78.421 o
6 5 15 357.126 285.815 28.619 101.553 o
6 5 16 1408.310 1493.400 61.319 17.390 o
6 5 17 1010.890 960.562 52.099 26.809 o
6 5 18 835.288 789.781 50.301 30.860 o
6 5 19 1342.560 1336.690 73.013 14.268 o
6 5 20 212.235 287.541 36.643 70.877 o
6 5 21 201.092 196.175 33.650 84.510 o
6 5 22 245.543 216.917 35.247 76.123 o
6 6 0 897.860 886.482 18.837 78.023 o
6 6 1 3019.320 2918.350 35.729 10.599 o
6 6 2 1212.090 1135.700 20.401 51.806 o
6 6 3 679.755 639.610 17.740 113.595 o
6 6 4 119.088 139.747 10.539 622.554 o
6 6 5 2362.080 2310.870 37.081 15.270 o
6 6 6 2513.090 2496.140 41.760 13.166 o
6 6 7 2667.470 2666.460 47.163 11.391 o
6 6 8 4281.220 4247.010 66.525 4.893 o
6 6 9 1740.850 1838.120 38.950 21.801 o
6 6 10 2397.040 2301.350 45.200 13.750 o
6 6 11 408.891 416.950 23.670 123.537 o
6 6 12 704.415 711.070 28.460 70.760 o
6 6 13 421.874 419.656 25.044 113.222 o
6 6 14 1719.040 1655.000 45.157 20.619 o
6 6 15 590.036 549.295 47.388 38.291 o
6 6 16 200.332 165.806 29.546 107.781 o
6 6 17 1167.600 1140.360 56.948 21.843 o
6 6 18 843.883 914.799 53.716 27.312 o
6 6 19 315.697 356.074 39.285 59.684 o
6 6 20 373.007 435.810 80.683 15.392 o
6 6 21 649.155 637.486 53.231 30.618 o
6 7 0 5781.820 5777.630 66.283 3.010 o
6 7 1 321.561 311.802 13.453 277.786 o
6 7 2 1208.000 1157.970 26.078 45.581 o
6 7 3 3098.310 3073.520 38.809 9.800 o
6 7 4 4670.700 4613.840 65.717 4.306 o
6 7 5 132.755 143.465 12.769 462.815 o
6 7 6 588.735 588.276 22.168 105.814 o
6 7 7 3347.540 3381.290 87.014 5.710 o
6 7 8 2543.400 2642.400 54.127 11.063 o
6 7 9 424.053 440.456 24.067 118.238 o
6 7 10 1143.830 1197.200 39.568 33.596 o
6 7 11 1580.350 1538.090 41.755 23.950 o
6 7 12 1006.000 1006.460 34.759 43.301 o
6 7 13 43.688 52.395 14.665 447.991 o
6 7 14 85.434 94.751 16.538 336.030 o
6 7 15 536.421 521.672 49.924 35.802 o
6 7 16 1080.490 1130.590 75.002 14.859 o
6 7 17 5.822 60.136 78.411 16.939 o
6 7 18 1346.430 1444.110 66.973 15.884 o
6 7 19 1070.490 1159.360 61.909 19.931 o
6 7 20 245.676 297.748 38.827 62.983 o
6 8 0 804.525 727.331 21.881 82.899 o
6 8 1 1898.310 1877.220 36.150 20.943 o
6 8 2 6901.280 6847.500 91.415 2.053 o
6 8 3 273.449 232.511 20.333 186.469 o
6 8 4 669.019 593.779 24.480 89.127 o
6 8 5 3599.930 3537.990 66.219 6.340 o
6 8 6 2966.900 2973.100 58.581 8.760 o
6 8 7 302.444 314.936 20.875 168.204 o
6 8 8 690.195 658.466 27.881 74.477 o
6 8 9 1002.740 1004.620 33.066 45.581 o
6 8 10 845.574 844.883 32.055 54.290 o
6 8 11 655.190 615.502 29.189 73.443 o
6 8 12 190.684 210.874 20.278 203.852 o
6 8 13 362.765 341.565 27.056 108.573 o
6 8 14 240.013 238.501 22.289 166.297 o
6 8 15 138.265 146.609 22.932 176.497 o
6 8 16 654.626 727.988 40.109 46.748 o
6 8 17 620.839 612.050 52.842 31.353 o
6 8 18 629.648 585.427 48.930 35.666 o
6 8 19 142.671 176.166 49.717 40.990 o
6 8 20 988.187 1084.640 90.343 11.105 o
6 9 0 3044.580 2992.640 69.852 7.630 o
6 9 1 940.344 899.560 27.611 57.755 o
6 9 2 55.735 55.825 12.189 612.555 o
6 9 3 2264.240 2186.950 50.034 13.890 o
6 9 4 974.574 916.258 32.148 48.922 o
6 9 5 338.041 343.176 20.157 168.199 o
6 9 6 525.698 540.962 24.608 101.723 o
6 9 7 1521.370 1461.040 40.309 25.784 o
6 9 8 824.074 797.447 30.280 59.334 o
6 9 9 183.995 185.495 18.994 230.428 o
6 9 10 1397.770 1392.120 41.146 27.311 o
6 9 11 186.683 168.258 18.646 238.707 o
6 9 12 1470.580 1400.840 43.209 25.227 o
6 9 13 120.365 134.414 22.953 178.957 o
6 9 14 689.960 735.436 39.750 46.525 o
6 9 15 380.465 434.305 34.442 71.598 o
6 9 16 289.857 306.118 32.632 84.144 o
6 9 17 338.451 324.833 39.963 57.766 o
6 9 18 522.399 555.637 73.297 17.995 o
6 9 19 669.471 699.390 84.093 13.555 o
6 10 0 876.587 912.477 57.323 24.496 o
6 10 1 422.947 468.780 30.368 84.489 o
6 10 2 1534.860 1476.690 49.058 21.425 o
6 10 3 1343.980 1342.060 46.959 24.884 o
6 10 4 422.464 396.915 30.308 86.552 o
6 10 5 545.909 598.779 32.067 70.019 o
6 10 6 908.507 915.701 42.829 36.624 o
6 10 7 1130.160 1147.270 40.062 33.809 o
6 10 8 1107.750 1108.830 37.815 36.625 o
6 10 9 238.049 250.400 25.579 132.578 o
6 10 10 3292.900 3168.140 72.230 6.828 o
6 10 11 629.721 658.361 39.758 48.623 o
6 10 12 607.935 649.161 39.845 49.032 o
6 10 13 132.176 127.280 23.588 169.468 o
6 10 14 1227.220 1121.250 121.309 6.388 o
6 10 15 670.181 693.509 73.581 17.282 o
6 10 16 193.008 259.459 35.944 74.251 o
6 10 17 434.463 425.698 91.195 12.097 o
6 10 18 243.470 282.961 57.956 29.779 o
6 11 0 1749.800 1777.570 56.750 16.195 o
6 11 1 278.326 290.627 27.064 116.343 o
6 11 2 1630.550 1611.170 67.084 14.312 o
6 11 3 42.872 23.346 23.315 187.201 o
6 11 4 426.308 416.766 38.089 59.705 o
6 11 5 978.513 939.632 50.010 28.812 o
6 11 6 232.573 226.429 31.537 93.259 o
6 11 7 662.225 583.472 44.732 40.733 o
6 11 8 627.140 651.920 48.804 35.467 o
6 11 9 970.281 999.704 56.162 24.244 o
6 11 10 224.019 227.213 30.148 101.386 o
6 11 11 185.728 200.369 26.826 127.893 o
6 11 12 1593.250 1642.550 59.346 16.648 o
6 11 13 546.583 637.255 80.039 15.148 o
6 11 14 342.445 386.471 42.900 50.376 o
6 11 15 555.858 506.772 47.950 38.205 o
6 11 16 102.628 148.887 33.145 90.637 o
6 12 0 1581.160 1628.460 55.435 18.054 o
6 12 1 595.630 613.161 38.340 52.632 o
6 12 2 972.678 933.952 83.009 13.040 o
6 12 3 1335.090 1231.740 82.767 11.952 o
6 12 4 638.494 619.880 63.204 22.927 o
6 12 5 348.457 392.513 39.721 57.513 o
6 12 6 35.161 12.299 23.293 188.736 o
6 12 7 476.561 461.352 42.272 48.825 o
6 12 8 51.635 14.461 26.296 147.691 o
6 12 9 1031.880 992.043 58.191 22.613 o
6 12 10 968.476 947.507 58.240 23.163 o
6 12 11 672.318 718.381 55.243 28.288 o
6 12 12 307.038 328.723 44.291 48.450 o
6 12 13 303.970 317.395 51.961 36.140 o
6 12 14 211.239 209.369 33.974 82.530 o
6 12 15 220.445 180.359 32.425 90.033 o
6 13 0 221.253 289.178 29.970 101.076 o
6 13 1 1408.230 1490.590 55.494 19.625 o
6 13 2 1058.030 1110.130 49.544 27.441 o
6 13 3 233.902 270.852 30.637 97.104 o
6 13 4 154.828 104.585 28.978 115.494 o
6 13 5 494.912 533.527 46.795 40.401 o
6 13 6 279.248 268.535 37.032 68.171 o
6 13 7 480.645 497.299 93.184 11.525 o
6 13 8 386.012 441.956 44.993 45.321 o
6 13 9 428.453 441.303 46.876 41.657 o
6 13 10 209.630 180.851 36.456 72.871 o
6 13 11 143.205 154.993 35.112 80.137 o
6 13 12 203.956 310.686 120.429 7.127 o
6 13 13 467.193 485.181 68.183 20.858 o
6 14 0 516.903 530.177 39.635 52.700 o
6 14 1 450.694 496.982 47.646 39.909 o
6 14 2 41.535 41.376 22.775 195.194 o
6 14 3 772.064 812.477 55.336 27.071 o
6 14 4 552.525 574.660 84.945 13.594 o
6 14 5 77.894 83.809 29.329 116.803 o
6 14 6 320.519 350.568 42.537 51.765 o
6 14 7 610.828 668.698 54.570 29.552 o
6 14 8 165.968 122.892 33.492 87.427 o
6 14 9 141.998 169.131 35.247 79.418 o
6 14 10 87.537 71.024 32.544 95.436 o
6 14 11 507.965 440.862 71.592 18.994 o
6 15 0 95.966 113.138 25.944 145.542 o
6 15 1 533.878 579.146 41.796 47.635 o
6 15 2 416.084 421.391 37.534 61.374 o
6 15 3 130.674 157.088 62.501 26.267 o
6 15 4 49.401 13.221 26.078 150.277 o
6 15 5 552.537 572.495 66.479 21.393 o
6 15 6 496.191 446.543 47.105 40.465 o
6 15 7 114.289 66.759 30.905 104.611 o
7 0 1 29.492 39.771 6.344 1990.170 o
7 0 2 829.620 788.080 19.354 85.739 o
7 0 3 191.797 186.090 9.602 555.978 o
7 0 4 405.047 403.365 13.069 233.102 o
7 0 5 6119.640 6106.680 71.555 2.684 o
7 0 6 1229.730 1217.850 22.599 47.385 o
7 0 7 391.447 394.156 15.638 204.966 o
7 0 8 918.634 827.704 22.018 71.629 o
7 0 9 8981.600 8783.280 110.350 1.264 o
7 0 10 21.967 31.079 9.317 1087.760 o
7 0 11 1826.750 1704.730 37.994 21.941 o
7 0 12 1041.610 1011.390 31.135 46.931 o
7 0 13 2405.710 2365.310 52.502 12.391 o
7 0 14 27.046 41.981 22.484 201.597 o
7 0 15 22.494 28.561 14.737 461.329 o
7 0 16 108.389 99.543 19.509 244.801 o
7 0 17 2261.450 2179.090 64.194 11.451 o
7 0 18 135.667 87.439 21.537 201.801 o
7 0 19 70.880 66.466 20.895 224.578 o
7 0 20 474.226 515.382 38.227 57.008 o
7 0 21 596.873 587.756 41.767 46.441 o
7 0 22 17.299 -4.445 19.453 272.679 o
7 1 0 730.862 697.705 16.043 110.747 o
7 1 1 1874.660 1854.980 25.086 24.710 o
7 1 2 257.983 234.074 10.501 419.587 o
7 1 3 2414.300 2431.430 30.460 15.541 o
7 1 4 4724.410 4712.200 53.042 4.479 o
7 1 5 1963.110 1983.870 30.273 21.399 o
7 1 6 125.402 128.542 10.777 603.289 o
7 1 7 9158.110 9263.720 113.718 1.191 o
7 1 8 3474.600 3538.040 53.553 7.241 o
7 1 9 1443.000 1444.980 33.033 31.150 o
7 1 10 1240.780 1268.350 22.337 46.391 o
7 1 11 1999.160 1986.220 39.468 18.601 o
7 1 12 235.336 251.314 18.434 221.410 o
7 1 13 715.415 731.870 28.687 69.115 o
7 1 14 726.299 750.015 34.642 54.688 o
7 1 15 1539.100 1591.220 57.024 17.878 o
7 1 16 1160.330 1152.160 44.268 29.891 o
7 1 17 831.068 908.260 50.570 30.045 o
7 1 18 323.615 371.736 32.234 83.255 o
7 1 19 1839.460 1806.260 62.268 14.226 o
7 1 20 13.681 13.222 32.044 101.099 o
7 1 21 77.023 104.345 24.522 163.715 o
7 1 22 316.199 283.641 33.102 81.546 o
7 2 0 3487.870 3476.040 41.035 7.934 o
7 2 1 4243.070 4103.670 46.474 5.638 o
7 2 2 518.550 549.468 18.751 135.631 o
7 2 3 5242.360 5093.990 58.090 3.729 o
7 2 4 2591.090 2553.050 38.165 13.096 o
7 2 5 5943.010 5794.940 75.724 2.808 o
7 2 6 1102.170 1099.110 25.675 50.591 o
7 2 7 3592.070 3421.200 52.645 7.165 o
7 2 8 279.853 289.055 15.525 257.261 o
7 2 9 2227.670 2161.940 40.208 16.076 o
7 2 10 791.203 804.574 23.773 75.977 o
7 2 11 961.797 960.689 26.388 57.716 o
7 2 12 1276.250 1324.400 33.344 35.157 o
7 2 13 164.690 169.323 19.355 229.330 o
7 2 14 602.036 576.024 28.736 78.628 o
7 2 15 486.501 480.336 31.793 75.855 o
7 2 16 342.370 328.204 35.574 70.596 o
7 2 17 2379.850 2411.260 81.677 8.463 o
7 2 18 457.133 458.719 35.881 64.338 o
7 2 19 1069.910 1082.240 59.315 21.454 o
7 2 20 151.607 130.003 25.787 142.490 o
7 2 21 1597.770 1675.800 78.165 11.724 o
7 2 22 197.709 186.097 49.214 41.386 o
7 3 0 1916.470 1924.050 27.346 23.075 o
7 3 1 2416.970 2397.350 32.973 15.275 o
7 3 2 6171.970 6024.650 65.151 2.740 o
7 3 3 2185.450 2224.860 45.633 15.062 o
7 3 4 1033.950 954.314 26.867 54.184 o
7 3 5 785.097 755.443 20.007 88.863 o
7 3 6 1213.540 1171.800 26.605 44.656 o
7 3 7 3186.440 3092.780 49.442 8.729 o
7 3 8 615.457 541.904 20.098 115.711 o
7 3 9 774.967 792.412 23.556 77.976 o
7 3 10 227.154 225.473 16.220 271.633 o
7 3 11 169.329 135.890 14.021 383.741 o
7 3 12 532.678 516.512 22.605 112.578 o
7 3 13 236.826 250.783 21.550 174.923 o
7 3 14 940.131 888.555 34.187 47.302 o
7 3 15 812.467 715.369 42.839 39.857 o
7 3 16 1162.730 1131.070 73.636 15.029 o
7 3 17 534.979 513.321 46.810 40.003 o
7 3 18 110.821 131.977 24.627 158.384 o
7 3 19 1511.260 1477.470 58.327 17.924 o
7 3 20 202.017 199.352 41.135 58.102 o
7 3 21 48.618 59.326 24.721 165.215 o
7 4 0 2009.750 1915.170 28.940 21.615 o
7 4 1 953.011 945.999 17.313 75.068 o
7 4 2 3429.580 3306.150 51.036 7.738 o
7 4 3 1062.270 1076.640 23.680 55.217 o
7 4 4 3374.790 3301.940 46.981 8.115 o
7 4 5 3810.740 3737.380 51.261 6.497 o
7 4 6 769.025 751.205 20.841 87.805 o
7 4 7 1237.800 1221.580 28.629 41.290 o
7 4 8 901.825 892.221 25.417 63.734 o
7 4 9 3320.940 3295.430 54.247 7.807 o
7 4 10 1554.500 1634.390 36.777 26.019 o
7 4 11 1665.310 1775.890 39.574 22.675 o
7 4 12 2006.080 2013.550 43.755 17.340 o
7 4 13 387.345 367.032 21.693 144.223 o
7 4 14 795.759 757.576 33.321 54.988 o
7 4 15 370.323 389.366 31.493 84.073 o
7 4 16 1079.830 1007.280 48.751 28.338 o
7 4 17 931.255 880.503 45.877 33.379 o
7 4 18 674.514 666.077 42.803 42.685 o
7 4 19 426.469 343.335 41.015 53.401 o
7 4 20 136.863 156.225 30.741 103.121 o
7 4 21 385.450 348.970 39.947 56.645 o
7 5 0 1304.770 1270.460 24.222 42.672 o
7 5 1 1655.960 1608.430 26.790 29.342 o
7 5 2 3219.940 3170.530 48.953 8.566 o
7 5 3 629.701 605.712 18.528 118.147 o
7 5 4 918.427 912.822 22.534 68.086 o
7 5 5 82.079 80.726 10.094 770.206 o
7 5 6 2928.440 2859.140 43.876 10.366 o
7 5 7 3576.250 3593.550 51.454 7.081 o
7 5 8 2105.850 2137.150 40.657 16.914 o
7 5 9 841.752 842.994 32.304 53.998 o
7 5 10 2191.570 2154.410 44.999 15.364 o
7 5 11 1035.550 1132.360 44.666 31.368 o
7 5 12 994.761 1026.770 31.751 47.255 o
7 5 13 913.915 887.379 30.558 53.866 o
7 5 14 3982.080 3874.880 69.337 5.394 o
7 5 15 578.325 660.627 39.548 50.105 o
7 5 16 863.127 845.518 49.269 31.205 o
7 5 17 34.603 -29.878 43.183 55.680 o
7 5 18 211.209 182.435 30.962 98.215 o
7 5 19 268.368 271.344 36.042 71.807 o
7 5 20 111.990 102.961 27.852 126.724 o
7 5 21 246.719 278.992 37.610 66.916 o
7 6 0 4083.360 4029.640 54.619 5.681 o
7 6 1 421.281 440.838 14.649 202.274 o
7 6 2 1078.680 1090.270 24.377 53.327 o
7 6 3 2316.950 2241.230 40.296 15.223 o
7 6 4 3576.220 3540.820 50.352 7.190 o
7 6 5 180.565 180.394 12.727 415.180 o
7 6 6 705.358 651.397 22.501 91.411 o
7 6 7 311.290 321.046 18.459 196.075 o
7 6 8 1366.010 1319.100 43.561 26.728 o
7 6 9 1867.560 1877.910 40.787 19.808 o
7 6 10 894.422 873.994 28.502 58.517 o
7 6 11 1189.530 1090.790 32.955 39.909 o
7 6 12 2256.780 2148.780 51.814 13.692 o
7 6 13 330.294 370.448 24.998 123.826 o
7 6 14 627.797 690.438 32.390 64.110 o
7 6 15 688.901 661.034 59.261 25.223 o
7 6 16 1175.380 1114.140 56.872 21.920 o
7 6 17 84.896 99.114 26.481 141.197 o
7 6 18 491.067 504.847 88.922 12.589 o
7 6 19 179.269 188.628 32.435 91.287 o
7 6 20 74.468 45.389 46.024 48.648 o
7 7 0 1672.970 1661.750 34.499 25.324 o
7 7 1 1736.050 1723.410 31.902 25.146 o
7 7 2 5863.960 5731.510 79.150 2.825 o
7 7 3 247.886 219.923 16.925 250.633 o
7 7 4 92.193 65.773 11.352 638.917 o
7 7 5 605.928 625.518 22.263 102.019 o
7 7 6 1548.810 1557.910 36.201 26.889 o
7 7 7 891.653 922.073 28.069 58.457 o
7 7 8 1187.260 1203.630 35.855 36.001 o
7 7 9 471.075 474.580 25.742 102.986 o
7 7 10 923.898 869.812 32.399 50.785 o
7 7 11 348.608 357.171 24.645 125.362 o
7 7 12 512.409 540.774 29.692 80.827 o
7 7 13 783.040 748.898 33.508 55.173 o
7 7 14 1324.210 1356.920 42.462 27.682 o
7 7 15 16.468 18.805 18.736 291.975 o
7 7 16 826.059 805.522 52.962 28.552 o
7 7 17 158.250 157.825 31.255 99.136 o
7 7 18 464.361 491.269 46.112 42.094 o
7 7 19 201.524 205.957 33.713 84.056 o
7 8 0 8436.110 8319.660 114.652 1.378 o
7 8 1 370.080 367.984 19.268 170.167 o
7 8 2 135.980 137.189 14.215 394.468 o
7 8 3 2557.940 2507.240 54.241 11.245 o
7 8 4 2170.930 2222.590 57.565 12.855 o
7 8 5 758.149 751.712 28.565 66.945 o
7 8 6 701.838 711.626 28.655 70.340 o
7 8 7 432.728 462.311 25.260 109.208 o
7 8 8 610.590 613.904 28.784 77.021 o
7 8 9 174.684 159.901 17.953 257.705 o
7 8 10 813.111 774.351 31.803 57.096 o
7 8 11 365.007 387.796 30.262 89.864 o
7 8 12 1322.900 1334.660 42.133 28.049 o
7 8 13 0.985 22.216 14.986 458.638 o
7 8 14 414.734 386.163 28.024 98.141 o
7 8 15 685.521 691.805 41.620 44.056 o
7 8 16 713.234 707.021 42.110 42.670 o
7 8 17 93.964 81.292 27.987 127.075 o
7 8 18 380.057 350.273 41.164 53.846 o
7 9 0 1313.890 1225.900 34.929 34.136 o
7 9 1 285.314 266.891 19.212 196.624 o
7 9 2 3803.570 3789.190 71.533 5.599 o
7 9 3 504.597 514.178 26.373 95.927 o
7 9 4 109.060 123.611 18.632 262.673 o
7 9 5 2341.720 2258.320 59.703 11.737 o
7 9 6 530.484 497.343 26.810 92.744 o
7 9 7 414.720 435.902 25.935 107.824 o
7 9 8 608.552 601.083 33.300 64.112 o
7 9 9 158.799 133.856 17.948 265.591 o
7 9 10 1638.750 1620.370 46.299 21.040 o
7 9 11 33.470 31.367 15.514 412.570 o
7 9 12 1095.790 1112.150 39.551 35.154 o
7 9 13 222.633 208.487 22.930 162.861 o
7 9 14 828.487 781.484 39.073 44.127 o
7 9 15 379.583 370.246 32.966 78.106 o
7 9 16 78.799 55.886 24.728 162.938 o
7 9 17 760.134 912.611 58.729 24.352 o
7 10 0 1998.650 1980.840 57.368 14.224 o
7 10 1 42.050 39.459 20.431 240.906 o
7 10 2 181.550 154.451 22.328 179.000 o
7 10 3 499.660 473.175 32.792 72.082 o
7 10 4 237.896 233.692 20.162 195.078 o
7 10 5 1832.070 1874.600 49.692 17.427 o
7 10 6 90.548 100.117 28.950 118.844 o
7 10 7 1117.620 1109.870 53.144 24.497 o
7 10 8 1277.090 1240.700 40.678 30.310 o
7 10 9 395.060 466.470 31.657 80.617 o
7 10 10 1166.140 1213.450 41.646 31.411 o
7 10 11 129.110 134.633 20.823 211.627 o
7 10 12 1595.730 1676.260 50.244 19.653 o
7 10 13 272.264 262.179 25.934 126.319 o
7 10 14 235.125 258.387 26.682 123.448 o
7 10 15 381.051 350.753 40.579 55.187 o
7 10 16 189.228 224.854 36.858 71.362 o
7 11 0 914.870 780.657 38.918 42.524 o
7 11 1 46.623 77.773 20.236 241.583 o
7 11 2 569.754 571.751 37.172 56.316 o
7 11 3 1178.810 1144.390 48.099 26.981 o
7 11 4 151.110 158.368 25.011 149.434 o
7 11 5 903.257 904.780 51.006 28.958 o
7 11 6 341.540 346.916 37.709 63.632 o
7 11 7 1442.340 1388.510 63.680 16.664 o
7 11 8 238.874 275.587 28.969 106.603 o
7 11 9 409.638 458.879 35.269 67.591 o
7 11 10 1484.070 1512.910 55.339 19.099 o
7 11 11 534.441 527.535 38.370 55.074 o
7 11 12 511.040 523.067 63.705 23.391 o
7 11 13 332.941 397.040 36.276 67.581 o
7 11 14 261.235 288.057 56.791 30.863 o
7 11 15 435.767 497.160 49.413 37.601 o
7 12 0 952.661 908.979 44.327 34.419 o
7 12 1 662.698 680.484 41.098 45.428 o
7 12 2 513.013 463.094 51.176 34.798 o
7 12 3 24.009 33.024 21.712 216.709 o
7 12 4 246.299 273.711 30.313 98.267 o
7 12 5 1560.460 1487.250 66.471 15.028 o
7 12 6 445.106 467.065 67.899 21.120 o
7 12 7 444.990 518.228 46.274 41.917 o
7 12 8 835.030 904.228 56.850 25.142 o
7 12 9 874.542 916.192 58.511 23.730 o
7 12 10 32.222 11.368 36.080 79.555 o
7 12 11 169.739 202.683 36.937 71.743 o
7 12 12 86.133 109.995 32.514 95.090 o
7 12 13 407.175 364.147 35.099 69.682 o
7 13 0 17.146 11.210 21.330 226.549 o
7 13 1 540.438 499.870 38.102 55.871 o
7 13 2 137.840 148.291 27.359 128.175 o
7 13 3 1415.680 1402.840 57.449 19.072 o
7 13 4 348.948 408.384 77.274 16.788 o
7 13 5 265.423 277.174 37.941 65.475 o
7 13 6 336.767 367.415 41.662 53.316 o
7 13 7 450.014 547.876 48.972 37.784 o
7 13 8 86.432 98.460 32.326 96.320 o
7 13 9 261.554 305.503 49.973 39.265 o
7 13 10 302.049 361.307 43.558 49.786 o
7 13 11 202.609 279.503 41.237 57.225 o
7 14 0 0.146 29.902 23.200 192.503 o
7 14 1 992.970 990.590 84.841 12.460 o
7 14 2 258.208 224.031 37.524 67.552 o
7 14 3 229.171 223.296 82.360 15.105 o
7 14 4 15.063 34.109 25.967 152.923 o
7 14 5 593.085 623.466 52.640 31.749 o
7 14 6 733.957 782.142 59.397 24.480 o
7 14 7 319.756 373.912 43.525 49.514 o
7 14 8 337.231 366.175 75.286 17.712 o
7 15 0 97.789 115.519 28.433 122.269 o
7 15 1 125.630 94.109 27.240 131.587 o
7 15 2 51.077 67.999 28.349 126.304 o
7 15 3 371.982 309.041 55.115 31.974 o
8 0 0 95.856 67.941 11.863 590.486 o
8 0 1 93.335 104.954 8.969 857.381 o
8 0 2 177.582 150.150 10.155 564.777 o
8 0 3 1719.190 1728.330 36.723 23.453 o
8 0 4 2662.000 2725.650 46.832 11.333 o
8 0 5 3098.910 3059.610 56.778 8.454 o
8 0 6 124.801 149.731 25.584 145.863 o
8 0 7 8619.390 8647.480 130.712 1.256 o
8 0 8 1182.450 1117.610 46.771 28.003 o
8 0 9 643.488 594.060 30.160 71.605 o
8 0 10 1.237 -6.148 8.726 1364.690 o
8 0 11 1033.530 1035.510 32.056 45.622 o
8 0 12 2.083 -5.308 11.154 835.158 o
8 0 13 286.664 267.062 19.994 185.626 o
8 0 14 83.130 86.171 16.976 322.969 o
8 0 15 3629.020 3667.890 133.503 3.443 o
8 0 16 301.711 315.160 37.115 66.794 o
8 0 17 173.762 195.449 25.286 143.075 o
8 0 18 207.871 176.626 25.387 140.000 o
8 0 19 521.657 530.349 38.488 55.084 o
8 0 20 13.748 -8.064 17.916 321.728 o
8 0 21 24.578 56.819 39.774 65.385 o
8 1 0 47.232 31.685 8.442 1196.960 o
8 1 1 240.027 217.017 11.764 395.878 o
8 1 2 79.131 73.712 8.753 964.900 o
8 1 3 3005.300 3057.460 51.392 9.144 o
8 1 4 1100.190 1120.870 22.703 54.015 o
8 1 5 8554.040 8310.360 100.500 1.414 o
8 1 6 5380.190 5170.010 77.477 3.292 o
8 1 7 1840.620 1775.060 36.911 21.805 o
8 1 8 193.001 245.810 31.261 95.970 o
8 1 9 2998.420 2969.820 53.045 9.153 o
8 1 10 211.018 188.520 15.244 309.517 o
8 1 11 214.781 236.082 21.671 177.644 o
8 1 12 198.184 206.853 18.093 242.406 o
8 1 13 1662.650 1562.080 48.625 20.185 o
8 1 14 416.284 439.208 27.995 96.515 o
8 1 15 76.368 78.473 18.765 271.976 o
8 1 16 877.085 903.518 42.176 37.986 o
8 1 17 2553.420 2497.480 72.051 9.073 o
8 1 18 19.711 23.095 23.082 193.035 o
8 1 19 62.583 99.752 23.941 172.799 o
8 1 20 257.213 289.128 75.902 17.637 o
8 2 0 12.497 11.055 6.820 2055.390 o
8 2 1 773.306 726.318 17.340 99.776 o
8 2 2 1433.350 1427.110 25.684 36.186 o
8 2 3 3834.040 3845.070 54.207 6.240 o
8 2 4 1213.600 1173.700 27.179 44.044 o
8 2 5 1711.350 1760.690 33.993 24.413 o
8 2 6 1776.000 1747.320 37.338 22.486 o
8 2 7 2948.830 2963.690 52.648 9.342 o
8 2 8 3089.270 3115.470 54.158 8.610 o
8 2 9 280.693 292.661 19.525 190.650 o
8 2 10 117.884 107.298 12.890 482.233 o
8 2 11 177.183 190.093 16.061 299.835 o
8 2 12 91.704 116.199 14.303 422.022 o
8 2 13 44.756 45.836 13.447 526.832 o
8 2 14 1391.610 1543.910 44.501 24.634 o
8 2 15 2103.080 1987.260 60.289 13.124 o
8 2 16 197.201 210.650 50.454 39.371 o
8 2 17 218.752 204.670 47.170 44.629 o
8 2 18 462.696 512.398 37.753 58.480 o
8 2 19 1085.540 1066.070 50.012 27.053 o
8 2 20 125.178 132.062 26.655 135.841 o
8 3 0 1368.400 1409.830 28.507 35.944 o
8 3 1 4091.220 4077.450 59.381 5.473 o
8 3 2 869.224 861.205 18.324 82.299 o
8 3 3 940.246 927.926 36.412 43.687 o
8 3 4 4835.940 4892.070 68.388 3.969 o
8 3 5 5532.890 5513.050 75.485 3.120 o
8 3 6 869.604 896.222 24.410 67.329 o
8 3 7 507.658 512.145 22.408 116.475 o
8 3 8 231.949 250.193 16.952 250.324 o
8 3 9 411.077 422.866 21.217 141.378 o
8 3 10 207.756 204.110 16.167 283.398 o
8 3 11 360.406 318.049 19.734 171.196 o
8 3 12 246.400 250.473 18.579 216.491 o
8 3 13 1100.180 1108.670 39.270 35.371 o
8 3 14 369.988 387.548 26.562 109.386 o
8 3 15 373.060 330.625 29.618 94.057 o
8 3 16 784.164 821.185 43.735 38.319 o
8 3 17 1374.460 1444.520 63.133 17.050 o
8 3 18 634.607 602.214 55.448 28.835 o
8 3 19 1.553 -0.910 39.454 66.984 o
8 3 20 73.686 44.355 31.196 104.452 o
8 4 0 28.903 9.005 8.360 1338.500 o
8 4 1 345.448 352.352 13.872 252.184 o
8 4 2 4884.730 4820.530 78.404 3.748 o
8 4 3 3707.580 3764.390 62.299 6.169 o
8 4 4 1230.050 1271.420 29.110 40.399 o
8 4 5 559.056 589.858 20.769 115.864 o
8 4 6 4843.770 4748.010 68.368 4.025 o
8 4 7 1072.970 1059.540 27.614 49.812 o
8 4 8 380.042 374.980 20.037 159.990 o
8 4 9 878.099 782.364 26.501 65.293 o
8 4 10 389.683 369.613 21.072 149.203 o
8 4 11 904.721 898.219 29.860 55.203 o
8 4 12 334.722 315.553 20.779 164.199 o
8 4 13 609.867 650.643 32.238 65.959 o
8 4 14 1625.320 1641.540 49.082 19.993 o
8 4 15 811.788 855.224 43.122 38.350 o
8 4 16 1090.620 1051.530 48.170 28.409 o
8 4 17 310.589 303.485 67.648 21.901 o
8 4 18 60.707 38.397 21.372 218.484 o
8 4 19 333.036 370.736 35.880 69.229 o
8 4 20 226.160 191.870 41.478 56.904 o
8 5 0 386.012 363.268 16.815 195.598 o
8 5 1 1867.990 1827.090 34.735 21.956 o
8 5 2 383.583 374.068 17.600 185.517 o
8 5 3 484.731 439.512 23.772 114.332 o
8 5 4 2157.660 2098.620 38.209 17.214 o
8 5 5 1141.500 1174.060 29.773 43.387 o
8 5 6 184.844 190.762 14.333 349.053 o
8 5 7 176.575 189.254 14.393 351.645 o
8 5 8 1574.330 1509.980 33.840 28.064 o
8 5 9 476.501 461.889 21.172 130.760 o
8 5 10 645.788 675.812 26.012 82.470 o
8 5 11 514.540 461.106 24.390 107.147 o
8 5 12 2458.740 2453.030 51.524 12.124 o
8 5 13 1291.480 1321.350 38.114 31.314 o
8 5 14 1280.930 1297.090 39.391 30.753 o
8 5 15 325.658 336.788 29.098 99.234 o
8 5 16 635.643 581.773 45.454 40.114 o
8 5 17 188.709 156.524 29.352 109.881 o
8 5 18 92.812 45.248 24.511 164.995 o
8 5 19 55.895 76.749 26.348 145.049 o
8 6 0 192.118 213.143 14.145 345.734 o
8 6 1 897.574 858.719 23.827 68.070 o
8 6 2 2049.330 2115.280 38.592 17.896 o
8 6 3 950.896 971.499 28.295 54.774 o
8 6 4 420.482 430.806 21.683 135.971 o
8 6 5 440.849 443.652 19.951 146.042 o
8 6 6 1687.650 1687.850 38.364 23.390 o
8 6 7 239.999 258.264 18.192 223.681 o
8 6 8 625.082 629.209 37.528 53.361 o
8 6 9 840.583 814.037 28.489 62.036 o
8 6 10 2691.020 2588.380 52.148 10.863 o
8 6 11 895.470 901.491 31.575 52.536 o
8 6 12 1369.640 1457.660 40.510 27.626 o
8 6 13 719.559 755.162 36.987 50.367 o
8 6 14 3135.400 3172.860 78.395 6.682 o
8 6 15 98.019 149.922 24.960 154.819 o
8 6 16 766.826 792.945 52.008 29.980 o
8 6 17 134.368 110.325 27.809 125.653 o
8 6 18 178.591 172.348 31.255 98.064 o
8 6 19 59.995 44.363 26.989 139.119 o
8 7 0 5316.400 5247.050 73.441 3.374 o
8 7 1 148.307 162.439 13.795 397.479 o
8 7 2 156.545 150.230 14.683 361.471 o
8 7 3 596.850 604.596 24.130 95.588 o
8 7 4 3339.790 3450.410 68.448 6.734 o
8 7 5 800.103 762.223 26.522 69.659 o
8 7 6 102.828 75.071 13.402 476.228 o
8 7 7 667.135 661.830 26.449 80.135 o
8 7 8 1004.690 1032.570 32.358 46.076 o
8 7 9 1.688 -1.014 11.272 818.392 o
8 7 10 300.488 303.773 22.998 147.119 o
8 7 11 822.551 873.656 35.190 49.157 o
8 7 12 1413.460 1397.190 43.621 25.678 o
8 7 13 10.214 48.855 15.782 405.173 o
8 7 14 768.780 773.681 37.920 47.333 o
8 7 15 393.880 421.677 30.302 87.386 o
8 7 16 493.165 529.900 46.419 41.003 o
8 7 17 135.745 101.707 29.214 114.732 o
8 7 18 81.087 53.448 26.744 140.143 o
8 8 0 42.605 59.389 12.039 638.426 o
8 8 1 397.278 447.029 22.173 134.057 o
8 8 2 5865.710 5782.950 87.890 2.704 o
8 8 3 108.308 131.422 14.649 392.660 o
8 8 4 344.305 326.449 26.105 116.667 o
8 8 5 302.939 288.058 27.035 114.880 o
8 8 6 972.524 985.287 34.338 44.951 o
8 8 7 85.059 60.873 17.508 308.697 o
8 8 8 156.757 146.982 18.302 256.046 o
8 8 9 285.203 280.321 23.478 145.637 o
8 8 10 372.750 356.661 26.043 113.613 o
8 8 11 45.075 4.900 14.082 496.676 o
8 8 12 446.128 412.356 28.382 93.612 o
8 8 13 1010.310 1032.160 52.406 26.269 o
8 8 14 608.534 577.351 34.069 62.534 o
8 8 15 171.017 200.048 26.778 129.333 o
8 8 16 452.931 442.020 101.991 9.723 o
8 8 17 202.175 194.224 33.806 83.792 o
8 9 0 2826.830 2676.030 57.041 9.723 o
8 9 1 195.598 197.168 18.314 239.776 o
8 9 2 200.624 228.282 19.614 211.268 o
8 9 3 370.527 371.286 23.734 129.352 o
8 9 4 1749.330 1765.040 46.490 19.436 o
8 9 5 377.763 398.400 29.711 91.540 o
8 9 6 264.870 268.434 27.517 114.864 o
8 9 7 269.110 253.599 21.937 165.452 o
8 9 8 930.543 859.593 35.741 45.678 o
8 9 9 16.917 15.127 14.428 487.422 o
8 9 10 654.201 720.029 37.069 52.357 o
8 9 11 379.286 398.127 28.248 98.811 o
8 9 12 553.548 511.928 32.078 71.441 o
8 9 13 335.673 363.779 35.421 70.791 o
8 9 14 347.927 343.205 28.442 101.374 o
8 9 15 489.365 462.254 36.957 60.455 o
8 9 16 802.128 807.181 47.940 33.432 o
8 10 0 28.092 40.968 19.299 271.322 o
8 10 1 217.704 230.340 25.632 134.664 o
8 10 2 576.510 600.329 36.927 56.304 o
8 10 3 373.156 333.526 28.706 98.705 o
8 10 4 268.500 279.001 21.375 170.294 o
8 10 5 213.903 204.971 19.774 208.289 o
8 10 6 1323.590 1345.050 49.331 23.774 o
8 10 7 698.285 723.074 40.031 46.019 o
8 10 8 587.424 570.696 32.059 68.929 o
8 10 9 272.495 283.063 25.415 129.606 o
8 10 10 954.458 1040.430 41.203 36.576 o
8 10 11 560.998 612.837 34.583 62.208 o
8 10 12 484.061 482.179 31.974 75.287 o
8 10 13 110.935 81.092 20.072 233.841 o
8 10 14 447.962 475.840 32.645 74.556 o
8 11 0 268.990 241.031 32.290 87.760 o
8 11 1 112.891 74.476 31.998 97.788 o
8 11 2 273.819 274.484 29.320 102.568 o
8 11 3 78.579 57.139 31.414 102.698 o
8 11 4 693.340 692.745 42.422 42.691 o
8 11 5 1159.790 1263.230 111.082 7.474 o
8 11 6 521.492 546.606 45.844 41.382 o
8 11 7 236.026 255.307 35.917 73.313 o
8 11 8 1271.480 1259.290 51.011 23.733 o
8 11 9 744.355 813.268 44.618 37.910 o
8 11 10 161.452 236.437 30.076 104.534 o
8 11 11 160.043 152.514 26.061 138.324 o
8 11 12 305.049 307.975 33.432 80.135 o
8 11 13 628.373 683.967 45.531 39.383 o
8 12 0 1.989 2.723 19.300 279.425 o
8 12 1 228.931 215.965 37.487 68.403 o
8 12 2 63.614 103.203 23.888 173.286 o
8 12 3 875.157 969.712 48.621 30.953 o
8 12 4 219.202 196.466 30.863 98.138 o
8 12 5 331.854 379.768 40.692 55.562 o
8 12 6 694.270 719.450 72.729 17.536 o
8 12 7 768.970 888.246 57.014 25.560 o
8 12 8 115.117 93.945 31.788 98.645 o
8 12 9 139.777 148.502 33.934 85.664 o
8 12 10 194.916 246.478 38.966 64.028 o
8 12 11 165.120 191.461 38.368 66.980 o
8 13 0 123.008 140.112 27.851 125.100 o
8 13 1 617.536 636.203 107.366 8.641 o
8 13 2 123.054 166.689 28.442 119.609 o
8 13 3 518.869 523.608 64.502 22.834 o
8 13 4 232.282 273.979 44.291 49.733 o
8 13 5 998.290 1069.720 90.911 10.980 o
8 13 6 203.724 263.332 44.291 50.133 o
8 13 7 161.253 229.112 46.876 45.567 o
8 13 8 280.587 312.097 42.630 52.448 o
8 14 0 74.549 39.085 43.822 53.618 o
8 14 1 380.971 343.565 58.881 28.128 o
8 14 2 21.690 4.600 23.042 194.355 o
8 14 3 808.596 811.238 58.220 24.711 o
9 0 1 328.563 332.893 16.379 220.422 o
9 0 2 402.200 405.807 18.855 165.273 o
9 0 3 1098.830 1162.400 29.790 44.730 o
9 0 4 245.662 250.643 28.122 112.496 o
9 0 5 4276.700 4197.920 67.799 4.888 o
9 0 6 185.179 178.869 15.440 316.711 o
9 0 7 1115.320 1134.980 32.204 41.962 o
9 0 8 93.742 88.581 12.659 524.495 o
9 0 9 2234.570 2263.020 50.314 13.796 o
9 0 10 10.439 26.867 16.156 391.085 o
9 0 11 77.105 72.364 13.310 501.918 o
9 0 12 33.316 49.060 12.678 595.418 o
9 0 13 4841.420 4911.440 90.849 3.483 o
9 0 14 37.825 44.255 17.931 309.924 o
9 0 15 199.730 188.023 36.439 73.078 o
9 0 16 328.680 295.750 32.717 82.490 o
9 0 17 1192.760 1239.970 102.371 8.599 o
9 0 18 74.874 71.618 20.574 230.178 o
9 0 19 3.453 18.672 18.081 316.125 o
9 1 0 1.735 -14.192 7.477 1852.580 o
9 1 1 608.690 554.800 19.952 116.507 o
9 1 2 82.566 92.013 11.696 605.334 o
9 1 3 2644.320 2616.880 48.020 11.483 o
9 1 4 782.805 777.613 30.352 61.192 o
9 1 5 3071.750 2994.250 55.713 8.694 o
9 1 6 361.367 368.992 19.578 168.301 o
9 1 7 3138.300 3068.770 82.578 6.480 o
9 1 8 318.771 299.018 20.659 169.335 o
9 1 9 40.270 57.720 17.387 326.091 o
9 1 10 267.184 263.794 19.359 198.441 o
9 1 11 2024.030 1973.560 48.226 16.243 o
9 1 12 172.743 205.670 19.257 225.668 o
9 1 13 96.689 76.299 15.884 359.817 o
9 1 14 359.184 376.450 25.879 114.978 o
9 1 15 3070.700 3088.750 80.319 6.723 o
9 1 16 33.846 38.894 24.983 163.631 o
9 1 17 10.693 -12.668 17.129 352.495 o
9 1 18 257.913 281.316 52.499 35.881 o
9 1 19 375.136 375.627 42.332 51.139 o
9 2 0 358.151 405.069 17.892 184.246 o
9 2 1 2572.070 2532.460 61.210 10.263 o
9 2 2 26.804 30.993 12.134 662.055 o
9 2 3 2047.610 2045.770 38.591 18.187 o
9 2 4 2153.480 2220.160 46.600 15.070 o
9 2 5 2619.080 2483.470 44.290 12.346 o
9 2 6 1248.530 1254.260 30.253 39.125 o
9 2 7 1117.190 1091.270 28.450 46.810 o
9 2 8 396.613 432.635 21.413 141.054 o
9 2 9 198.733 180.694 15.540 307.874 o
9 2 10 421.485 353.208 20.957 146.905 o
9 2 11 41.811 30.990 11.515 710.060 o
9 2 12 58.599 30.914 18.489 289.071 o
9 2 13 1782.480 1816.040 72.990 12.039 o
9 2 14 142.018 165.999 20.685 209.356 o
9 2 15 333.880 364.595 72.008 19.303 o
9 2 16 504.031 542.747 38.930 54.369 o
9 2 17 989.098 1018.100 68.572 17.715 o
9 2 18 187.775 193.212 27.702 120.906 o
9 2 19 81.898 36.306 52.512 37.461 o
9 3 0 522.344 519.811 19.991 129.088 o
9 3 1 1139.410 1249.350 28.969 43.250 o
9 3 2 2204.680 2214.430 40.947 15.907 o
9 3 3 3962.200 4002.650 60.251 5.679 o
9 3 4 257.626 347.339 27.120 115.410 o
9 3 5 427.038 498.470 26.046 103.837 o
9 3 6 2092.190 2134.120 40.796 16.992 o
9 3 7 625.287 658.627 23.875 92.285 o
9 3 8 309.360 312.681 18.295 199.669 o
9 3 9 211.653 218.155 17.336 252.986 o
9 3 10 141.855 133.373 15.345 348.435 o
9 3 11 530.469 549.871 25.786 95.479 o
9 3 12 12.437 1.682 13.355 574.806 o
9 3 13 580.964 611.014 31.896 68.849 o
9 3 14 517.453 491.869 30.618 78.388 o
9 3 15 1411.100 1519.700 57.040 18.892 o
9 3 16 421.703 463.713 61.501 25.488 o
9 3 17 98.704 89.612 24.289 165.447 o
9 3 18 345.015 334.504 34.632 73.720 o
9 4 0 205.187 202.386 14.855 320.163 o
9 4 1 1621.440 1628.430 33.943 26.483 o
9 4 2 31.416 53.458 10.593 823.050 o
9 4 3 3.204 17.046 11.731 743.139 o
9 4 4 2463.540 2380.190 49.037 12.630 o
9 4 5 1727.460 1693.230 36.887 23.495 o
9 4 6 567.396 571.192 22.792 105.625 o
9 4 7 156.897 144.129 14.096 385.467 o
9 4 8 1236.730 1189.740 30.816 39.677 o
9 4 9 1144.590 1166.830 31.139 41.948 o
9 4 10 213.563 204.735 18.453 231.765 o
9 4 11 16.973 21.616 12.769 614.745 o
9 4 12 727.022 750.097 31.472 61.411 o
9 4 13 1413.250 1432.490 53.077 20.827 o
9 4 14 710.945 777.767 41.398 43.111 o
9 4 15 417.379 463.718 31.715 79.478 o
9 4 16 305.119 251.843 39.794 59.543 o
9 4 17 274.022 324.169 33.447 80.876 o
9 4 18 405.152 327.323 34.320 72.979 o
9 5 0 31.882 28.726 9.614 1005.170 o
9 5 1 145.131 135.127 13.051 442.327 o
9 5 2 936.646 970.435 26.448 58.470 o
9 5 3 1996.320 1866.200 37.657 19.630 o
9 5 4 443.438 409.982 22.577 127.885 o
9 5 5 59.760 41.710 12.773 566.930 o
9 5 6 3117.950 3052.630 52.503 8.744 o
9 5 7 293.254 301.792 18.592 200.175 o
9 5 8 220.816 222.121 17.084 255.076 o
9 5 9 229.894 229.434 17.314 246.596 o
9 5 10 2685.890 2587.750 54.018 10.662 o
9 5 11 884.457 908.138 32.806 50.754 o
9 5 12 1080.320 1118.220 51.094 26.107 o
9 5 13 130.224 112.649 18.159 270.657 o
9 5 14 1012.450 1048.050 44.468 32.437 o
9 5 15 552.219 499.925 33.081 68.658 o
9 5 16 395.209 374.972 47.267 41.808 o
9 5 17 112.165 123.996 28.637 119.720 o
9 6 0 1713.780 1786.770 36.627 23.218 o
9 6 1 317.281 327.986 17.849 202.388 o
9 6 2 400.893 451.326 20.690 145.173 o
9 6 3 173.404 163.308 14.840 344.455 o
9 6 4 2610.260 2688.160 47.946 11.485 o
9 6 5 220.239 253.263 19.780 202.318 o
9 6 6 221.479 234.998 18.577 224.040 o
9 6 7 906.082 928.735 31.102 52.519 o
9 6 8 2539.320 2533.790 52.458 11.502 o
9 6 9 455.725 476.520 25.583 104.958 o
9 6 10 266.291 234.493 20.473 185.640 o
9 6 11 86.646 87.489 16.435 340.607 o
9 6 12 1843.530 1860.610 56.080 15.635 o
9 6 13 416.605 418.127 29.442 90.176 o
9 6 14 1082.960 1290.990 49.043 26.588 o
9 6 15 116.992 117.726 22.995 179.672 o
9 6 16 359.360 371.786 38.827 59.819 o
9 6 17 84.267 92.557 32.671 94.508 o
9 7 0 340.327 321.599 17.891 197.284 o
9 7 1 9.012 0.085 9.740 1075.720 o
9 7 2 2701.280 2632.280 51.347 10.839 o
9 7 3 506.011 520.006 24.629 104.113 o
9 7 4 527.030 548.039 26.755 91.516 o
9 7 5 608.760 639.645 31.335 68.719 o
9 7 6 2030.470 2050.690 52.282 15.024 o
9 7 7 110.289 131.630 16.510 321.563 o
9 7 8 31.782 32.189 13.458 540.713 o
9 7 9 278.155 261.410 23.107 151.165 o
9 7 10 790.779 817.305 35.669 49.984 o
9 7 11 30.628 48.215 16.285 374.072 o
9 7 12 489.925 535.498 31.865 74.293 o
9 7 13 276.590 304.667 29.557 100.233 o
9 7 14 343.555 356.679 37.881 62.968 o
9 7 15 137.758 133.057 21.812 193.855 o
9 7 16 328.350 338.545 44.887 46.951 o
9 8 0 3378.420 3207.810 59.235 7.460 o
9 8 1 277.526 323.779 33.793 79.333 o
9 8 2 381.610 380.368 22.237 139.495 o
9 8 3 151.625 189.639 17.998 258.862 o
9 8 4 2955.750 2940.020 57.273 8.948 o
9 8 5 190.398 196.234 20.358 203.912 o
9 8 6 455.370 406.252 31.888 78.422 o
9 8 7 44.730 39.169 19.109 273.488 o
9 8 8 956.207 1007.280 37.734 40.773 o
9 8 9 71.486 75.595 17.753 302.688 o
9 8 10 64.997 15.255 15.705 393.307 o
9 8 11 171.989 177.367 22.191 180.633 o
9 8 12 482.282 464.867 30.707 80.362 o
9 8 13 36.340 22.814 18.125 306.537 o
9 8 14 407.147 416.642 30.683 85.203 o
9 8 15 49.097 58.274 20.431 238.369 o
9 9 0 448.465 434.180 26.264 103.468 o
9 9 1 565.558 565.962 29.352 78.677 o
9 9 2 1267.180 1327.220 41.021 29.590 o
9 9 3 351.350 402.445 26.136 112.898 o
9 9 4 689.631 696.983 35.309 55.227 o
9 9 5 197.736 197.273 21.264 188.700 o
9 9 6 1892.130 1915.370 60.350 14.198 o
9 9 7 19.003 31.186 19.243 275.453 o
9 9 8 213.632 234.663 23.451 156.479 o
9 9 9 223.823 189.953 22.241 172.253 o
9 9 10 300.154 309.904 26.431 118.497 o
9 9 11 246.406 255.916 24.808 138.433 o
9 9 12 181.881 202.925 23.535 160.800 o
9 9 13 110.149 133.745 22.066 193.501 o
9 9 14 692.259 695.883 38.685 48.727 o
9 10 0 71.228 55.845 20.455 234.535 o
9 10 1 163.620 162.563 32.387 92.520 o
9 10 2 102.479 111.169 25.116 154.230 o
9 10 3 444.047 395.331 27.124 100.600 o
9 10 4 1224.520 1139.180 40.643 31.884 o
9 10 5 70.705 83.235 18.548 278.591 o
9 10 6 454.625 414.108 29.424 88.301 o
9 10 7 200.123 207.931 27.678 119.864 o
9 10 8 1179.460 1236.860 51.253 24.528 o
9 10 9 436.961 433.848 30.388 84.573 o
9 10 10 259.460 344.074 28.271 107.791 o
9 10 11 278.594 328.504 28.310 106.850 o
9 10 12 595.913 572.045 35.028 60.623 o
9 11 0 3.772 16.960 19.451 273.589 o
9 11 1 408.680 391.327 34.536 71.058 o
9 11 2 155.927 122.993 24.592 155.183 o
9 11 3 319.458 366.872 75.625 17.591 o
9 11 4 38.438 40.812 23.774 179.844 o
9 11 5 120.932 157.950 32.955 90.959 o
9 11 6 994.831 1020.830 75.286 15.197 o
9 11 7 861.621 954.189 56.016 25.334 o
9 11 8 66.805 96.971 24.601 163.869 o
9 11 9 72.486 78.585 23.370 180.968 o
9 11 10 277.636 360.664 35.090 73.732 o
9 12 0 167.739 233.063 29.218 109.918 o
9 12 1 299.329 276.448 31.696 88.664 o
9 12 2 22.471 25.299 26.855 142.934 o
9 12 3 460.375 509.524 39.639 54.137 o
9 12 4 542.579 632.068 50.100 34.965 o
9 12 5 898.910 852.352 58.815 23.589 o
9 12 6 183.003 216.491 40.910 58.861 o
9 12 7 26.019 86.473 30.498 110.048 o
9 12 8 406.637 385.747 60.797 26.284 o
9 13 0 38.938 22.139 21.806 213.796 o
9 13 1 733.943 751.517 47.577 35.005 o
9 13 2 247.404 274.064 33.487 82.477 o
9 13 3 700.242 640.298 65.910 20.992 o
10 0 0 492.153 546.695 31.830 74.080 o
10 0 1 1289.590 1263.150 30.907 37.503 o
10 0 2 28.915 42.901 14.574 463.864 o
10 0 3 1362.760 1372.030 34.838 32.001 o
10 0 4 0.782 -0.754 9.034 1275.150 o
10 0 5 189.990 156.901 23.045 168.400 o
10 0 6 380.394 344.821 27.794 102.923 o
10 0 7 946.319 942.882 29.468 53.559 o
10 0 8 6.358 -1.501 10.527 928.885 o
10 0 9 213.739 181.715 17.373 256.834 o
10 0 10 1.179 5.946 12.393 674.922 o
10 0 11 5095.360 5202.620 95.068 3.154 o
10 0 12 36.235 29.261 17.140 340.438 o
10 0 13 3.673 4.249 13.848 540.066 o
10 0 14 10.528 17.727 20.785 238.889 o
10 0 15 1386.090 1421.130 52.830 21.190 o
10 0 16 51.720 50.556 35.755 80.339 o
10 0 17 83.684 69.719 34.994 82.979 o
10 1 0 72.197 77.083 11.630 631.731 o
10 1 1 2360.270 2382.670 50.786 12.825 o
10 1 2 723.219 671.831 33.893 57.562 o
10 1 3 1213.220 1227.150 34.216 36.698 o
10 1 4 10.328 2.859 10.633 900.759 o
10 1 5 639.861 556.822 30.768 70.805 o
10 1 6 328.227 299.220 24.576 130.579 o
10 1 7 630.638 588.260 25.495 88.216 o
10 1 8 319.457 327.993 20.062 173.678 o
10 1 9 2023.890 2036.830 49.105 15.837 o
10 1 10 32.620 24.469 13.405 546.988 o
10 1 11 112.038 99.857 16.566 324.728 o
10 1 12 512.867 538.302 30.657 77.372 o
10 1 13 2969.240 3059.620 68.318 7.839 o
10 1 14 18.355 17.694 15.639 415.444 o
10 1 15 56.651 53.442 21.569 214.228 o
10 1 16 119.222 138.213 37.130 72.683 o
10 1 17 402.641 408.911 34.261 71.893 o
10 2 0 38.332 23.734 12.487 619.649 o
10 2 1 2569.580 2579.930 50.673 11.525 o
10 2 2 890.569 985.500 32.083 50.529 o
10 2 3 1761.850 1809.820 40.994 21.016 o
10 2 4 916.360 910.226 29.838 54.600 o
10 2 5 1025.200 1041.820 37.105 39.686 o
10 2 6 225.353 231.137 34.855 78.051 o
10 2 7 188.929 188.519 16.924 273.673 o
10 2 8 4.616 -4.156 10.482 940.124 o
10 2 9 109.891 79.198 16.954 316.147 o
10 2 10 817.907 842.331 34.050 51.656 o
10 2 11 1877.410 1922.610 56.818 15.103 o
10 2 12 106.105 138.898 19.655 238.166 o
10 2 13 178.485 174.295 27.269 125.557 o
10 2 14 162.760 179.548 22.030 184.001 o
10 2 15 953.672 1033.830 58.029 23.096 o
10 2 16 183.239 198.769 27.237 124.718 o
10 2 17 28.597 -2.042 63.292 25.991 o
10 3 0 2467.520 2551.560 50.358 12.045 o
10 3 1 1986.040 1981.980 61.787 13.321 o
10 3 2 515.422 491.006 23.769 109.093 o
10 3 3 1173.860 1109.550 29.849 43.301 o
10 3 4 1031.450 1043.010 29.636 48.758 o
10 3 5 781.220 817.033 30.597 59.957 o
10 3 6 4.688 -4.252 13.780 546.165 o
10 3 7 125.632 122.954 14.381 397.166 o
10 3 8 902.086 927.749 29.069 56.136 o
10 3 9 643.933 688.573 27.335 77.857 o
10 3 10 90.690 103.190 15.124 388.072 o
10 3 11 160.792 211.581 23.482 163.254 o
10 3 12 328.235 314.612 28.217 104.773 o
10 3 13 1159.780 1286.360 44.131 29.126 o
10 3 14 399.736 378.107 30.508 87.258 o
10 3 15 83.829 79.922 22.147 198.865 o
10 3 16 34.811 15.095 38.646 69.351 o
10 4 0 0.354 1.471 8.969 1292.530 o
10 4 1 471.889 482.890 21.774 125.966 o
10 4 2 1611.800 1673.270 37.163 24.870 o
10 4 3 909.264 917.660 28.494 57.072 o
10 4 4 116.316 132.793 14.464 396.006 o
10 4 5 252.342 280.977 34.223 79.088 o
10 4 6 1407.680 1481.030 40.333 27.077 o
10 4 7 1302.500 1248.960 33.511 35.252 o
10 4 8 21.590 23.447 12.575 627.746 o
10 4 9 10.956 11.136 11.978 707.826 o
10 4 10 1284.160 1308.290 35.731 33.307 o
10 4 11 1076.380 1094.040 33.504 41.995 o
10 4 12 301.282 309.901 39.786 59.087 o
10 4 13 130.660 104.297 17.979 276.311 o
10 4 14 36.254 48.344 18.152 302.639 o
10 4 15 684.156 674.535 37.596 51.162 o
10 4 16 401.681 390.402 48.239 40.161 o
10 5 0 560.853 523.650 22.585 109.555 o
10 5 1 363.967 374.276 20.018 162.841 o
10 5 2 213.005 220.109 18.451 230.099 o
10 5 3 205.200 209.540 16.483 275.609 o
10 5 4 1163.510 1116.500 31.459 41.772 o
10 5 5 513.659 504.020 23.590 109.628 o
10 5 6 188.021 212.123 20.193 205.601 o
10 5 7 234.914 258.724 22.776 160.053 o
10 5 8 2910.310 2938.750 54.709 9.308 o
10 5 9 800.455 782.132 32.560 55.907 o
10 5 10 284.186 325.401 24.409 134.974 o
10 5 11 38.458 58.226 17.584 319.617 o
10 5 12 744.191 753.269 54.133 28.510 o
10 5 13 330.771 340.755 27.371 108.894 o
10 5 14 402.640 438.520 31.504 81.505 o
10 5 15 159.289 175.972 23.781 161.731 o
10 6 0 215.252 207.321 16.128 281.135 o
10 6 1 99.505 86.252 13.170 488.297 o
10 6 2 649.022 705.662 26.455 79.887 o
10 6 3 781.484 840.340 27.799 65.611 o
10 6 4 343.151 353.467 20.724 160.569 o
10 6 5 568.472 578.318 29.087 79.130 o
10 6 6 2678.420 2763.890 69.152 8.758 o
10 6 7 475.336 477.897 30.760 80.179 o
10 6 8 385.035 405.453 25.623 113.321 o
10 6 9 0.619 -12.466 13.126 604.856 o
10 6 10 1683.260 1803.840 47.196 19.568 o
10 6 11 24.212 24.398 14.893 452.292 o
10 6 12 240.312 243.470 22.636 161.913 o
10 6 13 141.277 115.264 20.148 223.751 o
10 6 14 554.155 581.970 34.911 62.082 o
10 6 15 111.363 116.828 23.433 174.219 o
10 7 0 1144.790 1104.510 30.899 43.018 o
10 7 1 139.869 160.868 16.653 301.649 o
10 7 2 220.681 240.450 19.356 210.267 o
10 7 3 148.100 171.085 17.956 263.252 o
10 7 4 2275.740 2300.660 50.083 13.539 o
10 7 5 39.234 52.544 14.691 448.827 o
10 7 6 355.385 354.274 27.803 104.198 o
10 7 7 169.849 184.714 22.534 175.766 o
10 7 8 1679.590 1771.080 46.136 20.105 o
10 7 9 33.050 48.864 17.428 327.895 o
10 7 10 219.760 226.412 24.366 146.636 o
10 7 11 15.628 14.978 16.544 373.597 o
10 7 12 427.826 477.538 32.228 76.823 o
10 7 13 160.365 185.863 27.702 122.814 o
10 7 14 158.334 158.981 22.425 180.347 o
10 8 0 228.281 190.898 21.760 177.779 o
10 8 1 291.809 310.394 21.809 159.818 o
10 8 2 1767.530 1786.970 44.217 19.962 o
10 8 3 12.473 35.105 14.054 509.486 o
10 8 4 190.688 211.378 20.025 207.945 o
10 8 5 23.709 1.558 14.166 505.134 o
10 8 6 1724.080 1736.460 50.362 18.445 o
10 8 7 8.105 21.332 19.616 267.975 o
10 8 8 84.942 109.819 24.745 160.082 o
10 8 9 266.331 268.712 24.990 134.375 o
10 8 10 430.329 458.068 31.615 79.421 o
10 8 11 138.889 151.303 22.468 182.659 o
10 8 12 67.615 99.207 19.806 245.887 o
10 9 0 1062.610 1051.500 34.325 41.905 o
10 9 1 155.683 197.833 21.125 197.288 o
10 9 2 67.025 69.865 17.084 326.953 o
10 9 3 565.685 577.357 31.958 69.975 o
10 9 4 1521.450 1613.750 47.884 21.450 o
10 9 5 14.981 14.935 16.081 395.179 o
10 9 6 466.789 443.682 30.128 83.912 o
10 9 7 86.849 111.755 21.241 212.261 o
10 9 8 1031.430 1134.530 51.398 26.290 o
10 9 9 198.399 235.533 30.464 100.509 o
10 9 10 237.275 249.152 33.362 83.790 o
10 9 11 84.411 91.208 20.883 220.931 o
10 10 0 3.663 7.337 19.187 282.001 o
10 10 1 549.353 469.090 39.788 52.338 o
10 10 2 407.432 416.568 38.957 57.926 o
10 10 3 57.321 61.461 16.995 334.485 o
10 10 4 280.163 247.462 24.631 137.223 o
10 10 5 378.031 344.621 27.788 103.114 o
10 10 6 707.973 717.377 37.733 49.791 o
10 10 7 218.570 237.610 25.259 137.650 o
10 10 8 223.692 210.746 24.815 142.586 o
10 10 9 2.319 20.983 22.186 210.601 o
10 11 0 265.489 280.003 30.456 96.414 o
10 11 1 158.672 194.094 27.709 122.606 o
10 11 2 23.442 10.661 23.003 194.571 o
10 11 3 221.394 200.915 29.641 105.259 o
10 11 4 529.602 547.572 41.553 48.456 o
10 11 5 234.462 198.052 34.124 81.339 o
10 11 6 48.796 54.011 27.987 129.932 o
11 0 1 3463.720 3501.050 64.333 6.706 o
11 0 2 271.831 351.987 21.968 158.017 o
11 0 3 320.084 303.350 20.711 168.195 o
11 0 4 34.897 39.989 12.619 603.261 o
11 0 5 316.866 327.423 21.288 160.575 o
11 0 6 198.866 186.086 18.381 238.998 o
11 0 7 243.748 207.577 24.780 141.205 o
11 0 8 2.397 51.812 19.363 273.251 o
11 0 9 3614.950 3683.940 78.326 5.614 o
11 0 10 61.038 94.657 16.588 342.790 o
11 0 11 150.392 150.698 19.353 234.303 o
11 0 12 0.181 24.486 14.750 473.085 o
11 0 13 1931.050 1920.670 60.836 13.899 o
11 0 14 78.848 37.463 17.988 298.502 o
11 0 15 0.233 25.569 37.501 74.002 o
11 1 0 60.807 78.778 14.843 422.390 o
11 1 1 2057.690 2117.710 47.061 15.856 o
11 1 2 128.103 167.444 17.335 285.259 o
11 1 3 961.800 1032.770 32.750 46.747 o
11 1 4 239.956 231.566 19.055 212.113 o
11 1 5 22.780 0.665 11.877 711.725 o
11 1 6 51.553 36.072 13.227 541.461 o
11 1 7 466.657 509.539 33.185 71.371 o
11 1 8 282.220 277.008 21.065 172.065 o
11 1 9 347.618 352.046 23.811 132.128 o
11 1 10 462.620 568.962 28.402 87.882 o
11 1 11 2682.090 2871.690 74.060 8.147 o
11 1 12 84.019 132.341 20.831 218.821 o
11 1 13 11.285 10.724 14.913 460.896 o
11 1 14 44.382 43.839 17.633 318.300 o
11 2 0 612.787 698.339 29.725 71.892 o
11 2 1 2055.660 2137.480 48.295 15.530 o
11 2 2 291.730 268.162 20.406 179.328 o
11 2 3 1154.930 1181.050 35.029 37.645 o
11 2 4 71.031 76.919 18.715 274.681 o
11 2 5 187.939 186.037 23.661 159.594 o
11 2 6 139.432 105.744 16.189 326.145 o
11 2 7 233.575 227.750 24.260 146.256 o
11 2 8 346.408 361.225 26.203 114.474 o
11 2 9 1546.990 1601.660 43.369 23.234 o
11 2 10 40.802 77.995 16.272 365.501 o
11 2 11 55.703 59.280 17.482 318.182 o
11 2 12 232.534 251.507 24.691 141.025 o
11 2 13 786.077 828.300 42.126 40.272 o
11 2 14 77.049 94.323 19.551 250.501 o
11 3 0 2.759 3.472 13.233 592.124 o
11 3 1 1404.910 1427.740 38.332 28.649 o
11 3 2 1330.610 1309.300 37.453 31.252 o
11 3 3 231.293 211.439 19.001 217.053 o
11 3 4 120.578 91.118 15.300 369.443 o
11 3 5 486.235 492.589 26.331 98.206 o
11 3 6 316.694 338.924 22.928 143.796 o
11 3 7 939.387 953.964 43.868 34.747 o
11 3 8 36.814 44.941 18.558 290.336 o
11 3 9 92.418 134.006 18.590 266.441 o
11 3 10 999.619 1059.790 36.841 40.339 o
11 3 11 668.716 681.280 32.047 63.591 o
11 3 12 314.412 312.615 25.095 127.139 o
11 3 13 111.451 87.402 17.927 285.144 o
11 3 14 66.884 81.004 25.823 149.928 o
11 4 0 2208.810 2237.020 49.255 14.194 o
11 4 1 101.842 111.484 15.828 352.648 o
11 4 2 158.068 148.633 16.898 290.707 o
11 4 3 428.340 416.423 24.408 116.778 o
11 4 4 752.543 758.556 29.244 65.397 o
11 4 5 457.941 528.308 26.554 97.867 o
11 4 6 56.562 32.563 12.792 572.364 o
11 4 7 9.718 27.380 15.786 409.411 o
11 4 8 1196.190 1260.240 41.290 30.899 o
11 4 9 897.156 960.578 33.113 49.107 o
11 4 10 61.544 66.791 15.846 377.711 o
11 4 11 320.226 334.279 23.046 142.587 o
11 4 12 279.603 286.917 23.737 143.437 o
11 4 13 255.888 286.860 25.387 131.118 o
11 5 0 64.145 75.941 14.541 437.065 o
11 5 1 131.367 137.602 15.428 349.196 o
11 5 2 944.072 935.997 30.601 51.941 o
11 5 3 110.791 123.127 15.729 350.181 o
11 5 4 360.854 319.056 21.195 155.759 o
11 5 5 124.830 137.207 16.390 319.189 o
11 5 6 934.106 964.376 31.951 49.715 o
11 5 7 870.397 943.475 43.474 36.300 o
11 5 8 259.041 338.468 26.908 117.109 o
11 5 9 138.495 137.948 18.991 245.929 o
11 5 10 1637.800 1642.620 45.875 21.116 o
11 5 11 309.615 346.856 25.930 119.863 o
11 5 12 295.503 306.250 25.301 127.499 o
11 5 13 242.965 239.532 36.270 72.047 o
11 6 0 664.602 703.553 35.505 55.458 o
11 6 1 95.157 73.201 14.456 424.814 o
11 6 2 21.481 34.241 12.974 586.981 o
11 6 3 422.466 414.174 22.997 126.988 o
11 6 4 904.889 950.491 32.605 49.811 o
11 6 5 292.174 277.138 25.736 125.621 o
11 6 6 479.370 471.906 28.844 87.840 o
11 6 7 10.723 10.681 14.592 481.339 o
11 6 8 1664.540 1664.160 53.547 18.043 o
11 6 9 49.884 71.844 21.050 224.095 o
11 6 10 432.431 471.997 29.293 88.510 o
11 6 11 69.706 57.870 17.835 302.988 o
11 6 12 498.982 482.740 30.476 80.008 o
11 7 0 115.127 100.967 16.676 319.802 o
11 7 1 99.614 118.833 17.366 300.286 o
11 7 2 1830.930 1949.520 47.977 17.672 o
11 7 3 161.082 184.726 19.456 226.513 o
11 7 4 34.516 32.761 15.364 419.471 o
11 7 5 25.588 34.765 15.242 429.540 o
11 7 6 1395.090 1495.830 43.622 25.325 o
11 7 7 0.947 -14.790 13.817 545.677 o
11 7 8 198.972 258.583 32.788 87.615 o
11 7 9 10.317 2.617 27.938 133.162 o
11 7 10 777.884 792.842 39.463 44.505 o
11 8 0 1239.330 1263.970 38.986 31.960 o
11 8 1 122.160 164.714 18.553 256.542 o
11 8 2 92.192 102.354 17.232 309.170 o
11 8 3 125.468 168.085 19.306 238.682 o
11 8 4 1167.900 1245.120 39.596 32.783 o
11 8 5 1.335 10.935 15.468 433.077 o
11 8 6 29.165 38.104 19.601 263.337 o
11 8 7 61.315 66.898 18.914 272.522 o
11 8 8 774.716 814.362 39.887 43.719 o
11 8 9 128.443 178.649 28.253 120.479 o
11 9 0 26.704 24.868 15.866 399.266 o
11 9 1 216.800 200.952 28.239 114.914 o
11 9 2 686.696 695.688 36.274 53.375 o
11 9 3 10.183 0.692 15.823 412.554 o
11 9 4 22.125 38.977 16.861 354.244 o
11 9 5 260.808 247.248 35.995 72.488 o
11 9 6 557.240 510.667 33.346 67.490 o
11 9 7 25.315 65.572 21.029 228.358 o
11 10 0 508.187 451.700 39.515 54.003 o
11 10 1 313.527 336.078 82.076 15.042 o
11 10 2 76.057 49.694 26.173 146.516 o
12 0 0 1.790 25.865 20.540 245.220 o
12 0 1 324.257 268.245 21.530 161.203 o
12 0 2 23.744 3.009 12.724 621.197 o
12 0 3 445.421 453.809 26.057 104.074 o
12 0 4 136.281 160.072 18.571 253.292 o
12 0 5 30.950 -18.206 12.470 640.167 o
12 0 6 2.510 21.330 13.726 544.730 o
12 0 7 2003.880 2033.130 49.692 15.829 o
12 0 8 259.526 297.132 22.757 154.865 o
12 0 9 97.286 83.074 28.424 123.163 o
12 0 10 18.500 -10.826 20.175 253.529 o
12 0 11 1079.380 1156.970 62.412 19.654 o
12 1 0 2.336 26.248 13.270 580.392 o
12 1 1 848.531 843.604 33.470 51.720 o
12 1 2 14.564 20.796 18.830 289.315 o
12 1 3 357.633 339.279 23.275 136.088 o
12 1 4 14.748 18.840 13.488 555.801 o
12 1 5 815.343 840.832 34.988 50.143 o
12 1 6 33.242 38.357 14.836 447.453 o
12 1 7 99.208 109.376 20.257 229.572 o
12 1 8 172.178 160.349 25.069 146.917 o
12 1 9 1345.870 1391.780 52.621 21.719 o
12 1 10 314.502 331.291 40.087 57.843 o
12 1 11 96.220 107.072 24.350 164.118 o
12 2 0 10.101 14.695 13.802 535.967 o
12 2 1 1351.870 1483.990 41.292 27.224 o
12 2 2 257.159 289.851 22.259 160.990 o
12 2 3 654.267 740.364 33.233 60.200 o
12 2 4 138.180 116.752 17.495 285.450 o
12 2 5 479.838 518.289 28.306 88.766 o
12 2 6 302.545 257.422 22.370 155.989 o
12 2 7 895.871 1003.500 36.921 43.166 o
12 2 8 110.554 131.281 19.064 251.166 o
12 2 9 336.827 292.722 30.209 93.921 o
12 2 10 307.040 342.230 36.796 67.336 o
12 2 11 562.766 624.023 32.338 68.042 o
12 3 0 1155.130 1227.690 37.920 34.560 o
12 3 1 487.234 501.310 27.733 91.332 o
12 3 2 71.980 62.748 15.592 385.305 o
12 3 3 250.625 287.832 22.531 158.978 o
12 3 4 494.055 485.146 27.636 91.843 o
12 3 5 217.938 209.686 21.363 183.271 o
12 3 6 104.307 106.398 17.498 296.802 o
12 3 7 147.856 161.116 19.960 221.881 o
12 3 8 658.844 642.346 41.387 45.398 o
12 3 9 666.283 708.202 41.211 44.910 o
12 3 10 106.827 137.407 24.793 156.541 o
12 4 0 84.840 82.634 16.327 346.175 o
12 4 1 193.490 177.980 22.260 176.818 o
12 4 2 728.903 819.859 33.639 55.513 o
12 4 3 497.701 540.953 28.993 84.280 o
12 4 4 131.298 147.799 19.002 246.183 o
12 4 5 45.458 23.842 17.555 323.408 o
12 4 6 380.057 406.602 30.131 89.237 o
12 4 7 495.885 465.016 28.092 90.330 o
12 4 8 148.159 144.792 20.454 214.207 o
12 4 9 137.428 152.411 23.829 164.596 o
12 4 10 180.361 236.677 28.295 115.599 o
12 5 0 1385.310 1517.540 42.638 25.845 o
12 5 1 279.781 250.578 21.778 166.006 o
12 5 2 22.222 16.046 14.322 491.111 o
12 5 3 159.634 160.208 19.434 229.779 o
12 5 4 724.523 744.500 36.110 51.988 o
12 5 5 452.866 436.355 27.735 95.558 o
12 5 6 270.899 314.053 24.468 136.328 o
12 5 7 113.001 156.463 18.871 252.277 o
12 5 8 720.882 732.664 34.888 54.623 o
12 5 9 473.271 532.141 36.996 59.847 o
12 6 0 11.543 5.460 14.342 498.988 o
12 6 1 143.408 178.092 19.796 224.226 o
12 6 2 821.015 886.447 35.198 49.011 o
12 6 3 230.691 222.502 20.369 194.307 o
12 6 4 19.486 5.503 14.952 455.815 o
12 6 5 2.262 25.997 15.034 454.240 o
12 6 6 674.774 657.083 33.213 60.983 o
12 6 7 66.049 110.101 18.743 271.311 o
12 7 0 1437.850 1553.400 43.772 24.454 o
12 7 1 207.412 221.509 26.560 127.818 o
12 7 2 17.087 22.081 15.707 411.574 o
12 7 3 53.069 63.420 17.365 322.339 o
12 7 4 587.372 575.274 31.489 70.525 o
12 7 5 35.539 31.824 15.979 389.118 o
12 8 0 98.841 134.094 49.433 41.856 o
13 0 1 231.540 177.347 36.167 73.469 o
13 0 2 114.598 127.159 19.105 249.798 o
13 0 3 117.886 135.161 19.464 240.292 o
13 0 4 26.243 59.389 16.325 371.927 o
13 0 5 1577.060 1730.590 47.904 20.471 o
13 0 6 292.664 295.539 27.219 114.093 o
13 1 0 201.026 228.359 28.598 112.507 o
13 1 1 138.549 119.282 19.774 231.290 o
13 1 2 38.411 54.792 16.308 369.081 o
13 1 3 859.693 917.920 48.842 31.227 o
13 1 4 96.407 125.570 18.859 259.785 o
13 1 5 289.737 302.271 24.554 134.326 o
13 1 6 164.043 208.209 21.960 182.862 o
13 2 0 6.691 21.212 15.638 419.530 o
13 2 1 163.358 166.119 27.521 124.698 o
13 2 2 337.055 346.211 49.275 39.474 o
13 2 3 167.388 191.344 21.256 193.949 o
13 2 4 276.351 297.001 31.250 91.389 o
13 2 5 672.667 727.776 34.461 57.062 o
13 3 0 127.075 151.184 44.286 51.557 o
13 3 1 105.863 118.922 19.228 249.726 o
13 3 2 253.137 264.688 26.065 126.712 o
13 3 3 417.556 448.709 28.385 94.223 o
13 3 4 184.631 230.906 22.398 172.705 o
13 4 0 1035.810 1136.080 43.060 32.726 o
13 4 1 119.668 145.642 25.814 144.021 o
13 4 2 107.937 111.911 19.092 253.188 o
13 4 3 3.279 15.290 18.157 313.920 o
;
_olex2_submission_special_instructions 'No special instructions were received'
loop_
_space_group_symop_id
_space_group_symop_operation_xyz
1 x,y,z
2 x+1/2,-y+1/2,-z
3 -x,y+1/2,-z+1/2
4 -x+1/2,-y,z+1/2
loop_
_atom_site_label
_atom_site_type_symbol
_atom_site_fract_x
_atom_site_fract_y
_atom_site_fract_z
_atom_site_U_iso_or_equiv
_atom_site_adp_type
_atom_site_occupancy
_atom_site_refinement_flags_posn
In1 In 0.274056(16) 0.465458(13) 0.132623(8) 0.02356(4) Uani 1.000000 .
Cl1 Cl 0.44732(7) 0.47996(7) 0.02839(4) 0.04367(16) Uani 1.000000 .
Cl2 Cl 0.22988(7) 0.27396(5) 0.08609(3) 0.03340(12) Uani 1.000000 .
Cl3 Cl 0.45994(7) 0.38701(5) 0.21819(4) 0.03580(14) Uani 1.000000 .
Cl4 Cl 0.08879(7) 0.43735(5) 0.23160(3) 0.03576(14) Uani 1.000000 .
Cl5 Cl 0.07845(6) 0.54513(6) 0.05593(3) 0.03430(13) Uani 1.000000 .
Cl6 Cl 0.34045(7) 0.65242(5) 0.17920(4) 0.03532(13) Uani 1.000000 .
O1 O -0.0630(3) 0.2996(2) 0.36428(16) 0.0693(7) Uani 1.000000 .
H27 H 0.008(3) 0.264(3) 0.380(2) 0.1039(10) Uiso 1.000000 G
H29 H -0.034(4) 0.327(4) 0.3242(15) 0.1039(10) Uiso 1.000000 G
N1 N 0.7990(2) 0.20989(17) 0.08973(12) 0.0296(4) Uani 1.000000 .
N2 N 0.40038(19) 0.10899(17) 0.20120(11) 0.0263(4) Uani 1.000000 .
H13 H 0.46283(19) 0.09895(17) 0.23821(11) 0.0316(5) Uiso 1.000000 R
H14 H 0.39603(19) 0.18051(17) 0.19193(11) 0.0316(5) Uiso 1.000000 R
N3 N 0.2034(2) 0.20609(18) 0.41332(12) 0.0334(5) Uani 1.000000 .
C1 C 0.8263(4) 0.3278(2) 0.08165(19) 0.0475(7) Uani 1.000000 .
H1 H 0.9205(10) 0.3388(3) 0.0620(12) 0.0712(11) Uiso 1.000000 GR
H2 H 0.819(2) 0.3622(4) 0.1288(3) 0.0712(11) Uiso 1.000000 GR
H3 H 0.7569(15) 0.3587(4) 0.0489(10) 0.0712(11) Uiso 1.000000 GR
C2 C 0.8992(3) 0.1603(3) 0.14286(19) 0.0543(9) Uani 1.000000 .
H4 H 0.9944(5) 0.1855(17) 0.1331(9) 0.0815(13) Uiso 1.000000 GR
H5 H 0.896(2) 0.0829(3) 0.1381(10) 0.0815(13) Uiso 1.000000 GR
H6 H 0.8721(17) 0.1804(17) 0.1919(2) 0.0815(13) Uiso 1.000000 GR
C3 C 0.6447(3) 0.1911(2) 0.10975(15) 0.0327(5) Uani 1.000000 .
H9 H 0.5843(3) 0.2185(2) 0.07061(15) 0.0393(6) Uiso 1.000000 R
H10 H 0.6225(3) 0.2314(2) 0.15410(15) 0.0393(6) Uiso 1.000000 R
C4 C 0.6119(2) 0.0730(2) 0.12212(14) 0.0290(5) Uani 1.000000 .
H7 H 0.6436(2) 0.0318(2) 0.07976(14) 0.0348(6) Uiso 1.000000 R
H8 H 0.6650(2) 0.0477(2) 0.16456(14) 0.0348(6) Uiso 1.000000 R
C5 C 0.4545(2) 0.0522(2) 0.13442(13) 0.0296(5) Uani 1.000000 .
H11 H 0.4012(2) 0.0767(2) 0.09181(13) 0.0355(6) Uiso 1.000000 R
H12 H 0.4388(2) -0.0251(2) 0.13974(13) 0.0355(6) Uiso 1.000000 R
C6 C 0.2556(2) 0.0706(2) 0.22528(13) 0.0297(5) Uani 1.000000 .
H15 H 0.1922(2) 0.0686(2) 0.18308(13) 0.0357(6) Uiso 1.000000 R
H16 H 0.2636(2) -0.0026(2) 0.24431(13) 0.0357(6) Uiso 1.000000 R
C7 C 0.1910(2) 0.1430(2) 0.28401(14) 0.0300(5) Uani 1.000000 .
H17 H 0.2014(2) 0.2180(2) 0.26896(14) 0.0360(6) Uiso 1.000000 R
H18 H 0.0896(2) 0.1277(2) 0.28778(14) 0.0360(6) Uiso 1.000000 R
C8 C 0.2589(3) 0.1286(2) 0.35892(13) 0.0369(6) Uani 1.000000 .
H19 H 0.3615(3) 0.1380(2) 0.35456(13) 0.0443(7) Uiso 1.000000 R
H20 H 0.2411(3) 0.0555(2) 0.37613(13) 0.0443(7) Uiso 1.000000 R
C9 C 0.2375(4) 0.1744(3) 0.48975(15) 0.0515(8) Uani 1.000000 .
H24 H 0.3389(5) 0.165(2) 0.4947(4) 0.0772(11) Uiso 1.000000 GR
H25 H 0.190(2) 0.1076(11) 0.5013(5) 0.0772(11) Uiso 1.000000 GR
H26 H 0.206(2) 0.2300(10) 0.52284(18) 0.0772(11) Uiso 1.000000 GR
C10 C 0.2663(5) 0.3166(3) 0.4002(2) 0.0732(12) Uani 1.000000 .
H21 H 0.3680(6) 0.3137(6) 0.4072(17) 0.1097(19) Uiso 1.000000 GR
H22 H 0.246(3) 0.3392(11) 0.3509(6) 0.1097(19) Uiso 1.000000 GR
H23 H 0.226(2) 0.3673(6) 0.4343(12) 0.1097(19) Uiso 1.000000 GR
loop_
_atom_site_aniso_label
_atom_site_aniso_U_11
_atom_site_aniso_U_22
_atom_site_aniso_U_33
_atom_site_aniso_U_12
_atom_site_aniso_U_13
_atom_site_aniso_U_23
In1 0.02426(6) 0.02496(7) 0.02147(7) 0.00112(6) -0.00069(5) -0.00051(6)
Cl1 0.0370(3) 0.0568(5) 0.0372(3) -0.0087(3) 0.0121(2) 0.0009(3)
Cl2 0.0412(3) 0.0260(3) 0.0330(3) -0.0032(2) 0.0008(3) -0.0048(2)
Cl3 0.0378(3) 0.0354(3) 0.0342(3) 0.0110(3) -0.0124(3) -0.0059(3)
Cl4 0.0383(3) 0.0389(4) 0.0301(3) 0.0022(2) 0.0095(2) 0.0032(3)
Cl5 0.0335(2) 0.0389(3) 0.0304(3) 0.0058(3) -0.0047(2) 0.0032(3)
Cl6 0.0382(3) 0.0271(3) 0.0408(3) -0.0007(2) -0.0091(3) -0.0035(3)
O1 0.0646(15) 0.0791(19) 0.0642(17) -0.0132(14) 0.0072(14) 0.0092(16)
N1 0.0327(10) 0.0294(11) 0.0267(10) -0.0019(8) 0.0016(8) 0.0031(8)
N2 0.0251(8) 0.0272(10) 0.0266(10) -0.0008(7) 0.0001(7) -0.0021(8)
N3 0.0368(11) 0.0368(12) 0.0265(10) -0.0030(9) -0.0021(9) -0.0029(9)
C1 0.0613(18) 0.0349(16) 0.0463(17) -0.0140(14) 0.0001(14) 0.0017(13)
C2 0.0322(13) 0.072(2) 0.059(2) -0.0078(13) -0.0063(13) 0.0278(18)
C3 0.0308(11) 0.0303(13) 0.0371(14) 0.0029(9) 0.0048(10) 0.0022(10)
C4 0.0320(10) 0.0280(11) 0.0268(12) 0.0030(9) 0.0045(9) -0.0022(10)
C5 0.0322(10) 0.0333(13) 0.0233(10) -0.0014(9) 0.0007(9) -0.0065(11)
C6 0.0248(11) 0.0340(12) 0.0304(12) -0.0049(8) 0.0006(8) -0.0017(10)
C7 0.0246(10) 0.0344(13) 0.0309(12) -0.0001(8) -0.0004(8) -0.0000(10)
C8 0.0364(13) 0.0419(14) 0.0325(13) 0.0075(11) -0.0008(10) -0.0016(11)
C9 0.0616(19) 0.063(2) 0.0297(13) -0.0071(17) -0.0045(13) -0.0004(13)
C10 0.122(4) 0.0450(19) 0.053(2) -0.027(2) -0.019(2) -0.0032(16)
loop_
_atom_type_symbol
_atom_type_scat_dispersion_real
_atom_type_scat_dispersion_imag
_atom_type_scat_Cromer_Mann_a1
_atom_type_scat_Cromer_Mann_a2
_atom_type_scat_Cromer_Mann_a3
_atom_type_scat_Cromer_Mann_a4
_atom_type_scat_Cromer_Mann_b1
_atom_type_scat_Cromer_Mann_b2
_atom_type_scat_Cromer_Mann_b3
_atom_type_scat_Cromer_Mann_b4
_atom_type_scat_Cromer_Mann_c
_atom_type_scat_source
_atom_type_scat_dispersion_source
C 0.00347 0.00161 2.31000 1.02000 1.58860 0.86500 20.84390 10.20750 0.56870
51.65120 0.21560 'International Tables Volume C Table 6.1.1.4 (pp. 500-502)'
'Henke, Gullikson and Davis, At. Data and Nucl. Data Tables, 1993, 54, 2'
Cl 0.14873 0.16029 11.46040 7.19640 6.25560 1.64550 0.01040 1.16620 18.51940
47.77840 -9.55740 'International Tables Volume C Table 6.1.1.4 (pp. 500-502)'
'Henke, Gullikson and Davis, At. Data and Nucl. Data Tables, 1993, 54, 2'
H 0.00000 0.00000 0.49300 0.32291 0.14019 0.04081 10.51090 26.12570 3.14236
57.79970 0.00304 'International Tables Volume C Table 6.1.1.4 (pp. 500-502)'
'Henke, Gullikson and Davis, At. Data and Nucl. Data Tables, 1993, 54, 2'
In -0.70596 1.29261 19.16240 18.55960 4.29480 2.03960 0.54760 6.37760 25.84990
92.80290 4.93910 'International Tables Volume C Table 6.1.1.4 (pp. 500-502)'
'Henke, Gullikson and Davis, At. Data and Nucl. Data Tables, 1993, 54, 2'
N 0.00653 0.00323 12.21260 3.13220 2.01250 1.16630 0.00570 9.89330 28.99750
0.58260 -11.52900 'International Tables Volume C Table 6.1.1.4 (pp. 500-502)'
'Henke, Gullikson and Davis, At. Data and Nucl. Data Tables, 1993, 54, 2'
O 0.01158 0.00611 3.04850 2.28680 1.54630 0.86700 13.27710 5.70110 0.32390
32.90890 0.25080 'International Tables Volume C Table 6.1.1.4 (pp. 500-502)'
'Henke, Gullikson and Davis, At. Data and Nucl. Data Tables, 1993, 54, 2'
loop_
_diffrn_refln_index_h
_diffrn_refln_index_k
_diffrn_refln_index_l
_diffrn_refln_intensity_net
_diffrn_refln_intensity_u
-1 0 0 6.7 0.8
1 0 0 5.3 0.8
1 0 0 5.3 0.7
-2 0 0 6309.57 168.88
2 0 0 6536.95 168.48
2 0 0 6313.07 164.48
-2 0 0 6267.47 165.68
-3 0 0 7.4 1.9
3 0 0 3 1.6
3 0 0 4.7 1.9
-3 0 0 4 1.7
-4 0 0 2339.67 62.99
-4 0 0 2295.17 62.59
4 0 0 2293.07 62.59
-4 0 0 2306.27 62.69
4 0 0 2254.97 62.59
-5 0 0 -0.7 2.2
5 0 0 -0.4 1.2
-5 0 0 5.7 2.5
-5 0 0 2.1 2.4
5 0 0 -1.2 2.2
5 0 0 6.4 2.5
-6 0 0 3834.22 105.09
-6 0 0 4031.1 104.89
-6 0 0 3881.51 105.29
6 0 0 3843.82 101.59
6 0 0 3805.92 104.89
7 0 0 -0.1 1.8
7 0 0 6.4 3.7
-7 0 0 4.1 4.2
-7 0 0 -0.3 2.5
-8 0 0 6.5 4.9
-8 0 0 14.8 4.7
8 0 0 12.5 3.1
8 0 0 13.2 5.1
9 0 0 1.4 2.7
-9 0 0 -4.8 3
9 0 0 -2.1 3.1
10 0 0 106.89 11.7
-10 0 0 95.79 11.4
10 0 0 90.99 7.7
11 0 0 13.5 6.6
11 0 0 9.8 4.2
-11 0 0 14.3 7.3
12 0 0 3.4 4.2
-12 0 0 6.5 7.1
-13 0 0 -6.2 6.8
13 0 0 -3.3 4
0 1 0 1.9 0.5
0 -1 0 4.6 0.8
1 1 0 8976 223.88
-1 -1 0 9010 224.18
1 -1 0 8448.55 227.28
1 -1 0 7808.52 226.48
-1 1 0 8796.42 227.78
-2 1 0 10.7 1.9
2 1 0 4 1.1
2 -1 0 4.6 1.5
-2 1 0 3 1.4
-2 -1 0 2.8 1.1
2 1 0 1.9 1
-2 -1 0 3.5 1.1
-3 -1 0 342.97 11.3
3 -1 0 343.27 12.5
3 1 0 337.07 11.2
3 -1 0 343.27 12.4
-3 -1 0 335.47 11.3
3 1 0 339.77 11.2
-3 1 0 347.17 12.4
-3 1 0 341.57 12.5
4 1 0 1311.57 36.4
-4 1 0 1291.27 37.1
4 1 0 1282.17 38.4
4 -1 0 1295.77 36.8
-4 1 0 1269.47 37.5
-4 -1 0 1334.57 36.5
4 1 0 1264.07 34
-4 -1 0 1323.47 38.6
4 -1 0 1274.87 37.7
-4 -1 0 1277.27 36.4
4 -1 0 1262.57 36.8
-4 1 0 1284.47 37.8
-5 1 0 2516.65 69.29
5 1 0 2558.04 68.49
5 1 0 2459.85 65.79
5 -1 0 2436.16 68.89
5 -1 0 2438.56 66.59
5 -1 0 2497.55 69.99
5 1 0 2517.65 69.09
-5 -1 0 2561.04 68.69
-5 -1 0 2504.55 68.39
-5 1 0 2536.05 69.89
-5 -1 0 2612.84 69.39
-5 1 0 2578.14 70.39
5 -1 0 2465.45 69.19
-6 1 0 236.58 11.8
-6 -1 0 226.58 10.5
-6 1 0 239.28 11.8
6 1 0 218.78 8.3
6 -1 0 242.88 11.4
6 -1 0 238.78 9.1
-6 1 0 230.48 11.9
6 -1 0 219.78 11.3
6 1 0 232.38 11
6 1 0 231.68 10.7
-6 -1 0 234.78 11.3
-6 -1 0 217.08 10.7
-7 1 0 120.39 9.5
-7 -1 0 131.39 8.1
7 1 0 119.69 8.7
7 1 0 123.29 6.2
7 -1 0 120.49 8.8
7 -1 0 124.69 6.7
-7 1 0 121.79 8.9
-7 -1 0 114.99 9.1
-8 -1 0 7.4 3.3
8 1 0 11.6 2.8
8 1 0 2.8 4.2
8 -1 0 7.4 2.8
-8 1 0 2.3 4.7
-8 -1 0 4.9 4.6
8 -1 0 -3.5 3.4
-9 -1 0 -5.2 3.4
9 1 0 -0.3 2.5
9 1 0 -3.7 4.1
-9 1 0 1.4 5.1
9 -1 0 -4.6 4.1
9 -1 0 -2.6 2.4
-10 1 0 8.1 6.1
10 -1 0 15 4.3
-10 -1 0 19.6 6.8
10 1 0 9.9 3.8
10 1 0 12.6 4.9
10 -1 0 18.5 6.3
11 -1 0 20.1 7.5
-11 -1 0 4.9 6.4
-11 1 0 9.8 7.2
11 1 0 17.9 4.8
11 -1 0 14.3 4.9
12 -1 0 1.7 6.1
12 -1 0 0.6 4.2
-12 -1 0 9.3 7.2
-12 1 0 9.4 6.9
12 1 0 5 4.1
-13 -1 0 20.8 9.1
-13 1 0 37.8 10.6
13 1 0 50.49 7.6
13 -1 0 37.4 7.6
0 -2 0 4054.39 102.79
0 -2 0 3951.1 102.59
0 2 0 3809.42 102.49
0 2 0 3954.9 102.69
1 2 0 10.2 1.4
-1 -2 0 10.2 1.5
-1 2 0 12.5 2.1
-1 2 0 13.5 2.1
-1 -2 0 12.7 1.7
1 2 0 9.7 1.5
1 -2 0 15.8 2.2
1 -2 0 14.9 2.2
-2 -2 0 596.34 17.6
2 -2 0 620.14 19.5
2 2 0 589.94 17.4
-2 -2 0 597.74 17.3
-2 2 0 617.04 19.4
-2 2 0 603.24 19.2
2 -2 0 602.44 19.1
-3 -2 0 610.34 18.7
3 2 0 613.94 18.5
3 -2 0 661.03 20.8
3 2 0 634.74 18.6
-3 2 0 636.04 20.8
-3 2 0 620.04 20.6
-4 2 0 663.63 22.4
-4 -2 0 654.03 20
-4 2 0 652.93 22.1
4 -2 0 636.54 20.5
4 -2 0 686.93 21
4 2 0 623.64 17.7
4 2 0 664.13 19.8
-5 2 0 775.32 25.6
-5 2 0 807.42 27.3
5 -2 0 777.32 25.4
5 -2 0 790.62 27.1
-5 2 0 794.22 26.9
-5 -2 0 839.22 25.7
5 -2 0 828.72 23.8
5 -2 0 778.52 25.3
5 2 0 802.22 22.1
-5 -2 0 817.92 24.5
5 2 0 798.62 25.4
5 2 0 816.92 24.4
6 2 0 1980.1 56.49
-6 2 0 2022.6 57.09
6 -2 0 1932.91 56.39
-6 2 0 1915.41 57.69
-6 2 0 2063.39 62.39
-6 -2 0 1925.71 54.79
6 -2 0 1914.01 56.59
6 2 0 1982.7 54.99
6 -2 0 2038.8 54.19
-6 -2 0 1964.2 56.49
6 2 0 1963 52.49
-7 -2 0 613.54 20.7
-7 -2 0 617.64 22.8
7 -2 0 610.54 20
7 2 0 620.14 22.6
7 -2 0 594.64 22.7
-7 2 0 599.84 23
7 -2 0 617.04 22.7
-7 2 0 591.34 23.4
7 2 0 629.14 18.7
-8 -2 0 7.4 5.1
-8 2 0 0 4.5
8 -2 0 -2.7 3.8
8 -2 0 4.5 4.5
8 -2 0 2 2.8
-8 -2 0 2.4 3.1
8 2 0 2.6 4.5
8 2 0 1.3 2.2
9 -2 0 73.59 6.9
-9 2 0 60.69 8.5
-9 -2 0 57.49 8.7
9 -2 0 70.29 8.7
9 2 0 81.49 9.6
9 2 0 74.89 5.9
10 -2 0 -0.9 5.1
10 2 0 8 3.5
-10 -2 0 1.3 6
-10 2 0 11.7 6.8
10 -2 0 1.5 3.7
11 -2 0 136.99 10.5
11 2 0 109.19 8.9
11 -2 0 136.09 14
-11 2 0 117.99 13.2
-11 -2 0 116.49 13
12 -2 0 -1.5 6.2
12 -2 0 3.6 4.6
-12 -2 0 3.5 7.1
-12 2 0 -0.5 6.7
12 2 0 5.9 4.3
-13 -2 0 9.8 8.5
-13 2 0 9 8.2
13 2 0 4.3 4.4
13 -2 0 -2.8 4.4
0 3 0 0 1.6
0 3 0 1.7 1.7
0 -3 0 -0.1 1.4
0 -3 0 0.3 1.8
1 3 0 3096.09 83.49
1 -3 0 3246.98 84.59
-1 -3 0 3088.89 83.59
-1 3 0 3222.38 84.89
-1 3 0 3262.97 84.79
1 -3 0 3182.28 84.79
-1 -3 0 3156.58 83.39
1 3 0 3014 83.19
-2 -3 0 534.25 16.6
2 3 0 519.55 16.2
-2 3 0 533.55 18.2
-2 -3 0 490.35 15.9
-2 3 0 528.65 18.2
2 -3 0 535.75 18.1
2 -3 0 516.55 18.2
3 -3 0 299.37 13
-3 -3 0 292.27 10.8
3 -3 0 293.47 12.5
-3 3 0 305.77 12.9
-3 3 0 298.87 12.9
3 3 0 285.97 10.3
-3 -3 0 284.57 10.2
4 -3 0 7.2 2.5
4 -3 0 5.4 3
-4 3 0 5.6 3
-4 3 0 3.5 2.9
4 3 0 6.1 1.1
4 -3 0 2.5 2.2
5 -3 0 2428.06 67.79
-5 3 0 2466.75 70.69
-5 -3 0 2504.85 67.59
5 3 0 2464.85 66.19
5 3 0 2494.65 67.59
5 -3 0 2424.96 67.59
5 3 0 2395.16 63.99
-5 -3 0 2500.25 66.69
5 -3 0 2425.66 66.09
-5 3 0 2402.06 70.09
6 3 0 1728.53 46
-6 -3 0 1731.43 48.3
-6 3 0 1696.13 52.29
6 -3 0 1680.93 48
-6 -3 0 1754.02 49.99
6 -3 0 1690.03 50.19
-6 3 0 1765.12 50.69
6 -3 0 1688.63 49.99
6 3 0 1719.53 49.9
7 -3 0 353.56 15.7
7 3 0 330.17 15.1
-7 3 0 328.67 16.8
7 -3 0 329.97 13.3
-7 -3 0 341.67 13.2
-7 -3 0 336.77 15.4
7 -3 0 358.86 15.6
7 3 0 334.07 11.5
-7 3 0 336.27 16
8 -3 0 257.47 11.8
8 -3 0 249.08 13.8
-8 3 0 268.77 14.7
8 -3 0 250.67 14
-8 -3 0 236.38 13.7
8 3 0 252.77 9.9
8 3 0 211.98 13.1
-9 -3 0 100.19 10.7
9 -3 0 93.99 7.8
-9 3 0 83.79 9.9
9 -3 0 95.69 10.1
9 -3 0 81.59 9.8
9 3 0 91.29 6.3
10 3 0 449.66 16.7
10 -3 0 436.06 21.5
-10 -3 0 485.95 22.2
10 -3 0 451.95 18.8
-10 3 0 416.56 21.7
11 -3 0 -2 5.9
-11 -3 0 -7.6 5.9
11 3 0 0.7 3.4
-11 3 0 11.4 7.5
11 -3 0 2.2 4.3
12 -3 0 207.08 15.6
12 -3 0 233.38 14.2
12 3 0 217.78 12.4
-12 -3 0 206.88 17
-12 3 0 204.28 17.1
-13 -3 0 3.3 8.2
13 3 0 33.3 6.6
-13 3 0 14.8 8.9
13 -3 0 38.8 8
0 -4 0 886.11 27.7
0 4 0 911.51 27.7
0 4 0 896.31 27.5
0 -4 0 890.91 27.4
1 4 0 448.46 15.6
-1 4 0 453.95 16.7
1 -4 0 456.25 16.9
-1 -4 0 442.86 15.7
-1 -4 0 440.76 15.3
-1 4 0 450.65 16.5
1 -4 0 457.65 16.5
2 4 0 1520.45 41.1
-2 4 0 1404.76 43.1
2 -4 0 1442.76 43
2 4 0 1544.45 41.3
-2 4 0 1407.76 43.2
-2 -4 0 1468.35 41.4
-2 -4 0 1456.25 40.9
2 -4 0 1386.96 43.1
-3 -4 0 195.48 8.3
3 -4 0 201.68 8.4
3 -4 0 211.18 10.8
-3 4 0 191.98 10.5
-3 -4 0 189.08 8.8
-3 4 0 192.88 10.7
3 4 0 194.38 6.8
3 -4 0 197.38 10.9
4 4 0 1588.24 43.7
4 -4 0 1672.33 50.29
4 4 0 1641.14 46
-4 -4 0 1615.04 46.4
4 -4 0 1591.04 46.5
-4 4 0 1637.34 49.8
-4 4 0 1671.23 50.09
-4 -4 0 1695.83 47.7
4 -4 0 1652.33 46.2
-4 -4 0 1720.83 45.9
-5 4 0 877.81 30.3
5 -4 0 826.82 27.1
5 -4 0 852.01 26
-5 -4 0 855.41 25.8
5 4 0 821.02 23.7
5 -4 0 821.42 26.8
5 4 0 883.61 26
-5 -4 0 872.31 26.8
-5 -4 0 861.81 26.4
-5 4 0 867.71 30.6
-6 4 0 937.51 33.6
-6 4 0 949.51 31.1
6 4 0 944.41 26.8
-6 -4 0 986.3 29.2
6 -4 0 930.21 30.5
-6 -4 0 956.1 28.7
6 -4 0 909.81 29
6 -4 0 1001.5 31.4
-6 -4 0 973.5 30.6
7 -4 0 341.27 15.6
-7 4 0 344.57 16.1
7 -4 0 346.87 15.5
7 4 0 326.77 11.5
-7 -4 0 326.97 15.2
-7 4 0 310.57 17
-7 -4 0 353.36 13.2
7 -4 0 339.87 13.7
-8 4 0 0.2 4.9
8 -4 0 -0.2 3.4
8 -4 0 1.3 4.2
8 -4 0 6.3 4.5
-8 -4 0 -4.2 4.3
8 4 0 4.4 2.4
-9 4 0 25.4 7.1
9 -4 0 33.2 5.6
9 -4 0 24.7 6.4
9 -4 0 34.5 7.3
-9 -4 0 33.7 7.3
9 4 0 44.1 4.8
10 -4 0 0.3 3.7
10 -4 0 2 4.1
-10 -4 0 -7.3 4.7
10 4 0 1.8 2.7
10 -4 0 2.3 5.2
-10 4 0 1.2 4.5
-11 -4 0 393.16 21.2
-11 4 0 394.36 21.8
11 -4 0 379.76 21.1
11 4 0 400.96 16.2
11 -4 0 394.36 18.5
12 4 0 12.9 4.7
-12 4 0 12.4 8.2
12 -4 0 25.4 8.4
12 -4 0 14.6 5.7
-12 -4 0 9 7.9
-13 -4 0 200.68 17.6
13 4 0 203.08 12.5
13 -4 0 196.08 14.7
-13 4 0 198.28 17.8
0 5 0 4 3.2
0 5 0 1.5 2.6
0 -5 0 2.5 3
0 -5 0 2.3 2.5
1 -5 0 2547.05 73.29
-1 -5 0 2600.84 72.79
1 -5 0 2757.02 74.39
-1 5 0 2574.14 73.69
1 5 0 2592.34 69.79
-1 5 0 2709.03 73.99
1 5 0 2612.24 72.59
-1 -5 0 2666.63 72.49
-2 -5 0 398.96 14.5
-2 5 0 363.66 16
2 5 0 385.26 12.2
-2 5 0 343.87 15.6
2 -5 0 377.06 13
2 5 0 370.36 14
-2 -5 0 383.76 14.1
2 -5 0 356.96 15.5
-2 -5 0 364.26 14.5
2 -5 0 353.26 16
3 -5 0 1401.96 42.9
-3 5 0 1341.37 43
3 -5 0 1373.06 39.1
3 -5 0 1369.86 43.2
-3 -5 0 1386.86 40.3
-3 5 0 1368.06 42.9
3 5 0 1323.57 37.2
-3 -5 0 1378.86 39.5
4 5 0 658.83 19.3
4 -5 0 645.44 21
-4 -5 0 671.53 22.1
4 -5 0 651.43 21.1
4 -5 0 668.13 25.5
4 -5 0 642.14 21.6
-4 5 0 638.04 25
-4 5 0 655.13 25.3
-4 -5 0 677.53 22.2
-4 -5 0 695.63 21.5
5 -5 0 275.27 11.7
-5 -5 0 263.27 11.4
5 -5 0 250.07 11.8
5 5 0 253.47 9.2
-5 -5 0 263.37 11.6
-5 5 0 262.77 15
-5 -5 0 262.57 10.9
5 -5 0 265.37 11.3
5 5 0 265.17 11.3
-6 5 0 864.71 33
6 -5 0 897.61 29.4
6 5 0 914.21 25.9
-6 -5 0 907.91 28.3
-6 5 0 889.11 29.8
-6 -5 0 900.51 27.5
-6 -5 0 900.41 29.1
6 -5 0 937.61 30.1
6 -5 0 909.41 28.4
7 -5 0 215.78 10.9
-7 5 0 207.38 12.7
7 -5 0 215.38 12
7 -5 0 212.18 12.3
7 5 0 239.68 9.1
-7 5 0 235.28 15.5
-7 -5 0 232.68 10.4
-7 -5 0 213.88 12.1
-8 5 0 55.49 8.4
8 -5 0 65.29 8.7
8 -5 0 56.49 6.9
8 -5 0 61.99 7.9
-8 -5 0 61.79 8.4
8 5 0 71.09 5.3
-9 -5 0 14.7 5.8
-9 5 0 -2.1 5.2
9 -5 0 4.3 3.8
9 -5 0 5.1 4.7
9 -5 0 8.3 5.5
9 5 0 3.2 2.7
-10 5 0 86.99 11
-10 -5 0 99.69 11.7
10 -5 0 96.09 11.2
10 -5 0 83.49 9
10 5 0 97.09 7.2
10 -5 0 84.79 11.1
11 -5 0 8.5 4.9
-11 -5 0 14.4 7.3
11 5 0 17.5 4.3
11 -5 0 12.4 7
-11 5 0 11 7.5
-12 5 0 260.97 19.1
12 -5 0 269.67 18.7
12 5 0 266.47 13.5
-12 -5 0 267.47 18.7
12 -5 0 269.97 16.2
0 -6 0 423.36 17.1
0 -6 0 421.96 17.8
0 6 0 425.56 17.3
0 -6 0 434.06 15.3
0 6 0 435.76 14.8
-1 6 0 22 4.9
1 6 0 17.3 3.2
-1 -6 0 17.9 4.5
1 -6 0 21 3.7
-1 -6 0 12.9 3.8
1 -6 0 22.8 4.6
-1 6 0 18.6 4.6
-1 -6 0 15.2 3.7
1 -6 0 18.7 4.8
2 -6 0 520.75 21.3
-2 6 0 553.64 21.6
2 6 0 491.45 18.5
2 -6 0 512.75 17.2
-2 -6 0 507.05 18.7
-2 -6 0 502.15 18.5
-2 6 0 524.35 20.9
2 6 0 479.75 16.2
2 -6 0 526.45 20.7
-2 -6 0 501.85 19.3
-3 6 0 979 34.2
3 6 0 947.81 28.2
-3 -6 0 1000.7 31.4
3 6 0 975.8 30.9
3 -6 0 953.9 29.7
3 -6 0 997.4 37.3
3 -6 0 987.5 34.4
-3 -6 0 979.7 31.5
3 -6 0 974.6 29.5
-3 -6 0 1024.6 30.8
-3 6 0 994.1 34.2
4 -6 0 0 2.3
-4 6 0 5.2 4.2
-4 -6 0 4 3.3
4 -6 0 4.2 2.7
4 -6 0 4.1 2.9
-4 -6 0 6 3
4 -6 0 -2.5 3.9
-4 6 0 17 5.3
4 6 0 5.7 2.4
-4 -6 0 6.5 2.9
-5 -6 0 649.04 21.4
5 -6 0 620.24 22.1
5 6 0 625.84 19.3
-5 -6 0 598.84 22.1
-5 6 0 648.74 26.4
5 -6 0 647.04 21.5
5 -6 0 623.04 21.4
-5 -6 0 642.14 21.1
6 -6 0 172.48 10.2
-6 -6 0 149.69 9
-6 -6 0 158.08 9.9
-6 6 0 140.29 9.9
6 6 0 162.68 7.4
6 -6 0 156.78 9
-6 6 0 156.28 12.7
6 -6 0 145.59 9.2
7 -6 0 752.62 26.8
-7 6 0 692.23 30
-7 -6 0 707.53 25.4
7 6 0 689.53 21.7
7 -6 0 706.83 25.5
-7 6 0 706.43 26.1
7 -6 0 712.33 24.7
8 -6 0 46.5 7.1
8 6 0 32 4.2
8 -6 0 45.3 7.5
-8 -6 0 33.5 6.5
8 -6 0 33.5 6
-8 6 0 40.6 7.3
9 -6 0 331.97 15.8
-9 -6 0 302.27 16.7
9 -6 0 299.47 16.6
9 6 0 319.17 12.7
-9 6 0 305.87 17.3
9 -6 0 319.87 17.4
10 -6 0 36.8 8.1
-10 6 0 43.3 8.7
-10 -6 0 32.9 7.9
10 -6 0 42.7 6.9
10 -6 0 38.2 8.1
10 6 0 29.7 4.8
11 -6 0 142.59 15.1
11 6 0 101.79 8.5
11 -6 0 129.59 13.9
-11 6 0 133.89 14.3
-11 -6 0 144.39 14.3
11 -6 0 117.19 11.7
12 -6 0 1.5 5.5
-12 -6 0 -3.3 6.7
12 -6 0 1.3 7.1
-12 6 0 3.7 7.2
12 6 0 1.4 4
0 7 0 2.5 3.4
0 -7 0 4.1 3.5
0 -7 0 3.8 3.8
0 7 0 5 3.1
0 -7 0 -1.4 2.6
-1 -7 0 116.59 8.4
-1 -7 0 121.99 8.5
1 -7 0 121.69 7.4
-1 7 0 107.19 9.3
1 -7 0 118.19 10
1 -7 0 126.39 9.4
1 7 0 124.89 7
-1 -7 0 126.99 9.7
-1 7 0 123.79 7.5
2 7 0 252.07 12.6
-2 -7 0 241.28 12.1
2 -7 0 235.38 13.6
-2 -7 0 244.28 13.1
2 -7 0 246.68 14.6
2 7 0 233.08 10.1
-2 7 0 228.18 14.2
2 -7 0 244.88 10.8
-2 7 0 248.18 14.2
-2 -7 0 265.27 12.8
-3 7 0 23.7 6.3
3 -7 0 25.5 4.2
3 -7 0 19.7 6.3
3 7 0 21.1 3.7
-3 -7 0 28.6 6.5
-3 7 0 33.1 6.8
-3 -7 0 22.4 4.6
3 -7 0 18.3 4
-3 -7 0 27.6 5.6
4 -7 0 250.77 11.8
-4 -7 0 251.37 10.9
4 -7 0 279.17 11.9
-4 -7 0 265.87 13.3
4 7 0 256.07 10.6
4 -7 0 255.17 10.8
-4 7 0 279.07 16.3
5 -7 0 8.1 3.3
-5 7 0 24 6.7
5 7 0 15.9 3.4
-5 -7 0 14.2 4.2
5 -7 0 10.5 3.5
5 -7 0 15.9 4.4
-5 -7 0 19.3 4.4
6 -7 0 1038.1 32.6
6 -7 0 1034.8 33.7
-6 7 0 1018.5 33.2
6 7 0 993.2 29.9
-6 -7 0 1013.5 32.1
6 -7 0 1006.6 32.5
-6 7 0 994.7 38.6
-6 -7 0 1033.2 33.1
-7 -7 0 303.97 14.7
-7 7 0 260.07 21
7 -7 0 290.87 15
7 7 0 293.67 11.7
7 -7 0 300.17 14.5
7 -7 0 265.17 13.8
-7 7 0 314.87 15.5
-8 7 0 901.21 32.9
8 -7 0 911.61 33.2
8 7 0 926.51 28.3
-8 -7 0 898.41 32
8 -7 0 973.5 31.9
8 -7 0 922.21 32.5
9 -7 0 52.19 8.2
-9 -7 0 52.79 8.5
9 -7 0 46.4 7
9 -7 0 71.59 9.9
-9 7 0 61.29 9.2
9 7 0 57.49 5.8
10 7 0 197.18 10.5
10 -7 0 192.18 14.7
10 -7 0 209.58 14.6
-10 -7 0 163.28 13.7
-10 7 0 199.48 15
10 -7 0 198.48 13.3
11 7 0 14.7 4.7
-11 7 0 16.7 8.1
11 -7 0 19.5 7.7
11 -7 0 14.4 6.3
11 -7 0 27 8.6
12 7 0 271.47 13.8
12 -7 0 268.57 19.3
12 -7 0 286.07 19.1
12 -7 0 269.97 16.8
-12 7 0 272.77 19.5
0 8 0 505.15 18
0 -8 0 489.45 21.7
0 -8 0 494.15 18.4
-1 -8 0 191.78 11.2
1 8 0 189.58 9.8
-1 8 0 198.28 10
1 -8 0 207.98 13.6
-1 8 0 187.98 12.8
1 -8 0 194.58 10.1
1 -8 0 184.98 12.5
-1 -8 0 189.88 12.8
2 -8 0 68.29 8.8
2 -8 0 64.69 6.5
2 8 0 78.69 6.7
-2 -8 0 62.79 8.1
2 -8 0 75.29 9.8
-2 8 0 71.49 9.3
-2 8 0 64.19 6.5
-2 -8 0 76.19 8.6
3 8 0 61.19 5.8
-3 -8 0 27.8 7.2
-3 8 0 35.6 7.5
3 -8 0 46.8 6.2
3 -8 0 40.1 8
-3 -8 0 52.09 7.1
3 -8 0 41 5.6
4 8 0 75.09 6.4
-4 -8 0 65.09 7.9
4 -8 0 68.99 6.7
-4 -8 0 78.09 9.6
4 -8 0 63.19 7
4 -8 0 73.59 5.8
-4 8 0 77.99 10.5
-5 -8 0 82.59 8.6
5 -8 0 95.79 7.9
5 -8 0 78.49 6.9
-5 -8 0 86.89 10.7
5 8 0 84.89 6.7
5 -8 0 88.49 7.9
-5 8 0 84.39 11.3
6 -8 0 131.59 9.9
-6 8 0 126.49 9.6
6 8 0 124.29 7.9
-6 8 0 134.39 13.7
6 -8 0 131.39 9.2
6 -8 0 124.89 8.7
-7 8 0 1477.25 46.1
7 -8 0 1410.26 45.2
7 -8 0 1438.16 46.5
7 8 0 1452.05 42.3
7 -8 0 1540.05 45.9
8 -8 0 6.2 4.5
-8 8 0 12.5 6.1
8 -8 0 4.8 4.9
8 -8 0 16.7 5.3
8 8 0 12.3 3.8
9 -8 0 578.74 24.4
9 -8 0 572.44 23.7
9 -8 0 563.84 25
-9 8 0 546.55 24.5
9 8 0 561.14 20.1
10 -8 0 29.1 8.2
10 8 0 40.5 5.7
10 -8 0 38.2 8.6
10 -8 0 28.3 7.2
-10 8 0 16.6 8.3
11 -8 0 226.08 15.6
11 -8 0 252.37 18.5
11 -8 0 217.48 16.3
-11 8 0 213.18 16.9
11 8 0 212.68 12
12 -8 0 23.6 8.7
0 -9 0 3.8 4.9
0 9 0 0.5 3.9
0 -9 0 -3.5 4
-1 9 0 222.98 11.4
-1 -9 0 231.08 12.7
-1 -9 0 217.78 14.2
1 -9 0 208.28 11.3
1 9 0 243.08 11.6
1 -9 0 226.08 15.3
-2 9 0 259.07 12.5
2 9 0 249.48 11.9
2 -9 0 247.08 12.2
-2 -9 0 242.18 14.1
2 -9 0 235.48 16.3
-2 -9 0 259.57 15.4
-3 -9 0 65.99 8.6
3 -9 0 82.69 7.9
-3 -9 0 97.59 10.6
3 9 0 78.29 7
-4 -9 0 12.1 7.7
-4 -9 0 7 5
4 -9 0 7.5 4.3
4 9 0 1.2 3.7
5 -9 0 55.69 7.4
-5 -9 0 68.39 10.2
5 9 0 68.69 6.6
6 9 0 528.75 18.9
-6 -9 0 512.65 24.3
6 -9 0 534.75 21.7
7 -9 0 210.08 12.2
7 -9 0 206.28 13.2
7 9 0 219.78 11
7 -9 0 224.98 13.2
8 9 0 472.95 17.8
8 -9 0 454.15 21.6
8 -9 0 469.75 20.8
8 -9 0 484.15 20.8
9 -9 0 68.99 9.9
-9 9 0 69.79 12.6
9 -9 0 64.99 9.2
9 -9 0 94.29 11.5
9 9 0 79.29 7.4
10 -9 0 186.98 14.2
10 -9 0 181.98 13.6
-10 9 0 186.88 15.1
10 -9 0 193.18 15.1
10 9 0 180.28 11
11 -9 0 13.2 7.8
-11 9 0 11.1 7.6
11 -9 0 -3.7 5
11 -9 0 0.9 6
11 9 0 5.2 4.6
0 10 0 913.31 30.8
0 -10 0 955.3 36.3
0 -10 0 957.6 31.4
1 -10 0 635.44 23.8
-1 -10 0 676.13 25
-1 -10 0 679.43 28.5
1 10 0 665.43 23.8
-1 10 0 678.13 24.2
1 -10 0 686.23 29.7
-2 -10 0 419.76 19.4
2 -10 0 448.36 23.5
2 -10 0 419.46 17.6
-2 -10 0 443.66 21.7
2 10 0 409.46 17.2
-2 10 0 431.96 18.2
-3 -10 0 46.5 8.8
3 10 0 44.3 6.2
3 -10 0 39.3 6.6
4 -10 0 11.2 4.8
-4 -10 0 5.7 7.1
4 10 0 11.5 4.6
5 -10 0 95.39 9.6
-5 -10 0 67.09 11
5 10 0 81.39 7.6
-6 -10 0 132.59 14.5
6 10 0 172.98 10.2
6 -10 0 158.18 11.4
7 -10 0 343.77 17.8
7 10 0 352.66 15.1
-7 -10 0 347.37 21
-8 -10 0 4.1 8.4
8 10 0 13.3 4.5
8 -10 0 2 5.3
9 10 0 10.3 4.5
9 -10 0 9.2 6
10 10 0 -1 4
10 -10 0 4.9 6.3
11 10 0 78.89 8.4
11 -10 0 80.79 12.4
0 11 0 -1.5 4.5
0 -11 0 -3.3 5.2
0 -11 0 -0.6 4.9
1 11 0 1234.88 38.9
-1 -11 0 1242.28 40.1
1 -11 0 1209.58 45.5
-1 -11 0 1248.78 44.8
-1 11 0 1193.48 38.9
1 -11 0 1192.18 38.8
2 -11 0 688.13 25.3
2 11 0 675.23 24.8
-2 -11 0 712.53 27
3 11 0 283.37 14.2
-3 -11 0 289.97 17.6
3 -11 0 271.17 14.2
4 11 0 1.2 4.2
-4 -11 0 16.1 7.8
4 -11 0 11.5 4.9
5 11 0 325.77 15
-5 -11 0 309.77 20.2
5 -11 0 307.27 15.9
-6 -11 0 305.77 20
6 11 0 330.37 15.1
6 -11 0 295.07 16.2
-7 -11 0 130.09 15.3
7 -11 0 133.29 11.6
7 11 0 143.29 10.2
8 11 0 40.7 6.6
-8 -11 0 28.6 11.3
8 -11 0 50.99 9.1
9 11 0 2.8 4.5
-9 -11 0 5.8 10.5
9 -11 0 1.6 6.1
10 11 0 46.2 7
-10 -11 0 49.9 13.7
10 -11 0 54.79 10.5
0 12 0 1143.79 37.8
0 -12 0 1144.89 38
-1 -12 0 350.26 17.2
1 12 0 312.57 15.9
1 -12 0 337.47 16.6
-1 12 0 326.77 16.8
1 -12 0 314.97 20.9
-2 -12 0 238.18 15
2 -12 0 243.38 13.6
2 12 0 235.68 13.7
3 -12 0 36.5 6.6
-3 -12 0 30.4 8.7
3 12 0 34.8 6.7
4 12 0 425.66 18.8
4 -12 0 454.55 20.1
-4 -12 0 429.46 22.3
-5 -12 0 146.69 15.9
5 12 0 152.58 11.3
5 -12 0 140.39 11.2
-6 -12 0 285.97 20
6 -12 0 300.07 16.9
6 12 0 275.57 14.9
7 -12 0 152.18 12.8
7 12 0 167.28 11.9
-7 -12 0 157.28 17.5
8 -12 0 -3.2 5.3
8 12 0 3.3 4.9
-8 -12 0 1.7 10.3
9 -12 0 49.3 9.9
-9 -12 0 39.6 12.3
9 12 0 36 6.9
0 13 0 -8.2 3.9
0 -13 0 4.1 4.6
1 13 0 160.78 12.3
-1 13 0 169.88 14.3
-1 -13 0 158.48 12.9
1 -13 0 151.08 11.4
2 -13 0 102.89 10.4
-2 -13 0 110.39 11.8
2 13 0 102.49 10.3
3 13 0 157.28 11.9
3 -13 0 160.88 12.1
-3 -13 0 148.59 13.5
4 13 0 6.2 5.4
-4 -13 0 15.4 9
4 -13 0 11.2 5.3
-5 -13 0 328.07 21.2
5 13 0 372.76 17.9
5 -13 0 386.26 19.4
6 13 0 51.89 8.1
6 -13 0 46.6 8.6
-6 -13 0 55.69 11.8
7 13 0 2 5.1
7 -13 0 -3.9 6
-7 -13 0 12 10.3
8 13 0 21.9 6.7
-8 -13 0 20.8 12.2
8 -13 0 30.6 8.9
-9 -13 0 10.3 11.9
9 -13 0 3.5 6
9 13 0 1.3 5.5
0 -14 0 250.77 15.4
0 14 0 237.08 15.1
1 14 0 -5.5 4.7
1 -14 0 3.7 5.3
-1 -14 0 15.5 6.3
2 -14 0 58.49 8.6
2 14 0 53.89 8.5
-2 -14 0 53.59 9.7
-3 -14 0 22.6 8.8
3 -14 0 33.9 7.3
3 14 0 13.1 6.6
4 -14 0 275.67 16.1
4 14 0 251.67 15.7
-4 -14 0 261.77 18.4
-5 -14 0 34.4 10.2
5 -14 0 13.6 6.4
5 14 0 22.7 7
6 14 0 100.69 10.9
6 -14 0 82.19 11.2
-6 -14 0 95.89 15.5
-7 -14 0 -4.3 10.4
7 -14 0 10.3 6.6
7 14 0 6.2 6
-8 -14 0 -11.7 8.8
8 14 0 17.6 6.8
8 -14 0 10.3 6.4
0 15 0 -0.5 6.7
0 -15 0 4.4 6.3
1 -15 0 429.36 21.2
-1 -15 0 473.65 22.3
1 15 0 438.96 21.9
-2 -15 0 100.19 12.3
2 15 0 91.59 11.1
2 -15 0 84.69 10.6
-3 -15 0 455.95 24
3 -15 0 453.25 21.8
3 15 0 449.76 21.7
4 -15 0 3.3 5.7
-4 -15 0 -9.4 7.1
4 15 0 -5.9 5.8
5 15 0 268.57 16.9
-5 -15 0 288.17 21.5
5 -15 0 277.47 17.2
6 -15 0 22.8 7.4
-6 -15 0 16 9.8
6 15 0 19.9 7.2
7 -15 0 29.3 8.2
7 15 0 16.1 7
-7 -15 0 12.3 11.5
0 -16 0 305.37 18
1 16 0 22 8.2
-1 -16 0 32.9 8.6
1 -16 0 21.6 7.4
2 16 0 313.07 19.9
2 -16 0 381.16 20
-2 -16 0 377.26 20.9
3 16 0 2 6.2
3 -16 0 9.1 6.4
-3 -16 0 8.7 7.7
-4 -16 0 177.48 17.7
4 16 0 145.29 14.1
4 -16 0 206.48 15.5
5 -16 0 3.8 6.4
-5 -16 0 5.3 8.1
5 16 0 -2.8 6.2
0 -17 0 4.1 5.6
-1 -17 0 152.28 13.6
1 -17 0 126.39 13.7
2 -17 0 40.2 9.1
2 17 0 14.3 8
-2 -17 0 32.6 9.3
-3 -17 0 111.39 14.3
3 -17 0 120.79 13.7
3 17 0 83.29 11.9
0 0 -1 2.4 0.4
0 0 1 1.7 0.4
1 0 -1 470.45 12.8
1 0 -1 485.75 12.9
-1 0 1 470.45 12.8
-1 0 -1 480.35 13.9
-1 0 1 470.35 12.9
-2 0 1 689.33 19.1
-2 0 -1 667.53 20.2
-2 0 -1 660.53 20.3
2 0 1 691.73 20.4
2 0 -1 733.83 19.2
2 0 -1 681.53 19.1
-2 0 1 693.73 19.2
3 0 1 100.99 5.7
-3 0 1 101.19 4.8
3 0 -1 104.69 5
-3 0 -1 102.29 5.9
3 0 -1 108.59 5
-3 0 -1 110.09 5.9
-3 0 1 101.89 5
3 0 1 104.19 5.8
-4 0 1 885.31 26.4
4 0 -1 910.61 27.1
-4 0 -1 848.62 27.4
-4 0 -1 958.7 27.8
-4 0 1 906.51 26.2
-4 0 -1 887.81 26.9
4 0 1 932.81 27.7
4 0 1 876.41 24.8
4 0 -1 916.31 26.4
4 0 1 858.11 26.7
4 0 -1 877.01 26.6
4 0 -1 890.21 24.1
-5 0 1 1167.38 33.8
5 0 1 1170.58 35
-5 0 1 1165.08 33.6
5 0 -1 1167.18 33.7
-5 0 1 1141.59 34.4
5 0 -1 1132.99 31
-5 0 -1 1141.29 34.4
5 0 1 1090.69 31.7
-5 0 -1 1163.78 35.1
-5 0 -1 1181.88 35
5 0 -1 1082.79 33.9
5 0 1 1119.69 34.1
6 0 1 1306.57 40.3
-6 0 1 1292.97 40.5
6 0 -1 1310.77 40.2
-6 0 1 1329.87 39.3
-6 0 -1 1331.67 40.5
6 0 -1 1395.96 39.8
-6 0 -1 1344.87 41.3
-6 0 -1 1396.16 41.1
6 0 1 1324.37 37.5
-6 0 1 1382.36 40.1
-7 0 -1 9.6 4.4
7 0 1 7.4 2.5
7 0 1 7.7 3.9
-7 0 1 7.4 4.6
7 0 -1 7.8 2.2
-7 0 1 6.1 3.1
7 0 -1 6.4 3.8
-7 0 -1 3.8 3.2
8 0 -1 21.6 3.3
-8 0 1 15.1 4
8 0 1 15.8 5.1
8 0 -1 16.3 5.1
-8 0 1 17.5 5.8
-8 0 -1 14.4 5.5
-8 0 -1 17.9 5.4
8 0 1 20.5 3.7
9 0 1 61.19 8.1
9 0 1 53.09 5.8
9 0 -1 59.99 5.6
-9 0 1 67.69 8.7
9 0 -1 57.89 7.8
-9 0 -1 53.29 8.5
-10 0 -1 209.78 15
-10 0 1 208.08 15
10 0 1 223.18 14.2
10 0 -1 248.28 15.3
10 0 -1 222.88 11.1
10 0 1 219.48 11.5
11 0 -1 621.14 22.5
11 0 -1 629.04 27.7
-11 0 -1 591.54 27.3
-11 0 1 599.04 27.5
11 0 1 630.24 23.2
12 0 -1 50.89 10.2
12 0 1 43.6 7.1
-12 0 -1 59.69 11.1
-12 0 1 47 10.1
12 0 -1 42.3 6.7
-13 0 -1 19.9 9.2
-13 0 1 11.7 9
13 0 1 35.1 7.2
13 0 -1 40.6 7.1
0 -1 -1 610.54 17.2
0 1 1 614.04 17.1
0 -1 1 608.34 16.9
-1 -1 -1 780.82 21.6
-1 1 1 768.42 21.6
1 -1 1 795.92 22
1 -1 1 790.42 22.1
-1 1 1 809.82 21.6
-1 1 -1 761.12 21.9
1 -1 -1 785.82 21.5
-1 1 -1 673.43 21.7
1 1 1 767.02 21.5
-2 1 1 238.88 8.6
2 1 -1 231.78 6.8
-2 1 1 219.18 8.3
2 1 -1 236.28 6.9
2 -1 1 250.87 9.3
-2 -1 -1 232.68 8.5
-2 -1 -1 235.08 8.5
2 1 1 235.08 8.4
-2 1 -1 242.18 9.2
-2 -1 1 231.68 6.8
2 1 1 239.78 8.5
-2 1 -1 239.98 9.2
2 -1 -1 256.77 8.7
-2 -1 1 236.38 6.8
3 1 -1 648.04 17.4
-3 1 1 612.84 19.1
-3 1 1 631.94 19
3 -1 1 664.03 20.3
-3 -1 -1 604.34 18.9
-3 -1 -1 653.53 19.3
3 1 -1 629.54 17.3
-3 1 -1 583.34 19.7
3 1 1 597.64 18.8
-3 -1 1 577.84 17.2
3 -1 -1 584.84 18.8
-3 -1 1 596.64 17.2
-3 1 -1 561.84 19.4
3 1 1 607.34 18.9
3 -1 -1 568.34 18.8
4 -1 1 2069.09 56.59
-4 -1 -1 2112.89 56.79
4 1 -1 2121.79 58.29
4 -1 1 2055.09 56.69
-4 -1 -1 2107.89 57.19
-4 1 1 2063.19 56.89
4 -1 1 2059.99 54.99
-4 -1 -1 2101.49 57.19
4 1 -1 2129.99 55.29
4 -1 1 2069.19 58.19
-4 1 1 2057.99 57.19
-4 -1 1 2042.1 55.39
-4 1 -1 2054.09 56.79
-4 -1 1 2050.09 55.19
4 1 1 1969.3 54.29
4 1 1 2008.2 56.59
-4 1 -1 2074.19 58.19
4 1 1 2086.69 56.99
4 -1 -1 2056.99 54.49
4 -1 -1 2104.39 56.89
4 -1 -1 1973.9 56.39
-4 -1 1 2104.29 58.39
4 -1 -1 2071.99 57.19
-4 1 -1 2038.7 57.99
5 1 -1 2665.03 67.99
-5 1 1 2548.15 69.59
5 1 -1 2472.25 69.09
-5 -1 -1 2655.73 69.89
-5 1 1 2657.83 70.19
-5 -1 -1 2562.64 69.49
-5 -1 -1 2620.14 69.99
5 -1 1 2522.45 69.39
5 -1 1 2503.55 69.49
5 -1 1 2628.74 67.39
5 -1 1 2573.14 70.99
-5 1 -1 2456.05 70.79
5 -1 -1 2442.06 69.19
5 -1 -1 2409.86 69.29
-5 1 -1 2484.15 70.59
-5 -1 1 2536.65 67.69
5 1 1 2458.95 69.39
5 -1 -1 2537.15 69.89
5 1 1 2407.86 66.49
-5 1 -1 2494.35 69.49
5 -1 -1 2375.06 66.49
5 1 1 2425.26 69.19
-5 -1 1 2556.14 69.59
-5 -1 1 2556.34 68.09
-6 1 1 1245.98 37.7
-6 1 1 1230.68 37.6
6 -1 1 1212.48 34.7
-6 1 1 1214.48 37.1
6 1 -1 1219.58 33.1
-6 -1 -1 1207.78 37.2
-6 -1 -1 1198.68 37.4
6 1 -1 1269.37 35.6
-6 -1 -1 1208.78 37
6 -1 1 1196.08 37.1
6 1 -1 1207.08 37
-6 -1 1 1223.98 37.4
6 -1 -1 1188.48 37.2
6 1 1 1210.48 34
-6 1 -1 1224.28 38.2
-6 1 -1 1244.18 38.7
6 -1 -1 1200.88 37.1
-6 1 -1 1220.08 37.4
-6 -1 1 1185.28 35.7
6 1 1 1186.48 37.1
-6 -1 1 1235.88 35.3
-7 1 1 343.27 15
-7 1 1 340.97 15.7
-7 -1 -1 337.57 14.7
7 1 -1 336.57 14.7
7 1 -1 338.97 11.3
7 -1 1 363.26 12.9
7 -1 1 341.87 15.2
-7 -1 -1 342.57 15.4
-7 -1 1 323.07 13.1
7 1 1 331.87 15
-7 1 -1 315.07 15.2
7 -1 -1 346.97 15.2
-7 1 -1 322.77 15.5
-7 -1 1 313.17 13.5
7 1 1 316.97 12
7 -1 -1 336.27 12.1
7 -1 -1 335.67 15.1
-7 -1 1 323.67 14.8
-8 -1 -1 24.4 7.3
8 1 -1 27.3 3.5
-8 1 1 24.7 6.3
8 1 -1 25 5.9
8 -1 1 29.6 4.5
8 -1 1 27.3 6.1
-8 -1 -1 18.6 5.9
-8 -1 1 33.6 6.8
8 -1 -1 47.4 4.8
8 1 1 34.5 6.5
8 1 1 33 4.2
-8 -1 1 33.9 4.7
-8 1 -1 37.9 6.9
8 -1 -1 42.5 6.8
-9 -1 -1 97.99 10.1
9 -1 1 98.69 10.4
9 1 -1 96.99 6.4
-9 1 1 94.39 10.6
9 -1 1 87.29 7.3
9 1 -1 103.79 10.6
9 1 1 99.09 7.1
9 -1 -1 94.59 10.4
9 -1 -1 94.49 6.9
-9 1 -1 92.89 10.5
-9 -1 1 89.09 9.7
9 1 1 111.99 9.4
-10 1 1 391.76 20.7
10 -1 1 469.45 17.9
10 -1 1 454.95 21.5
10 1 -1 438.46 21.1
-10 -1 -1 464.65 21.7
10 1 -1 409.56 16
10 1 1 436.56 17
10 -1 -1 436.36 17.1
10 -1 -1 400.56 20.5
-10 1 -1 398.66 20.9
-10 -1 1 403.66 20.8
11 -1 1 364.16 16.7
-11 -1 -1 348.27 20.2
11 -1 1 366.66 20.5
11 1 -1 355.06 15.5
11 1 -1 391.26 20.7
-11 1 1 357.96 20.6
11 1 1 362.46 16.2
-11 -1 1 377.06 20.7
11 -1 -1 386.16 20.8
-11 1 -1 375.56 20.8
11 -1 -1 369.76 16.2
-12 -1 -1 160.48 16
-12 1 1 179.08 15.7
12 1 -1 154.28 10.5
12 -1 1 170.08 11.7
-12 1 -1 146.19 15.6
-12 -1 1 153.58 15.7
12 -1 -1 140.69 15.3
12 -1 -1 147.89 11
12 1 1 151.38 11.1
13 1 -1 21 5.8
13 -1 1 24.5 6.6
-13 -1 -1 20.6 9.3
-13 1 1 20.2 9.2
-13 -1 1 15.8 7.5
-13 1 -1 22.2 9.2
13 1 1 24.6 6.3
13 -1 -1 20 6
0 -2 -1 33.3 2.8
0 2 1 34 2.7
0 -2 -1 37.2 2.7
0 -2 1 30.7 2.4
0 2 -1 29.5 2.4
0 2 1 33.4 2.7
0 -2 1 34.6 2.6
1 2 -1 1537.65 39.4
1 -2 1 1494.65 41.2
-1 -2 -1 1471.45 40.5
1 -2 1 1539.75 41.2
1 2 -1 1500.85 39.4
-1 -2 -1 1452.45 40.2
-1 2 1 1454.25 40.8
-1 2 1 1486.75 41
1 -2 -1 1472.55 40.8
-1 2 -1 1433.26 41
-1 2 -1 1505.75 41.1
1 -2 -1 1455.55 41
-1 -2 1 1494.35 39.5
1 2 1 1457.85 40.4
-1 -2 1 1492.85 39.3
-2 2 1 441.36 15.3
-2 2 1 456.25 15.6
-2 -2 -1 426.76 14.8
2 -2 1 464.85 16
2 -2 1 466.15 16.1
2 2 -1 450.05 13.2
-2 2 -1 473.85 16.1
-2 2 -1 486.95 16
2 -2 -1 461.65 15.6
-2 -2 1 473.75 13.1
-2 -2 1 485.25 13.4
2 -2 -1 508.85 15.7
2 2 1 482.75 14.9
-3 2 1 830.32 26.3
-3 -2 -1 841.52 25.6
3 2 -1 861.31 23.5
3 -2 1 878.61 27.2
3 2 -1 854.91 23.5
-3 2 1 836.92 26.5
3 -2 1 843.52 27.1
3 2 1 873.31 25.5
3 2 1 872.41 25.4
-3 2 -1 885.11 27.3
-3 2 -1 849.12 27
3 -2 -1 888.41 26.6
-3 -2 1 897.11 23.7
4 -2 1 1277.07 33.7
-4 -2 -1 1152.88 33.4
4 -2 1 1119.29 31.7
-4 2 1 1218.68 34.7
4 -2 1 1178.88 33.1
-4 -2 -1 1203.38 33.2
4 2 -1 1187.38 31.2
-4 2 1 1220.88 34.9
-4 -2 1 1118.89 31.1
4 -2 -1 1070.99 32.9
4 2 1 1070.59 30.6
-4 2 -1 1068.79 33
-4 2 -1 1110.09 35.1
4 -2 -1 1105.79 32.8
-4 2 -1 1129.19 35
4 2 1 1078.99 32.8
4 -2 -1 1094.19 31.3
4 2 1 1071.79 32.8
4 -2 -1 1127.09 34.5
5 2 -1 2101.89 55.39
-5 2 1 2150.68 59.09
5 -2 1 2013.1 57.49
5 -2 1 1996.4 55.69
-5 -2 -1 2075.19 57.59
5 -2 1 1949.2 59.49
-5 2 1 2030 59.09
5 -2 1 1990.4 57.49
-5 -2 -1 2000.9 57.49
5 2 -1 2037.9 57.29
5 -2 -1 2129.89 59.19
-5 2 -1 2123.79 60.19
5 2 1 2029.7 57.49
-5 2 -1 2154.18 59.89
-5 -2 1 2105.89 55.39
5 -2 -1 1978.2 57.49
5 -2 -1 2082.89 55.49
-5 -2 1 2100.29 57.59
5 2 1 2085.99 57.39
5 2 1 2005.2 54.59
5 -2 -1 2004.3 57.39
-5 2 -1 2112.29 57.89
6 2 -1 1350.46 40.1
6 -2 1 1307.67 40.4
-6 -2 -1 1339.77 39.8
-6 2 1 1310.17 41.1
6 2 -1 1354.46 35.7
6 -2 1 1344.57 38.1
-6 -2 -1 1313.87 40.2
-6 -2 -1 1360.06 40.2
-6 2 1 1312.87 41.5
6 -2 1 1323.87 40.2
6 2 1 1360.06 36.9
-6 -2 1 1347.07 40.3
6 2 1 1327.77 40.2
-6 2 -1 1310.47 42
-6 -2 1 1326.57 37.5
6 -2 -1 1353.36 40.3
-6 2 -1 1309.07 40.4
6 -2 -1 1345.37 40.5
7 -2 1 716.83 25.6
7 -2 1 746.03 23.3
7 -2 1 749.62 26
-7 -2 -1 717.63 25.6
7 2 -1 723.43 25.4
-7 2 1 712.03 26
-7 2 1 712.23 26
-7 -2 -1 711.83 24.6
7 2 -1 721.13 21
7 -2 -1 713.43 22.6
-7 2 -1 721.13 26.9
7 -2 -1 741.93 25.7
7 2 1 719.23 21.9
-7 -2 1 714.43 22.5
7 2 1 722.93 25.6
-7 2 -1 740.83 26.1
7 -2 -1 714.43 25.7
-7 -2 1 716.93 25.6
8 2 -1 119.79 6.3
8 -2 1 109.69 7.6
-8 -2 -1 124.29 10.3
8 -2 1 123.29 9.9
-8 2 1 126.69 9.7
8 2 -1 117.29 9
8 -2 -1 137.19 10.2
-8 -2 1 126.59 7.2
-8 -2 1 138.19 9.8
-8 2 -1 123.49 10.5
8 2 1 113.19 9.7
8 -2 -1 132.39 7.7
8 2 1 119.09 7
8 -2 -1 134.09 9.5
-9 2 1 404.16 19.7
9 2 -1 435.96 15.3
9 -2 1 445.06 20.4
9 2 -1 459.85 20.4
-9 -2 -1 444.46 20.4
9 -2 1 442.46 17.4
9 -2 -1 420.26 19.5
9 -2 -1 465.75 17
-9 -2 1 453.45 20.5
9 2 1 461.25 16.4
-9 2 -1 406.76 20.1
10 -2 1 496.55 22.5
10 2 -1 456.25 16.7
10 -2 1 460.65 18.7
10 2 -1 435.56 21.4
-10 -2 -1 448.56 21.8
-10 2 1 448.16 21.5
10 2 1 458.25 17.4
10 -2 -1 461.15 21.9
-10 -2 1 465.25 22.1
-10 2 -1 426.66 21.9
10 -2 -1 454.45 18.1
11 -2 1 403.86 17.8
-11 -2 -1 384.46 21.1
11 2 -1 395.06 15.9
11 2 -1 390.76 21
11 -2 1 413.06 21.7
-11 2 1 392.16 21.5
-11 2 -1 391.16 21.4
-11 -2 1 351.06 20.5
11 -2 -1 374.56 17.2
11 -2 -1 389.36 21.2
11 2 1 375.36 16.5
-12 -2 -1 216.08 17.5
12 2 -1 240.38 12.8
12 -2 1 233.68 14.4
-12 2 1 236.88 18.1
12 2 1 265.47 13.9
12 -2 -1 280.07 14.8
-12 2 -1 246.78 18.3
-12 -2 1 245.78 18
12 -2 -1 251.27 17.9
-13 2 1 27.1 9.7
-13 -2 -1 23.8 9.2
13 2 -1 26.6 6
13 -2 1 47.1 8.2
-13 2 -1 19.2 9.5
13 -2 -1 20.4 6.4
13 -2 -1 37.3 10.1
13 2 1 39.6 7
-13 -2 1 18.1 8.9
0 -3 -1 412.46 14
0 3 1 410.56 14.3
0 3 -1 431.66 14.1
0 -3 1 423.16 13.8
0 3 1 411.76 14.1
0 3 -1 383.06 13.6
0 -3 1 426.26 14.1
0 -3 -1 402.76 14.3
-1 -3 -1 2327.37 64.59
-1 3 1 2439.46 65.19
1 -3 1 2507.35 65.29
-1 3 1 2476.55 65.59
1 3 -1 2440.06 63.79
-1 -3 -1 2386.76 64.29
1 -3 1 2338.67 65.19
1 3 -1 2338.07 63.49
-1 3 -1 2280.07 64.89
-1 3 -1 2457.35 65.39
-1 -3 1 2335.67 63.49
1 -3 -1 2469.25 65.59
-1 -3 1 2291.47 63.69
1 -3 -1 2384.16 64.99
1 3 1 2372.66 64.49
2 -3 1 586.34 20.5
-2 3 1 611.44 20.7
-2 3 1 610.94 20.6
2 -3 1 590.04 20.8
-2 -3 -1 603.54 19.7
2 3 -1 602.64 18.2
2 3 -1 598.04 18.1
-2 -3 -1 573.54 19
2 -3 -1 676.23 21.2
-2 3 -1 647.14 21.1
2 -3 -1 660.13 20.7
-2 -3 1 644.84 18.2
2 3 1 652.63 19.6
-2 -3 1 654.53 18.6
-2 3 -1 629.04 20.9
3 -3 1 212.78 11.4
-3 -3 -1 240.78 10.3
-3 3 1 244.98 11.4
3 -3 1 257.47 11.7
-3 -3 -1 227.58 9.7
-3 3 1 229.88 11.1
3 3 -1 242.68 8.5
3 3 1 253.17 10.2
3 -3 -1 266.87 11.7
-3 -3 1 270.57 8.6
-3 -3 1 274.27 9
3 -3 -1 283.57 11.6
-3 3 -1 255.77 11.8
-3 3 -1 272.27 12
3 3 1 252.47 8.4
-4 3 1 438.56 17.6
4 -3 1 457.75 15.8
4 3 -1 465.95 12.2
4 -3 1 475.45 18.7
4 -3 1 447.86 15.6
-4 -3 -1 469.15 16.3
-4 -3 -1 469.65 15.7
4 -3 1 461.35 15
-4 3 1 443.36 17.6
4 3 -1 479.15 14.2
-4 3 -1 464.65 18.4
4 3 1 474.05 15.9
4 -3 -1 447.96 15.5
-4 -3 1 474.95 14
-4 -3 1 460.55 14.3
4 -3 -1 461.45 15.9
-4 3 -1 463.55 16
4 3 1 454.55 13.7
4 -3 -1 445.16 14.7
-4 3 -1 467.25 18.3
5 -3 1 2045.3 56.79
5 -3 1 2003.7 56.89
5 3 -1 2081.19 54.39
5 3 -1 2047.9 56.59
5 3 -1 2037.7 52.39
-5 -3 -1 2051.09 56.79
5 -3 1 2061.09 55.59
-5 3 1 2075.99 59.59
-5 3 1 2102.69 59.29
-5 -3 -1 1990.2 56.79
-5 3 -1 1992.5 56.99
-5 -3 1 2063.49 56.69
5 3 1 2123.69 56.69
5 -3 -1 2033.5 57.09
5 3 1 1980.1 53.79
5 -3 -1 1986.4 56.69
5 -3 -1 1928.31 54.99
-5 -3 1 2045.3 54.39
5 -3 -1 1712.03 58.29
-5 3 -1 2094.39 59.89
-5 3 -1 2050.29 60.19
6 -3 1 162.48 8.2
6 3 -1 176.18 9.7
6 3 -1 177.58 6.1
-6 -3 -1 165.98 10
6 -3 1 155.38 9
-6 -3 -1 167.68 9.3
-6 3 1 169.68 10.9
6 -3 1 167.88 9.7
6 3 1 168.68 7.2
-6 -3 1 182.58 7.4
6 -3 -1 180.08 9.5
-6 3 -1 170.38 11.6
-6 -3 1 180.48 10.1
-6 3 -1 166.78 9.6
6 -3 -1 159.38 9.4
7 -3 1 408.96 17.6
7 -3 1 426.66 15.7
-7 3 1 408.66 18.9
-7 -3 -1 417.06 16.4
7 3 -1 408.56 13
7 3 -1 428.66 17.5
7 -3 1 394.76 17.3
-7 -3 -1 408.06 17.5
-7 3 1 409.56 18.2
7 -3 -1 417.16 15.3
-7 -3 1 412.46 17.4
-7 3 -1 441.16 19.8
-7 3 -1 421.16 18.1
7 3 1 416.06 14.1
-7 -3 1 421.56 14
7 -3 -1 429.96 17.7
7 -3 -1 423.96 17.7
-8 3 1 706.23 27
8 -3 1 728.13 26.8
-8 -3 -1 716.43 26.6
8 3 -1 696.53 21.2
8 3 -1 686.93 26.1
8 -3 1 693.73 24
8 -3 1 722.23 26.9
-8 -3 1 703.13 21.8
-8 3 -1 673.83 26.5
8 -3 -1 727.83 23.7
-8 -3 1 751.52 26.7
8 -3 -1 755.22 26.9
8 3 1 690.83 22.3
8 -3 -1 730.03 27
9 -3 1 198.18 13.4
9 3 -1 205.88 9.2
-9 -3 -1 185.48 13.5
9 -3 1 211.98 11.6
9 3 -1 210.78 13.5
-9 3 1 228.28 13.9
9 3 1 223.28 10.2
9 -3 -1 210.58 13.7
-9 3 -1 234.98 14.6
9 -3 -1 219.78 13.2
-9 -3 1 201.08 13.6
9 -3 -1 223.98 11.4
10 -3 1 353.16 19
10 -3 1 353.66 16.1
-10 -3 -1 340.77 18.8
10 3 -1 349.17 18.5
-10 3 1 337.77 18.4
10 3 -1 333.27 13.5
10 -3 -1 308.07 17.5
-10 -3 1 333.47 18.4
10 3 1 347.87 14.4
-10 3 -1 341.07 19.1
10 -3 -1 392.76 16.3
11 -3 1 262.67 14.4
-11 -3 -1 248.28 17.1
-11 3 1 239.28 17.4
11 3 -1 263.37 12.2
11 -3 1 250.57 17
-11 -3 1 242.48 16.7
11 3 1 256.17 12.9
-11 3 -1 226.28 15.8
11 -3 -1 261.07 17.3
11 -3 -1 262.07 14.1
12 3 -1 95.89 8.6
12 -3 1 93.99 10.4
-12 3 1 81.19 12.4
-12 -3 -1 95.89 13
-12 3 -1 82.99 12.7
-12 -3 1 87.39 12.5
12 -3 -1 77.59 9.3
12 3 1 93.29 9.1
12 -3 -1 100.39 13.2
-13 -3 -1 17.7 9.3
13 -3 1 22.1 7
13 3 -1 26 5.7
-13 3 1 16.9 9
-13 3 -1 23.4 9.6
13 3 1 17.3 5.7
-13 -3 1 12.8 8.7
13 -3 -1 20.7 9.1
13 -3 -1 28 7
0 4 -1 2617.04 71.89
0 4 1 2616.94 72.19
0 -4 1 2613.04 71.79
0 4 -1 2618.64 72.09
0 -4 1 2620.84 72.09
0 4 1 2743.13 72.69
0 -4 -1 2686.43 72.19
0 -4 -1 2622.84 72.59
1 4 -1 632.84 20.8
-1 4 1 611.04 21.9
1 4 -1 668.83 20.8
-1 4 1 648.24 22.3
1 -4 1 587.24 21.9
-1 -4 -1 634.54 21.2
1 -4 1 596.64 21.6
-1 -4 -1 623.74 21.5
-1 -4 1 740.13 21.5
1 4 1 700.73 21.8
1 -4 -1 701.23 22.8
-1 4 -1 672.53 22.2
-1 4 -1 690.53 22.5
-1 -4 1 716.53 21
1 -4 -1 759.32 22.7
-2 -4 -1 769.02 23.4
2 4 -1 719.43 21.6
2 -4 1 727.93 24.6
-2 4 1 729.23 24.5
2 -4 1 753.92 24.4
-2 -4 -1 720.63 22.5
2 4 -1 739.33 21.8
-2 4 1 725.83 24.2
2 -4 -1 716.03 24
2 4 1 711.53 22.6
2 -4 -1 676.93 24.2
-2 4 -1 688.73 24.1
-2 -4 1 716.23 22
2 4 1 714.23 22.8
-2 -4 1 686.73 21.5
-2 4 -1 668.23 24.1
3 4 -1 619.04 17.6
-3 -4 -1 644.24 21.3
-3 4 1 603.04 22.5
3 -4 1 648.34 19.9
-3 4 1 646.74 23
3 -4 1 661.83 23.1
3 -4 1 676.23 23.7
-3 -4 -1 625.64 20.5
3 4 1 623.64 18.5
3 -4 -1 669.63 22.9
-3 4 -1 647.84 23.1
-3 -4 1 631.34 19.3
-3 -4 1 637.84 19.8
3 -4 -1 660.93 19.7
-3 4 -1 657.13 23.3
3 -4 -1 608.74 22.7
3 -4 -1 622.64 20
-4 -4 -1 81.09 5.9
4 -4 1 80.79 5.5
4 -4 1 90.79 8.2
-4 -4 -1 85.69 6.4
-4 4 1 93.89 7.7
4 -4 1 82.09 5.2
-4 4 1 85.29 7.5
4 4 -1 81.49 3.4
4 -4 1 82.69 5.5
-4 -4 -1 91.99 5.8
4 4 -1 81.09 4.8
4 4 1 81.19 4.3
-4 4 -1 92.49 7.8
4 -4 -1 77.89 5.7
-4 -4 1 85.59 4.7
-4 -4 1 83.69 5.1
4 -4 -1 87.29 5.6
4 -4 -1 98.39 5.4
-4 4 -1 92.99 6.1
4 4 1 88.39 5.9
-4 4 -1 81.59 7.6
4 -4 -1 91.19 7.8
-5 -4 -1 143.89 7.9
5 4 -1 146.49 7.8
5 -4 1 143.79 8
5 -4 1 143.59 7.4
5 -4 1 143.39 8.1
-5 4 1 141.09 10.1
-5 -4 -1 138.99 8.1
-5 -4 -1 151.08 8.5
-5 4 1 137.69 10
5 4 -1 148.09 5
5 4 1 136.69 7.8
-5 4 -1 108.39 7.9
-5 4 -1 145.39 10.5
-5 -4 1 130.69 7.8
5 -4 -1 128.99 7.8
-5 4 -1 130.79 10
5 4 1 122.59 5.8
-5 -4 1 130.49 6.1
-5 -4 1 124.29 6.4
5 -4 -1 116.89 7.6
6 -4 1 307.67 13.9
6 -4 1 312.47 14.1
-6 -4 -1 333.87 14.4
6 -4 1 319.27 13.1
-6 4 1 302.97 16.1
6 4 -1 321.97 10.2
6 4 -1 301.17 13.6
-6 -4 -1 311.47 13.7
-6 -4 1 347.67 11.7
6 4 1 355.26 11.6
-6 4 -1 341.57 17
6 -4 -1 333.17 14.3
-6 -4 1 340.77 11.4
-6 4 -1 333.67 14.3
6 -4 -1 339.77 14.6
-6 -4 1 351.66 14.4
-7 -4 -1 190.58 10
7 4 -1 175.58 6.9
7 -4 1 169.08 9.3
7 -4 1 181.48 10.9
-7 -4 -1 165.08 10.7
7 -4 1 163.48 10.4
-7 4 1 174.48 11.5
7 4 -1 198.48 10.9
-7 4 1 174.78 12.7
7 4 1 163.48 7.7
7 -4 -1 155.98 8.9
-7 -4 1 171.48 7.4
-7 4 -1 164.98 11.1
7 -4 -1 174.78 10.8
7 -4 -1 168.88 10.6
-7 -4 1 164.08 10.5
-7 4 -1 169.78 12.9
-7 -4 1 166.38 7.2
-8 -4 -1 62.49 8.2
8 -4 1 60.39 8.3
8 -4 1 62.89 8
8 4 -1 52.59 7.6
8 4 -1 53.89 4.3
8 -4 1 49.99 6.4
-8 4 1 66.89 8.5
8 -4 -1 66.89 8.4
-8 -4 1 69.09 8.5
8 4 1 57.59 5.3
8 -4 -1 60.99 6.3
-8 -4 1 65.49 4.8
8 -4 -1 61.29 7.5
-8 4 -1 51.19 7.5
9 -4 1 273.97 13.8
9 -4 1 287.27 15.9
9 -4 1 256.47 15.5
-9 4 1 256.27 16.1
9 4 -1 278.97 11
9 -4 -1 281.77 15.7
9 4 1 300.77 12.2
-9 4 -1 262.07 15.9
9 -4 -1 277.97 16
-9 -4 1 284.47 15.7
9 -4 -1 295.57 13.7
10 4 -1 89.29 6.5
10 -4 1 68.29 9.7
-10 -4 -1 84.99 10.9
-10 4 1 53.19 9.6
10 -4 1 84.89 8.8
10 -4 -1 84.49 10.9
-10 -4 1 82.19 10.3
-10 4 -1 81.59 10.8
10 -4 -1 83.29 10.6
10 4 1 93.69 7.4
10 -4 -1 77.19 8.3
11 4 -1 25 4.6
11 -4 1 30 8.1
-11 -4 -1 21.5 8.2
11 -4 1 27.1 6.4
-11 4 1 22 8.1
11 4 1 20.1 4.8
-11 4 -1 21 8.1
11 -4 -1 21.2 7.6
11 -4 -1 16.1 5.3
-11 -4 1 20.8 7.6
12 -4 1 35.9 9.2
-12 4 1 31.7 9.6
12 -4 1 37.4 7.6
12 4 -1 29.4 5.4
-12 -4 -1 36.7 9.8
12 -4 -1 19.1 8.1
12 4 1 32.2 6
-12 -4 1 45.9 10.5
-12 4 -1 35.6 9.9
12 -4 -1 24.1 6.7
-13 4 1 25.4 9.4
13 -4 1 19 6.9
13 4 -1 23.4 5.7
-13 -4 -1 17.6 8.9
13 -4 -1 17.8 8.4
13 4 1 35.7 6.6
-13 -4 1 13.4 8.3
13 -4 -1 17.8 6.8
-13 4 -1 33.1 10.1
0 5 -1 3323.17 93.09
0 -5 1 3439.46 93.59
0 -5 -1 3562.14 93.69
0 5 1 3338.87 93.39
0 5 1 3557.94 94.09
0 -5 -1 3412.36 93.99
0 -5 1 3452.15 93.19
0 5 -1 3374.86 93.39
1 -5 1 3630.74 100.89
-1 5 1 3783.62 101.19
1 5 -1 3761.12 96.59
1 5 -1 3278.67 98.59
1 5 -1 3671.73 101.89
1 -5 1 3628.14 100.49
-1 -5 -1 3683.13 99.59
-1 5 1 3695.73 100.89
-1 -5 -1 3660.73 100.19
-1 5 -1 3599.54 100.69
-1 -5 1 3779.12 99.69
1 -5 -1 3758.92 100.69
1 5 1 3867.01 100.29
1 5 1 3780.12 97.09
1 -5 -1 3763.12 101.39
-1 5 -1 3740.43 100.69
-1 -5 1 3688.83 99.09
2 -5 1 2822.92 78.79
2 -5 1 2844.32 78.29
-2 -5 -1 2833.72 76.29
-2 5 1 2795.52 78.49
-2 -5 -1 2773.02 75.79
-2 -5 -1 2816.12 76.89
-2 5 1 2790.62 78.19
2 5 -1 2701.13 72.99
2 5 -1 2761.92 75.39
2 -5 1 2939.91 76.29
2 -5 -1 2787.92 77.99
2 5 1 2636.94 73.49
-2 -5 1 2729.33 75.29
-2 -5 1 2729.33 75.79
2 -5 -1 2797.72 78.59
-2 5 -1 2775.82 78.29
2 -5 -1 2734.73 74.49
-2 5 -1 2751.42 78.39
2 5 1 2779.22 76.29
-3 -5 -1 804.32 26
-3 -5 -1 770.52 25
-3 5 1 794.72 27.9
-3 5 1 828.22 28
3 -5 1 817.62 24.2
3 5 -1 815.12 24.3
3 -5 1 852.01 28.4
3 -5 1 832.92 28.6
3 5 -1 772.62 22.1
3 5 1 738.43 22.7
-3 -5 1 754.52 23.9
3 -5 -1 739.23 24
-3 -5 1 761.92 24.6
3 -5 -1 773.32 27.9
-3 5 -1 732.83 27.5
3 -5 -1 774.42 27.8
3 -5 -1 796.62 23.8
-3 5 -1 758.02 27.6
4 -5 1 1485.65 43.8
4 5 -1 1487.25 40.9
-4 -5 -1 1536.35 44.4
4 -5 1 1586.54 48.8
4 -5 1 1486.45 43.3
-4 5 1 1558.34 48.2
-4 -5 -1 1494.75 45.1
-4 -5 -1 1549.05 43.3
4 -5 1 1521.45 43.3
-4 5 1 1555.04 48.4
4 -5 -1 1568.44 48.4
4 -5 -1 1488.35 43.9
-4 5 -1 1484.35 48.1
-4 -5 1 1558.44 42.9
4 -5 -1 1545.65 43.5
-4 5 -1 1560.34 48.4
4 -5 -1 1537.15 43.3
-4 -5 1 1527.45 43.6
4 5 1 1564.24 42
-5 -5 -1 217.68 11
-5 5 1 219.48 13.6
5 -5 1 207.08 10
-5 -5 -1 237.78 10.8
-5 -5 -1 217.28 10.3
5 -5 1 214.28 10.5
5 -5 1 200.18 9.6
5 5 -1 208.88 7.4
-5 -5 1 197.78 9.6
5 -5 -1 191.48 9.8
5 -5 -1 194.08 10.3
-5 -5 1 203.58 8.6
-5 5 -1 205.08 10.4
-5 -5 1 196.78 9.1
5 5 1 211.18 8.4
-5 5 -1 200.58 13.1
-6 -5 -1 132.19 8.7
-6 5 1 128.09 11.4
-6 -5 -1 116.19 9
6 -5 1 117.59 8.2
6 -5 1 124.79 8.1
6 -5 1 113.29 8.5
6 5 -1 123.79 5.6
6 -5 -1 143.39 8.9
-6 -5 1 131.19 6.8
-6 -5 1 135.09 6.5
-6 -5 1 141.39 8.7
-6 5 -1 135.99 11.9
6 -5 -1 138.09 9
6 -5 -1 138.09 7.9
-6 5 -1 121.59 9.1
6 5 1 136.69 6.7
-7 5 1 286.27 16.6
7 -5 1 285.47 14.2
7 -5 1 261.87 12.5
7 5 -1 273.67 9.8
7 -5 1 254.97 13.3
-7 -5 -1 265.57 13.8
-7 5 1 261.87 14.3
-7 -5 -1 281.87 13
-7 -5 1 294.77 10.3
7 -5 -1 280.57 13.8
7 -5 -1 258.17 13.8
-7 5 -1 278.17 14.3
-7 -5 1 288.87 10.1
7 -5 -1 314.47 13.1
-7 -5 1 277.07 13.6
-7 5 -1 267.17 17
7 5 1 266.17 10.8
8 -5 1 335.27 16.6
-8 5 1 316.97 16.7
8 -5 1 314.77 14.7
8 5 -1 323.37 11.5
8 -5 1 322.67 16
-8 -5 -1 305.37 15.9
8 -5 -1 343.07 14.5
8 5 1 320.27 12.4
8 -5 -1 326.77 16.1
-8 -5 1 308.77 15.6
8 -5 -1 304.07 16.1
-8 5 -1 319.67 16.5
9 -5 1 36.8 7
-9 -5 -1 37.6 7.6
9 -5 1 27.8 5.6
-9 5 1 25.7 7.1
9 5 -1 36.5 4.2
9 -5 1 32.3 7.2
-9 5 -1 13 6.2
9 -5 -1 20.9 5.1
-9 -5 1 29.6 6.9
9 5 1 22.9 4.1
9 -5 -1 28.7 6.8
9 -5 -1 27.1 6.6
-10 -5 -1 72.09 10.1
10 -5 1 58.69 7.7
-10 5 1 65.49 10.2
10 5 -1 63.29 5.9
10 -5 1 55.19 9.4
10 -5 1 54.09 9.4
-10 5 -1 62.19 9.9
10 5 1 67.09 6.6
10 -5 -1 62.89 9.6
-10 -5 1 62.29 9.4
10 -5 -1 72.59 10.2
10 -5 -1 66.19 8
-11 -5 -1 26.8 8.1
11 -5 1 34.7 7
11 5 -1 33.8 5
-11 5 1 30.4 8.6
11 -5 1 36.2 8.4
11 -5 -1 32.7 8.5
-11 -5 1 24.6 7.9
11 -5 -1 14.7 7.1
11 5 1 26.4 5.1
11 -5 -1 19 5.9
-11 5 -1 25.6 7.3
12 -5 1 61.39 11.1
-12 5 1 51.89 11.2
12 -5 1 67.19 9.6
12 5 -1 58.49 6.8
-12 -5 -1 58.99 11.2
12 5 1 39.2 6.3
12 -5 -1 52.49 8.5
-12 5 -1 38.2 9.9
12 -5 -1 40.6 9.8
-12 -5 1 50.09 10.9
0 -6 1 2311.67 61.29
0 6 -1 2196.68 63.89
0 6 1 2156.08 67.69
0 -6 -1 2234.18 61.59
0 -6 1 2265.17 64.59
0 -6 -1 2143.29 63.89
0 6 1 2255.47 60.89
0 -6 1 2268.47 63.89
0 6 1 2258.37 64.39
0 -6 -1 2200.98 64.69
0 6 -1 2292.27 60.69
-1 -6 -1 3073.39 85.99
-1 6 1 2919.41 86.19
-1 6 1 3213.58 87.39
-1 -6 -1 3082.79 85.29
1 -6 1 3115.69 82.39
1 6 -1 3005.7 81.79
-1 -6 -1 3047.6 83.69
1 -6 1 3179.88 86.69
1 -6 1 2944.31 86.39
1 -6 -1 3114.89 86.39
-1 6 -1 3081.19 82.69
1 6 1 3154.48 82.39
-1 6 -1 3106.39 86.79
1 6 1 3076.49 85.49
-1 6 -1 3052.69 86.49
1 -6 -1 3110.79 82.89
1 -6 -1 3007.7 86.79
-1 -6 1 3112.69 84.99
-1 -6 1 3138.69 85.49
-1 -6 1 3125.79 83.29
2 -6 1 2746.23 79.89
-2 -6 -1 2699.13 77.19
-2 6 1 2810.22 79.99
2 -6 1 2763.72 74.99
2 -6 1 2769.92 79.39
2 6 -1 2676.13 76.59
2 6 -1 2651.43 73.89
-2 -6 -1 2674.63 77.99
-2 -6 -1 2718.73 76.69
-2 6 1 2775.92 79.79
-2 -6 1 2829.22 76.39
-2 6 -1 2846.12 79.79
-2 -6 1 2895.21 76.89
2 6 1 2738.23 74.49
2 -6 -1 3016 80.89
-2 -6 1 2843.02 77.49
2 6 1 2736.63 77.49
2 -6 -1 2950.7 79.99
2 -6 -1 2740.33 75.39
-2 6 -1 2848.92 80.09
3 -6 1 2047.4 56.99
-3 -6 -1 2125.39 59.79
-3 6 1 2044.8 61.69
3 6 -1 2050.99 57.79
3 6 -1 2080.69 55.29
-3 6 1 2030.9 61.99
3 -6 1 2095.09 61.89
-3 -6 -1 2134.69 58.89
3 -6 1 2044 62.29
-3 -6 -1 2049.99 58.99
-3 -6 1 2058.99 57.59
3 -6 -1 2054.19 56.69
-3 6 -1 2036.7 61.89
3 -6 -1 2031.4 56.19
-3 -6 1 2028.5 58.29
-3 -6 1 2015.1 58.39
3 -6 -1 2142.99 62.69
3 6 1 1981.6 55.79
-3 6 -1 1995.5 61.79
3 -6 -1 2077.39 57.59
-4 6 1 260.77 15.4
-4 6 1 286.67 15.7
-4 -6 -1 297.17 11.9
4 -6 1 297.17 16.5
-4 -6 -1 301.47 13.1
4 -6 1 286.07 11.4
4 6 -1 287.47 10.3
-4 -6 -1 281.77 13.7
4 -6 1 308.07 12.3
4 -6 1 295.37 12.3
-4 6 -1 305.27 16.3
4 -6 -1 294.67 12.5
-4 6 -1 279.87 15.7
4 6 1 299.97 11.1
4 -6 -1 299.07 16.8
-4 -6 1 294.97 12.8
4 -6 -1 293.87 11.8
-4 -6 1 314.97 12.1
5 -6 1 360.36 15
5 -6 1 383.16 14.5
-5 -6 -1 363.36 14.4
-5 -6 -1 347.37 15.8
-5 6 1 363.06 18.6
5 6 -1 364.66 12.1
5 -6 1 373.16 14.5
-5 6 -1 381.36 19.3
5 6 1 372.66 13
-5 -6 1 378.16 14.1
-5 6 -1 360.26 14.8
-5 -6 1 359.96 14.4
5 -6 -1 372.26 14.7
5 -6 -1 372.36 15.2
-5 -6 1 353.16 13.4
-6 -6 -1 502.15 19.9
6 -6 1 513.35 19
6 6 -1 519.25 16
6 -6 1 484.85 18.9
-6 -6 -1 529.55 19.5
-6 6 1 489.65 23.2
6 -6 1 522.75 20.1
-6 6 -1 507.65 19.7
-6 -6 1 517.25 17
-6 6 -1 519.75 23.9
-6 -6 1 515.65 17.7
6 -6 -1 510.15 19.9
-6 -6 1 552.34 19.3
6 -6 -1 507.35 18.8
6 6 1 507.55 16.9
6 -6 -1 483.15 19
7 -6 1 70.59 7.8
-7 -6 -1 83.89 8.5
-7 6 1 73.29 10.3
7 -6 1 81.19 8.8
7 6 -1 78.49 5.1
7 -6 1 72.39 7.3
-7 -6 1 79.59 5.2
7 6 1 81.29 6
7 -6 -1 74.89 8.1
-7 6 -1 78.29 10.9
7 -6 -1 81.49 7.6
7 -6 -1 72.69 8.4
-7 -6 1 74.19 7.9
-7 6 -1 69.59 8.3
-8 -6 -1 153.08 11.8
-8 6 1 141.79 11.6
8 -6 1 138.09 11
8 -6 1 154.78 11
8 6 -1 148.29 7.4
8 -6 1 153.48 10.4
8 6 1 159.18 8.4
8 -6 -1 144.09 10.8
-8 6 -1 147.89 11.6
-8 -6 1 135.49 10.4
8 -6 -1 156.38 11.3
8 -6 -1 155.98 10.2
9 -6 1 49.6 7.3
-9 -6 -1 36.1 7.4
-9 6 1 64.99 9.5
9 -6 1 49.6 8.1
9 -6 1 55.09 9
9 6 -1 56.69 5.2
9 -6 -1 55.59 8.4
9 6 1 60.99 6
9 -6 -1 63.89 7.5
9 -6 -1 50.99 8.6
-9 6 -1 45.7 8.2
-9 -6 1 60.19 8.7
-10 6 1 17 7.3
-10 -6 -1 10.8 6.5
10 6 -1 13.2 3.6
10 -6 1 15.6 6.7
10 -6 1 18.2 5.9
10 -6 1 15.7 6.5
10 -6 -1 16 6.6
10 -6 -1 16.5 6.3
-10 -6 1 10 6.2
10 6 1 18.3 4.3
10 -6 -1 14.9 5.3
-10 6 -1 12 6.7
11 -6 1 26.5 8.2
-11 -6 -1 9.9 7.1
11 -6 1 22.7 6.6
-11 6 1 8.2 7.4
11 -6 1 21.6 7.8
11 6 -1 28.2 4.6
11 6 1 15.3 4.6
11 -6 -1 -1.9 5.6
-11 6 -1 12.3 7.6
11 -6 -1 19.2 7.6
-11 -6 1 22.2 7.9
11 -6 -1 13.6 5.8
-12 -6 -1 24.9 9.9
12 -6 1 20.6 7
12 -6 1 28 8.8
12 6 -1 29.4 5.3
-12 6 1 32 9.9
12 -6 -1 31.2 7.7
12 -6 -1 20 8.1
-12 -6 1 24.2 8.6
-12 6 -1 29.1 9.3
12 6 1 39 6.3
0 7 1 452.05 19.2
0 -7 -1 449.36 16.8
0 -7 1 469.55 16.5
0 -7 -1 454.95 19.8
0 -7 1 447.26 18.6
0 7 1 457.65 16.3
0 7 -1 467.75 16
0 -7 1 455.05 19.4
0 7 -1 464.65 19.1
0 -7 -1 453.75 19
-1 -7 -1 794.82 26.9
1 -7 1 777.12 25.4
-1 7 1 814.12 25.8
-1 7 1 788.72 29.5
1 -7 1 753.32 28.8
-1 -7 -1 759.32 28.1
-1 -7 -1 792.12 29.2
1 7 -1 781.42 25
1 -7 1 780.22 29.6
1 -7 -1 842.42 30.3
-1 7 -1 884.31 26
-1 -7 1 856.91 28.4
1 -7 -1 883.61 30
-1 -7 1 898.41 26.9
-1 -7 1 885.81 29.3
1 7 1 878.91 29.2
1 -7 -1 892.11 26.4
1 7 1 827.32 25.5
-1 7 -1 845.62 29.7
2 7 -1 1045.1 33.5
2 -7 1 1083.79 36.1
-2 -7 -1 1022.7 33.8
-2 -7 -1 1068.09 33.5
-2 7 1 1047.3 36.2
-2 7 1 1042 36.4
2 7 -1 1092.29 30.7
-2 -7 -1 1076.19 35.1
2 -7 1 1113.99 37.1
2 -7 1 1078.89 31.5
-2 7 -1 1058.19 31.6
-2 7 -1 1068.89 36.3
-2 -7 1 1045.7 34.1
2 -7 -1 1035.2 31.8
2 -7 -1 1009.6 35.6
2 -7 -1 1031.5 36.5
-2 -7 1 1011.3 32.7
-2 -7 1 995.5 33.1
2 7 1 989.4 30.8
2 7 1 978.9 34.4
3 -7 1 1532.15 44.2
-3 -7 -1 1518.25 47.2
3 -7 1 1576.14 50.29
-3 -7 -1 1559.54 46.6
3 -7 1 1504.35 44.1
-3 -7 -1 1494.95 46
3 7 -1 1498.65 42.6
-3 7 1 1515.55 49.3
-3 7 1 1494.15 49.5
3 7 1 1571.34 43.4
-3 7 -1 1523.25 49.7
3 -7 -1 1509.55 44.5
-3 7 -1 1531.25 49.5
3 -7 -1 1498.95 42.6
3 -7 -1 1563.64 50.19
-3 -7 1 1537.75 46.2
-3 -7 1 1533.15 45.4
-3 -7 1 1535.65 45.9
4 7 -1 352.46 12.9
-4 7 1 366.86 19
4 -7 1 373.96 14.7
-4 -7 -1 370.06 17.6
-4 -7 -1 379.16 17
-4 -7 -1 388.76 14.5
4 -7 1 353.46 13.6
4 -7 1 370.26 14.8
-4 7 -1 390.66 19.7
4 7 1 354.66 13.5
-4 -7 1 365.26 15.8
-4 -7 1 367.26 15.2
4 -7 -1 357.36 14.9
4 -7 -1 381.06 13.9
-5 7 1 210.88 14.7
5 -7 1 228.08 11.1
5 -7 1 197.48 10
-5 -7 -1 234.58 11.2
5 7 -1 200.48 8.8
5 -7 1 218.88 11.2
-5 -7 -1 205.68 12.3
-5 -7 1 211.08 11.1
5 -7 -1 201.28 10.6
5 7 1 212.88 9.6
-5 7 -1 210.48 10.8
-5 7 -1 213.18 15.1
5 -7 -1 211.38 11.2
5 -7 -1 211.18 10.4
-6 7 1 60.99 9.6
-6 -7 -1 57.49 7.1
6 -7 1 78.99 8.2
6 -7 1 57.79 6.6
-6 -7 -1 61.99 7.8
6 7 -1 70.69 5.3
6 -7 1 68.39 7.1
-6 7 -1 49.7 9.3
-6 -7 1 59.39 7.8
-6 7 -1 55.89 7
6 7 1 56.49 5.4
6 -7 -1 57.19 7.3
-6 -7 1 54.89 6
6 -7 -1 47.2 6.1
6 -7 -1 56.09 6.7
7 -7 1 292.37 14.4
7 -7 1 278.57 14.3
-7 -7 -1 303.67 15.1
7 7 -1 301.77 11.5
7 -7 1 271.77 14.8
-7 7 1 295.17 15.4
7 7 1 294.67 12.3
-7 -7 1 289.77 14.4
7 -7 -1 312.37 14.5
7 -7 -1 317.57 15.6
-7 7 -1 313.27 15.4
-7 7 -1 318.47 20.2
7 -7 -1 287.77 14.5
8 -7 1 27.7 6.6
8 -7 1 28.7 5.8
-8 -7 -1 20.9 6.7
8 7 -1 28 4
8 -7 1 22.5 5.7
-8 7 1 40.6 7.6
-8 7 -1 34.3 7.1
-8 -7 1 26.1 6.7
8 -7 -1 26.3 5.7
8 -7 -1 30.3 6.4
8 -7 -1 28.8 6.6
8 7 1 27.1 4.5
9 -7 1 4.2 4.6
-9 -7 -1 0.6 5.2
9 7 -1 2 2.9
9 -7 1 3.2 4.5
9 -7 1 13.4 5.9
-9 7 1 2.7 5.7
-9 7 -1 4.4 5.3
9 7 1 -4.4 2.9
9 -7 -1 -2.8 4.3
-9 -7 1 4.7 6.2
9 -7 -1 1.9 4.3
9 -7 -1 0.7 4.4
10 -7 1 31 7.5
10 7 -1 19.3 4.2
-10 -7 -1 25.2 7.7
10 -7 1 30.1 7
-10 7 1 14.8 7.3
10 -7 1 19.7 7
10 7 1 29.7 5.2
-10 7 -1 29.1 8
10 -7 -1 30.2 6.4
10 -7 -1 36 7.8
10 -7 -1 11.1 6.6
11 7 -1 25.9 4.9
-11 -7 -1 11.5 8.3
11 -7 1 19.4 6.8
11 -7 1 25.9 8.9
-11 7 1 20.5 8
11 -7 1 24 8.1
11 -7 -1 11 6.7
11 -7 -1 23.9 7
-11 7 -1 24.7 9.1
11 7 1 19.5 5.1
11 -7 -1 28.1 8.5
12 7 -1 41.3 6.1
-12 7 1 38.1 10.5
12 -7 1 38.6 8.3
12 -7 1 37.3 9.4
12 -7 -1 36 8.1
-12 7 -1 18.7 9
12 -7 -1 31.1 9.3
12 7 1 50.79 6.9
12 -7 -1 35.2 9.9
0 -8 1 156.08 11.6
0 8 -1 166.18 9
0 8 1 142.29 8.6
0 -8 1 150.38 9.1
0 -8 -1 154.78 11.7
0 -8 -1 160.48 9.7
-1 8 1 543.45 18.8
1 -8 1 551.54 23.2
-1 -8 -1 543.25 20
1 -8 1 561.34 18.7
-1 -8 -1 539.75 22.4
1 8 -1 556.24 18.2
-1 8 1 550.44 23
-1 -8 1 463.15 18.8
1 -8 -1 480.85 21.6
1 8 1 467.75 17.9
1 -8 -1 484.65 22.5
1 -8 -1 469.25 18.3
-1 8 -1 493.75 18.2
-1 -8 1 484.35 21.2
2 -8 1 1058.69 46.2
-2 8 1 971.3 35.9
-2 -8 -1 972.7 34.8
-2 8 1 974.8 31.1
-2 -8 -1 1015.1 33.1
2 8 -1 952.1 30
2 -8 1 989.6 30.9
2 -8 1 1059.19 37.2
2 -8 -1 1014.3 31.4
-2 -8 1 1013.6 32.5
-2 8 -1 1034.1 36.4
2 -8 -1 976.8 36.4
2 -8 -1 1033.9 36.1
2 8 1 957.2 30.4
-2 -8 1 992.7 34.1
3 8 -1 299.57 12.3
-3 -8 -1 296.07 15.8
3 -8 1 285.17 17.6
3 -8 1 296.57 13
-3 -8 -1 293.47 15.7
-3 8 1 299.87 17.5
3 8 1 315.97 12.8
-3 -8 1 319.47 15.6
3 -8 -1 318.77 11.6
3 -8 -1 300.47 13.4
-3 8 -1 306.67 17.5
3 -8 -1 315.87 18.2
-3 -8 1 302.27 15.1
-3 8 -1 299.67 13.4
4 -8 1 761.22 24.4
4 8 -1 695.63 21.8
4 -8 1 647.14 23.3
-4 8 1 685.23 29
-4 -8 -1 733.33 26.8
-4 -8 -1 706.63 26.5
4 -8 1 706.83 23.5
4 -8 -1 643.84 21.8
-4 -8 1 663.23 25
4 -8 -1 662.93 23.7
4 -8 -1 670.43 23.3
-4 8 -1 634.64 28.6
-4 -8 1 629.94 25.3
4 8 1 673.83 22.4
5 -8 1 339.27 14.8
5 -8 1 314.57 13.5
5 8 -1 323.67 12.9
-5 -8 -1 325.87 16.6
-5 -8 -1 332.57 18.1
5 -8 1 321.17 15.1
-5 8 1 317.37 19.3
5 -8 -1 341.77 14.7
-5 -8 1 357.06 15.8
5 -8 -1 343.37 14.2
5 -8 -1 363.46 15.6
-5 8 -1 337.47 19.9
-5 8 -1 337.67 16.3
5 8 1 358.96 13.8
6 -8 1 324.77 15.1
-6 8 1 336.27 20.7
6 8 -1 346.17 12.9
6 -8 1 336.17 14.9
6 -8 1 322.77 15.6
6 -8 -1 329.47 15.1
6 -8 -1 335.07 16
6 8 1 326.97 13.5
-6 8 -1 346.07 15.8
6 -8 -1 324.07 15
-6 8 -1 315.87 20.1
7 -8 1 71.79 7.9
7 -8 1 66.89 8.5
-7 8 1 70.19 8.6
7 -8 1 64.59 7.6
7 8 -1 63.29 5.6
7 -8 -1 67.69 8.6
7 8 1 67.59 6.5
7 -8 -1 68.69 7.8
7 -8 -1 59.59 7.6
-7 8 -1 57.99 7.9
8 8 -1 74.79 6.5
8 -8 1 69.99 8.7
-8 8 1 84.69 10.5
8 -8 1 73.99 9.5
8 -8 1 79.79 8.9
8 -8 -1 77.39 9.4
-8 8 -1 77.49 9.6
8 8 1 71.19 6.8
8 -8 -1 92.69 10.4
8 -8 -1 80.29 8.9
9 -8 1 59.49 8.6
9 -8 1 64.79 9.8
9 8 -1 52.89 5.7
9 -8 1 51.49 7.9
-9 8 1 52.29 9.2
9 -8 -1 62.59 9.4
-9 8 -1 44.7 8.3
9 -8 -1 51.49 8.2
9 -8 -1 81.59 9.4
9 8 1 45.5 6
10 8 -1 43.1 5.6
10 -8 1 44.5 8.2
10 -8 1 53.19 9.2
-10 8 1 46.8 9.6
10 -8 1 73.39 11
-10 8 -1 55.59 10
10 -8 -1 59.29 9.5
10 -8 -1 53.79 8.7
10 -8 -1 54.29 9.7
10 8 1 52.29 6.6
11 -8 1 24.5 8.3
11 8 -1 19.1 4.6
-11 8 1 36.9 9.7
11 -8 1 18.9 7.5
11 -8 1 18 7
11 8 1 34.4 5.9
11 -8 -1 23 7.7
11 -8 -1 27.4 7
11 -8 -1 30.1 8.8
-11 8 -1 22 8.2
0 9 -1 526.15 19.1
0 -9 1 507.85 23.2
0 9 1 550.04 19.8
0 -9 -1 493.75 19.7
0 -9 -1 541.05 24
0 -9 1 522.15 19.5
-1 -9 -1 580.44 22.3
-1 9 1 581.14 21.1
1 -9 1 572.34 20.8
-1 -9 -1 560.44 24.8
1 9 -1 553.34 20.4
1 -9 1 567.84 25.6
-1 -9 1 603.54 24.9
1 9 1 592.14 21.1
-1 9 -1 640.34 21.6
1 -9 -1 606.74 26.4
1 -9 -1 580.94 21.3
-1 -9 1 614.54 22
2 -9 1 354.76 15
-2 -9 -1 366.76 19
-2 -9 -1 369.06 17.5
2 -9 1 392.86 21
2 9 -1 385.66 15
-2 9 -1 372.76 15.5
2 9 1 357.36 15
2 -9 -1 343.97 15.3
-2 -9 1 362.26 16.9
2 -9 -1 358.26 20
-2 -9 1 349.96 17.8
-3 -9 -1 734.03 27.1
-3 -9 -1 700.53 27.9
3 -9 1 670.83 23.8
3 9 -1 703.53 23
-3 -9 1 681.93 26.8
3 9 1 686.73 23.5
-3 -9 1 654.63 25.8
3 -9 -1 681.03 24.2
-4 -9 -1 1450.05 47.4
4 -9 1 1394.66 44.1
4 9 -1 1509.55 42.8
-4 -9 -1 1435.16 47.8
-4 -9 1 1456.05 47.1
-4 -9 1 1445.26 47.2
4 9 1 1524.55 43.4
4 -9 -1 1487.45 44.9
5 -9 1 498.85 19.7
5 9 -1 506.35 17.6
-5 -9 -1 451.65 22.4
-5 -9 1 478.25 22.1
5 -9 -1 463.95 19.6
5 9 1 483.65 18.1
-6 -9 -1 170.38 14.8
6 9 -1 178.48 9.4
6 -9 1 149.29 10.8
6 -9 -1 160.18 10.5
6 -9 -1 153.38 10.2
6 -9 -1 166.28 11.4
-6 -9 1 175.38 14.3
6 9 1 145.79 9.5
7 -9 1 40.7 7.2
7 9 -1 36 5.2
-7 9 1 48 9.3
7 -9 -1 49 6.8
7 9 1 47 6
7 -9 -1 46.5 7.8
7 -9 -1 45.1 6.8
8 -9 1 45.7 8.4
8 9 -1 40.5 5.3
8 -9 1 41.3 8
8 -9 1 45.7 8.4
-8 9 1 23.3 6.9
8 9 1 34.6 5.5
8 -9 -1 33.4 6.7
8 -9 -1 36.8 6.8
8 -9 -1 33.8 7.2
9 -9 1 116.19 11.8
-9 9 1 99.09 12.2
9 -9 1 97.89 11.1
9 9 -1 105.29 8.1
9 -9 1 112.69 12.4
9 -9 -1 106.29 12
9 -9 -1 88.49 10.6
9 9 1 101.39 8.7
9 -9 -1 101.29 10.9
-10 9 1 15.6 8
10 -9 1 33.7 8
10 -9 1 21.2 6.7
10 9 -1 22.5 4.9
10 -9 1 38.1 9.1
10 9 1 30.2 5.9
10 -9 -1 31 7.5
10 -9 -1 35.8 8.7
10 -9 -1 44.8 8.9
11 -9 1 31.4 9.2
11 -9 1 24.5 8.4
11 -9 1 44.8 8.9
-11 9 1 30.6 9.3
11 9 -1 33.1 5.7
11 -9 -1 26.8 8.7
11 9 1 34.2 6.5
11 -9 -1 48.7 8.7
11 -9 -1 24 7.7
0 -10 1 729.03 30.2
0 -10 -1 756.62 30.8
0 10 -1 695.73 24.5
0 -10 -1 663.83 25
0 10 1 686.13 24.7
0 -10 1 672.83 24.6
1 -10 1 1046.5 39.3
1 10 -1 1052.99 32.9
-1 -10 -1 1006.4 38.3
-1 10 1 1028.3 33.4
1 -10 1 981.5 32.8
-1 -10 -1 1072.19 34.7
-1 -10 1 1023.4 34.1
1 10 1 973 32.8
-1 10 -1 1044 33.5
1 -10 -1 1035.1 39.3
1 -10 -1 1038.1 33.7
-1 -10 1 1061.59 38.3
-2 10 1 377.96 17.1
-2 -10 -1 331.27 19
-2 -10 -1 363.06 18.1
2 -10 1 381.46 21.5
2 10 -1 366.06 15.3
2 -10 1 357.16 15.7
2 10 1 372.26 15.8
-2 -10 1 355.66 17.4
2 -10 -1 343.57 21.3
-2 -10 1 360.06 19
-2 10 -1 362.16 16.1
2 -10 -1 385.36 16.5
-3 -10 -1 765.92 29.5
3 10 -1 784.82 25.9
3 -10 1 754.12 26.6
3 10 1 768.02 26.3
3 -10 -1 796.12 27.3
-3 -10 1 742.53 28.6
4 -10 1 659.73 24.5
4 10 -1 661.83 23.1
-4 -10 -1 679.13 28
4 -10 -1 712.43 25.3
-4 -10 1 652.53 27
4 10 1 677.53 23.8
5 -10 1 629.94 24
5 10 -1 623.94 22
-5 -10 -1 592.74 27
-5 -10 1 636.44 27
5 10 1 642.34 22.7
5 -10 -1 649.04 24.5
-6 -10 -1 70.69 11.6
6 10 -1 74.89 7.1
6 -10 1 74.99 9.2
-6 -10 1 88.39 11.9
6 -10 -1 85.29 9.5
6 10 1 77.69 7.7
-7 -10 -1 6.3 7.9
7 10 -1 5.5 3.9
7 -10 1 11.9 5.6
7 -10 -1 -0.2 4.6
7 10 1 12.7 4.6
-7 -10 1 9.3 7.8
8 -10 1 41.2 8.3
8 10 -1 31.5 5.3
-8 -10 -1 26 9.9
-8 -10 1 32.7 9.9
8 10 1 46 6.5
8 -10 -1 34.7 7.8
9 10 -1 30.8 5.5
9 -10 1 41 8.6
9 10 1 24.1 5.6
9 -10 -1 35.5 8.4
10 -10 1 96.59 12.6
10 10 -1 82.69 8.1
10 10 1 83.79 8.7
10 -10 -1 80.19 11.8
11 10 -1 51.29 7
11 -10 1 72.59 12.3
11 -10 -1 77.39 12.4
11 10 1 48.5 7.5
0 -11 -1 396.56 22.4
0 -11 -1 411.06 18.4
0 11 1 390.36 17.6
0 -11 1 397.96 17.7
0 -11 1 402.86 22
0 11 -1 416.16 17.8
1 -11 1 413.46 23.1
1 -11 1 405.26 17.6
1 11 -1 446.16 18.3
-1 11 1 398.26 18.3
-1 -11 -1 414.26 19.2
-1 -11 -1 401.56 22.2
1 11 1 446.36 18.3
-1 -11 1 393.36 18.2
1 -11 -1 458.45 18.8
1 -11 -1 390.06 22.8
-1 -11 1 421.76 25.1
-1 11 -1 407.96 18.3
2 -11 1 116.19 9.3
-2 -11 -1 120.29 12
2 11 -1 136.09 10.2
2 -11 -1 116.59 9.7
-2 -11 1 120.29 11.4
-2 11 -1 120.69 10
2 11 1 132.69 10.4
3 11 -1 161.18 10.6
-3 -11 -1 155.68 13.5
3 -11 1 157.18 10.6
3 11 1 150.28 10.7
3 -11 -1 138.19 10.5
-3 -11 1 172.98 13.2
4 -11 1 246.78 13.5
4 11 -1 247.98 12.9
-4 -11 -1 242.78 16.8
-4 -11 1 235.88 16.1
4 11 1 286.47 14
4 -11 -1 251.97 13.9
5 -11 1 143.49 11.1
5 11 -1 141.69 9.9
-5 -11 -1 145.89 15.1
-5 -11 1 146.99 15.5
5 11 1 138.59 10.4
5 -11 -1 151.98 11.2
6 11 -1 42.2 6.3
6 -11 1 56.49 8.3
-6 -11 -1 50.79 11
-6 -11 1 60.59 11.3
6 11 1 47.7 6.9
6 -11 -1 49.8 8.1
-7 -11 -1 8.3 8.9
7 11 -1 2.6 4.2
7 -11 1 14.8 6
7 11 1 16.5 5.2
-7 -11 1 14.9 9.5
7 -11 -1 9.7 5.7
-8 -11 -1 21.1 10.2
8 -11 1 16.5 6.6
8 11 -1 9 4.6
8 -11 -1 20.9 7.1
8 11 1 15.8 5.4
-8 -11 1 -0.3 8.4
9 -11 1 69.29 10.9
9 11 -1 70.69 7.8
-9 -11 -1 58.09 13.5
9 11 1 63.59 8.2
-9 -11 1 66.89 14.3
9 -11 -1 78.69 11.7
10 -11 1 22 7.9
-10 -11 -1 28.3 12.1
10 11 -1 29.1 6
-10 -11 1 32.1 11.3
10 11 1 37.3 6.9
10 -11 -1 29.2 8.7
0 12 1 226.08 14.3
0 12 -1 249.48 14.3
0 -12 -1 286.07 15.2
0 -12 1 273.67 14.8
-1 -12 -1 54.49 9.1
1 12 -1 54.69 7.5
1 -12 1 53.19 7.9
1 -12 1 40 11.5
-1 12 1 39.4 7.1
1 -12 -1 45.4 7.5
-1 -12 1 46.9 7.6
1 12 1 45.6 7.4
-1 12 -1 62.79 8.1
-2 -12 -1 50.29 8.9
2 -12 1 64.29 8.2
2 12 -1 51.69 7.7
2 -12 -1 68.29 8.6
-2 -12 1 50.29 8.5
2 12 1 41.7 7.1
-3 -12 -1 1.1 6.9
3 12 -1 8.5 4.9
3 -12 1 7.2 4.6
3 -12 -1 3.4 4.6
-3 -12 1 5.5 6.7
3 12 1 12 5.2
4 -12 1 195.28 12.4
4 12 -1 199.88 12.3
-4 -12 -1 188.58 15.7
-4 -12 1 191.58 15.3
4 12 1 195.88 12.6
4 -12 -1 206.38 12.9
5 12 -1 69.59 8.2
5 -12 1 87.19 9.8
-5 -12 -1 77.19 12.8
5 -12 -1 95.09 10.4
-5 -12 1 87.29 12.9
5 12 1 64.89 8.3
-6 -12 -1 121.69 15
6 -12 1 132.69 11.1
6 12 -1 112.39 9.8
6 12 1 104.99 10.2
-6 -12 1 97.89 13.6
6 -12 -1 117.99 12
-7 -12 -1 91.69 14.6
7 -12 1 112.79 12.2
7 12 -1 108.09 9.8
-7 -12 1 118.39 15.4
7 -12 -1 126.49 13.1
7 12 1 115.69 10.5
-8 -12 -1 26.5 11.3
8 12 -1 38 6.9
8 -12 1 54.39 9.6
8 -12 -1 45.1 9.3
8 12 1 27.2 6.5
-8 -12 1 48.1 12.2
-9 -12 -1 46.2 13
9 12 -1 46.4 7.3
9 -12 1 43.3 9.2
-9 -12 1 59.19 14.4
9 -12 -1 49.6 10
9 12 1 44.1 7.6
0 -13 1 92.59 10
0 -13 -1 94.59 10.3
0 13 -1 63.39 8.5
0 13 1 80.69 9.8
1 -13 1 6.5 4.7
1 13 -1 -0.4 4.5
-1 -13 -1 2.8 5.6
1 -13 -1 7.3 5.1
-1 13 -1 -2.7 4.8
-1 -13 1 3.9 5
1 13 1 -0.6 5.2
-2 -13 -1 -0.5 6.2
2 13 -1 2.9 5.2
2 -13 1 7.9 4.7
-2 -13 1 5.2 6
2 13 1 3.1 5.6
2 -13 -1 2.1 4.6
3 -13 1 39 7.1
3 13 -1 33.6 6.8
-3 -13 -1 22.1 8.4
3 -13 -1 43.8 7.4
-3 -13 1 44.1 8.8
3 13 1 35.7 7.1
4 13 -1 0.9 5
4 -13 1 7.3 4.7
-4 -13 -1 9.1 7.8
4 13 1 3.8 5.3
-4 -13 1 -0.8 6.6
4 -13 -1 5.7 4.7
5 -13 1 167.08 12.3
5 13 -1 180.88 12.4
-5 -13 -1 139.59 15.8
5 -13 -1 155.78 13.1
5 13 1 146.79 12.3
-5 -13 1 171.88 17.2
6 13 -1 253.37 14.8
6 -13 1 247.18 15.6
-6 -13 -1 251.07 20.1
6 13 1 261.97 15.5
6 -13 -1 270.07 16.4
-6 -13 1 251.07 19.6
7 -13 1 94.69 12.2
7 13 -1 87.89 9.5
-7 -13 -1 73.29 14.2
7 13 1 94.09 10.3
-7 -13 1 77.69 13.8
7 -13 -1 86.09 11.5
8 -13 1 100.69 12.8
8 13 -1 131.09 11.2
-8 -13 -1 98.29 17
8 -13 -1 151.08 15.7
-8 -13 1 89.59 16.3
8 13 1 93.29 10.3
9 -13 1 144.79 15.7
-9 -13 -1 103.99 16.9
9 13 -1 143.59 11.8
9 13 1 124.69 11.7
-9 -13 1 136.99 19.1
9 -13 -1 140.89 15.4
0 14 -1 0.2 5.1
0 -14 -1 5.9 5.4
0 14 1 -8.9 4.4
0 -14 1 13.7 5.9
1 14 -1 75.89 9.9
1 -14 1 96.49 10.4
-1 -14 -1 87.69 10.9
1 14 1 69.99 9.6
-1 -14 1 99.59 11.3
1 -14 -1 86.49 10.4
2 -14 1 44.1 7.9
-2 -14 -1 33.6 8.4
2 14 -1 27.3 7
2 14 1 41.3 8.2
-2 -14 1 23.5 7.3
2 -14 -1 42.4 8.1
-3 -14 -1 4.9 7.1
3 -14 1 4.6 4.9
3 14 -1 -0.1 5.4
-3 -14 1 14.7 7.3
3 -14 -1 -0.8 4.7
3 14 1 -2.4 5.7
-4 -14 -1 83.89 12.5
4 -14 1 78.29 10
4 14 -1 58.09 8.9
-4 -14 1 79.69 11.7
4 -14 -1 80.29 10.7
4 14 1 97.89 10.9
5 -14 1 152.58 12.6
5 14 -1 155.88 12.6
-5 -14 -1 159.28 17.2
5 -14 -1 138.99 12.5
5 14 1 145.29 12.8
-6 -14 -1 74.39 14.5
6 14 -1 69.59 9.4
6 -14 1 75.39 10.4
6 14 1 83.39 10.4
-6 -14 1 70.49 13.1
6 -14 -1 101.99 12.1
-7 -14 -1 176.08 19.3
7 -14 1 190.58 14.7
7 14 -1 176.28 13.4
7 14 1 166.48 13.7
7 -14 -1 198.68 15.1
-7 -14 1 143.19 17.7
8 14 -1 61.59 8.9
8 -14 1 61.79 10.5
-8 -14 -1 45.9 13.1
8 14 1 50.89 9
-8 -14 1 43 13.9
8 -14 -1 77.39 11.5
0 -15 -1 20.1 6.8
0 -15 1 26.7 7.3
0 15 -1 8.1 6.4
1 -15 1 46.8 8.1
1 15 -1 32.1 7.9
-1 -15 -1 34.7 8.4
1 -15 -1 31.8 7.6
1 15 1 27.5 8.1
-1 -15 1 37.9 8.2
2 -15 1 27.7 7.7
-2 -15 -1 38 8.6
2 15 -1 33.2 7.7
2 15 1 26 7.8
-2 -15 1 31.8 8
2 -15 -1 35.2 8.3
-3 -15 -1 25.8 8.8
3 15 -1 18.5 7.3
3 -15 1 40.5 8.1
3 15 1 36.9 8.6
-3 -15 1 51.79 9.9
3 -15 -1 58.89 9.3
-4 -15 -1 39.4 10.4
4 15 -1 40 8.5
4 -15 1 30.3 7.5
-4 -15 1 21.4 8.7
4 15 1 18.1 7.5
4 -15 -1 27.7 7.9
5 15 -1 35.7 8.1
-5 -15 -1 20.7 9.9
5 -15 1 31.8 7.9
-5 -15 1 24.9 9.7
5 -15 -1 29 8.1
5 15 1 30.2 8.1
6 15 -1 96.29 10.9
-6 -15 -1 91.99 15
6 -15 1 92.89 11.6
-6 -15 1 112.69 15.6
6 15 1 93.49 11.2
6 -15 -1 103.89 12.5
-7 -15 -1 22.3 11.2
7 -15 1 26.5 7.9
7 15 -1 32.4 7.7
7 15 1 22.7 7.6
7 -15 -1 18.6 7.5
-7 -15 1 4.8 10.9
0 -16 -1 127.29 13.6
0 -16 1 147.09 14.5
1 -16 1 22.2 7.1
-1 -16 -1 14.7 7.5
1 16 -1 30.2 8.6
1 -16 -1 26.8 7.9
1 16 1 6.4 7.2
-1 -16 1 24.3 8.1
2 16 -1 69.89 10.6
2 -16 1 102.09 11.7
-2 -16 -1 94.29 12.8
-2 -16 1 87.89 12.1
2 -16 -1 68.99 10.4
2 16 1 76.79 11.5
3 -16 1 137.69 13.5
-3 -16 -1 123.49 14.2
3 16 -1 114.29 12.6
3 16 1 117.29 12.9
3 -16 -1 125.69 13.3
-3 -16 1 125.49 13.8
-4 -16 -1 65.49 11.8
4 -16 1 90.69 11.7
4 16 -1 61.39 10
4 16 1 54.29 9.7
-4 -16 1 76.29 12.2
4 -16 -1 81.99 11.8
-5 -16 -1 5.9 9.4
5 16 -1 2.9 6.5
5 -16 1 17.1 7.1
-5 -16 1 14.1 8.8
5 -16 -1 14.4 7.2
5 16 1 -0.5 6
0 -17 -1 27.1 8.2
0 -17 1 23.6 7.8
-1 -17 -1 49.8 10.2
1 -17 1 31.8 8.3
1 17 -1 24.2 9.8
-1 -17 1 44.1 8.8
1 -17 -1 42.5 9.1
2 17 -1 114.89 13.7
-2 -17 -1 132.59 14.6
2 -17 1 119.59 13.3
2 17 1 124.29 14
-2 -17 1 117.69 13.3
2 -17 -1 122.69 13.4
3 -17 1 39.9 9
3 17 -1 50.99 9.8
-3 -17 -1 59.19 11.1
3 -17 -1 65.59 11
-3 -17 1 52.29 10.1
3 17 1 40.8 9.8
0 0 2 474.35 13.1
0 0 -2 407.16 12.9
1 0 -2 4729.63 124.69
1 0 2 4636.04 122.59
-1 0 -2 4645.74 122.69
1 0 2 4845.72 122.79
-1 0 2 4715.03 124.89
-1 0 -2 4818.62 122.69
1 0 -2 4649.04 124.79
2 0 2 130.69 6.4
2 0 -2 137.59 4.9
2 0 -2 135.49 5
-2 0 -2 138.49 6.7
-2 0 2 125.69 4.9
-2 0 -2 130.29 6.4
-2 0 2 140.49 4.9
-3 0 -2 472.15 16.5
-3 0 2 467.05 14.4
-3 0 -2 476.75 16.6
3 0 -2 466.15 14.3
3 0 2 480.15 16.6
3 0 -2 478.95 14.3
-3 0 2 486.45 14.3
4 0 2 164.58 7.8
4 0 -2 159.88 7.8
4 0 2 164.88 6.5
-4 0 2 165.68 7
-4 0 2 170.28 7.2
-4 0 -2 175.38 9
4 0 2 164.08 8.7
4 0 -2 166.58 5.3
-4 0 -2 171.98 8.9
-4 0 -2 163.28 7.9
4 0 -2 166.68 7.1
4 0 -2 161.78 7.6
5 0 2 3974 108.39
5 0 2 4227.78 112.29
5 0 -2 4092.49 106.99
-5 0 -2 4229.48 112.39
-5 0 2 4205.08 109.79
5 0 -2 4097.09 110.49
-5 0 2 4149.98 109.29
5 0 -2 3955.8 110.49
5 0 2 4073.99 110.69
5 0 -2 4304.67 109.59
-5 0 -2 4123.29 110.79
-5 0 -2 4308.47 112.69
-6 0 2 30.6 4.3
-6 0 -2 33 5.3
6 0 -2 30.6 2.8
-6 0 2 27.9 3.9
6 0 -2 32 4.3
-6 0 -2 35.4 5.7
-6 0 -2 29.4 5.4
6 0 2 33.8 5.2
6 0 2 33.6 3.7
6 0 -2 33 5
-7 0 2 134.59 8.1
7 0 2 142.69 9.6
7 0 2 138.49 7.4
-7 0 2 136.79 9.8
-7 0 -2 139.69 10
-7 0 -2 146.79 10.2
7 0 -2 134.09 9.2
8 0 -2 28.8 5.5
-8 0 2 27.1 5.8
-8 0 -2 17.9 5.8
8 0 -2 27 3.4
8 0 2 25.2 4.1
-8 0 2 24.3 4.5
8 0 2 32.3 6.3
9 0 -2 70.09 8.4
9 0 -2 66.69 5.7
-9 0 2 71.49 8.8
9 0 2 78.29 6.8
-9 0 -2 70.59 9.4
10 0 -2 4.7 3.1
-10 0 2 12.7 5.5
10 0 2 4.8 3.8
-10 0 -2 18.1 6
10 0 -2 3.2 4.1
11 0 2 58.89 7.3
11 0 -2 68.39 7.2
-11 0 2 56.79 10.1
-11 0 -2 58.09 10.2
11 0 -2 61.79 10.3
-12 0 2 -3.4 6.6
12 0 2 1.2 4.3
12 0 -2 -3.1 3.5
-12 0 -2 -0.7 6.6
12 0 -2 13 7.5
13 0 -2 22.9 9.1
13 0 -2 25.3 5.9
-13 0 2 22 9.6
-13 0 -2 18.6 8.5
13 0 2 20.6 6.6
0 -1 -2 8459.15 210.48
0 -1 2 7274.07 208.18
0 1 -2 7961 209.88
0 -1 -2 7620.64 204.98
0 -1 2 8283.77 210.28
1 1 -2 259.17 7.3
1 1 -2 257.27 7.3
-1 1 2 251.67 8.5
1 -1 2 258.97 9.2
-1 -1 -2 255.77 9.1
-1 1 2 262.07 8.7
1 -1 2 253.97 9.2
-1 1 -2 243.98 9
-1 -1 2 239.78 7.2
1 -1 -2 235.78 8.3
-1 1 -2 228.78 8.9
-1 -1 2 248.78 7.3
1 1 2 244.18 8.9
2 -1 2 4387.16 115.19
2 -1 2 4159.08 114.89
-2 -1 -2 4281.57 114.59
-2 1 2 4465.85 113.79
-2 1 2 4329.57 113.59
-2 -1 -2 4497.65 114.59
2 -1 -2 4258.27 113.69
-2 1 -2 4083.19 114.89
2 -1 -2 4682.63 113.79
2 1 2 4532.35 114.69
-2 1 -2 4309.97 114.99
3 1 -2 471.45 13.1
3 1 -2 467.85 13
-3 -1 -2 451.75 16
-3 1 2 460.55 15.2
-3 1 2 447.06 15.3
3 -1 2 482.55 16.9
-3 -1 -2 472.95 16.3
3 -1 -2 482.55 15.3
3 -1 -2 464.35 15.4
-3 -1 2 484.65 13.1
3 1 2 477.35 16.1
-3 1 -2 465.75 16.7
-3 -1 2 488.35 13
-3 1 -2 485.75 16.9
3 1 2 468.95 16.1
-4 -1 -2 2865.41 76.69
-4 -1 -2 2805.02 75.39
4 1 -2 2937.11 73.19
4 -1 2 2788.72 75.39
4 -1 2 2717.33 73.89
-4 -1 -2 2832.22 76.89
-4 1 2 2860.51 75.69
-4 1 2 2947.41 75.59
4 -1 2 2804.72 75.39
4 1 -2 2846.02 75.39
4 -1 -2 2838.32 75.59
-4 1 -2 2822.82 77.49
4 -1 -2 2662.13 75.09
4 1 2 2688.83 73.39
-4 -1 2 2750.82 73.19
4 -1 -2 2748.02 75.09
4 -1 -2 2689.13 72.79
-4 1 -2 2744.33 77.29
4 1 2 2730.23 76.19
-4 -1 2 2864.81 73.09
-4 1 -2 2815.22 75.49
-5 1 2 212.28 9.8
5 -1 2 213.38 9.8
-5 -1 -2 200.78 10.5
5 -1 2 200.98 9.7
5 1 -2 210.98 6.2
5 1 -2 210.48 8
-5 -1 -2 206.18 10
5 1 -2 211.68 9.6
-5 1 2 205.78 9.9
5 -1 2 201.68 8.3
-5 -1 -2 211.48 10.6
5 -1 2 213.18 11.2
5 1 2 199.38 7.9
5 -1 -2 183.98 9.3
-5 -1 2 205.78 8.2
5 1 2 194.88 9.7
-5 1 -2 184.48 9.7
-5 1 -2 211.98 11.3
5 -1 -2 188.28 9.4
-5 -1 2 214.58 8
-5 1 -2 203.58 11
5 -1 -2 219.08 9.9
5 1 2 189.18 10
5 -1 -2 194.18 7.4
-6 1 2 855.91 27.4
-6 -1 -2 847.62 28.2
6 1 -2 768.52 26.6
6 -1 2 801.32 27
6 -1 2 818.72 25.1
-6 -1 -2 797.62 27.2
6 1 -2 808.22 22.8
6 1 -2 830.32 28.9
-6 -1 -2 836.42 28.3
-6 1 2 802.92 26.7
6 -1 -2 823.12 27.3
6 1 2 822.12 24.6
-6 -1 2 843.92 25.2
-6 -1 2 841.62 27.4
-6 1 -2 869.41 27.7
6 -1 -2 874.51 24.1
-6 -1 2 833.02 24.7
6 -1 -2 832.72 27.2
-6 1 -2 846.52 29
-6 1 -2 867.41 29.8
6 1 2 799.42 27.2
7 1 -2 50.79 6.4
-7 -1 -2 43.9 6
-7 -1 -2 43.4 6.6
-7 1 2 45.2 5.6
-7 1 2 49.9 6.9
7 -1 2 52.09 5.2
7 -1 2 34.8 5.8
7 1 2 42.6 4.5
7 -1 -2 35 5.9
-7 1 -2 41.3 6.5
-7 1 -2 32.4 6.1
-7 -1 2 42.1 6.6
7 1 2 38.5 5.9
-7 -1 2 46.8 5
-7 -1 2 39.6 4.6
7 -1 -2 45.9 6.3
8 -1 2 11.1 4.8
8 -1 2 4.9 3.1
8 1 -2 6.2 2.2
8 1 -2 20.2 5.5
-8 -1 -2 15.3 5.5
-8 1 2 9.8 5.2
-8 1 -2 18.9 5.2
8 1 2 11.5 3.3
-8 -1 2 11.8 3.2
-8 -1 2 17.6 5.8
8 -1 -2 13.5 3
8 -1 -2 6.6 4.3
-9 1 2 3.9 5.4
9 1 -2 13.5 3
9 1 -2 5.6 4.1
9 -1 2 12.1 5.7
-9 -1 -2 4.9 5.4
9 -1 2 6.4 3.6
9 -1 -2 14.5 5.5
9 -1 -2 18.4 3.7
9 1 2 13.5 3.8
-9 1 -2 20.5 6.5
-9 -1 2 13.4 5.2
-10 -1 -2 120.59 12.5
10 -1 2 112.29 9.1
10 1 -2 123.29 12.3
10 1 -2 111.29 7.5
-10 1 2 119.09 12.6
-10 -1 2 102.39 11.7
10 -1 -2 133.49 11.8
10 1 2 126.29 8.9
10 -1 -2 105.09 8.1
-10 1 -2 125.59 13
-11 -1 -2 30.3 8.6
11 1 -2 25.8 5
11 1 -2 27.9 8
11 -1 2 33.8 6.2
-11 1 2 36.1 8.9
11 1 2 28 5.5
-11 1 -2 22.4 7.9
11 -1 -2 43.9 8.8
-11 -1 2 24.3 7.9
11 -1 -2 27.1 5.5
12 1 -2 1.8 3.6
-12 -1 -2 6.3 7.5
12 1 -2 0.7 6.5
12 -1 2 2.6 4.5
-12 1 2 16.8 7.9
-12 1 -2 -3.9 6.7
12 -1 -2 10.5 4.7
-12 -1 2 11.4 7.6
12 1 2 5.3 4.6
12 -1 -2 -5.7 5.5
-13 -1 -2 1.1 7.8
13 1 -2 8.2 4.6
13 -1 2 0.2 4.9
-13 1 2 3.5 7.6
-13 -1 2 10.6 8.4
13 1 2 12.4 5.6
-13 1 -2 12.9 8.5
13 -1 -2 8 4.9
13 -1 -2 5 7.1
0 2 2 339.77 11.7
0 2 2 350.46 12
0 -2 2 347.27 11.4
0 -2 2 359.36 11.5
0 2 -2 346.97 11.4
0 -2 -2 350.46 11.8
0 -2 -2 333.87 11.9
1 2 -2 6472.45 171.58
-1 2 2 6691.83 168.68
1 -2 2 6459.65 168.58
-1 -2 -2 6635.64 168.58
-1 -2 -2 6714.13 168.28
1 2 -2 6753.72 171.48
1 -2 2 6292.27 168.58
-1 2 2 6562.54 168.28
-1 2 -2 6381.66 168.58
1 2 2 6519.65 168.38
-1 -2 2 6191.18 169.08
1 -2 -2 6747.42 168.38
-1 2 -2 6144.29 168.38
-1 -2 2 6229.28 170.38
1 -2 -2 6468.65 168.48
2 2 -2 2040 52.49
-2 2 2 2014.7 55.59
2 2 -2 2021.4 52.49
2 -2 2 2052.29 56.69
-2 2 2 1992.1 55.79
-2 -2 -2 2025.3 55.89
2 -2 2 2032.3 56.69
-2 -2 2 2028.9 52.69
-2 2 -2 2050.29 56.69
2 2 2 2041 55.69
-2 2 -2 2074.59 56.59
-2 -2 2 2052.19 52.59
2 -2 -2 2025.5 55.59
3 -2 2 1044.7 31.7
3 -2 2 1059.39 31.8
-3 2 2 1061.09 30.7
-3 -2 -2 1035.5 30.6
-3 2 2 997.9 30.2
3 2 2 963.7 29.9
-3 2 -2 953.6 31.2
3 2 2 995 30
-3 2 -2 1004.3 31.5
3 -2 -2 1023.7 30.2
4 -2 2 227.58 8.8
4 -2 2 234.18 11.6
-4 -2 -2 222.68 9.4
4 -2 2 226.08 9.5
-4 2 2 226.58 10.6
-4 -2 -2 227.18 10.6
-4 2 2 210.78 10.2
4 -2 2 222.18 9.5
4 2 -2 223.08 6.8
-4 2 -2 233.98 11.4
-4 2 -2 235.88 9.8
-4 2 -2 248.38 11.8
4 2 2 228.68 8.1
4 -2 -2 231.48 9.6
4 -2 -2 231.38 8.2
-4 -2 2 236.18 6.8
4 -2 -2 237.68 9.7
4 2 2 233.38 10.2
4 -2 -2 236.28 10.6
-5 2 2 1679.83 49.4
5 -2 2 1718.13 47.1
-5 2 2 1721.23 49.8
-5 -2 -2 1680.53 48.5
-5 -2 -2 1665.73 49.6
5 -2 2 1664.23 48.4
5 2 -2 1615.14 48
5 -2 2 1651.43 48.5
5 -2 -2 1717.33 48.6
-5 2 -2 1690.43 50.99
5 -2 -2 1669.23 48.4
-5 2 -2 1745.73 51.49
-5 -2 2 1729.03 45
-5 -2 2 1818.52 48.9
5 2 2 1654.03 48.9
5 2 2 1682.93 46.1
-5 2 -2 1731.03 48.7
5 -2 -2 1760.42 49.9
5 -2 -2 1727.13 46.3
6 -2 2 198.58 9.2
6 -2 2 220.18 11
6 2 -2 197.98 6.5
6 -2 2 222.28 11
6 2 -2 194.28 10.3
-6 2 2 205.48 11.2
-6 -2 -2 218.08 11.2
-6 2 2 185.98 11.1
6 2 -2 205.48 6.6
-6 -2 -2 196.28 11.2
-6 -2 -2 219.78 11.4
-6 2 -2 209.58 12.2
-6 -2 2 214.28 11.1
6 -2 -2 209.88 10.7
-6 -2 2 208.58 7.7
6 -2 -2 211.88 8.6
6 2 2 203.98 8.5
-6 2 -2 211.18 11.2
6 -2 -2 217.08 10.5
7 2 -2 118.29 8
7 -2 2 100.59 8
7 -2 2 110.39 7.2
7 -2 2 109.49 8.7
-7 -2 -2 107.19 8.3
7 2 -2 108.39 4.7
-7 -2 -2 110.69 9.1
-7 2 2 115.59 9
7 2 2 88.59 6
7 -2 -2 83.69 7.3
-7 -2 2 98.79 7.9
7 -2 -2 86.49 8.6
-7 -2 2 106.09 5.5
-7 2 -2 103.19 9.3
-7 2 -2 103.99 9.5
8 2 -2 218.08 13.1
8 -2 2 228.38 13.5
-8 2 2 237.68 14.2
8 2 -2 215.38 8.7
-8 -2 -2 235.68 13.7
8 -2 2 238.98 11.5
8 -2 -2 254.67 13.7
-8 -2 2 247.98 9.6
-8 2 -2 257.87 14.3
8 -2 -2 266.07 10.9
-8 -2 2 261.27 14.2
8 -2 -2 250.47 13.8
8 2 2 227.28 10.4
9 2 -2 3.1 2.3
-9 2 2 4.9 4.5
9 -2 2 4.3 3.8
-9 -2 -2 3.7 5.7
9 2 -2 2.1 4.8
9 -2 2 7.4 5.3
9 2 2 6.8 3.3
9 -2 -2 14.6 4.8
-9 2 -2 0.6 5.3
-9 -2 2 1.3 5.3
9 -2 -2 3.6 2.9
10 2 -2 164.88 13
-10 -2 -2 173.38 14
10 -2 2 190.48 11.3
10 2 -2 165.88 8.8
-10 2 2 181.78 14.4
10 -2 2 182.08 13.8
-10 -2 2 167.28 13.5
10 2 2 164.28 10
-10 2 -2 189.08 14.4
10 -2 -2 165.98 10.3
10 -2 -2 191.48 13.8
-11 2 2 66.89 10.9
11 -2 2 51.99 7.7
11 2 -2 48 5.8
-11 -2 -2 47.9 9.7
11 2 -2 53.19 9.6
11 -2 -2 40.4 8.9
11 -2 -2 53.99 7.2
-11 -2 2 43.4 9.4
11 2 2 44.6 6.5
-11 2 -2 49.1 9.7
12 -2 2 35.7 6.9
12 2 -2 44.5 9.7
12 2 -2 41.2 6
-12 2 2 38.9 9.8
-12 -2 -2 46.2 9.2
12 -2 -2 61.49 8.1
12 2 2 52.69 7.4
12 -2 -2 41.6 9.6
-12 -2 2 35.9 9.3
-12 2 -2 49 10.4
-13 -2 -2 47.9 11.2
-13 2 2 47.8 11.1
13 -2 2 54.29 8.9
13 2 -2 55.49 7.4
13 2 2 79.09 9.2
13 -2 -2 34.7 10.3
-13 2 -2 50.09 11.2
13 -2 -2 66.49 8.9
-13 -2 2 35 10.2
0 3 2 2652.93 73.79
0 3 -2 2833.32 73.59
0 -3 -2 2630.64 74.09
0 -3 -2 2701.83 73.79
0 3 2 2759.32 74.29
0 -3 2 2849.11 73.49
0 -3 2 2753.22 73.59
-1 -3 -2 1040.3 31.2
1 -3 2 1118.99 31.7
-1 3 2 1015.2 31.4
1 3 -2 1097.69 29.8
-1 -3 -2 1052.49 30.8
1 3 -2 1092.29 29.7
1 -3 2 1056.19 31.6
-1 3 2 1084.09 31.5
-1 -3 2 1055.99 29.6
-1 -3 2 1072.09 29.7
1 -3 -2 1031 31.5
1 -3 -2 1040.2 31.1
-1 3 -2 1055.29 31.6
-1 3 -2 1011.4 31.2
1 3 2 1044.8 31.2
1 3 2 964.7 30.6
-2 3 2 974.9 29.2
2 3 -2 971.6 26.1
2 -3 2 984.6 29.7
2 3 -2 1012 26.3
-2 3 2 1029.9 29.7
-2 -3 -2 1098.59 29.4
-2 -3 -2 1000.5 28.5
2 -3 2 955.5 29.8
2 -3 -2 906.11 28.8
-2 3 -2 854.91 29
-2 -3 2 883.81 25.9
-2 3 -2 826.92 29
-2 -3 2 905.61 26.2
2 -3 -2 878.21 29
2 3 2 891.51 28.3
-3 3 2 726.03 24.5
3 3 -2 745.13 20.3
-3 3 2 701.23 24.1
3 -3 2 766.42 25.3
3 -3 2 733.13 25.3
-3 -3 -2 726.23 23.9
3 -3 -2 715.23 24.4
3 3 2 728.53 23.4
-3 -3 2 761.62 20.5
-3 3 -2 745.43 25.2
3 -3 -2 768.22 24.3
3 3 2 706.03 21
-3 3 -2 801.42 25.7
3 -3 -2 741.43 21.6
-3 -3 2 743.73 20.2
-4 3 2 730.93 24.9
4 -3 2 685.53 25.5
-4 3 2 695.03 24.4
4 -3 2 707.53 22.4
4 3 -2 715.53 19.5
4 -3 2 730.73 22.1
-4 -3 -2 725.83 24.1
-4 -3 -2 715.73 22.6
4 -3 2 704.53 22.6
4 -3 -2 740.43 21.5
-4 -3 2 741.73 19.6
4 -3 -2 722.23 22.8
4 3 2 732.63 23.5
-4 3 -2 756.82 25.9
-4 3 -2 710.33 25.6
-4 -3 2 747.03 19.5
-4 3 -2 741.43 22.8
4 3 2 723.43 21
4 -3 -2 729.53 22.5
-5 -3 -2 620.94 20.1
-5 3 2 589.34 21.7
5 -3 2 597.24 19.9
5 -3 2 616.64 23.2
-5 3 2 600.84 21.9
5 -3 2 583.14 19.7
5 3 -2 602.64 19.5
5 -3 2 582.64 18.8
-5 -3 -2 560.54 20.7
-5 -3 2 544.75 15.7
-5 -3 2 565.14 15.7
-5 -3 2 574.24 19.6
-5 3 -2 566.54 22.5
-5 3 -2 537.35 19.6
5 3 2 560.34 17.5
5 -3 -2 554.14 19.5
5 -3 -2 567.54 18.1
5 -3 -2 562.84 19.7
5 -3 -2 557.34 21.5
-5 3 -2 589.94 22.6
5 3 2 547.35 19.9
-6 -3 -2 1200.68 37.1
6 -3 2 1183.68 36.4
-6 -3 -2 1186.58 36.4
6 3 -2 1203.48 36.1
-6 3 2 1153.78 38
6 -3 2 1194.58 36.7
6 3 -2 1179.28 30.8
6 -3 2 1123.09 34.7
-6 3 -2 1193.18 39.4
6 -3 -2 1114.99 36
6 -3 -2 1182.88 36.5
6 3 2 1182.18 33.5
-6 -3 2 1158.18 31.4
-6 -3 2 1206.28 36.3
-6 -3 2 1174.08 31.5
-6 3 -2 1186.78 36.6
6 -3 -2 1194.78 34.2
7 3 -2 1048.4 28.6
7 3 -2 1038.6 33.9
-7 -3 -2 1034.7 34.1
-7 -3 -2 1010.5 34.1
7 -3 2 1047.8 34.5
-7 3 2 1034.8 35.5
7 -3 2 1095.79 32.6
7 -3 2 1032.3 34.2
-7 -3 2 1064.89 28.7
7 -3 -2 1063.89 34.5
-7 3 -2 1058.59 37.2
-7 -3 2 1050.29 28.5
-7 -3 2 1021 33.9
7 -3 -2 1090.69 34.5
7 3 2 1075.09 30.9
-7 3 -2 1055.39 34.5
-8 3 2 163.08 12.1
-8 -3 -2 158.18 11.5
8 -3 2 145.09 9.2
8 3 -2 154.98 10.9
8 -3 2 152.28 11.2
8 3 -2 161.98 6.6
8 -3 2 167.08 11.3
-8 3 -2 167.88 11.9
-8 -3 2 143.99 5.7
8 -3 -2 147.29 8.5
-8 -3 2 157.38 6
-8 -3 2 145.19 11
8 3 2 142.39 8
8 -3 -2 167.88 11
8 -3 -2 153.98 11.1
9 3 -2 400.86 13.6
9 -3 2 421.26 19.5
-9 -3 -2 391.76 19.3
9 3 -2 365.86 18.4
9 -3 2 425.36 17.2
-9 3 2 397.16 19.2
-9 3 -2 376.16 19.2
9 -3 -2 412.96 19.5
9 3 2 388.96 15.4
-9 -3 2 384.36 18.9
9 -3 -2 380.76 15.8
9 -3 -2 397.86 18.6
10 3 -2 75.69 6.1
10 -3 2 91.89 9
-10 3 2 94.69 12
10 -3 2 90.39 10.9
-10 -3 -2 95.29 11.6
10 3 -2 89.59 10.7
10 -3 -2 95.39 11.3
10 3 2 77.19 7.4
-10 3 -2 93.79 11.4
10 -3 -2 84.49 8.1
-10 -3 2 91.09 11.1
11 3 -2 251.47 11.4
-11 3 2 246.58 17.6
11 3 -2 242.18 16.5
-11 -3 -2 211.68 16.4
11 -3 2 253.57 14.4
-11 3 -2 234.08 16.9
11 -3 -2 236.48 13.2
-11 -3 2 215.18 15.9
11 -3 -2 214.28 16.2
11 3 2 240.78 12.9
-12 3 2 19.2 8.8
12 -3 2 11.6 5.5
12 3 -2 8.7 4
-12 -3 -2 15.4 8
-12 -3 2 15.6 8.2
12 -3 -2 0 6.4
12 -3 -2 12.7 5.2
-12 3 -2 19.1 8.2
12 3 2 10.4 4.9
-13 3 2 53.29 11.6
-13 -3 -2 47.4 11
13 3 -2 51.89 7
13 -3 2 54.19 9.1
13 -3 -2 44.1 10.8
13 3 2 48.4 7.6
13 -3 -2 58.09 8.7
-13 -3 2 31.2 9.8
-13 3 -2 31.9 10.3
0 4 2 4549.94 119.29
0 -4 -2 4478.65 119.29
0 4 -2 4481.85 118.39
0 -4 -2 4676.53 119.09
0 -4 2 4476.25 118.49
0 4 2 4495.55 118.89
0 4 -2 4070.79 117.79
0 -4 2 4452.35 118.19
1 4 -2 3852.61 101.09
-1 4 2 3952.2 103.59
-1 -4 -2 3880.41 102.69
1 -4 2 3822.02 102.59
1 4 -2 3933.11 100.99
-1 -4 -2 3811.92 101.99
1 -4 2 3958.5 103.29
-1 4 2 3731.43 102.59
-1 -4 2 3769.02 100.79
1 -4 -2 3693.93 102.89
1 -4 -2 3844.82 102.69
-1 -4 2 3697.83 100.99
1 4 2 3769.72 102.09
-1 4 -2 3792.72 102.69
-1 4 -2 3755.12 102.49
1 4 2 3704.53 102.29
-2 4 2 2129.39 59.69
-2 -4 -2 2103.09 58.99
2 4 -2 2118.79 56.59
2 -4 2 2078.69 60.09
-2 4 2 2069.29 59.79
-2 -4 -2 2068.19 58.19
2 -4 2 2157.58 60.09
2 4 -2 2097.19 56.39
2 -4 -2 2126.19 59.49
2 4 2 2050.69 55.99
-2 -4 2 2076.19 56.29
2 4 2 2097.69 58.59
2 -4 -2 2127.99 60.09
-2 4 -2 2001.1 59.59
-2 4 -2 2040.2 59.79
-2 -4 2 2117.19 56.79
-3 -4 -2 1738.93 50.39
3 -4 2 1742.03 51.99
3 -4 2 1816.12 49.9
-3 4 2 1697.93 51.09
-3 -4 -2 1789.82 49.8
3 4 -2 1736.83 45.2
-3 4 2 1742.23 51.59
3 -4 2 1745.43 52.19
3 -4 -2 1706.73 47.6
3 -4 -2 1698.63 48.3
3 4 2 1761.22 47.1
-3 -4 2 1736.63 46.9
-3 -4 2 1805.12 47.5
-3 4 -2 1731.33 51.99
-3 4 -2 1682.73 51.89
3 -4 -2 1795.52 51.79
3 -4 -2 1709.73 51.49
-4 4 2 618.64 22.7
-4 -4 -2 606.54 20.7
-4 -4 -2 610.84 19.6
4 -4 2 622.14 23.7
-4 4 2 598.44 22.3
4 -4 2 603.14 19.2
-4 -4 -2 582.84 21.2
4 -4 2 613.34 19.7
4 4 -2 603.14 17.5
4 -4 2 607.44 19.4
-4 -4 2 596.34 17.7
4 -4 -2 569.04 18.7
-4 -4 2 624.84 17.4
-4 4 -2 602.84 23.2
4 -4 -2 606.34 22.7
4 4 2 585.14 18.1
-4 4 -2 607.54 19.6
4 -4 -2 590.14 19.4
4 -4 -2 563.34 19.6
-4 4 -2 563.54 22.7
4 4 2 606.74 20.7
-5 4 2 2072.89 64.19
5 4 -2 2135.49 60.49
-5 -4 -2 2160.88 60.99
5 -4 2 2122.19 61.19
-5 4 2 2167.98 64.19
5 -4 2 2156.58 60.99
5 -4 2 2276.17 60.59
-5 -4 -2 2107.99 62.39
5 -4 -2 2187.18 61.09
5 -4 -2 2191.08 61.49
-5 -4 2 2230.68 57.39
5 -4 -2 2194.38 59.79
-5 -4 2 2280.67 60.89
-5 -4 2 2226.38 57.19
-5 4 -2 2262.87 65.59
-5 4 -2 2150.78 65.49
5 4 2 2293.17 62.49
5 4 2 2137.39 58.79
-5 4 -2 2187.38 61.19
6 4 -2 1144.49 29.6
6 4 -2 1152.38 34.8
-6 4 2 1081.89 37.6
-6 -4 -2 1106.89 35.8
6 -4 2 1146.59 35.6
6 -4 2 1175.28 34.2
6 -4 2 1139.29 35.2
6 4 -2 1127.69 29.7
-6 -4 -2 1133.69 35.2
-6 4 -2 1157.48 35.5
-6 -4 2 1126.29 29.7
-6 -4 2 1119.79 29.7
6 -4 -2 1107.09 33.3
-6 4 -2 1095.99 38.7
6 -4 -2 1132.29 35.5
-6 -4 2 1101.39 34.7
6 -4 -2 1097.89 35
6 4 2 1122.39 32.3
7 -4 2 596.64 22.6
-7 4 2 608.54 24.6
-7 -4 -2 603.04 22.3
7 -4 2 590.94 20.9
-7 -4 -2 551.54 21.7
7 4 -2 614.94 22.3
7 4 -2 615.94 17
7 -4 2 613.34 22.5
7 4 2 592.54 19.3
-7 4 -2 586.14 22.5
-7 4 -2 550.84 24.8
7 -4 -2 574.74 22
7 -4 -2 600.04 22.6
-7 -4 2 576.04 21.9
8 -4 2 870.31 30.3
-8 -4 -2 832.42 29.6
8 -4 2 819.02 30.1
-8 4 2 829.72 30.6
8 4 -2 796.32 23.8
8 4 -2 797.52 29.2
8 -4 2 832.02 28.1
-8 4 -2 827.02 30
8 4 2 845.22 26.2
8 -4 -2 886.71 30.4
-8 -4 2 828.12 29.5
8 -4 -2 804.02 27
8 -4 -2 906.01 30.8
-9 4 2 -1.3 5.9
9 4 -2 15.9 5.6
9 4 -2 10.6 2.5
9 -4 2 5.2 5.1
9 -4 2 1.7 4.7
-9 -4 -2 3.9 5.8
9 -4 2 9.6 4.6
9 -4 -2 10.1 5.4
9 -4 -2 17.7 6.2
9 -4 -2 10.6 3.9
-9 4 -2 7.8 5.8
-9 -4 2 10.3 5.4
9 4 2 4.1 3.2
10 -4 2 327.87 15.9
10 4 -2 304.07 17.1
-10 4 2 300.87 18.3
10 -4 2 317.87 17.7
-10 -4 -2 309.47 18
10 4 -2 300.87 11.8
10 -4 -2 282.87 17.3
-10 4 -2 287.87 17.5
-10 -4 2 310.37 17.3
10 -4 -2 305.07 17.5
10 -4 -2 285.77 14.5
10 4 2 295.77 13.6
-11 -4 -2 31.7 8.6
-11 4 2 17.7 8.3
11 -4 2 32.5 8.3
11 4 -2 33.5 4.7
11 -4 2 26.3 6.4
-11 -4 2 27 7.9
11 -4 -2 27.8 6
-11 4 -2 23.2 7.3
11 4 2 21.9 5.2
11 -4 -2 33.1 8.6
-12 4 2 130.19 14.5
-12 -4 -2 162.58 16.2
12 4 -2 137.79 9.3
12 -4 2 146.39 12.6
12 4 2 146.69 10.9
12 -4 -2 137.79 11.5
-12 4 -2 145.39 15.7
-12 -4 2 152.78 15.6
12 -4 -2 140.79 15.1
13 -4 2 21.8 7.2
13 4 -2 19.4 5.2
-13 -4 -2 4.1 8
-13 4 2 19.1 8.9
13 4 2 25.6 6.3
13 -4 -2 21.9 6.6
-13 -4 2 9.6 8.4
-13 4 -2 16.8 9.1
13 -4 -2 18.7 8.4
0 5 2 698.73 23.8
0 5 -2 669.83 23
0 -5 -2 699.03 23.5
0 5 -2 670.23 23
0 -5 2 684.73 23.3
0 -5 2 683.63 22.9
0 5 -2 676.33 21.5
0 5 2 685.33 23.9
0 -5 -2 693.43 24.1
-1 -5 -2 1123.89 35.5
-1 5 2 1171.28 36.9
1 5 -2 1180.78 32.3
1 -5 2 1183.68 36.7
-1 -5 -2 1166.98 36.3
-1 -5 -2 1127.39 34.4
1 5 -2 1171.48 34.8
1 -5 2 1144.79 36.1
-1 5 2 1144.69 36.4
-1 -5 2 1206.28 34.8
1 5 2 1177.58 36.1
-1 5 -2 1195.58 36.6
1 -5 -2 1167.08 36.9
1 5 2 1145.79 35.7
1 -5 -2 1164.08 36.3
1 -5 -2 1134.69 33.5
-1 5 -2 1215.78 36.5
1 5 2 1145.89 33
-1 -5 2 1192.68 35.2
-2 5 2 1508.25 45.4
-2 5 2 1461.75 45.5
2 5 -2 1489.55 40
-2 -5 -2 1507.85 44.6
2 5 -2 1539.25 42.3
-2 -5 -2 1439.76 43
-2 -5 -2 1527.05 43.9
2 -5 2 1457.45 45.5
2 -5 2 1609.04 46
-2 5 -2 1532.15 45.9
-2 5 -2 1389.76 45
-2 -5 2 1446.96 42
2 -5 -2 1434.56 44.7
-2 -5 2 1480.25 42.6
2 5 2 1463.35 41.1
2 -5 -2 1448.56 45.4
2 -5 -2 1499.45 42
-3 5 2 1284.57 41
-3 5 2 1263.77 41.2
-3 -5 -2 1299.07 39
-3 -5 -2 1273.37 39.8
3 -5 2 1295.27 41.9
3 -5 2 1270.27 37
3 5 -2 1236.98 34.8
3 -5 2 1278.37 41.3
3 5 -2 1329.37 37
3 5 2 1289.37 36.4
-3 5 -2 1277.27 41.3
-3 -5 2 1324.27 36.9
3 -5 -2 1360.46 41.8
3 -5 -2 1337.27 37
3 -5 -2 1338.07 36.8
3 -5 -2 1292.17 37.5
-3 5 -2 1313.77 41.7
-3 -5 2 1309.27 37.4
4 5 -2 2053.79 55.89
-4 -5 -2 2083.29 58.89
4 -5 2 2069.19 59.19
-4 5 2 2027.2 62.99
4 -5 2 2072.69 58.59
-4 -5 -2 2132.69 60.69
-4 5 2 2179.68 64.09
4 -5 2 2055.79 58.89
-4 -5 -2 2054.29 61.49
4 -5 2 2183.08 64.79
4 -5 -2 2132.49 58.69
4 -5 -2 2118.59 58.99
-4 -5 2 2138.89 58.19
4 -5 -2 2258.87 64.29
-4 5 -2 2209.78 64.29
-4 5 -2 2234.48 64.69
4 -5 -2 2188.58 59.89
-4 -5 2 2222.28 57.59
-4 5 -2 2226.38 59.09
4 5 2 2139.39 57.89
-5 -5 -2 659.13 23.8
5 -5 2 681.63 21.9
-5 -5 -2 692.63 23.2
5 5 -2 667.13 21.6
5 5 -2 682.83 18.2
-5 -5 -2 682.63 22.3
5 -5 2 700.33 22.2
-5 5 2 689.63 26
5 -5 2 645.54 22.2
5 5 -2 684.43 18
5 -5 -2 613.34 21.2
-5 -5 2 614.14 19.5
5 -5 -2 640.24 22.5
5 -5 -2 642.94 22
5 5 2 624.74 20.1
-5 -5 2 621.04 19.1
-5 5 -2 638.84 26.2
-5 5 -2 615.44 21.9
-5 -5 2 648.44 21.5
6 5 -2 215.98 10.9
6 -5 2 218.48 11
-6 5 2 229.18 14.5
6 5 -2 239.98 7.6
6 -5 2 221.18 11.6
-6 -5 -2 251.07 12.1
6 -5 2 213.18 11.1
-6 -5 -2 226.18 12.4
6 5 2 229.08 9.6
6 -5 -2 222.48 10.3
6 -5 -2 217.28 11.4
-6 -5 2 223.78 7.5
6 -5 -2 223.38 11.8
-6 5 -2 233.68 14.8
-6 -5 2 230.08 7.7
-6 -5 2 247.18 11.5
-6 5 -2 233.98 11.9
7 -5 2 552.64 20.3
7 5 -2 520.55 20.4
-7 -5 -2 505.05 20.7
-7 5 2 525.45 23.9
7 5 -2 515.15 15.9
7 -5 2 568.74 21.7
-7 -5 -2 547.35 22.5
7 -5 2 524.25 20.8
-7 -5 2 568.24 20.9
7 5 2 578.54 18.4
-7 5 -2 552.14 21.1
7 -5 -2 561.24 21.7
-7 5 -2 541.05 24.9
7 -5 -2 532.75 21.1
8 5 -2 71.99 8.4
-8 -5 -2 83.09 9.3
-8 5 2 80.29 9.7
8 -5 2 86.49 8.8
8 -5 2 71.09 7.5
8 5 -2 76.39 4.6
8 -5 2 80.79 9.4
-8 -5 2 68.09 8.3
8 -5 -2 73.09 8.6
8 5 2 69.49 6.3
8 -5 -2 61.49 8.5
8 -5 -2 61.19 6.7
-8 5 -2 59.29 8.2
9 5 -2 151.08 7.4
-9 -5 -2 161.38 12.6
9 -5 2 174.98 12.5
-9 5 2 162.98 13.2
9 -5 2 156.68 12.3
9 -5 2 168.88 11.4
9 -5 -2 153.28 10.2
9 5 2 175.88 9.4
9 -5 -2 175.18 12.8
-9 5 -2 170.28 12.8
9 -5 -2 182.78 12.6
-9 -5 2 168.78 12.2
-10 -5 -2 39.4 8.7
-10 5 2 39.4 8.7
10 -5 2 41 7
10 -5 2 24.2 7
10 -5 2 42.4 8.5
10 5 -2 38.4 4.5
-10 -5 2 53.99 8.8
10 -5 -2 31.6 6
10 -5 -2 30.1 7.8
-10 5 -2 38.7 8.4
10 5 2 34.3 5.3
10 -5 -2 46.8 8.4
11 -5 2 204.78 13.6
11 -5 2 147.29 15
11 5 -2 173.58 9.3
-11 -5 -2 180.18 15
-11 5 2 160.08 16.2
-11 -5 2 171.18 14.2
11 -5 -2 165.58 12.2
-11 5 -2 148.39 14.9
11 -5 -2 170.78 14.6
11 5 2 169.28 10.8
11 -5 -2 155.88 14.1
12 -5 2 2.4 5.4
-12 5 2 -0.4 7.2
12 5 -2 7.4 3.8
-12 -5 -2 9.1 8.1
12 5 2 9.3 4.7
12 -5 -2 -4.7 4.4
-12 -5 2 3.4 7
-12 5 -2 0.5 6.7
12 -5 -2 7.3 7.5
0 -6 -2 467.85 18.5
0 -6 2 492.75 18.7
0 -6 -2 459.85 16.6
0 -6 -2 436.76 18.8
0 6 2 448.06 15.8
0 -6 2 464.05 18
0 6 -2 478.05 18.3
0 6 2 473.75 19.2
0 6 2 447.36 18.5
0 6 -2 453.95 15.2
1 -6 2 1235.98 37.4
1 6 -2 1131.19 35.4
1 6 -2 1120.89 32.6
-1 -6 -2 1211.58 37.3
1 -6 2 1161.08 37.4
1 -6 2 1200.48 33.5
-1 6 2 1153.18 37.6
-1 6 2 1196.78 37.6
-1 -6 -2 1175.68 36.5
-1 -6 -2 1172.78 35
-1 6 -2 1099.09 36.8
-1 6 -2 1172.98 40.5
-1 -6 2 1143.39 35.9
-1 6 -2 1124.09 33.2
1 -6 -2 1098.79 36.7
1 -6 -2 1105.89 33.8
-1 -6 2 1153.78 35.5
1 -6 -2 1138.79 37.6
1 6 2 1147.89 33.4
1 6 2 1114.59 36.3
-1 -6 2 1132.09 35.8
2 6 -2 729.63 24.5
2 -6 2 776.72 27.4
-2 -6 -2 740.93 25.7
2 6 -2 724.93 22.1
-2 6 2 761.72 27.5
-2 -6 -2 753.42 25.3
2 -6 2 744.73 23.1
-2 6 2 760.02 27.7
-2 -6 -2 736.03 26.5
2 -6 2 699.33 27.3
-2 6 -2 776.12 27.7
2 -6 -2 774.62 23.9
-2 -6 2 791.12 24.7
2 -6 -2 753.82 27.8
2 6 2 751.12 23.1
-2 6 -2 769.02 27.5
-2 -6 2 743.73 25
2 -6 -2 736.83 26.9
-2 -6 2 788.42 24.7
-3 -6 -2 245.38 12.2
3 -6 2 260.17 10.7
-3 6 2 256.67 14.4
3 6 -2 254.57 11.1
-3 -6 -2 251.37 13.1
-3 6 2 234.68 14.1
3 -6 2 244.68 13.9
3 -6 2 252.67 14.7
3 6 -2 241.68 9.2
-3 -6 -2 247.18 12.9
3 -6 -2 271.57 10.3
3 -6 -2 288.57 15.3
3 6 2 259.97 10.5
3 -6 -2 264.37 10.8
-3 6 -2 281.17 14.9
-3 -6 2 270.27 11.8
-3 -6 2 265.67 11.1
-3 6 -2 263.07 14.5
3 -6 -2 259.87 11.2
-4 6 2 332.37 19.7
4 -6 2 288.27 12.3
4 -6 2 294.97 12.2
4 6 -2 311.57 10.2
-4 -6 -2 292.37 12.2
4 -6 2 314.97 11.7
-4 6 2 301.27 16.1
-4 -6 -2 284.47 14.4
4 -6 2 309.57 16.8
-4 -6 -2 284.17 13.4
4 6 2 321.57 11.7
-4 6 -2 288.47 16.1
4 -6 -2 282.37 11.7
-4 6 -2 286.77 16.2
-4 -6 2 282.47 12.2
-4 -6 2 279.87 11.4
-4 6 -2 284.37 11.8
4 -6 -2 279.77 12.5
4 -6 -2 289.97 12
5 -6 2 87.99 6.8
-5 -6 -2 113.69 8.4
5 6 -2 87.49 4.9
-5 -6 -2 90.09 8.6
5 -6 2 87.59 6.8
5 -6 2 82.09 6.9
-5 6 2 94.39 10
-5 -6 2 97.39 6.6
-5 -6 2 100.09 6.5
5 -6 -2 101.19 7.6
5 6 2 101.79 6.5
5 -6 -2 115.89 7.4
5 -6 -2 111.59 7.2
-5 -6 2 102.19 5.7
-5 6 -2 112.19 8
-5 6 -2 112.79 11
-6 -6 -2 241.88 13
6 -6 2 223.08 11.4
6 -6 2 246.28 11.6
6 -6 2 248.78 12.1
-6 -6 -2 227.58 11.8
6 6 -2 253.57 8.3
-6 6 2 237.98 15.1
-6 -6 2 209.48 8.1
6 -6 -2 201.48 11.1
6 6 2 188.48 9.4
-6 -6 2 203.08 8.4
-6 6 -2 189.38 11.1
-6 6 -2 185.88 14.5
6 -6 -2 203.78 11.6
-6 -6 2 202.48 10.9
-7 -6 -2 178.48 11.4
7 6 -2 181.98 7.5
7 -6 2 190.28 10.8
7 -6 2 186.68 11.3
7 -6 2 181.58 11.5
-7 6 2 215.98 17.2
7 -6 -2 187.28 11.8
7 -6 -2 197.38 10.6
7 6 2 184.78 9.3
7 -6 -2 197.88 11.6
-7 -6 2 180.18 11.2
-7 6 -2 182.68 14.8
-7 6 -2 211.18 12.2
8 -6 2 358.96 17.7
8 6 -2 347.97 12.3
8 -6 2 381.26 16.8
-8 -6 -2 343.67 17.6
8 -6 2 369.76 17.4
-8 6 2 338.07 17.8
8 6 2 364.86 14.4
-8 6 -2 384.46 17.9
8 -6 -2 357.56 15.9
8 -6 -2 386.46 18.1
-8 -6 2 377.56 17
8 -6 -2 368.66 17.5
-9 -6 -2 67.09 9.5
9 -6 2 64.69 8
-9 6 2 59.39 9.4
9 6 -2 72.09 5.4
9 -6 2 72.49 9.3
9 -6 2 72.09 9.7
9 -6 -2 78.19 10
9 -6 -2 70.89 7.9
9 6 2 84.29 7.3
-9 6 -2 84.49 10.6
-9 -6 2 77.09 9.4
9 -6 -2 80.89 9.8
10 -6 2 112.89 12.6
-10 6 2 129.59 13.8
10 -6 2 122.59 12.6
10 -6 2 115.99 11.1
-10 -6 -2 149.09 13.1
10 6 -2 126.49 7.4
10 6 2 127.79 9
10 -6 -2 147.69 14.5
-10 6 -2 110.59 12.4
10 -6 -2 126.29 13
-10 -6 2 107.29 11.8
10 -6 -2 123.39 10.3
11 -6 2 -2.2 4.6
-11 -6 -2 0 7.4
11 -6 2 1.1 6
-11 6 2 -5 6.3
11 6 -2 6.7 3.4
11 -6 -2 8.2 5.1
11 6 2 3.2 4.1
-11 6 -2 6.5 7.1
-11 -6 2 5.8 6.4
11 -6 -2 5.2 6.4
11 -6 -2 8.3 6.3
12 -6 2 138.19 13.7
-12 -6 -2 140.39 15.6
-12 6 2 127.09 15.5
12 6 -2 136.99 9.1
-12 6 -2 134.59 15.2
-12 -6 2 156.98 15.5
12 -6 -2 175.78 13.5
12 6 2 154.48 11.2
12 -6 -2 147.19 15.6
0 -7 2 327.97 15
0 -7 -2 303.27 15.1
0 -7 2 321.47 15.5
0 7 2 306.37 15.4
0 7 -2 319.57 15.1
0 -7 -2 323.67 16.2
0 7 2 331.07 12.9
0 -7 2 313.57 12.5
0 -7 -2 303.17 13.3
0 7 -2 321.47 12.3
-1 -7 -2 158.78 10.3
-1 7 2 167.78 8.8
1 -7 2 167.18 8.2
1 -7 2 164.98 11.4
-1 -7 -2 158.98 11.3
-1 -7 -2 162.38 9.6
1 -7 2 157.48 10.5
1 7 -2 169.98 8.1
-1 7 2 163.28 11.4
-1 -7 2 165.68 10.6
1 -7 -2 181.18 12.1
1 -7 -2 181.68 11.3
-1 -7 2 169.28 9.9
-1 7 -2 169.48 11.2
1 7 2 168.48 10.8
-1 7 -2 174.08 8.6
1 -7 -2 167.58 9.1
1 7 2 176.18 8.7
-1 -7 2 172.98 9.4
2 7 -2 699.03 25.2
2 -7 2 701.73 26.7
2 -7 2 702.23 27.3
2 -7 2 710.83 22.3
-2 -7 -2 661.53 25
-2 -7 -2 683.83 25.9
2 7 -2 682.03 21.4
-2 -7 -2 691.83 24.7
-2 7 2 720.63 27.4
-2 7 2 691.93 27.2
2 -7 -2 747.13 28
-2 7 -2 688.73 22.6
2 7 2 675.53 22.3
-2 7 -2 679.53 26.8
-2 -7 2 671.03 23.9
2 -7 -2 690.73 26.6
-2 -7 2 703.83 24.8
-2 -7 2 715.73 23.8
2 -7 -2 697.43 23
-3 7 2 419.36 20.1
3 7 -2 384.96 14.2
-3 7 2 415.66 20.4
3 -7 2 416.16 19.8
3 -7 2 412.36 20.4
-3 -7 -2 406.46 18.7
3 -7 2 405.76 15.5
-3 -7 -2 379.46 17.8
-3 -7 2 430.96 17.3
3 -7 -2 428.36 16.3
3 7 2 434.96 15.5
-3 -7 2 421.96 16.4
3 -7 -2 465.85 21.2
3 -7 -2 436.36 15.7
-3 7 -2 432.46 21
-3 7 -2 449.46 20.6
-3 -7 2 440.06 17.5
3 -7 -2 456.65 15
-4 -7 -2 535.35 22.2
4 -7 2 540.35 19.4
4 7 -2 531.95 17.2
-4 -7 -2 555.24 19.6
-4 -7 -2 554.34 22.3
4 -7 2 534.15 18.1
-4 7 2 578.44 24.6
4 -7 2 536.75 19.4
4 -7 -2 527.85 19.7
-4 -7 2 542.65 19.1
-4 -7 2 516.55 19.7
-4 7 -2 527.05 18.5
4 7 2 564.34 18.7
4 -7 -2 553.74 18.7
4 -7 -2 549.95 19.3
-4 7 -2 573.64 24.8
-5 7 2 509.15 23.7
5 -7 2 496.85 18.2
5 -7 2 490.75 19
5 -7 2 529.65 19.2
-5 -7 -2 499.85 18.8
5 7 -2 514.95 16.2
-5 -7 -2 491.25 21.2
5 -7 -2 507.65 18.5
5 -7 -2 495.05 19.3
5 7 2 519.95 17.7
-5 -7 2 515.85 18.6
-5 7 -2 508.25 24.1
-5 7 -2 512.25 18.6
6 -7 2 218.78 11.4
6 -7 2 217.08 11.8
-6 -7 -2 201.58 11.6
6 -7 2 205.88 11.4
6 7 -2 203.68 8.5
-6 7 2 206.98 15.2
-6 -7 2 205.48 9.5
-6 7 -2 200.38 11.8
6 7 2 213.98 10.2
6 -7 -2 201.88 11.9
6 -7 -2 205.98 11.2
-6 7 -2 178.38 14.8
7 -7 2 1042.6 33.7
7 -7 2 1029.1 33.9
7 -7 2 1039.3 34.7
-7 -7 -2 979.9 33.6
7 7 -2 1002.7 29.1
7 -7 -2 995.6 33.8
-7 7 -2 1006 34
7 7 2 1006.1 31.1
-7 7 -2 995.5 39.6
7 -7 -2 1064.39 33.4
7 -7 -2 974.5 34.4
8 7 -2 25.3 3.6
8 -7 2 18.9 6
-8 -7 -2 21.5 6.9
8 -7 2 31 6.3
8 -7 2 28.2 6.6
-8 7 2 23 6.8
8 -7 -2 34.3 6.9
8 -7 -2 25.2 6.1
-8 7 -2 20.9 6.9
8 7 2 25.7 4.7
8 -7 -2 24.7 5.3
9 -7 2 443.56 20.8
-9 -7 -2 451.85 21.3
9 7 -2 441.66 15.6
9 -7 2 451.85 20.1
9 -7 2 457.95 22
-9 7 2 427.76 21.6
9 7 2 460.55 17.7
9 -7 -2 458.75 21.7
-9 7 -2 464.75 21.5
9 -7 -2 484.75 21.5
9 -7 -2 449.95 19.6
-10 -7 -2 26.4 8.1
10 -7 2 45.4 8
10 -7 2 37.2 8.4
10 -7 2 51.69 9.1
-10 7 2 46.9 9.5
10 7 -2 42.6 5
10 7 2 43.2 6.2
10 -7 -2 43 8.4
10 -7 -2 40.5 7.1
10 -7 -2 44.2 8.9
-10 7 -2 40.5 8.6
11 7 -2 326.57 13.7
-11 7 2 356.26 21.3
11 -7 2 347.47 20.1
11 -7 2 321.17 20.1
11 -7 2 321.57 18.6
-11 -7 -2 331.27 21
11 -7 -2 368.46 18.7
11 -7 -2 346.47 21.4
-11 7 -2 316.97 19.9
11 -7 -2 327.87 19.8
11 7 2 346.37 16
12 7 -2 4 3.7
-12 -7 -2 4.7 9.1
12 -7 2 10.7 6.4
-12 7 2 -5.3 7.5
12 7 2 8.4 5
12 -7 -2 1.7 6.4
12 -7 -2 10.2 6.2
12 -7 -2 1.3 6.4
-12 7 -2 -5.4 7.9
0 -8 2 16.3 4.3
0 -8 -2 24.3 5.5
0 8 -2 18.5 4.1
0 8 2 21.2 4.6
0 -8 -2 24.2 6.3
0 -8 2 17.1 5.5
-1 -8 -2 325.47 17.3
1 -8 2 342.57 17.9
1 -8 2 335.27 13.6
-1 8 2 330.57 17.7
-1 -8 -2 310.17 15.2
1 8 -2 333.17 13.5
-1 8 2 340.47 14.3
1 -8 -2 398.06 15
-1 8 -2 351.86 14
-1 -8 2 373.46 15.2
1 -8 -2 337.77 17.2
1 -8 -2 369.46 18.7
-1 -8 2 337.67 16.9
1 8 2 347.27 14.1
-2 8 2 202.88 14.1
2 8 -2 211.88 9.9
-2 8 2 223.38 10.8
2 -8 2 194.68 10.2
2 -8 2 209.98 14.4
-2 -8 -2 208.68 13.6
-2 -8 -2 205.98 12.8
-2 -8 2 206.48 12.5
2 8 2 199.38 10.5
2 -8 -2 200.58 14.4
2 -8 -2 203.78 9.6
-2 -8 2 212.68 12
2 -8 -2 225.38 13.6
2 -8 -2 192.88 10.6
-2 8 -2 230.58 11
-3 -8 -2 50.89 8.5
-3 8 2 50.59 8.5
-3 -8 -2 43.1 7.3
3 -8 2 55.19 9
3 8 -2 41.5 4.8
3 -8 2 42.8 5.4
3 -8 -2 38.3 5.7
3 8 2 42.5 5.4
-3 8 -2 35.4 7.8
3 -8 -2 49.99 5.6
-3 -8 2 39.5 7.2
-3 -8 2 36.3 6.1
-3 8 -2 40.5 5.5
3 -8 -2 45.8 4.5
-4 -8 -2 342.57 17.6
4 -8 2 323.47 14.1
-4 -8 -2 314.27 17
4 8 -2 330.27 12.7
-4 8 2 346.27 19.4
-4 -8 2 344.87 15.6
4 8 2 343.47 14.1
-4 8 -2 323.87 19.1
4 -8 -2 348.47 15
4 -8 -2 342.57 13.4
-4 -8 2 322.47 16.3
-5 -8 -2 96.19 11.6
5 -8 2 80.59 7.8
5 8 -2 87.49 6.4
-5 -8 -2 93.49 9.9
5 -8 2 80.79 6.8
-5 8 2 97.99 12
5 -8 2 95.19 8.6
5 8 2 85.59 7.5
-5 -8 2 86.49 7.8
5 -8 -2 90.39 8.1
5 -8 -2 91.59 7
-5 8 -2 70.99 10.7
-6 8 2 1204.98 44.8
6 8 -2 1233.88 34.9
6 -8 2 1179.78 38.3
6 -8 2 1223.38 39
6 -8 2 1230.98 37.7
6 -8 -2 1194.88 39.2
6 8 2 1192.58 36.4
6 -8 -2 1204.38 38.1
-6 8 -2 1185.48 45.4
-6 8 -2 1266.47 41
6 -8 -2 1186.78 38.1
7 -8 2 23 5.6
7 8 -2 18.4 3.6
7 -8 2 20.5 5.3
7 -8 2 17.3 5
-7 8 -2 18.9 5.8
7 8 2 27.1 5
7 -8 -2 18.7 5.7
7 -8 -2 29.4 6.5
7 -8 -2 23.2 5.3
8 -8 2 1023.3 35.1
8 -8 2 1037.8 36.1
8 -8 2 1052.09 35.2
8 8 -2 989.7 30.2
-8 8 2 977.1 35.9
8 -8 -2 1036.8 34.5
8 -8 -2 1039.9 35.5
8 -8 -2 1024 36.3
-8 8 -2 977 35
8 8 2 1010.5 32.1
9 -8 2 67.49 9.4
-9 8 2 63.89 10.1
9 -8 2 75.29 10
9 -8 2 69.59 8.9
9 8 -2 67.09 5.9
9 -8 -2 80.99 9.3
9 8 2 64.69 7.2
9 -8 -2 63.59 9.2
-9 8 -2 54.29 8.9
9 -8 -2 68.19 10
-10 8 2 317.97 19.4
10 8 -2 312.77 13.2
10 -8 2 349.07 19.5
10 -8 2 292.47 17.5
10 -8 2 326.67 18.3
10 -8 -2 309.97 18.9
10 8 2 320.67 15
-10 8 -2 305.57 18.4
10 -8 -2 332.37 17.6
10 -8 -2 297.07 18
11 -8 2 15.8 6.8
11 -8 2 23.3 8.3
-11 8 2 13.3 8
11 8 -2 18 4.3
-11 8 -2 18.7 7.8
11 -8 -2 15.6 7.5
11 8 2 19.4 5.5
11 -8 -2 17.1 6.5
11 -8 -2 18.6 7.5
0 9 -2 93.89 7.8
0 9 2 94.99 8.3
0 -9 2 83.79 9.8
0 -9 -2 77.09 8.3
0 -9 2 99.29 7.9
0 -9 -2 91.99 10.6
1 -9 2 199.38 14.4
-1 9 2 221.08 11.7
1 9 -2 194.38 10.1
1 -9 2 205.78 10.4
-1 -9 -2 197.68 14.4
-1 -9 -2 199.58 12.3
-1 -9 2 197.68 11.8
-1 -9 2 186.08 13.3
1 -9 -2 187.08 11
-1 9 -2 186.48 10.4
1 9 2 177.48 10.4
1 -9 -2 164.28 13.7
2 -9 2 129.09 12.5
-2 9 2 125.99 9.4
-2 -9 -2 103.19 10.8
2 -9 2 137.59 8.6
-2 -9 -2 134.59 11.5
2 9 -2 134.09 8.6
2 9 2 142.69 9.1
2 -9 -2 146.59 13.2
2 -9 -2 138.19 9.4
-2 -9 2 136.89 11.2
-2 9 -2 138.49 9
-2 -9 2 139.29 10.6
3 9 -2 49.4 5.7
-3 -9 -2 39.3 8.5
3 -9 2 49.3 6.3
-3 -9 -2 38.8 7.6
3 -9 2 53.79 11.1
-3 -9 2 44.9 7
3 9 2 45.7 6.3
-3 -9 2 48 8.2
3 -9 -2 37.5 6.1
4 -9 2 38.7 5.9
-4 -9 -2 51.09 9.5
-4 -9 -2 42.5 7.8
4 9 -2 44 5.4
4 -9 -2 39.9 6.4
-4 -9 2 32.9 8.7
4 9 2 36.3 5.7
-4 -9 2 33.8 6.9
-5 9 2 337.77 24.2
5 9 -2 324.77 13.3
-5 -9 -2 316.37 18.6
5 -9 2 343.97 15.6
5 -9 -2 346.27 15.6
5 -9 -2 342.17 14.3
-5 -9 2 321.27 17.6
5 9 2 346.37 14.7
5 -9 -2 366.46 16.4
6 -9 2 -1.1 3.6
6 9 -2 8.4 3.6
-6 9 2 0.9 6.4
-6 -9 -2 11.7 7.9
6 -9 -2 8.3 4.8
-6 -9 2 12.8 7.3
6 -9 -2 8.9 4.4
6 -9 -2 8.3 4.5
6 9 2 11.8 4.3
7 -9 2 679.53 26.3
7 9 -2 704.43 22.3
7 9 2 658.83 23.6
7 -9 -2 686.43 25.6
7 -9 -2 668.13 26.6
7 -9 -2 655.13 25.2
8 -9 2 49.99 8.2
-8 9 2 37.9 8
8 9 -2 40.8 5.1
8 -9 -2 49.2 7.7
8 -9 -2 39 7.1
8 -9 -2 38.6 7.8
8 9 2 35 5.7
9 -9 2 203.88 14.8
9 9 -2 216.98 10.9
-9 9 2 214.78 16.3
9 -9 -2 220.68 15.1
9 9 2 229.98 12.5
9 -9 -2 240.68 15.9
9 -9 -2 243.78 15
-10 9 2 7.5 7.2
10 -9 2 13 6.7
10 9 -2 15.9 4.3
10 -9 2 27.3 10.8
10 -9 -2 14.8 6.7
10 -9 -2 14.4 6.4
10 9 2 12.8 4.9
10 -9 -2 6.9 6.7
11 -9 2 127.29 15
-11 9 2 110.49 14.2
11 9 -2 129.69 8.9
11 -9 -2 108.39 13.5
11 -9 -2 144.69 16.2
11 -9 -2 118.39 12.4
11 9 2 121.69 10.7
0 10 -2 39.9 6
0 -10 -2 38.6 8.5
0 -10 2 39.5 6.4
0 -10 -2 41.5 7.3
0 10 2 46.7 6.8
0 -10 2 39.1 8.2
-1 -10 -2 925.41 31.8
1 -10 2 878.71 35.6
-1 10 2 889.01 30.3
1 10 -2 856.61 29.3
1 -10 2 908.11 29.8
-1 -10 -2 887.01 35.1
-1 -10 2 948.11 34.9
-1 -10 2 894.61 30.3
1 10 2 939.21 30.5
1 -10 -2 907.91 36.2
-1 10 -2 950.1 30.5
1 -10 -2 916.41 30.8
-2 -10 -2 212.98 15.1
-2 -10 -2 193.98 14
2 -10 2 188.78 10.9
2 10 -2 213.98 11.4
2 -10 2 200.48 15.9
-2 -10 2 203.18 13.5
-2 10 -2 192.08 11.4
2 10 2 185.98 11.8
-2 -10 2 190.28 14
2 -10 -2 208.18 12
-3 -10 -2 215.38 15.4
3 10 -2 236.78 11.7
3 -10 2 210.58 11.8
-3 -10 -2 214.88 23
3 -10 -2 231.68 12.8
-3 -10 2 250.97 14.7
3 10 2 241.58 12.5
4 10 -2 28.1 5.2
4 -10 2 33 5.8
-4 -10 -2 26.3 8.6
4 -10 -2 32.5 6.4
-4 -10 2 39.3 8.5
4 10 2 19.1 5.1
-5 -10 -2 47.7 10
5 10 -2 52.29 6
5 -10 2 44.3 6.9
5 -10 -2 46.2 7.1
-5 -10 2 37.1 8.8
5 10 2 47.3 6.7
-6 -10 -2 271.67 18.6
6 10 -2 279.97 12.5
6 -10 2 270.87 14.6
-6 -10 2 260.57 17.3
6 -10 -2 261.37 14.9
6 10 2 258.27 13.4
7 10 -2 29.3 5
7 -10 2 42.2 7.5
-7 -10 -2 32.7 10.2
-7 -10 2 27.6 9.1
7 -10 -2 23.3 6.6
7 10 2 29.4 5.8
8 10 -2 103.69 8.2
-8 -10 -2 95.39 14.3
8 -10 2 114.19 12.3
-8 -10 2 105.59 13.8
8 10 2 100.89 9.2
8 -10 -2 113.29 12.3
9 -10 2 21.6 7.2
9 10 -2 11.6 4.4
9 -10 -2 17.6 7.2
9 10 2 20.8 5.6
10 -10 2 78.19 11.5
10 10 -2 57.09 6.8
10 10 2 71.49 8.5
10 -10 -2 76.49 11.6
11 -10 2 10 6.7
11 10 -2 15.8 4.7
11 -10 -2 7.8 8.1
11 10 2 9.4 5.6
0 -11 -2 1647.94 49.8
0 -11 2 1534.65 48.2
0 11 -2 1648.64 48.7
0 -11 2 1612.04 55.09
0 -11 -2 1581.44 55.39
0 11 2 1599.34 49.1
1 -11 2 201.08 16
-1 11 2 195.08 12.2
1 -11 2 180.18 11.6
-1 -11 -2 209.58 13.6
-1 -11 -2 177.68 15
1 11 -2 200.58 11.9
-1 -11 2 198.68 12.2
1 11 2 195.98 12.6
-1 11 -2 180.68 12
1 -11 -2 189.08 16.2
1 -11 -2 180.58 12.1
2 11 -2 1024.8 33.4
2 -11 2 1012.8 33.6
2 -11 2 1058.79 42.5
-2 -11 -2 1033.2 36.2
-2 11 -2 1046.2 34.5
2 -11 -2 1034.2 34.7
-2 -11 2 1004.3 34.7
2 11 2 1044.7 34.4
-3 -11 -2 123.79 13
3 11 -2 121.39 9.3
3 -11 2 122.19 9.8
3 -11 -2 135.49 10.4
-3 -11 2 125.89 12
3 11 2 127.19 10.4
4 -11 2 285.27 14.6
-4 -11 -2 265.47 17.7
4 11 -2 277.27 13.6
4 11 2 290.57 14.6
4 -11 -2 245.28 14.3
-4 -11 2 302.77 18.1
5 11 -2 151.78 10
5 -11 2 154.08 10.8
-5 -11 -2 121.29 14.4
5 -11 -2 157.78 11.4
5 11 2 152.08 11
-5 -11 2 144.29 14.3
-6 -11 -2 251.57 18.9
6 11 -2 264.27 13.2
6 -11 2 268.37 15
6 11 2 302.27 14.9
-6 -11 2 255.07 18.1
6 -11 -2 280.67 15.7
7 11 -2 115.89 9
-7 -11 -2 111.39 14.8
7 -11 2 101.09 11.3
7 -11 -2 102.09 11.5
7 11 2 104.19 9.7
-7 -11 2 89.69 13.9
-8 -11 -2 42.3 11.9
8 11 -2 38.8 6
8 -11 2 40.3 8.3
8 11 2 40.6 7.1
8 -11 -2 58.89 9.8
-8 -11 2 47.5 11.7
9 11 -2 15.2 5
9 -11 2 23.5 7.8
-9 -11 -2 22 10.8
-9 -11 2 14.3 9.9
9 -11 -2 16.9 7.3
9 11 2 27.8 6.4
10 -11 2 6.8 6.5
-10 -11 -2 6.3 10.7
10 11 -2 4.6 4.5
10 -11 -2 -0.1 6.1
10 11 2 -1.8 4.5
-10 -11 2 13.4 10.1
0 12 2 -2.8 4.6
0 -12 -2 5.6 6.2
0 12 -2 0.4 4.5
0 -12 2 5.5 5.3
1 12 -2 527.25 21.1
-1 -12 -2 558.24 23
1 -12 2 510.35 20.7
-1 -12 2 525.85 21.7
1 12 2 526.35 21.9
-1 12 -2 466.25 21.1
1 -12 -2 488.35 21.4
-2 -12 -2 132.69 12.9
2 -12 2 142.79 10.2
2 12 -2 160.68 11.2
2 12 2 157.08 11.3
-2 -12 2 131.69 11.5
2 -12 -2 139.89 10.9
3 12 -2 112.99 9.8
-3 -12 -2 110.39 12.7
3 -12 2 105.49 9.1
3 12 2 119.69 10.5
-3 -12 2 118.59 12
3 -12 -2 105.29 10.7
-4 -12 -2 157.48 15.3
4 -12 2 142.99 10.5
4 12 -2 148.99 10.6
4 12 2 141.99 10.8
4 -12 -2 125.09 10.8
-4 -12 2 138.09 14.2
-5 -12 -2 320.97 20.9
5 12 -2 378.66 16.8
5 -12 2 357.06 17.6
5 12 2 403.76 18.2
5 -12 -2 369.36 18.4
-5 -12 2 365.56 20.7
6 -12 2 191.78 12.9
-6 -12 -2 173.58 17.7
6 12 -2 157.88 11
6 -12 -2 188.98 13.2
6 12 2 152.98 12
-6 -12 2 138.39 15.7
-7 -12 -2 63.69 13.1
7 12 -2 68.69 7.9
7 -12 2 78.79 10.6
-7 -12 2 67.89 12.8
7 12 2 73.89 9.1
7 -12 -2 98.49 11.6
8 -12 2 9 6.1
8 12 -2 15.7 5.3
-8 -12 -2 -1.1 9.9
8 12 2 12.2 5.6
-8 -12 2 29.1 11.7
8 -12 -2 19.1 7.2
-9 -12 -2 -5 9.5
9 12 -2 3.5 4.8
9 -12 2 3.4 6.5
9 -12 -2 2.3 6
9 12 2 0.2 5.2
-9 -12 2 18.1 11.6
0 -13 2 205.38 13.1
0 13 2 203.18 14
0 13 -2 196.38 13.3
0 -13 -2 202.18 13.6
1 13 -2 4.7 4.7
1 -13 2 -0.1 4.1
-1 -13 -2 -0.9 5.2
-1 13 -2 -6.1 4
1 13 2 -5.4 5
-1 -13 2 6.3 5.1
1 -13 -2 7.2 5.6
2 13 -2 134.39 11
-2 -13 -2 133.59 13.4
2 -13 2 140.79 10.9
2 -13 -2 109.99 11.4
2 13 2 104.39 10.8
-2 -13 2 120.89 11.9
3 -13 2 84.89 9.7
3 13 -2 90.19 9.6
-3 -13 -2 74.99 11.3
3 -13 -2 88.19 10.3
3 13 2 84.29 9.8
-3 -13 2 94.99 11
4 13 -2 242.78 14.1
4 -13 2 223.68 13.7
-4 -13 -2 199.58 16.9
4 13 2 251.57 15.2
4 -13 -2 267.27 15.4
5 -13 2 100.29 10.8
-5 -13 -2 99.69 14
5 13 -2 91.09 9.5
5 -13 -2 112.19 11.7
-5 -13 2 96.09 12.9
5 13 2 89.69 10.2
-6 -13 -2 194.08 19
6 13 -2 179.98 12.6
6 -13 2 171.18 13.1
-6 -13 2 179.38 17.6
6 -13 -2 206.28 14.4
6 13 2 193.78 14
-7 -13 -2 25.9 11.9
7 13 -2 25.9 6.4
7 -13 2 31.4 7.8
-7 -13 2 20.8 10.4
7 13 2 31.1 7.4
7 -13 -2 22.6 8
-8 -13 -2 29.6 11.8
8 -13 2 34.4 8.3
8 13 -2 26.4 6.4
8 -13 -2 37.9 9.1
8 13 2 25.4 6.9
-8 -13 2 22 12.1
9 13 -2 44.3 7.3
9 -13 2 60.69 10.7
-9 -13 -2 45.5 13.9
-9 -13 2 45.4 13.3
9 -13 -2 54.39 11
9 13 2 45.2 8.2
0 14 -2 5.7 6
0 -14 2 12.7 5.9
0 -14 -2 12.1 5.9
1 -14 2 285.57 16
-1 -14 -2 299.07 17.3
1 14 -2 288.47 16.1
-1 -14 2 298.77 16.8
1 -14 -2 286.77 16.6
2 14 -2 7.4 5.7
2 -14 2 20.9 6.5
-2 -14 -2 9.8 6.6
2 -14 -2 10.4 6
2 14 2 8.6 6.5
-2 -14 2 16.4 6.7
3 14 -2 148.69 12.4
-3 -14 -2 177.78 15.1
3 -14 2 140.99 12
3 14 2 153.98 13.2
3 -14 -2 147.99 12.3
-3 -14 2 140.79 14.3
4 14 -2 28.7 6.9
-4 -14 -2 24.2 9.3
4 -14 2 32.7 7.6
4 14 2 23.6 7.5
-4 -14 2 38.5 9.1
4 -14 -2 31.1 7.9
5 -14 2 208.68 14.2
5 14 -2 202.08 13.9
-5 -14 -2 221.18 18.8
5 -14 -2 222.28 15.2
5 14 2 226.48 15.2
-5 -14 2 198.08 18.5
6 -14 2 14.5 7
-6 -14 -2 9 11.1
6 14 -2 20.4 6.3
6 14 2 8.4 6.4
6 -14 -2 7.4 6.2
-6 -14 2 5.5 9.2
7 14 -2 47.6 8
-7 -14 -2 46.1 12.8
7 -14 2 43 9.2
7 14 2 35.1 8.1
7 -14 -2 50.49 9.9
-7 -14 2 26.8 11.2
8 14 -2 5 5.7
8 -14 2 10.6 6.9
-8 -14 -2 21.7 13
8 -14 -2 7.8 6.7
-8 -14 2 -8 10.1
8 14 2 -0.2 5.9
0 -15 2 635.54 26.2
0 15 -2 644.04 27.2
0 -15 -2 602.54 26.8
-1 -15 -2 38.5 8.9
1 -15 2 31.9 7.3
1 15 -2 31.8 8.1
1 -15 -2 49.99 9.3
1 15 2 33.5 8.2
-1 -15 2 58.99 9
-2 -15 -2 349.77 20.8
2 -15 2 332.67 17.8
2 15 -2 346.47 19
2 -15 -2 349.37 19.1
-2 -15 2 351.16 19.3
2 15 2 336.37 19.6
3 -15 2 62.29 9.8
3 15 -2 37.5 8.3
-3 -15 -2 43 10.2
-3 -15 2 48.8 9.5
3 -15 -2 53.39 9.7
3 15 2 57.79 9.6
4 15 -2 204.88 14.7
-4 -15 -2 196.68 17.4
4 -15 2 207.58 14.4
4 -15 -2 208.38 15.2
4 15 2 216.68 15.9
5 15 -2 5.4 6.1
-5 -15 -2 -3.6 8.5
5 -15 2 4.1 5.9
5 -15 -2 8.6 6.4
-5 -15 2 2 7.5
5 15 2 2.8 6.2
6 -15 2 79.79 11.2
-6 -15 -2 70.29 13.9
6 15 -2 58.49 9.3
-6 -15 2 70.39 13
6 -15 -2 73.39 11
6 15 2 77.19 10.7
7 -15 2 6.7 6.7
7 15 -2 4.2 5.9
-7 -15 -2 11.5 10.9
7 15 2 5.8 6.7
-7 -15 2 6.5 15.6
7 -15 -2 21.5 7.5
0 -16 -2 21.2 8.2
0 -16 2 5.7 6.6
1 16 -2 392.16 21.7
-1 -16 -2 414.66 21.9
1 -16 2 370.06 19.6
1 -16 -2 409.16 22
2 16 -2 27.5 8.2
2 -16 2 14.3 6.3
-2 -16 -2 28.2 8.8
2 16 2 15.8 7.9
-2 -16 2 39.2 9.9
2 -16 -2 37 9.1
-3 -16 -2 229.88 17.6
3 -16 2 237.78 16
3 16 -2 210.18 16
3 -16 -2 235.48 16.3
3 16 2 230.18 17.2
-3 -16 2 212.48 26.8
4 16 -2 14.5 7.3
4 -16 2 8.1 5.7
-4 -16 -2 9.5 8.8
4 -16 -2 18.2 7.2
4 16 2 11.3 7
5 16 -2 63.49 10.1
-5 -16 -2 60.29 13
5 -16 2 78.39 10.8
5 -16 -2 87.79 12.2
5 16 2 61.39 10.3
0 -17 -2 123.09 14.3
1 17 -2 -0.9 6.7
-1 -17 -2 8.2 6.9
1 -17 -2 26.4 7.8
2 17 -2 93.89 12.6
-2 -17 -2 118.19 14.2
2 -17 -2 113.59 13.4
2 17 2 110.99 13.7
3 17 -2 32.4 8.7
-3 -17 -2 42.5 10.1
3 -17 -2 43.7 9.5
3 17 2 28.6 9.3
0 0 3 1.2 1
0 0 -3 2.1 1.1
0 0 -3 0.6 0.9
0 0 3 1.4 1
-1 0 3 155.88 6
-1 0 -3 153.78 6.9
1 0 -3 162.08 6
1 0 3 162.48 7.1
1 0 3 159.58 7
-1 0 -3 152.68 7
-2 0 -3 1458.45 41.3
2 0 3 1453.55 41.3
2 0 -3 1461.15 38.8
-2 0 3 1426.96 38.8
2 0 3 1479.65 41.3
-2 0 -3 1447.96 41.4
2 0 -3 1415.06 38.6
-2 0 3 1438.66 38.7
3 0 -3 94.19 4.3
3 0 3 87.39 6.2
-3 0 3 91.39 4.5
3 0 -3 89.49 4.5
-3 0 3 90.69 4.5
-3 0 -3 89.69 6.7
-3 0 -3 90.69 6.5
-4 0 3 1237.48 33.5
-4 0 -3 1233.78 37.3
4 0 -3 1198.08 31.5
-4 0 -3 1220.18 34.9
4 0 -3 1230.98 33.6
4 0 3 1153.28 33.4
-4 0 -3 1225.98 37.1
4 0 -3 1178.38 34.5
4 0 -3 1176.58 34.8
-4 0 3 1168.48 33.5
5 0 -3 3.5 2.5
5 0 -3 0.9 2
-5 0 -3 1.8 2.8
5 0 -3 4.1 1.2
-5 0 3 2.1 1.9
5 0 -3 2.3 2.4
5 0 3 1.9 1.9
5 0 3 2.2 2.7
-5 0 -3 3.5 3.2
-5 0 -3 -2.9 2.8
-5 0 3 0.3 1.8
6 0 -3 488.85 16.8
-6 0 -3 502.35 18.5
-6 0 -3 511.65 20.2
-6 0 3 492.95 16.6
-6 0 -3 478.15 26.9
6 0 -3 485.25 14.5
-6 0 3 471.65 16.8
6 0 3 476.65 16.4
6 0 -3 504.15 18.2
7 0 -3 33.7 5.2
-7 0 -3 34.4 6.2
7 0 3 33.3 4.5
-7 0 3 35.3 4.4
-7 0 -3 29.5 5.8
7 0 -3 28.3 3
-7 0 3 37.8 4.7
8 0 3 301.27 13
-8 0 3 302.97 15.8
8 0 -3 304.77 15.3
-8 0 3 304.87 13.2
-8 0 -3 307.97 15.8
-9 0 3 205.68 13.9
9 0 -3 206.38 9.2
9 0 -3 221.28 13.5
-9 0 -3 196.58 13.7
9 0 3 194.08 10.8
-10 0 3 232.08 15.8
10 0 -3 242.08 15.3
-10 0 -3 251.87 16.1
10 0 3 243.28 12.7
10 0 -3 239.08 11
11 0 -3 50.69 9.3
11 0 -3 56.29 6.4
-11 0 -3 51.89 10
-11 0 3 54.89 10
11 0 3 50.89 7.2
-12 0 -3 82.89 12.4
12 0 3 77.69 9.3
-12 0 3 76.99 11.7
12 0 -3 72.59 11.7
12 0 -3 84.49 8.2
-13 0 -3 22 9.6
-13 0 3 29.5 10
13 0 -3 27.8 9.6
13 0 3 23.7 6.8
13 0 -3 20.1 5.6
0 1 -3 398.76 12.9
0 -1 3 402.46 13
0 -1 3 400.46 12.9
0 1 3 409.36 13.4
0 -1 -3 416.86 13.5
-1 -1 -3 81.69 5.1
1 -1 3 79.39 4.9
-1 1 3 76.89 4.3
1 -1 3 78.99 5
1 1 -3 79.59 3.7
-1 1 3 79.59 4.6
1 1 -3 72.09 3.5
1 -1 -3 87.69 4.5
-1 -1 3 89.59 3.8
1 1 3 89.49 5
-1 -1 3 80.89 3.7
-1 1 -3 92.89 5.2
1 1 3 89.29 5.1
-1 1 -3 91.29 5.2
2 1 -3 402.16 11.2
2 -1 3 398.16 14.8
2 -1 3 366.66 14.5
-2 1 3 396.56 13.2
-2 -1 -3 382.56 14.5
2 1 -3 409.46 11.3
-2 -1 -3 414.36 14.7
-2 1 3 397.76 13.4
-2 1 -3 432.06 15
2 -1 -3 408.96 13.4
-2 -1 3 413.96 11.3
2 1 3 449.26 14.8
-2 1 -3 402.86 14.9
2 1 3 363.36 14
-2 -1 3 423.76 11.3
2 -1 -3 420.96 13.2
-3 -1 -3 4087.49 110.99
3 -1 3 4221.38 111.89
3 1 -3 4124.89 107.39
3 -1 3 4111.49 111.59
3 1 -3 4089.99 107.49
-3 -1 -3 4109.49 111.29
-3 1 3 4175.68 109.39
-3 1 3 4052.89 109.09
-3 -1 3 4094.79 107.99
3 1 3 4182.98 111.09
-3 1 -3 4133.59 111.69
3 -1 -3 4164.18 109.29
3 -1 -3 4449.65 109.29
-3 1 -3 4192.48 111.69
-4 1 3 448.06 15.2
4 -1 3 421.56 14.2
-4 -1 -3 448.96 17.2
4 1 -3 424.86 14.7
-4 -1 -3 444.36 16.9
4 1 -3 443.36 12.7
-4 -1 -3 437.96 15.4
4 -1 3 443.26 15.2
-4 1 3 415.76 15.1
4 -1 -3 419.96 15
4 -1 -3 454.15 15.4
-4 -1 3 458.05 12.7
-4 1 -3 429.96 17.3
-4 -1 3 461.65 12.8
-4 1 -3 443.76 15.2
4 -1 -3 434.46 12.9
4 -1 -3 419.46 14.9
4 1 3 441.46 14
-4 1 -3 437.46 17.3
4 1 3 457.35 16.8
5 1 -3 1145.59 29.7
-5 -1 -3 1152.98 36.3
-5 -1 -3 1188.18 36.7
-5 -1 -3 1168.28 34.7
5 -1 3 1134.59 32.9
-5 1 3 1162.28 34
5 1 -3 1173.68 31.6
-5 1 3 1120.69 34.1
5 1 -3 1140.19 34.1
5 -1 3 1084.39 34.3
5 -1 -3 1186.88 34.3
5 1 3 1169.08 36.1
5 -1 -3 1130.79 34.3
-5 1 -3 1175.78 37.2
5 1 3 1124.19 32.5
-5 1 -3 1166.28 34.6
5 -1 -3 1114.69 34.2
5 -1 -3 1127.69 31.4
-5 1 -3 1143.59 36.9
-5 -1 3 1155.98 31.4
-5 -1 3 1149.69 31.7
6 1 -3 394.66 11.8
6 1 -3 375.36 10.5
-6 1 3 357.36 14.3
-6 -1 -3 371.06 16.7
6 1 -3 387.26 15
6 -1 3 342.37 14.8
6 -1 3 353.96 13.2
-6 1 3 369.86 14.7
-6 -1 -3 366.26 15.3
-6 -1 -3 359.56 16.2
-6 1 -3 335.27 16.5
-6 -1 3 344.27 12.2
6 1 3 330.77 12.7
-6 -1 3 349.47 11.9
-6 1 -3 342.47 15
6 -1 -3 346.47 11.7
6 -1 -3 345.57 14.7
6 -1 -3 351.96 14.7
7 -1 3 420.56 15.5
7 -1 3 412.36 17.5
-7 -1 -3 397.16 17.5
-7 -1 -3 397.16 18.2
-7 1 3 381.76 16
7 1 -3 401.46 12.7
7 1 -3 377.46 16.8
7 -1 -3 415.86 17.1
-7 -1 3 436.26 14.2
7 -1 -3 442.96 14
7 -1 -3 434.46 17.7
7 1 3 399.66 14.9
-7 -1 3 421.26 14.5
-7 -1 3 413.76 17.7
-7 1 -3 455.55 18.3
-7 1 -3 429.16 19.3
-8 1 3 521.95 21.8
8 -1 3 564.74 19.7
-8 -1 -3 577.94 22.6
8 1 -3 518.55 21.5
-8 -1 3 550.44 21.9
-8 -1 3 544.05 17.9
-8 1 -3 554.84 22.4
8 1 3 530.45 18.9
8 -1 -3 510.45 21.2
9 -1 3 439.36 17.8
-9 -1 -3 463.95 21
-9 1 3 429.86 20.8
9 1 -3 439.26 15.2
9 1 -3 441.16 20.3
9 -1 -3 461.35 20.6
-9 1 -3 456.55 20.9
9 -1 -3 487.25 16.4
-9 -1 3 442.16 20.7
9 1 3 442.76 17.4
10 1 -3 190.88 9.6
10 1 -3 235.98 14.9
10 -1 3 204.18 12
-10 -1 -3 195.78 14.7
-10 1 3 189.38 13.8
10 -1 -3 225.78 10.8
10 -1 -3 222.28 14.5
-10 1 -3 219.28 15.3
10 1 3 218.98 11.9
-10 -1 3 178.18 14.2
11 1 -3 160.98 9.6
-11 1 3 149.09 15
11 -1 3 172.78 11.7
-11 -1 -3 164.78 13.5
11 1 -3 190.38 14.6
-11 1 -3 174.48 15
11 -1 -3 186.28 10.8
11 1 3 183.28 11.4
11 -1 -3 192.88 14.8
-11 -1 3 164.78 14.4
12 1 -3 44.6 6.2
-12 1 3 70.29 11.8
12 1 -3 45.9 10.2
12 -1 3 75.39 9.2
-12 -1 -3 56.29 10.9
12 1 3 63.69 8.4
-12 -1 3 54.89 10.9
12 -1 -3 61.09 7.4
12 -1 -3 63.99 11.1
-12 1 -3 50.09 9.7
13 1 -3 144.99 16.4
-13 1 3 155.88 17
13 1 -3 163.28 11
13 -1 3 157.18 13.1
-13 -1 -3 138.59 16.4
-13 -1 3 124.49 15.5
13 -1 -3 159.38 11.6
13 1 3 172.78 12.9
13 -1 -3 188.18 18.4
-13 1 -3 152.68 17
0 2 -3 60.79 4
0 -2 -3 59.59 4.7
0 2 3 63.19 4.7
0 -2 3 58.49 4.2
0 -2 -3 54.39 4.3
0 -2 3 60.79 4
-1 2 3 1210.28 35.4
1 -2 3 1221.08 36
1 -2 3 1174.38 35.8
1 2 -3 1217.98 33.8
-1 -2 -3 1238.68 36.1
1 2 -3 1218.68 33.8
-1 2 3 1223.58 35.7
-1 -2 3 1237.68 33.9
-1 2 -3 1267.17 36
-1 -2 3 1267.07 34
1 -2 -3 1283.97 35.5
-1 2 -3 1254.17 36
1 -2 -3 1270.37 35.8
1 2 3 1326.27 36.3
2 -2 3 2869.91 80.69
2 2 -3 2975.9 77.09
-2 -2 -3 3047.4 80.59
2 -2 3 2892.01 80.69
-2 2 3 2975.3 79.79
2 2 -3 2980.6 76.29
-2 2 3 2861.71 79.29
-2 -2 3 3028.2 77.89
-2 2 -3 2886.01 80.69
2 -2 -3 2989.7 79.39
-2 2 -3 2972.3 80.79
2 2 3 2932.91 79.99
-2 -2 3 3051.19 77.29
3 -2 3 725.53 25
-3 2 3 740.03 23.6
3 -2 3 739.33 25.1
-3 -2 -3 680.63 24
-3 2 3 699.63 23.2
-3 2 -3 757.52 25.1
-3 2 -3 783.72 25.3
3 2 3 748.93 22.3
3 -2 -3 801.92 23.5
3 -2 -3 727.63 23.5
3 2 3 706.03 23.6
3 2 3 744.23 23.9
3 -2 -3 752.92 21.7
4 -2 3 924.41 26.6
4 -2 3 859.21 29.9
4 -2 3 923.01 27.3
-4 -2 -3 875.71 27.2
-4 2 3 904.41 28.4
4 -2 3 890.21 27.1
4 2 -3 881.41 27
-4 2 3 889.11 28.2
-4 -2 -3 872.21 29.1
4 2 3 920.51 26
4 -2 -3 922.51 28.5
-4 2 -3 913.41 27.3
4 -2 -3 884.21 27.1
4 -2 -3 916.21 25.4
4 -2 -3 918.61 27.3
-4 2 -3 929.91 30.4
-4 2 -3 942.11 30.4
4 2 3 919.71 28.8
-5 2 3 1546.45 46
5 2 -3 1596.74 44.9
5 -2 3 1582.74 48.4
5 -2 3 1570.24 45.2
5 -2 3 1599.54 44
-5 -2 -3 1530.55 47
-5 -2 -3 1588.14 45.3
-5 2 3 1557.74 45.8
5 -2 3 1528.45 45.1
5 -2 -3 1541.35 42.7
5 2 3 1549.45 46.4
5 -2 -3 1546.65 45
5 -2 -3 1568.44 46.1
5 -2 -3 1533.55 45
-5 2 -3 1590.14 45.3
-5 2 -3 1580.24 48.4
5 2 3 1512.35 43.1
-5 2 -3 1662.73 48.7
-6 2 3 589.84 21.8
-6 2 3 593.24 21.3
6 -2 3 581.04 20.7
6 -2 3 594.64 21.1
6 2 -3 578.84 15.2
6 2 -3 572.24 15.2
6 -2 3 563.74 19.2
-6 -2 -3 644.74 25.7
-6 -2 -3 593.34 21.1
6 2 -3 590.84 20.5
-6 -2 -3 573.04 22.1
6 -2 -3 567.94 20.5
-6 2 -3 545.95 20.5
6 -2 -3 563.04 17.9
6 -2 -3 566.04 20.7
6 2 3 545.95 18.3
-6 2 -3 553.64 23
-6 -2 3 570.14 20.6
-6 -2 3 559.94 15.7
-7 -2 -3 962.7 31
7 -2 3 880.21 28.3
7 2 -3 899.51 24.6
-7 2 3 890.81 30.2
7 -2 3 947.01 30.8
7 2 -3 924.21 30.3
-7 -2 -3 913.31 31.5
-7 -2 3 898.31 24.7
-7 2 -3 861.01 32.6
-7 2 -3 886.01 30.5
7 2 3 887.81 27.5
-7 -2 3 864.81 30.3
7 -2 -3 929.91 30.6
7 -2 -3 906.01 27
7 -2 -3 928.31 30.7
-8 -2 -3 615.94 25
8 -2 3 683.53 25.3
8 -2 3 640.84 22.8
8 2 -3 628.14 24.7
8 2 -3 657.13 19.3
8 2 3 668.93 22.1
8 -2 -3 691.93 25.7
8 -2 -3 672.03 25.3
-8 2 -3 663.83 25.5
-8 -2 3 677.83 18.9
-8 -2 3 686.93 25.6
-9 2 3 347.57 18.5
-9 -2 -3 355.36 18.3
9 2 -3 349.96 12.3
9 2 -3 350.86 17.7
9 -2 3 325.47 15.3
9 -2 -3 356.66 14.2
-9 -2 3 353.36 18.2
9 -2 -3 353.66 17.8
9 2 3 353.26 14.7
-9 2 -3 391.06 18.8
9 -2 -3 357.36 18
10 -2 3 324.87 15.4
10 2 -3 294.87 17.2
-10 2 3 282.97 17.9
10 2 -3 313.57 12.2
-10 -2 -3 291.37 17.8
10 -2 -3 324.07 17.8
-10 2 -3 321.67 18.3
-10 -2 3 288.47 17.5
10 2 3 329.27 14.7
10 -2 -3 320.47 13.9
11 2 -3 201.88 10.3
11 -2 3 232.48 13.6
-11 2 3 206.88 15.1
-11 -2 -3 184.68 15.5
11 2 -3 202.68 15.3
-11 -2 3 215.38 15.8
-11 2 -3 187.58 15.6
11 2 3 212.98 12.3
11 -2 -3 200.68 14.5
11 -2 -3 213.88 12.1
12 2 -3 95.49 13
12 2 -3 114.79 8.6
-12 2 3 93.19 13.6
12 -2 3 137.99 11.6
-12 -2 -3 112.69 14
12 2 3 119.69 10.5
12 -2 -3 135.19 10.4
-12 -2 3 138.19 15
-12 2 -3 112.39 14.1
12 -2 -3 147.49 15.4
13 -2 3 29.8 7.6
13 2 -3 32.1 5.9
-13 -2 -3 44.2 10.8
-13 2 3 23.4 9.8
13 -2 -3 18.9 8.4
13 2 3 36.4 7.3
-13 -2 3 36.8 10.3
-13 2 -3 25.4 10.1
13 -2 -3 39.9 7.2
0 -3 -3 3863.71 102.49
0 -3 -3 3698.53 101.79
0 3 3 3704.53 102.29
0 -3 3 3955.2 101.59
0 3 -3 3852.41 101.49
0 3 3 3844.82 102.09
0 -3 3 3850.71 101.49
1 -3 3 1567.34 45.7
-1 3 3 1590.04 45.6
-1 -3 -3 1566.94 45.4
1 3 -3 1610.34 43.9
-1 3 3 1543.65 45.8
-1 -3 -3 1560.14 45.8
1 -3 3 1583.64 45.9
1 3 -3 1563.94 43.6
-1 -3 3 1647.44 43.9
1 -3 -3 1623.34 45.6
-1 -3 3 1597.94 43.8
1 -3 -3 1591.34 45.9
1 3 3 1656.33 46
-1 3 -3 1661.43 46
-1 3 -3 1613.34 45.8
2 3 -3 196.58 7
2 3 -3 183.48 6.8
-2 3 3 166.18 9.1
-2 -3 -3 167.58 9.5
2 -3 3 174.18 9.6
2 -3 3 169.48 9.7
-2 3 3 180.58 9.7
2 -3 -3 211.18 9.5
-2 -3 3 204.58 7.1
-2 3 -3 195.98 10
-2 -3 3 225.18 7.2
2 -3 -3 198.98 9.7
2 3 3 209.28 9.8
-2 3 -3 190.48 10
-3 3 3 1560.54 45.2
-3 3 3 1529.55 45.4
3 -3 3 1548.65 46.4
3 3 -3 1559.74 40.1
-3 -3 -3 1525.95 45.4
3 -3 3 1511.05 46.4
3 -3 -3 1527.15 41.9
3 -3 -3 1601.14 47.8
3 3 3 1501.05 41.9
3 -3 -3 1507.05 42.8
-3 3 -3 1493.55 46.1
-3 3 -3 1524.75 46.3
-3 -3 3 1615.84 40.1
-3 -3 3 1581.64 40.1
3 3 3 1520.45 44.7
4 -3 3 445.16 19.1
-4 -3 -3 477.05 18.2
4 -3 3 458.65 15.5
4 -3 3 459.55 15.9
4 -3 3 468.45 15.9
-4 3 3 465.45 18.1
-4 3 3 463.45 17.8
-4 -3 -3 457.95 16.2
4 3 3 448.66 14.7
-4 3 -3 471.05 19.2
4 -3 -3 464.75 14.8
4 3 3 482.75 17.6
-4 3 -3 458.45 18.9
4 -3 -3 468.25 16.1
-4 3 -3 487.25 16.2
4 -3 -3 466.85 16.1
5 -3 3 475.05 16.7
-5 3 3 492.45 18.6
-5 -3 -3 478.15 16.9
5 -3 3 470.45 16.8
5 3 -3 487.15 16.5
5 -3 3 466.75 16
5 -3 3 502.25 20.4
-5 -3 -3 499.35 18.9
-5 3 3 465.55 18.6
5 -3 -3 427.16 19.5
5 -3 -3 426.96 16.4
-5 -3 3 456.05 16.5
5 3 3 436.36 17.6
5 3 3 433.16 14.9
5 -3 -3 430.26 14.9
-5 3 -3 430.56 19.4
5 -3 -3 435.66 16.6
-5 3 -3 426.96 19.2
-5 3 -3 432.26 16.4
6 3 -3 1211.58 37
6 -3 3 1198.28 37.4
6 -3 3 1186.48 37.5
6 -3 3 1211.28 36.2
-6 -3 -3 1249.88 39.3
-6 -3 -3 1178.48 37.5
-6 3 3 1196.78 38.7
6 -3 -3 1235.58 35.1
6 -3 -3 1181.88 37.3
-6 3 -3 1203.68 40.9
6 3 3 1251.07 35.1
-6 3 -3 1259.67 37.8
-6 -3 3 1236.68 37.4
6 -3 -3 1252.47 38
-7 3 3 414.96 18.4
7 -3 3 437.36 17.8
-7 -3 -3 436.96 18.1
-7 -3 -3 452.35 18.8
7 -3 3 413.66 17.6
7 -3 3 436.26 16.3
7 3 -3 439.76 17.4
7 3 3 411.96 14.9
-7 3 -3 355.56 17.1
7 -3 -3 414.86 15
-7 -3 3 372.86 17
-7 3 -3 369.06 19.3
7 -3 -3 386.66 17.2
7 -3 -3 403.46 17.4
8 -3 3 153.18 9.9
8 -3 3 179.88 11.1
-8 -3 -3 159.08 11.9
8 3 -3 146.69 6.1
8 3 -3 151.28 10.8
8 3 3 158.78 8.9
8 -3 -3 195.48 12
-8 3 -3 146.49 10.6
8 -3 -3 163.18 11.4
-8 -3 3 152.88 11.3
9 3 -3 692.23 20.6
9 -3 3 657.83 26.9
-9 3 3 650.23 27.6
-9 -3 -3 718.33 27.7
9 -3 3 697.13 25
9 3 -3 617.54 25.8
9 -3 -3 659.53 23.3
9 3 3 707.13 23.7
9 -3 -3 727.43 27.8
9 -3 -3 711.73 27.4
-9 -3 3 720.53 27.3
-9 3 -3 712.13 27.7
-10 -3 -3 174.98 14.4
10 3 -3 183.68 13.6
10 3 -3 183.28 8.6
10 -3 3 190.58 12
-10 3 3 187.68 15.1
10 -3 -3 195.68 11
-10 -3 3 205.18 14.3
10 3 3 193.48 11.1
10 -3 -3 209.58 14.4
-10 3 -3 183.48 14.3
10 -3 -3 183.18 13.8
11 3 -3 41.7 4.9
11 3 -3 39.5 8.8
-11 3 3 44.1 9.6
-11 -3 -3 33 9.1
11 -3 3 42.8 7.1
11 -3 -3 45.6 6.6
-11 3 -3 25.9 8.5
11 -3 -3 36.9 8.8
11 3 3 34.3 6.3
-11 -3 3 32.9 8.3
12 -3 3 43.8 8
12 3 -3 46.9 10
12 3 -3 43.3 5.8
-12 -3 -3 52.39 10.8
-12 3 -3 49.4 10.7
12 -3 -3 47.8 10.3
-12 -3 3 58.79 10.7
12 3 3 55.89 7.7
12 -3 -3 41.9 7.1
-13 -3 -3 55.79 11.8
-13 3 3 78.09 13.2
13 -3 3 79.89 10.7
13 3 -3 80.19 8
-13 -3 3 77.89 12.5
13 -3 -3 69.39 9.2
13 -3 -3 86.29 13.2
-13 3 -3 82.49 13.5
13 3 3 82.59 9.7
0 -4 3 384.06 14.8
0 4 3 393.26 15.5
0 -4 -3 417.76 15.5
0 -4 3 405.06 14.8
0 -4 -3 381.96 15.7
0 4 -3 409.86 15
0 4 3 403.76 16
1 4 -3 2825.42 77.79
1 -4 3 2813.02 79.79
-1 4 3 2889.81 79.89
1 4 -3 2804.02 77.59
1 -4 3 2879.71 79.79
-1 4 3 2955.5 80.39
-1 -4 -3 2880.81 79.29
-1 -4 -3 2855.41 79.89
-1 4 -3 2827.22 79.69
-1 -4 3 2923.91 77.79
1 4 3 3045.7 80.09
1 -4 -3 3068.29 79.99
1 4 3 2882.41 79.49
-1 4 -3 2842.02 79.59
-1 -4 3 2922.81 77.99
1 -4 -3 2919.21 80.29
-2 -4 -3 2083.59 61.79
-2 4 3 2133.69 62.09
2 4 -3 2107.19 58.29
-2 -4 -3 2162.38 61.79
2 -4 3 2171.98 62.59
-2 4 3 2099.99 61.59
2 -4 3 2170.08 62.29
-2 -4 -3 2102.49 60.89
2 4 -3 2099.99 56.59
2 4 3 2186.58 58.39
2 -4 -3 2186.68 62.19
-2 -4 3 2277.97 58.79
2 -4 -3 2178.18 60.69
2 4 3 2233.98 61.59
2 -4 -3 2276.47 61.89
-2 4 -3 2213.18 62.39
-2 4 -3 2211.08 62.49
-2 -4 3 2199.58 58.49
-3 -4 -3 1015.9 32.1
-3 4 3 1040.5 32.6
3 -4 3 1021.1 33.6
3 -4 3 1007.7 33.2
-3 -4 -3 1027.2 31.5
-3 4 3 1065.49 33
3 4 -3 997.7 26.3
3 4 -3 1048.1 27.7
3 -4 -3 1007.3 29.6
3 -4 -3 970.8 29
-3 4 -3 978.3 33.1
-3 -4 3 997.9 27.6
3 -4 -3 957.5 28.6
3 4 3 948.51 28.5
-3 -4 3 978.8 27.9
3 -4 -3 981.4 32.4
-3 4 -3 906.01 32.4
4 -4 3 1227.58 36.2
-4 -4 -3 1268.77 39.3
-4 4 3 1230.38 39.7
4 -4 3 1278.37 36.5
-4 -4 -3 1266.37 36.7
4 -4 3 1250.77 36.2
-4 4 3 1244.68 39.5
4 -4 3 1279.87 41.3
4 -4 -3 1234.68 39.7
4 -4 -3 1284.87 36.6
-4 4 -3 1275.87 36.3
-4 -4 3 1237.38 33.1
4 4 3 1236.88 35.3
-4 -4 3 1281.17 33
4 -4 -3 1215.28 36.6
-4 4 -3 1253.57 40.8
4 4 3 1258.07 38.4
-4 4 -3 1246.58 40.7
4 -4 -3 1249.28 35.6
-5 4 3 180.58 13.3
-5 -4 -3 163.98 10.5
5 -4 3 143.19 8.1
5 -4 3 152.68 8.5
-5 -4 -3 160.38 9.2
5 -4 3 158.48 8.6
-5 4 3 153.38 10.5
5 4 -3 149.19 8.2
5 -4 -3 146.39 8.4
-5 4 -3 156.08 11.3
5 -4 -3 152.78 8.7
-5 4 -3 156.38 8.8
-5 -4 3 149.39 8.6
5 -4 -3 165.68 7.8
-5 4 -3 155.28 13.1
5 4 3 153.58 7.4
6 4 -3 139.09 8.2
-6 4 3 128.69 10.1
6 -4 3 126.69 8.4
6 -4 3 122.39 8.3
-6 -4 -3 129.99 9.8
6 -4 3 147.69 8.3
-6 -4 -3 121.39 8.9
6 4 3 115.99 6.7
-6 4 -3 101.19 8.4
6 -4 -3 112.09 7
6 -4 -3 105.09 8.1
-6 -4 3 117.49 8.2
-6 4 -3 114.69 10.5
6 -4 -3 112.39 8.1
7 -4 3 197.28 11.5
-7 4 3 205.28 13.4
7 -4 3 193.38 11.5
7 4 -3 203.98 6.2
7 -4 3 225.78 11
7 4 -3 207.58 11.3
-7 -4 -3 194.38 11.9
-7 -4 -3 211.68 12.4
7 4 3 190.28 9.2
-7 4 -3 184.98 11.6
7 -4 -3 189.68 11.4
-7 4 -3 175.18 14
7 -4 -3 190.58 11.5
7 -4 -3 201.58 10
-7 -4 3 183.28 11.2
8 4 -3 621.34 18.5
8 4 -3 663.63 24.8
8 -4 3 646.14 23.4
-8 -4 -3 615.94 25
8 -4 3 649.04 25.1
8 -4 3 676.23 25.6
8 -4 -3 674.93 25.7
8 -4 -3 663.73 25.3
-8 4 -3 654.93 25.4
-8 -4 3 649.54 24.8
8 4 3 667.93 22
-9 4 3 1.4 5.8
-9 -4 -3 1.7 5.6
9 -4 3 2.8 4
9 4 -3 6.5 4.6
9 -4 3 -0.5 4.2
9 4 -3 2.2 1.9
9 -4 -3 -5.9 4.1
-9 4 -3 5.9 5.3
9 -4 -3 1.2 4.7
9 4 3 8 3.7
9 -4 -3 8.3 3.9
-9 -4 3 -0.8 5.4
10 4 -3 176.28 13
-10 4 3 137.49 14.2
10 4 -3 157.58 7.7
-10 -4 -3 145.79 13.3
10 -4 3 187.58 12
10 -4 -3 173.28 10.8
10 -4 -3 131.69 13.5
-10 -4 3 149.39 12.6
10 -4 -3 160.88 13
10 4 3 167.58 10.2
-10 4 -3 168.38 13.6
11 -4 3 68.99 9
11 4 -3 63.99 10.2
-11 -4 -3 66.39 11
11 4 -3 84.79 6.4
-11 4 3 67.79 11.2
11 -4 -3 76.89 11.2
-11 4 -3 82.89 11.5
11 4 3 73.69 8.1
11 -4 -3 69.49 8.4
-11 -4 3 65.09 10.4
12 -4 3 89.19 10.7
12 4 -3 95.79 7.6
-12 -4 -3 90.49 13.1
-12 4 3 76.09 12.5
12 -4 -3 86.69 12.5
-12 -4 3 88.49 12.3
-12 4 -3 91.69 13.2
12 -4 -3 99.29 10.4
12 4 3 101.59 9.8
13 -4 3 -0.6 5.5
13 4 -3 -1.3 3.6
13 -4 -3 1.4 5.2
13 -4 -3 5.2 7.2
13 4 3 2.2 4.9
0 5 -3 5029.5 131.39
0 -5 3 4653.43 130.39
0 5 -3 5104.69 127.39
0 5 -3 4340.77 129.79
0 -5 -3 4910.41 131.89
0 5 3 4973.5 131.89
0 -5 -3 5092.29 131.59
0 5 3 4895.81 131.39
0 -5 3 5026.7 130.59
0 -5 -3 4849.41 128.59
-1 -5 -3 765.42 26
1 5 -3 777.12 22.4
-1 -5 -3 766.22 24.8
-1 5 3 826.22 27.2
1 -5 3 783.12 26.4
-1 5 3 788.72 27.2
1 5 -3 803.92 24.9
-1 -5 -3 771.42 26.7
1 -5 3 784.32 26.8
1 5 3 742.33 23.4
-1 5 -3 753.42 26.3
-1 5 -3 759.22 26.2
-1 -5 3 776.52 24.8
1 5 3 794.92 26.7
1 5 3 759.42 26.2
-1 -5 3 794.22 25.2
1 -5 -3 785.42 23.9
1 -5 -3 806.42 27.4
1 -5 -3 747.83 26.2
-2 5 3 2566.64 73.89
2 5 -3 2542.15 68.19
-2 -5 -3 2593.44 72.79
2 -5 3 2713.83 74.79
-2 -5 -3 2507.65 71.59
-2 5 3 2518.65 74.19
2 5 -3 2623.34 70.49
2 -5 3 2609.04 74.79
-2 -5 -3 2557.14 73.59
-2 5 -3 2747.53 75.19
-2 -5 3 2560.64 70.49
2 5 3 2626.04 69.89
2 -5 -3 2627.74 73.89
2 -5 -3 2577.04 74.29
2 -5 -3 2537.85 70.29
-2 -5 3 2671.33 70.99
-2 5 -3 2630.84 74.49
-3 5 3 2292.37 66.69
3 -5 3 2284.07 67.29
-3 -5 -3 2294.37 65.09
3 -5 3 2309.67 62.19
-3 -5 -3 2274.37 65.89
3 -5 3 2365.56 67.99
3 5 -3 2232.68 59.79
3 5 -3 2299.67 61.79
-3 5 3 2275.57 66.99
-3 -5 3 2293.47 61.69
3 -5 -3 2338.07 62.29
3 -5 -3 2207.08 62.79
-3 5 -3 2279.87 67.39
3 5 3 2191.78 61.89
-3 5 -3 2274.27 67.19
-3 -5 3 2318.77 62.19
3 -5 -3 2372.16 62.39
3 -5 -3 2295.77 66.99
-4 -5 -3 303.47 12.3
4 -5 3 295.07 11.7
-4 -5 -3 291.87 14.4
-4 5 3 280.27 14.7
-4 5 3 274.97 14.8
-4 -5 -3 292.67 13.6
4 -5 3 302.47 11.4
4 -5 3 288.37 11.7
4 5 -3 278.57 8.5
4 -5 3 285.47 15.7
4 5 3 277.77 10.9
-4 5 -3 269.37 15.2
4 -5 -3 289.07 12.1
4 -5 -3 267.37 11
-4 5 -3 291.97 11.5
4 -5 -3 270.17 11.5
-4 -5 3 274.57 9.7
-4 5 -3 285.77 15.4
4 -5 -3 295.27 15.2
-4 -5 3 290.97 10.3
5 -5 3 366.76 14.3
-5 5 3 346.17 17.3
5 5 -3 329.27 9.8
-5 -5 -3 353.16 14.6
5 5 -3 331.37 13.4
-5 -5 -3 338.97 16.3
5 -5 3 341.37 14.2
5 5 -3 331.27 9.7
5 -5 3 357.66 14.2
-5 5 -3 381.26 14.7
5 -5 -3 359.06 14.7
-5 -5 3 358.66 10.4
-5 -5 3 369.76 14
-5 -5 3 361.86 10.2
5 -5 -3 369.16 14.4
-5 5 -3 397.56 19
5 5 3 353.76 13
5 -5 -3 354.46 13.4
6 5 -3 424.16 11.8
-6 -5 -3 404.16 17.1
-6 5 3 395.96 19.8
6 5 -3 442.36 16.7
-6 -5 -3 405.06 18.5
6 -5 3 398.16 16.8
6 -5 3 437.16 16.8
6 5 -3 421.86 11.7
6 -5 3 410.16 16.7
-6 5 -3 429.26 21.4
6 5 3 454.55 15.4
-6 -5 3 439.06 16.9
6 -5 -3 460.55 17.8
6 -5 -3 420.66 17
6 -5 -3 428.36 15.8
-6 5 -3 442.56 17.3
7 -5 3 112.59 8.3
-7 5 3 143.89 12.2
7 -5 3 125.79 9.3
7 5 -3 120.99 8.8
7 -5 3 128.19 9.3
-7 -5 -3 112.79 9.6
7 5 -3 129.89 4.6
-7 5 -3 102.39 11.3
-7 5 -3 120.19 9.7
7 -5 -3 106.69 8.3
7 -5 -3 90.39 9.4
-7 -5 3 106.59 8.7
7 5 3 107.19 7.3
7 -5 -3 107.29 7.5
8 -5 3 92.59 9.9
8 -5 3 94.69 8.2
8 5 -3 102.59 9.6
-8 -5 -3 109.49 10.6
8 5 -3 92.39 4.5
8 -5 3 85.89 9.2
8 -5 -3 63.49 8.6
8 5 3 70.99 6.7
-8 5 -3 84.69 9.3
8 -5 -3 80.39 9
-8 -5 3 88.59 9.2
-9 -5 -3 324.97 17.6
9 5 -3 328.07 11.3
-9 5 3 343.47 18.6
9 -5 3 321.37 17.4
9 -5 3 327.27 17.2
9 5 -3 313.97 16.5
9 -5 3 338.37 16.2
-9 -5 3 320.87 16.8
9 -5 -3 316.97 17.4
9 -5 -3 339.37 15.1
-9 5 -3 320.77 17.4
9 -5 -3 329.17 17.3
9 5 3 335.57 14.3
-10 -5 -3 49.8 9.1
-10 5 3 41.3 9.1
10 -5 3 33.2 6.5
10 5 -3 34.1 4
10 -5 -3 37.8 8.1
10 -5 -3 33 8.1
10 -5 -3 29.4 6
10 5 3 35.4 5.6
-10 -5 3 34.8 7.7
-10 5 -3 53.39 9.2
11 -5 3 23 6.5
-11 5 3 22.7 8.6
-11 -5 -3 22.3 8.5
11 5 -3 25.3 4.1
11 -5 -3 24.3 6
-11 5 -3 22.9 8.1
11 5 3 22.8 5.5
11 -5 -3 24.6 8.1
11 -5 -3 17.2 7.3
-11 -5 3 16.2 7
12 -5 3 35 8
-12 -5 -3 24.1 9.6
12 5 -3 32.2 5
-12 5 3 35 10.4
12 5 3 26.3 6.1
12 -5 -3 30.9 9.3
12 -5 -3 24.2 6.5
-12 5 -3 23.5 9.3
-12 -5 3 37.6 9.2
0 6 3 357.06 16
0 6 3 355.26 13.1
0 -6 -3 341.97 16.1
0 6 3 334.47 15.9
0 -6 3 348.17 15.4
0 -6 -3 355.46 13.9
0 6 -3 347.77 15
0 6 -3 342.17 12.3
0 -6 3 339.37 14.8
0 -6 -3 338.87 15.4
-1 6 3 2117.59 62.19
1 6 -3 2088.09 59.99
1 -6 3 2038.9 61.49
1 -6 3 2069.49 61.99
-1 -6 -3 2121.69 62.19
1 6 -3 2067.69 56.89
-1 -6 -3 2121.49 59.59
-1 6 3 2187.68 62.99
-1 -6 -3 2091.29 61.29
1 -6 -3 2195.08 62.19
-1 6 -3 2045.6 61.59
1 6 3 2157.78 58.09
-1 6 -3 2138.59 57.79
1 -6 -3 2140.19 62.89
1 -6 -3 2076.59 58.49
-1 -6 3 2122.49 60.49
1 6 3 2069.69 61.49
-1 -6 3 2115.99 60.09
-2 -6 -3 1052.89 34.1
-2 6 3 1091.79 35.8
2 6 -3 1079.89 32.4
-2 -6 -3 1083.69 35.3
-2 6 3 1093.39 36.1
2 -6 3 1099.79 30.8
2 6 -3 1041.2 29.7
2 -6 3 1036.3 35.7
-2 -6 -3 1011.4 33.1
2 -6 3 1024.7 35.2
2 -6 -3 1088.09 36.3
-2 6 -3 1064.09 31.3
-2 6 -3 983.1 35
-2 -6 3 1047 32.2
2 -6 -3 1057.29 31.8
-2 -6 3 1025.2 32.5
-2 6 -3 1007.1 35.3
2 6 3 1035 31.1
-2 -6 3 1065.89 31.8
2 -6 -3 1087.29 35.5
3 -6 3 579.94 18.7
-3 -6 -3 556.94 22.3
-3 -6 -3 571.04 19.7
3 6 -3 563.44 18.9
-3 6 3 589.64 23.6
3 -6 3 577.04 23.8
-3 -6 -3 566.44 21.3
3 6 -3 553.74 16.8
3 -6 3 590.74 23.7
-3 6 3 602.54 23.4
-3 -6 -3 556.04 21.1
-3 -6 3 559.34 19.3
3 -6 -3 521.15 19.1
3 -6 -3 544.45 18.6
-3 6 -3 524.05 22.7
3 -6 -3 581.74 23.6
3 6 3 555.64 18.5
-3 -6 3 538.65 18.6
3 -6 -3 532.05 18.1
-3 6 -3 574.64 23.7
-4 -6 -3 2457.05 67.99
4 -6 3 2457.95 66.89
-4 6 3 2488.75 73.09
4 -6 3 2415.76 74.09
4 -6 3 2465.85 67.79
4 -6 3 2488.85 67.99
4 6 -3 2430.86 64.59
-4 -6 -3 2536.15 71.69
-4 6 -3 2477.95 73.99
-4 -6 3 2429.56 66.29
4 -6 -3 2533.95 67.59
4 -6 -3 2426.06 67.39
-4 6 -3 2425.36 66.89
4 -6 -3 2430.76 68.29
4 6 3 2378.26 66.79
-4 -6 3 2389.06 66.89
-4 6 -3 2486.55 73.79
5 6 -3 260.47 9
-5 -6 -3 244.68 14.3
5 -6 3 264.87 12.5
5 6 -3 268.37 11.5
5 -6 3 250.07 11.6
-5 6 3 253.47 16
5 -6 3 257.47 12.1
-5 -6 -3 274.07 13.3
-5 6 -3 313.77 17.3
5 -6 -3 279.57 12.9
-5 -6 3 282.67 11.5
-5 6 -3 310.47 12.6
5 -6 -3 281.47 11.9
-5 -6 3 299.27 10.6
-5 -6 3 293.27 9.9
5 -6 -3 285.37 12.4
5 6 3 278.47 11.5
6 -6 3 90.79 7.5
-6 -6 -3 96.09 8.7
-6 -6 -3 96.39 9.5
6 -6 3 92.69 7.9
-6 6 3 93.79 10.5
6 -6 3 94.89 7.6
6 6 -3 105.79 7.4
6 6 -3 104.29 4.7
6 6 3 108.59 7.3
-6 -6 3 115.49 7.7
-6 6 -3 106.89 11.8
-6 6 -3 114.89 8.5
6 -6 -3 117.39 8.8
6 -6 -3 111.19 7.5
6 -6 -3 111.69 8.1
-7 -6 -3 370.86 17.3
7 -6 3 405.46 17.7
7 6 -3 393.16 12.2
7 6 -3 367.66 16.2
7 -6 3 401.56 17.4
7 -6 3 405.46 17.1
7 -6 -3 391.26 17.3
-7 -6 3 398.86 16.6
7 -6 -3 413.96 18
7 6 3 384.86 15
-7 6 -3 400.06 17.8
-7 6 -3 372.96 21.2
8 6 -3 145.69 6.5
8 -6 3 152.88 11.2
-8 -6 -3 165.38 12.7
8 -6 3 160.38 11.5
8 -6 3 153.48 10.8
-8 6 -3 173.38 12
8 -6 -3 161.08 11.8
-8 -6 3 165.08 11
8 6 3 179.68 9.7
8 -6 -3 170.98 11.7
-9 -6 -3 20.9 6.9
9 -6 3 26.5 7.1
9 6 -3 33.2 3.5
9 -6 3 26 6.4
-9 6 3 30.8 6.9
9 -6 3 30.8 6.3
9 -6 -3 28 7.2
9 6 3 26.1 5.1
-9 -6 3 18.3 6.9
9 -6 -3 35.1 7.1
-9 6 -3 28.3 7.2
9 -6 -3 32.4 5.9
-10 -6 -3 139.59 13.8
10 6 -3 128.59 7.1
-10 6 3 140.39 14.2
10 -6 3 111.59 11.2
10 -6 3 114.09 12.7
10 6 3 161.18 10.3
10 -6 -3 150.68 10.7
10 -6 -3 154.08 14.8
-10 6 -3 149.69 13.1
-10 -6 3 143.09 12.2
10 -6 -3 113.99 12.4
-11 6 3 71.19 11.8
11 -6 3 78.19 9.9
-11 -6 -3 72.89 11.9
11 6 -3 80.29 6.4
11 -6 -3 72.09 9.2
-11 -6 3 52.99 9.5
11 6 3 86.29 8.7
-11 6 -3 61.59 10.7
11 -6 -3 78.49 10.6
11 -6 -3 71.49 11.7
-12 -6 -3 44.8 10.7
-12 6 3 47.1 11.1
12 6 -3 52.49 5.8
12 -6 3 40.7 8.3
12 -6 -3 24.4 8.7
12 6 3 43.4 7.2
12 -6 -3 38.1 7.9
-12 -6 3 36.7 9.4
-12 6 -3 39.5 10.5
12 -6 -3 46.6 10.6
0 7 3 747.03 24
0 -7 3 717.23 26.4
0 -7 -3 719.93 27
0 -7 3 717.43 26.8
0 -7 -3 775.12 28.3
0 -7 -3 699.03 24.4
0 -7 3 792.62 23.5
0 7 -3 749.33 23.3
0 7 3 750.52 27.6
0 7 -3 748.83 26.8
1 7 -3 399.06 13.9
-1 7 3 435.46 18.9
-1 7 3 396.16 14.9
1 -7 3 386.46 17.5
-1 -7 -3 380.76 17.2
1 -7 3 396.06 14
1 -7 3 398.76 18.4
-1 -7 -3 370.56 16.1
1 7 -3 394.36 16.4
-1 -7 -3 392.86 18.2
1 7 3 364.36 17.4
1 -7 -3 394.46 18.7
-1 -7 3 384.36 16.9
-1 7 -3 364.46 14.1
-1 -7 3 383.66 14.9
1 7 3 377.96 14.6
1 -7 -3 377.86 17.7
-1 7 -3 377.56 17.7
1 -7 -3 376.06 15
-1 -7 3 384.16 16.3
-2 -7 -3 1977.6 59.59
-2 7 3 1992.9 60.39
2 -7 3 2005 60.99
-2 -7 -3 1974.3 57.39
2 -7 3 1914.41 59.79
2 7 -3 1989.1 53.69
2 -7 3 1988.5 54.49
-2 7 3 1969.3 60.89
-2 -7 -3 1984 58.69
-2 7 -3 2034.6 55.29
2 -7 -3 1937.11 60.49
2 7 3 1912.61 54.89
2 -7 -3 1930.51 59.69
-2 -7 3 1982.4 56.69
2 -7 -3 1978.5 55.69
2 -7 -3 1925.41 53.59
-2 7 -3 1951.8 60.19
-2 -7 3 1919.91 55.59
-2 -7 3 1902.41 56.99
-3 7 3 668.23 27.4
-3 -7 -3 687.83 23.1
3 7 -3 692.13 20.7
-3 -7 -3 665.63 25.1
-3 7 3 724.33 27.8
3 -7 3 686.63 27.9
3 -7 3 696.23 27.4
3 -7 3 683.53 22
-3 -7 -3 670.53 26.1
-3 7 -3 659.03 27.1
-3 -7 3 675.93 23.5
3 -7 -3 667.13 27.6
3 -7 -3 643.74 22.7
3 7 3 644.64 22.1
-3 7 -3 642.84 22.4
-3 -7 3 684.03 23.6
-3 -7 3 658.43 22.7
3 -7 -3 666.73 22.1
3 -7 -3 691.33 21.5
4 7 -3 590.94 18
-4 7 3 584.74 25.6
4 -7 3 595.34 20.4
4 -7 3 569.44 20.4
-4 -7 -3 577.24 21
-4 -7 -3 570.54 23.4
4 -7 3 570.94 19.2
-4 -7 -3 574.94 23.9
-4 7 -3 550.04 25.3
4 -7 -3 586.64 19.9
4 7 3 575.04 19.9
-4 7 -3 614.24 19.6
-4 -7 3 557.64 19.6
4 -7 -3 637.94 20.6
4 -7 -3 609.64 21.2
-4 -7 3 587.44 20.6
5 -7 3 371.66 15.4
5 -7 3 374.16 14.7
-5 7 3 363.26 19.7
-5 -7 -3 358.86 18.1
5 7 -3 374.56 12.4
5 -7 3 353.36 15.1
-5 -7 -3 378.26 16.4
5 7 3 355.86 14.4
-5 7 -3 377.46 15.1
-5 -7 3 371.96 14.1
5 -7 -3 345.57 14.9
5 -7 -3 385.86 16.1
-5 7 -3 394.46 20.8
5 -7 -3 368.96 14.9
-5 -7 3 361.56 13.2
6 -7 3 496.25 19.6
6 -7 3 526.45 20.2
6 7 -3 515.75 16.2
-6 -7 -3 502.65 20.9
6 -7 3 503.55 20.3
-6 7 3 494.75 24.5
6 -7 -3 516.85 20
-6 -7 3 523.05 16.4
6 -7 -3 544.45 19.9
-6 7 -3 534.15 25.9
-6 -7 3 542.95 16.1
6 7 3 567.44 19.2
6 -7 -3 555.14 21.3
-6 7 -3 543.95 20.3
-7 -7 -3 36.6 7
7 7 -3 42 3.7
7 -7 3 25.3 5.7
7 -7 3 45.7 6.8
7 -7 -3 38.1 6.6
7 -7 -3 40.8 7
-7 7 -3 28.4 6.3
-7 7 -3 43.8 9.5
7 7 3 41.4 5.5
8 -7 3 106.89 10.3
-8 -7 -3 103.39 11.4
8 7 -3 114.89 6.1
8 -7 3 110.49 9.5
8 -7 3 101.29 10.7
8 7 3 99.79 7.9
-8 7 -3 107.19 10.7
8 -7 -3 96.39 10.2
8 -7 -3 127.39 10.7
8 -7 -3 103.09 9
-9 -7 -3 81.29 10.6
9 -7 3 112.49 11.3
9 7 -3 95.19 6
-9 7 3 99.29 11.8
9 -7 3 108.59 11.8
9 -7 3 113.49 10.8
9 -7 -3 87.59 9
-9 7 -3 90.79 10.7
9 -7 -3 81.39 10.5
9 7 3 99.39 8.4
9 -7 -3 92.99 10.6
10 7 -3 27.7 4.1
-10 7 3 17.2 7.6
-10 -7 -3 21.6 8.9
10 -7 3 28.5 7.2
10 -7 3 21.2 7.3
10 -7 -3 30.7 6.5
10 -7 -3 26.5 7.3
10 7 3 35.2 6.2
10 -7 -3 29.2 8.1
-10 7 -3 22.6 7.8
11 -7 3 33.8 8
11 -7 3 27.8 8.2
11 7 -3 27.7 4.5
-11 7 3 34.2 9.5
-11 -7 -3 28.8 9.4
11 -7 -3 24.4 7.6
11 -7 -3 37.4 7.4
11 -7 -3 36.6 9.6
-11 7 -3 37 9.5
11 7 3 28.2 6
12 -7 3 10.8 6.6
-12 7 3 4.1 8.1
-12 -7 -3 13.5 9.8
12 7 3 8.9 5.2
12 -7 -3 9.9 7.5
12 -7 -3 27.8 9.5
12 -7 -3 11.9 6
-12 7 -3 1.5 7.6
0 -8 3 650.43 25.9
0 8 3 645.44 22.3
0 -8 3 651.53 21.6
0 -8 -3 675.83 27.1
0 -8 -3 646.54 23.2
0 8 -3 648.24 21.6
1 8 -3 660.43 21.5
-1 8 3 697.33 22.9
1 -8 3 685.83 27
-1 -8 -3 676.93 24.2
-1 -8 -3 661.93 26.8
-1 8 3 673.53 27
1 -8 3 684.33 21.7
-1 8 -3 660.23 22.2
1 -8 -3 639.04 27.1
-1 -8 3 639.74 25.3
1 8 3 641.14 22.5
-1 -8 3 649.04 22.3
1 -8 -3 618.44 22.7
1 -8 -3 626.44 26.7
-2 8 3 362.86 19
2 -8 3 370.96 14
2 -8 3 347.07 18.7
-2 8 3 346.07 14.6
-2 -8 -3 358.66 18.5
-2 -8 -3 364.56 17.1
2 8 -3 381.66 13.7
2 -8 -3 343.77 12.7
2 -8 -3 361.46 19.2
-2 8 -3 344.97 14.4
-2 -8 3 359.16 15.9
2 -8 -3 340.17 14.9
-2 -8 3 359.26 16.7
2 -8 -3 347.17 16.5
2 8 3 348.87 14.5
3 -8 3 933.81 28.9
-3 -8 -3 904.71 33.6
-3 8 3 899.21 34.7
3 -8 3 903.21 35.2
-3 -8 -3 891.21 32.1
3 8 -3 903.41 27.5
-3 -8 -3 865.31 29.2
-3 -8 3 898.61 30.9
-3 -8 3 945.01 31.1
3 8 3 919.51 29
3 -8 -3 929.01 29
3 -8 -3 907.71 27.8
-3 8 -3 958.1 29.8
3 -8 -3 954.9 30.1
4 -8 3 202.98 10.7
4 8 -3 222.08 9.6
-4 -8 -3 218.08 14.3
-4 -8 -3 224.08 12.1
-4 -8 -3 229.08 14.9
-4 8 3 208.58 15.5
4 8 3 213.18 11.1
4 -8 -3 205.18 10.8
4 -8 -3 230.48 11.9
-4 -8 3 216.88 13.8
-4 -8 3 225.38 11.9
4 -8 -3 215.48 10.2
-5 -8 -3 375.46 19.5
5 -8 3 357.66 15.6
-5 -8 -3 355.76 16.8
-5 8 3 379.16 21.1
5 8 -3 357.96 13.1
-5 -8 -3 318.37 20.8
5 -8 -3 363.06 15
5 -8 -3 381.96 16.5
5 8 3 397.16 15.4
5 -8 -3 365.86 15.4
-5 -8 3 368.26 15.3
6 -8 3 36.7 5.6
6 -8 3 41.7 6.4
-6 -8 -3 32.3 7.5
6 -8 3 32.9 6
-6 8 3 31.1 8.6
6 8 -3 34.5 4.1
6 8 3 38.9 5.6
6 -8 -3 41.6 6.9
6 -8 -3 42.7 6.3
7 -8 3 458.25 19.6
7 -8 3 386.16 17.7
-7 -8 -3 418.96 19.8
7 8 -3 410.96 14.5
7 -8 3 436.46 19
7 8 3 443.66 17.3
-7 8 -3 403.56 20.8
7 -8 -3 451.15 19.8
7 -8 -3 457.25 19
-8 -8 -3 22.9 8
8 -8 3 13.5 5.2
8 -8 3 11.3 5.4
8 8 -3 18.7 3.5
8 -8 3 20.4 5.9
8 -8 -3 30.4 6.9
-8 8 -3 23.6 6.5
8 -8 -3 20.2 5.8
8 -8 -3 25.1 5.7
8 8 3 17.1 4.7
9 -8 3 31.8 7.3
-9 8 3 34 8
9 8 -3 30.4 4.2
9 -8 3 41.1 8.2
9 -8 3 30.4 6.9
9 -8 -3 27.4 7
9 -8 -3 42 8.3
9 8 3 32.6 5.8
9 -8 -3 25.2 6
-9 8 -3 41.5 8.6
10 -8 3 4.9 5.7
10 8 -3 6 3.2
10 -8 3 9.5 6.3
-10 8 3 1.8 6.5
10 -8 -3 20.5 7.4
10 -8 -3 5.4 5.1
-10 8 -3 1 6.2
10 -8 -3 4.3 5.4
10 8 3 3.6 4.3
11 -8 3 23.3 8.3
-11 8 3 23.7 8.7
11 -8 3 27.5 7.6
11 8 -3 29.2 4.7
11 -8 -3 23.2 8.6
11 8 3 24.5 5.9
-11 8 -3 29.2 8.7
11 -8 -3 45.3 9.4
11 -8 -3 25.4 7.1
0 -9 -3 158.38 13
0 -9 3 128.39 9.1
0 9 3 141.29 9.4
0 9 -3 132.09 8.9
0 -9 -3 128.09 9.4
0 -9 3 121.49 11.3
1 -9 3 741.63 24.1
-1 9 3 732.63 25.1
1 -9 3 707.63 29.5
-1 -9 -3 701.43 29.3
1 9 -3 686.73 23.5
-1 -9 -3 702.83 26.1
-1 -9 3 706.43 28.1
1 -9 -3 752.92 30.6
1 9 3 728.53 25.1
-1 9 -3 716.63 24.4
-1 -9 3 724.53 24.6
1 -9 -3 723.83 25.3
2 -9 3 562.94 19.4
-2 -9 -3 545.25 22.6
-2 -9 -3 564.54 24.7
2 -9 3 541.75 25.3
2 9 -3 556.14 19.1
-2 9 -3 510.65 19.8
2 9 3 512.05 19.8
-2 -9 3 504.05 22.3
2 -9 -3 516.85 20.3
2 -9 -3 552.54 25.8
-2 -9 3 518.25 20.9
3 -9 3 462.65 24.1
3 -9 3 477.65 18.1
3 9 -3 454.25 17
-3 -9 -3 466.15 21.5
-3 -9 -3 459.65 22.3
-3 9 -3 522.55 21.6
-3 -9 3 460.05 20.2
3 -9 -3 483.85 19
3 9 3 465.85 18.4
-3 -9 3 485.15 20.5
4 -9 3 481.25 19.2
-4 -9 -3 511.45 24.4
4 9 -3 520.05 17.8
-4 9 3 519.25 33.6
-4 -9 -3 515.05 23.3
4 9 3 525.65 19.5
-4 -9 3 483.95 21.3
4 -9 -3 490.55 18.2
4 -9 -3 510.65 20.2
-5 9 3 142.59 14.2
-5 -9 -3 151.08 14.4
5 -9 3 140.99 9.6
5 9 -3 147.09 8.4
5 9 3 143.59 9.9
5 -9 -3 132.69 8.6
5 -9 -3 157.98 10.7
-5 -9 3 131.09 12.8
6 -9 3 414.56 18.1
-6 9 3 385.36 27.2
6 9 -3 402.36 14.6
-6 -9 -3 379.76 21.3
6 -9 -3 373.16 17.9
6 -9 -3 396.56 16.8
-6 -9 3 360.96 19.6
6 9 3 398.56 16.6
7 9 -3 85.89 6.7
7 -9 3 91.39 9.7
7 -9 -3 86.69 9.3
7 -9 -3 87.39 10.2
7 9 3 83.89 8.1
7 -9 -3 104.69 10
8 9 -3 68.79 6
8 -9 3 63.39 9
8 -9 -3 67.69 9.5
8 -9 -3 65.09 8.8
8 9 3 59.39 7
8 -9 -3 71.49 8.8
9 -9 3 70.99 10.1
-9 9 3 73.39 10.8
9 9 -3 63.29 6.1
9 -9 -3 66.99 9
9 9 3 80.09 8.4
9 -9 -3 70.09 10.3
9 -9 -3 60.89 9.4
10 -9 3 102.99 12.8
10 9 -3 99.19 7.6
-10 9 3 109.29 13.2
10 -9 -3 102.39 12.9
10 -9 -3 94.39 10.9
10 9 3 94.59 9.5
10 -9 -3 118.99 12.8
-11 9 3 -1.6 6.6
11 -9 3 -0.6 6.8
11 9 -3 2.1 3.4
11 -9 -3 -2 6.5
11 -9 -3 2.1 6.4
11 9 3 0.4 4.7
11 -9 -3 -0.1 5.3
0 10 3 559.04 21.7
0 10 -3 549.35 21
0 -10 -3 557.94 22.3
0 -10 -3 563.14 26.8
0 -10 3 593.64 21.1
0 -10 3 594.14 26.5
-1 -10 -3 675.53 29.7
1 -10 3 665.83 29.3
-1 -10 -3 670.63 25.8
-1 10 3 703.23 24.7
1 -10 3 669.53 23.3
1 10 -3 662.33 23.2
-1 -10 3 656.63 28
1 10 3 642.04 24.1
1 -10 -3 668.83 30
-1 10 -3 678.03 23.9
1 -10 -3 674.23 24.8
-1 -10 3 677.63 24.3
2 -10 3 551.34 20.4
-2 -10 -3 561.24 23.8
-2 -10 -3 561.64 26.4
2 -10 3 518.75 26.4
2 10 -3 563.64 20.5
-2 -10 3 581.04 22.1
-2 10 -3 577.44 21.5
2 -10 -3 574.94 22
-2 -10 3 563.84 24.3
2 10 3 561.94 21.6
3 -10 3 694.23 25.3
3 10 -3 762.52 25
-3 -10 -3 738.23 29.4
3 -10 -3 768.72 27
-3 -10 3 743.33 27.6
3 10 3 767.02 26.4
-4 -10 -3 227.08 16.2
4 -10 3 201.88 11.5
4 10 -3 216.58 10.9
4 -10 -3 209.08 12.6
4 10 3 241.08 12.6
-4 -10 3 201.98 15
5 -10 3 291.57 14.5
5 10 -3 301.67 12.9
-5 -10 -3 310.47 19.2
5 -10 -3 294.87 15.3
5 10 3 288.17 14.3
-5 -10 3 272.37 17.5
6 -10 3 238.98 13.5
-6 -10 -3 229.58 17.5
6 10 -3 231.48 11.3
6 10 3 229.38 13
6 -10 -3 242.78 14.2
-6 -10 3 237.68 16.3
7 -10 3 92.69 10.1
-7 -10 -3 101.69 14
7 10 -3 98.79 7.5
7 10 3 83.39 8.6
7 -10 -3 75.09 9.9
-7 -10 3 93.69 12.6
-8 -10 -3 80.89 14.4
8 10 -3 69.59 6.6
8 -10 3 77.49 10.5
8 -10 -3 50.09 9.1
8 -10 -3 58.19 9.5
8 10 3 64.09 7.9
9 10 -3 73.89 7
9 -10 3 69.89 10.3
-9 -10 -3 80.29 14.4
9 -10 -3 71.29 9.7
9 -10 -3 66.49 9.4
9 -10 -3 68.49 10.9
9 10 3 71.29 8.6
10 -10 3 2.8 6.1
10 10 -3 5.9 4
10 10 3 11.1 5.5
10 -10 -3 17 6.6
10 -10 -3 15.7 7.6
10 -10 -3 2.5 5.1
0 11 -3 307.07 15.1
0 -11 -3 308.37 16.1
0 -11 -3 302.77 19.8
0 11 3 347.67 16.7
0 -11 3 313.17 14.6
0 -11 3 298.67 19.3
1 -11 3 288.27 19.3
-1 -11 -3 308.57 19.6
-1 -11 -3 322.57 17
1 -11 3 316.57 14.4
-1 11 3 294.07 15.4
1 11 -3 334.97 15
-1 11 -3 303.77 15.2
1 -11 -3 320.87 16
-1 -11 3 301.27 14.8
1 11 3 282.37 15.4
2 -11 3 408.66 17
-2 -11 -3 378.46 19.7
2 -11 3 385.76 23.1
2 11 -3 372.36 16.6
2 -11 -3 391.36 18.1
-2 -11 3 419.96 18.8
2 11 3 448.86 18.8
-2 11 -3 412.76 18
3 -11 3 213.98 12
3 11 -3 222.98 12.1
-3 -11 -3 230.18 16.1
3 11 3 212.28 13.1
3 -11 -3 237.38 13.5
-3 -11 3 216.58 14
4 11 -3 66.39 7.2
-4 -11 -3 83.99 12
4 -11 3 89.39 8.8
4 -11 -3 68.89 8.7
4 11 3 81.49 8.9
-4 -11 3 86.69 10.9
5 11 -3 84.79 7.9
5 -11 3 83.09 9
-5 -11 -3 69.99 12.1
-5 -11 3 90.69 11.6
5 11 3 77.39 8.7
5 -11 -3 89.09 10
-6 -11 -3 -0.6 8.2
6 -11 3 11.3 5.4
6 11 -3 7.8 4
-6 -11 3 0.8 7.2
6 11 3 -1 4.8
6 -11 -3 13.1 5.9
-7 -11 -3 232.58 18.9
7 -11 3 200.98 13.6
7 11 -3 222.08 11.6
7 -11 -3 202.58 14.2
-7 -11 3 210.78 18.3
7 11 3 195.38 12.9
8 11 -3 12.2 4.5
-8 -11 -3 26.5 11.8
8 -11 3 12.4 6.3
8 -11 -3 7.5 6.1
8 11 3 19.7 6
-8 -11 3 -1.2 8.4
9 -11 3 50.49 9.5
-9 -11 -3 51.39 13.2
9 11 -3 50.69 6.6
9 -11 -3 89.09 12.3
-9 -11 3 43.3 12.3
9 11 3 53.89 8.3
10 11 -3 44.1 6.2
-10 -11 -3 30.6 12.4
10 -11 3 30.2 9
-10 -11 3 22.7 11.1
10 11 3 40.4 7.6
10 -11 -3 35.1 9.4
0 12 -3 31.5 6.2
0 -12 3 21.4 5.6
0 12 3 24.4 6.5
0 -12 -3 28.7 7.3
1 12 -3 155.48 11.2
1 -12 3 149.88 10.5
-1 -12 -3 170.58 13.2
1 12 3 170.68 12.6
-1 12 -3 157.98 11.4
1 -12 -3 175.78 12.2
-1 -12 3 173.58 11.4
-2 -12 -3 69.59 10.3
2 12 -3 65.99 7.9
2 -12 3 58.79 7.8
2 -12 -3 68.39 9
-2 -12 3 54.09 8.4
2 12 3 67.59 8.6
-2 12 -3 72.39 13
-3 -12 -3 162.08 14.6
3 12 -3 175.38 11.5
3 -12 3 169.58 11
-3 -12 3 175.98 13.9
3 -12 -3 180.68 12.2
3 12 3 163.58 11.8
-4 -12 -3 29.9 9.6
4 -12 3 38.3 6.5
4 12 -3 29.3 6
4 12 3 46.8 7.7
-4 -12 3 40.4 8.8
4 -12 -3 36.9 7.5
5 -12 3 95.09 9.8
5 12 -3 81.99 8.3
-5 -12 -3 93.69 13.8
5 -12 -3 87.49 10.3
5 12 3 71.89 9.2
-5 -12 3 82.19 11.6
-6 -12 -3 244.38 19.3
6 -12 3 253.97 14.7
6 12 -3 245.98 13
6 -12 -3 197.78 14.1
-6 -12 3 200.68 17
6 12 3 243.48 14.7
7 -12 3 2.6 5.1
-7 -12 -3 7.4 9.4
7 12 -3 5.1 4.4
7 -12 -3 5.1 5.8
7 12 3 0.6 5.3
-7 -12 3 16.1 9.3
-8 -12 -3 132.79 17.8
8 12 -3 157.88 11
8 -12 3 151.88 13.1
-8 -12 3 170.88 18.9
8 -12 -3 167.78 14.1
8 12 3 172.98 13.1
9 12 -3 64.39 7.6
9 -12 3 81.69 11.6
-9 -12 -3 53.99 14
-9 -12 3 89.69 15.4
9 -12 -3 84.09 12.2
9 12 3 93.19 10.2
0 13 3 4.9 5.8
0 -13 -3 8.4 6
0 -13 3 18.5 5.3
0 13 -3 -1.7 4.9
1 13 -3 42.2 7.4
1 -13 3 52.69 7.6
-1 -13 -3 54.49 9.2
1 -13 -3 55.89 8.5
-1 13 -3 49.5 8
1 13 3 51.39 8.7
-1 -13 3 45.4 7.3
2 -13 3 88.59 9.3
2 13 -3 97.59 9.7
-2 -13 -3 97.99 11.9
-2 -13 3 92.79 10.4
2 -13 -3 109.29 11.1
2 13 3 104.99 10.9
-3 -13 -3 22.8 8.6
3 13 -3 5.8 5.1
3 -13 3 8 5.1
-3 -13 3 16.4 7
3 -13 -3 15.7 6.2
3 13 3 17.2 6.1
-4 -13 -3 354.56 21.5
4 13 -3 362.76 17.4
4 -13 3 362.56 17.6
4 13 3 379.36 18.9
4 -13 -3 385.16 19.2
-4 -13 3 354.46 19.6
5 13 -3 98.79 9.5
5 -13 3 106.89 11.2
-5 -13 -3 76.19 13.7
5 13 3 74.19 9.8
-5 -13 3 58.49 11.7
5 -13 -3 81.19 10.6
-6 -13 -3 30.5 11.1
6 13 -3 36.9 6.8
6 -13 3 41.5 8
6 13 3 38.3 8.2
-6 -13 3 55.99 12.3
6 -13 -3 51.09 8.8
7 -13 3 238.18 16.3
7 13 -3 276.17 14.5
-7 -13 -3 262.17 21.7
7 13 3 242.08 15.8
-7 -13 3 226.98 20.6
7 -13 -3 263.87 17.1
8 -13 3 106.79 12.8
-8 -13 -3 53.59 14.2
8 13 -3 77.09 8.6
-8 -13 3 78.59 14.5
8 13 3 80.49 10.1
8 -13 -3 115.09 13.6
9 13 -3 106.89 9.9
9 13 3 112.69 11.6
0 -14 -3 341.77 18.7
0 -14 3 383.76 18
0 14 -3 328.97 17.7
1 -14 3 77.89 9
-1 -14 -3 64.39 9.9
1 14 -3 54.39 8.6
-1 -14 3 66.29 9.3
1 -14 -3 60.89 9.2
1 14 3 70.19 10
-1 14 -3 56.69 9.1
2 -14 3 37.1 7.3
2 14 -3 33.9 7.7
-2 -14 -3 41.7 9.2
2 -14 -3 38.9 7.9
2 14 3 29.4 7.5
-2 -14 3 43.3 7.8
-3 -14 -3 117.69 13.7
3 14 -3 110.99 11.3
3 -14 3 116.59 11.3
3 -14 -3 107.69 11.9
-3 -14 3 107.89 12.3
3 14 3 104.49 11.6
-4 -14 -3 12.5 8.3
4 -14 3 2.4 4.7
4 14 -3 2.6 5.2
4 14 3 11.8 6.9
-4 -14 3 7 7.5
4 -14 -3 9.7 6.9
5 -14 3 183.68 13.7
-5 -14 -3 172.88 18.3
5 14 -3 151.58 12.4
5 -14 -3 166.68 13.7
5 14 3 176.98 14.2
-6 -14 -3 158.28 18.2
6 14 -3 156.08 12.2
6 -14 3 139.59 12.3
6 14 3 145.89 13.3
6 -14 -3 139.49 14.3
7 -14 3 40.7 8.6
-7 -14 -3 47.1 13.6
7 14 -3 35.1 7.3
7 -14 -3 52.19 10.2
7 14 3 23.2 7.6
8 14 -3 136.69 11.8
8 -14 3 141.89 15
-8 -14 -3 136.19 19
8 14 3 142.19 13.4
8 -14 -3 143.59 15.9
0 -15 -3 212.88 15.4
0 -15 3 193.68 16.1
0 15 -3 200.08 15.3
1 15 -3 49.9 8.9
1 -15 3 52.29 8.7
-1 -15 -3 60.39 10.5
1 15 3 43.9 9.2
1 -15 -3 48.6 8.9
-2 -15 -3 5.9 6.9
2 15 -3 7.4 6.3
2 -15 3 7.4 5.3
2 -15 -3 -0.6 6.3
2 15 3 3 6.3
-3 -15 -3 82.89 12.7
3 -15 3 91.29 10.7
3 15 -3 98.79 11.3
3 -15 -3 83.69 11.3
3 15 3 89.79 11.7
4 -15 3 57.39 9.3
4 15 -3 58.39 9
-4 -15 -3 72.69 12.7
4 -15 -3 60.59 10.1
4 15 3 62.49 10.3
-5 -15 -3 51.19 12.2
5 -15 3 71.29 10.1
5 15 -3 76.89 9.7
5 -15 -3 55.69 10.6
5 15 3 56.19 9.9
6 15 -3 22.6 7
-6 -15 -3 18.2 11.2
6 -15 3 17.5 6.7
6 -15 -3 37.4 8.8
6 15 3 15.4 7.8
7 15 -3 60.39 9
7 15 3 54.39 9.7
0 -16 -3 23.8 8
0 16 -3 3.6 6.9
1 16 -3 45.9 9.3
-1 -16 -3 37.7 9.2
1 -16 -3 36.1 9
2 16 -3 174.28 15.1
-2 -16 -3 202.68 16.5
2 -16 -3 180.78 14.7
2 16 3 147.59 14.7
-3 -16 -3 11.5 7.8
3 16 -3 11.5 6.6
3 -16 -3 13 7.1
3 16 3 1.5 7.3
-4 -16 -3 85.79 13.6
4 16 -3 72.99 10.2
4 16 3 80.89 11.7
4 -16 -3 87.99 12.2
5 16 -3 44.4 8.5
-5 -16 -3 15.5 10.7
5 16 3 28.1 8.6
5 -16 -3 34.5 8.9
0 -17 -3 66.89 11.4
-1 -17 -3 87.79 12.2
1 17 -3 41.8 9.3
1 -17 -3 72.79 11
2 17 -3 7 7.4
-2 -17 -3 27.6 9.3
2 -17 -3 15 8
-3 -17 -3 121.09 15.7
3 17 -3 89.99 11.9
3 17 3 90.49 12.7
3 -17 -3 95.09 12.8
0 0 4 5901.11 153.28
0 0 4 5902.41 153.48
0 0 -4 5865.51 153.38
0 0 -4 5876.31 153.28
-1 0 -4 1609.64 45.5
1 0 4 1636.74 45.5
1 0 4 1639.74 45.7
1 0 -4 1554.24 44
-1 0 -4 1626.34 45.6
-1 0 4 1619.44 44.2
2 0 -4 9911.61 258.37
2 0 4 9663.23 255.27
-2 0 -4 9820.92 255.47
2 0 -4 9708.83 258.07
-2 0 -4 9913.41 257.47
2 0 4 9850.31 255.47
-2 0 4 9999 260.07
-3 0 -4 48.7 5.5
3 0 -4 51.39 3.7
-3 0 4 53.39 3.8
3 0 4 46.4 5.4
3 0 4 50.59 5.3
3 0 -4 53.19 3.4
-3 0 4 53.79 3.8
-3 0 -4 58.09 6
4 0 -4 1795.52 47.5
4 0 -4 1735.73 45.4
4 0 -4 1776.92 48.6
-4 0 4 1757.82 47.5
4 0 4 1704.33 47.8
4 0 -4 1683.03 48.5
-4 0 -4 1763.22 51.99
-4 0 -4 1724.93 49
-4 0 4 1784.62 47.4
-4 0 -4 1737.93 51.69
5 0 -4 237.08 7.4
-5 0 4 246.78 9.3
-5 0 4 238.68 9.3
-5 0 -4 215.28 10.7
5 0 -4 227.18 10.3
-5 0 -4 248.78 13
5 0 -4 238.18 9.3
5 0 -4 240.08 10.5
5 0 4 224.98 9.4
-5 0 -4 227.38 12.5
-6 0 4 197.18 8.6
6 0 -4 195.38 12.2
6 0 -4 191.38 9.8
-6 0 4 187.38 8.6
6 0 -4 185.38 6.7
-6 0 -4 191.98 10.8
6 0 -4 190.18 10
-6 0 -4 180.88 11.6
6 0 4 169.68 8.6
7 0 -4 69.29 4.2
-7 0 -4 61.19 8.3
7 0 -4 75.99 7.9
-7 0 4 75.79 5.9
-7 0 4 70.59 5.7
-7 0 -4 76.49 8.3
7 0 4 67.59 6
8 0 -4 470.75 15.5
8 0 4 498.25 18.3
-8 0 -4 462.05 20.5
-8 0 4 487.55 19.1
8 0 -4 478.75 20.2
9 0 -4 49.4 7.8
9 0 4 39 6
-9 0 4 55.59 8.7
-9 0 -4 31.7 7.4
10 0 -4 -1.8 2.5
10 0 4 1.8 3.6
-10 0 4 1.1 4.5
10 0 -4 1 3.6
-10 0 -4 -2.7 5.6
-11 0 4 9.8 7
-11 0 -4 13.8 7.5
11 0 -4 5.2 3.4
11 0 4 9 4.6
11 0 -4 0.3 5.7
-12 0 4 19.7 8.6
12 0 -4 24.8 8.5
-12 0 -4 18.2 8.5
12 0 -4 35.8 5.7
12 0 4 26.9 6.8
-13 0 -4 13.8 8.9
13 0 -4 23.1 8.5
-13 0 4 9.5 8.3
13 0 -4 5.7 4.5
13 0 4 6.5 5.7
0 1 4 23 3.3
0 -1 4 20 2.8
0 1 -4 27.5 3.2
0 -1 4 26 2.9
0 -1 -4 21.6 3.2
0 1 -4 14.2 2.5
1 -1 4 4250.57 112.89
1 1 -4 4235.28 110.89
1 1 -4 4212.48 110.79
-1 1 4 4344.47 112.09
1 -1 4 4305.37 112.79
-1 -1 -4 4151.18 112.99
1 -1 -4 4350.56 111.69
-1 -1 4 4119.99 110.79
1 1 4 4229.28 112.89
-1 1 -4 4210.38 112.79
-1 1 -4 4471.05 113.29
-1 -1 4 4208.88 110.89
1 1 4 4224.78 112.69
-2 -1 -4 661.23 22.4
2 1 -4 697.53 19.3
2 -1 4 670.13 22.7
-2 1 4 698.73 21.2
-2 -1 -4 697.33 22.9
2 -1 4 680.33 22.7
-2 1 4 683.03 20.9
-2 1 -4 666.73 22.6
2 1 4 680.73 22.4
-2 -1 4 674.43 19.3
-2 1 -4 682.93 22.8
2 -1 -4 686.73 21
2 1 4 691.63 22.6
-2 -1 4 686.53 19.4
2 -1 -4 689.93 20.7
-3 1 4 7941.91 211.88
3 1 -4 8450.25 212.88
3 1 -4 8614.24 212.68
3 -1 4 8511.45 215.18
-3 -1 -4 8318.67 214.88
3 -1 4 7831.72 214.58
-3 1 4 8074.99 212.58
-3 -1 -4 8304.87 214.48
3 -1 -4 7925.31 211.98
3 1 4 7530.65 213.68
3 -1 -4 8102.19 211.98
-3 -1 4 8432.26 212.78
3 1 4 8214.08 214.38
3 -1 -4 8362.06 211.78
-3 1 -4 7953.1 214.98
-3 1 -4 8391.26 214.98
4 1 -4 68.69 3.2
-4 -1 -4 62.09 6.5
4 1 -4 64.79 4.8
-4 1 4 67.09 5.2
-4 -1 -4 61.09 5.4
-4 -1 -4 66.99 6.8
-4 1 4 67.39 5.2
4 -1 4 71.19 4.8
4 -1 4 68.69 7
4 -1 -4 64.79 4.7
-4 1 -4 65.89 5.4
4 -1 -4 65.89 3.4
-4 -1 4 78.19 3.2
-4 1 -4 78.79 7.2
4 -1 -4 67.69 4.9
-4 1 -4 78.79 7
4 -1 -4 67.39 5.2
-5 -1 -4 218.88 11.2
-5 1 4 231.98 10.6
-5 1 4 234.78 10.7
5 1 -4 219.68 10.5
-5 -1 -4 230.88 12.7
5 -1 4 259.87 10.4
-5 -1 -4 234.38 12.8
5 -1 -4 277.27 8.8
5 -1 -4 270.07 11.4
5 -1 -4 278.17 11.3
-5 -1 4 277.87 8.5
-5 1 -4 271.37 11.8
5 1 4 269.17 10.2
-5 1 -4 288.07 14.2
5 -1 -4 252.47 11.1
-5 1 -4 270.67 13.8
-5 -1 4 277.67 8.6
5 1 4 262.57 12.9
6 -1 4 251.77 10.8
-6 -1 -4 279.97 12.9
-6 1 4 249.08 11.5
-6 1 4 243.88 11.3
6 1 -4 254.57 7.8
-6 -1 -4 252.17 13.9
6 1 -4 253.97 11.9
6 1 -4 256.87 7.7
6 1 4 250.67 10.6
6 -1 -4 257.97 12.1
-6 -1 4 248.68 9
6 -1 -4 254.97 9.1
-6 1 -4 274.57 14.7
6 -1 -4 268.77 12.2
-6 1 -4 270.67 12.7
-6 -1 4 254.87 8.9
7 -1 4 836.82 26.5
-7 1 4 818.72 26.9
7 1 -4 798.72 22.8
-7 -1 -4 818.62 28.6
7 1 -4 798.52 27.7
-7 -1 -4 801.12 30.2
7 -1 -4 794.02 28.1
-7 -1 4 846.62 23.8
-7 1 -4 790.82 30.5
-7 -1 4 825.12 24
7 1 4 814.62 26
7 -1 -4 839.02 24.2
7 -1 -4 862.61 28.5
-7 1 -4 845.82 28.7
-8 -1 -4 200.58 13
8 -1 4 196.68 10.7
8 1 -4 193.78 7.7
8 1 -4 197.88 12.3
-8 -1 4 208.28 12.9
8 -1 -4 190.88 11.6
8 -1 -4 200.48 12.4
-8 1 -4 218.28 13.2
8 1 4 204.98 10.5
-8 -1 4 189.98 8.1
8 -1 -4 185.38 8.8
9 -1 4 129.99 9.5
-9 1 4 130.39 11.7
9 1 -4 141.69 11.2
-9 -1 -4 151.18 12.3
-9 -1 4 135.99 11.9
9 -1 -4 143.49 11.3
-9 1 -4 120.19 10.5
9 1 4 144.09 9.5
10 1 -4 0.8 2.5
-10 -1 -4 -3.9 5.5
-10 1 4 10 6.5
10 1 -4 10.6 5.3
10 -1 4 9.5 4.2
-10 1 -4 0.3 6.1
10 -1 -4 2 3
10 1 4 3.9 3.8
10 -1 -4 -0.5 4.7
-10 -1 4 -5.8 5.5
-11 -1 -4 32.5 8.9
-11 1 4 28.9 8.6
11 1 -4 37.4 8.5
11 1 -4 37.8 5
11 -1 4 38.5 6.9
11 1 4 37.5 6.7
-11 -1 4 28.9 8.4
-11 1 -4 45.2 9.6
11 -1 -4 46.2 6
11 -1 -4 37.7 8.5
-12 1 4 1.7 6.7
12 -1 4 5.2 5
-12 -1 -4 1.9 7.1
12 1 -4 5.5 3.8
12 1 -4 -4.7 6
12 -1 -4 12.1 7.3
-12 1 -4 -0.9 7.4
12 -1 -4 1.1 3.6
12 1 4 5.4 4.9
-12 -1 4 0.3 6.8
-13 1 4 26.7 10.1
13 -1 4 10.4 6.2
13 1 -4 22.7 5.4
13 1 -4 3.7 7.2
-13 -1 -4 16.6 9.1
13 1 4 31.8 7.5
-13 -1 4 19.1 9
13 -1 -4 17.4 5.2
-13 1 -4 16.9 9.4
13 -1 -4 22.7 9
0 -2 -4 65.49 5.1
0 2 4 68.99 5.6
0 2 -4 72.79 4.8
0 -2 -4 69.89 5.6
0 -2 4 71.59 4.8
0 -2 4 67.99 4.8
1 -2 4 303.67 12.6
-1 2 4 322.37 12.8
1 -2 4 324.77 12.9
1 2 -4 312.67 11
-1 -2 -4 294.37 12.8
1 2 -4 320.17 11
-1 2 4 319.87 12.4
-1 2 -4 326.97 12.8
1 -2 -4 339.17 12.4
1 -2 -4 361.06 13.1
1 2 4 341.17 13.2
-1 -2 4 331.87 11.2
-1 2 -4 322.77 12.8
-1 -2 4 352.96 11.3
-2 -2 -4 4856.11 122.19
2 2 -4 4747.43 119.99
2 -2 4 4436.36 121.69
2 2 -4 4733.43 119.79
2 -2 4 4717.13 122.19
-2 2 4 4622.44 120.39
-2 2 4 4611.74 120.69
2 2 4 4389.16 121.19
2 2 4 4678.73 121.39
-2 2 -4 4145.29 121.39
-2 -2 4 4466.55 117.69
2 -2 -4 4439.36 119.99
-2 -2 4 4464.75 117.39
-2 2 -4 4360.06 121.59
3 -2 4 1400.66 42.7
3 -2 4 1377.56 42.6
-3 2 4 1412.26 40.5
-3 2 4 1378.46 40.6
-3 -2 -4 1341.27 42
3 2 4 1402.16 41.6
3 2 4 1393.46 38.5
3 -2 -4 1452.75 40.8
3 -2 -4 1364.16 37.7
-3 2 -4 1395.16 42.5
-3 2 -4 1409.96 42.7
3 -2 -4 1421.46 40.8
-4 -2 -4 1360.36 41.4
4 2 -4 1348.86 37.7
-4 -2 -4 1297.67 38.4
4 -2 4 1309.07 38
4 -2 4 1372.16 37.7
-4 2 4 1352.26 39.3
-4 2 4 1352.76 39.5
4 -2 4 1258.07 41.4
4 -2 -4 1288.17 38.1
-4 2 -4 1347.17 38.2
4 -2 -4 1297.37 36.1
4 -2 -4 1341.17 39.4
4 -2 -4 1293.97 37.9
-4 2 -4 1336.47 41.8
4 2 4 1328.37 40.5
4 2 4 1305.07 37.1
-4 2 -4 1355.96 41.9
-5 -2 -4 48.6 6.4
5 -2 4 49.8 7
-5 -2 -4 48 5.4
5 -2 4 56.39 5.1
5 -2 4 51.59 5.5
5 2 -4 56.69 5.5
-5 2 4 44.8 5.5
-5 2 4 53.09 5.9
-5 2 -4 56.29 5.9
5 2 4 62.99 4.7
5 -2 -4 58.29 6
-5 2 -4 62.49 7.2
5 -2 -4 58.39 5.8
5 -2 -4 57.19 3.9
5 2 4 59.79 6.4
-5 2 -4 51.69 6.9
5 -2 -4 51.59 5.5
6 2 -4 306.17 13.4
-6 2 4 303.57 14
-6 2 4 300.37 16.1
6 -2 4 275.47 12.3
-6 -2 -4 285.17 13.5
-6 -2 -4 289.97 15.3
-6 2 -4 320.47 16.6
6 -2 -4 341.47 14.1
6 -2 -4 335.67 14
-6 2 -4 337.07 14.4
6 2 4 347.97 12.5
6 -2 -4 333.87 11.4
7 2 -4 438.56 18
-7 -2 -4 444.36 18.8
7 -2 4 461.65 17
-7 -2 -4 426.96 19.8
7 2 -4 436.56 12.5
-7 2 4 432.56 18.1
-7 2 -4 428.46 20.7
7 2 4 466.65 16.4
7 -2 -4 444.56 18.4
-7 2 -4 436.96 18.2
7 -2 -4 451.35 15.2
7 -2 -4 468.15 18.6
-7 -2 4 436.76 18.5
8 2 -4 201.78 7.4
-8 -2 -4 228.18 12.9
8 -2 4 204.08 11.3
8 2 -4 193.98 12.3
-8 -2 4 210.88 13.1
8 -2 -4 203.68 9.6
8 -2 -4 185.88 12.3
-8 2 -4 210.08 13.2
8 2 4 217.28 10.8
8 -2 -4 208.38 12.8
9 2 -4 386.16 18.6
9 -2 4 406.26 17.1
9 2 -4 368.66 12.7
-9 -2 -4 379.96 19.2
-9 2 4 356.06 19.1
9 2 4 377.36 15.9
-9 2 -4 393.26 19.3
-9 -2 4 388.56 19.2
9 -2 -4 386.46 18.8
9 -2 -4 412.66 19.3
10 2 -4 182.88 13.2
10 2 -4 153.88 7.7
-10 2 4 165.78 14.1
-10 -2 -4 158.78 13.7
10 -2 4 157.48 11
10 -2 -4 168.98 13.1
-10 -2 4 151.78 13.1
10 -2 -4 144.49 9.3
10 2 4 177.68 10.9
-10 2 -4 158.68 14.7
11 -2 4 28.1 6.3
-11 2 4 3.1 6.5
11 2 -4 5.1 6.1
11 2 -4 14.5 3.6
-11 -2 -4 13.1 7.6
11 2 4 19 5.3
-11 2 -4 26 8.2
11 -2 -4 6.6 4.2
-11 -2 4 6.1 6.8
11 -2 -4 12.9 6.9
12 2 -4 22.7 8.4
12 2 -4 28.8 4.9
-12 2 4 21.8 8.6
12 -2 4 18.3 6.6
-12 -2 -4 17 8.7
12 -2 -4 12.8 4.9
12 -2 -4 18.5 8.1
-12 -2 4 35.7 9.4
-12 2 -4 19.8 9.1
12 2 4 19.8 6.3
13 2 -4 35.5 10
13 -2 4 41.4 8.8
-13 2 4 46.8 11.6
13 2 -4 45.9 6.5
-13 -2 -4 60.89 12
13 2 4 63.49 9.2
-13 -2 4 24.3 9.8
13 -2 -4 53.09 7.8
-13 2 -4 42.6 11.7
13 -2 -4 57.59 11.2
0 3 4 901.01 28.9
0 -3 -4 931.81 28.6
0 3 4 915.31 28.7
0 3 -4 919.41 27.9
0 -3 4 938.31 28
0 -3 -4 913.61 29
0 -3 4 894.11 27.8
1 3 -4 643.14 19
-1 3 4 610.94 20.8
1 -3 4 663.83 21.4
1 -3 4 640.44 21.2
-1 -3 -4 641.34 21.1
1 3 -4 626.34 19.1
-1 3 4 636.54 21.3
-1 -3 -4 638.74 21.6
-1 3 -4 566.64 20.5
-1 -3 4 595.04 19
1 3 4 564.24 20.8
-1 -3 4 583.34 18.8
-1 3 -4 556.14 20.4
1 -3 -4 582.14 20.8
1 -3 -4 577.44 20.3
2 -3 4 645.44 22.4
2 3 -4 629.14 18.2
-2 3 4 607.64 21.2
2 3 -4 615.84 18.3
-2 3 4 610.44 21.6
2 -3 4 623.74 22.3
-2 -3 -4 588.44 21.7
2 -3 -4 605.94 21.4
-2 3 -4 637.04 22.3
2 3 4 627.94 21.7
-2 3 -4 619.14 22.1
2 -3 -4 624.04 21
-2 -3 4 622.64 18.3
-2 -3 4 656.33 18.5
-3 -3 -4 2658.73 70.99
3 3 -4 2660.33 67.09
3 -3 4 2627.74 74.39
3 -3 4 2636.14 74.49
-3 -3 -4 2651.73 73.69
-3 3 4 2643.24 72.99
-3 3 4 2525.35 72.29
3 3 -4 2658.83 67.49
-3 3 -4 2585.64 74.19
-3 3 -4 2582.54 74.09
-3 -3 4 2611.04 67.19
3 -3 -4 2576.74 70.09
3 3 4 2475.55 69.39
3 -3 -4 2541.95 70.09
3 -3 -4 2613.04 69.09
-3 -3 4 2653.93 67.19
-4 3 4 753.32 25.3
4 3 -4 755.12 22.7
4 -3 4 744.33 22.7
-4 -3 -4 745.03 26.1
4 -3 4 722.23 22.7
-4 3 4 737.23 25
4 -3 4 754.52 27.1
-4 -3 -4 720.53 23.4
4 3 4 696.23 21.9
4 -3 -4 689.23 21.5
4 3 4 749.03 25.3
-4 3 -4 750.32 26.9
-4 3 -4 739.43 26.8
4 -3 -4 743.43 23.1
4 -3 -4 689.93 22.8
-4 3 -4 721.93 22.8
4 -3 -4 687.93 24.8
-5 3 4 572.24 21.1
5 -3 4 562.44 19.4
5 3 -4 541.55 18.8
5 -3 4 572.14 23.8
-5 -3 -4 554.84 19.9
-5 3 4 549.74 21.1
5 -3 4 557.84 18.8
-5 -3 -4 537.25 21.9
5 -3 -4 556.94 17.7
5 3 4 553.14 18.1
5 -3 -4 553.64 19.3
-5 3 -4 580.94 23.2
-5 3 -4 561.44 19.6
5 -3 -4 554.74 19.5
-5 3 -4 576.54 23.3
-6 3 4 276.07 14.1
6 -3 4 284.37 12.2
-6 -3 -4 229.18 13.9
6 3 -4 292.07 12.7
6 -3 4 268.87 12.8
-6 -3 -4 276.87 13.4
6 3 4 297.87 11.6
-6 3 -4 279.67 15.7
6 -3 -4 289.97 11
6 -3 -4 300.67 13.3
-6 -3 4 283.37 13.1
-6 3 -4 308.37 13.6
6 -3 -4 277.37 12.6
-7 3 4 193.98 12
7 3 -4 197.28 10.9
7 -3 4 182.88 10.1
-7 -3 -4 197.78 11.2
7 -3 4 170.28 10.7
-7 -3 -4 189.18 12.4
-7 3 -4 152.78 10.8
-7 -3 4 184.88 11.2
7 -3 -4 177.48 8.6
7 -3 -4 157.18 10.5
-7 3 -4 181.28 13.7
7 3 4 164.78 9
7 -3 -4 155.78 10
8 3 -4 845.62 30.1
-8 -3 -4 875.11 31.1
8 -3 4 846.52 28.8
-8 -3 4 848.62 30.4
8 -3 -4 908.41 31.1
8 3 4 854.71 27.7
-8 3 -4 844.22 30.6
8 -3 -4 867.11 30.8
8 -3 -4 846.52 27.1
-9 -3 -4 52.99 8.7
9 -3 4 36.9 6.5
9 3 -4 38.4 3.5
9 3 -4 33.9 6.8
9 3 4 71.39 7.1
-9 3 -4 69.69 9.4
9 -3 -4 47.3 8.2
9 -3 -4 52.09 8.3
-9 -3 4 55.09 8.4
10 -3 4 227.28 13.2
-10 -3 -4 211.78 15.3
10 3 -4 210.38 14.2
10 3 -4 201.08 8.5
-10 3 4 195.68 15.5
-10 -3 4 184.18 14
10 -3 -4 192.98 14
10 -3 -4 182.88 10.8
-10 3 -4 183.28 14.4
10 -3 -4 173.38 13.7
10 3 4 184.18 11.3
11 3 -4 22.9 3.7
-11 3 4 27.3 7.8
-11 -3 -4 21.8 8.3
11 -3 4 23.8 6.1
11 3 -4 13.7 6.7
-11 -3 4 15.6 7.2
11 -3 -4 10.1 6.7
-11 3 -4 20.9 7
11 -3 -4 14.6 4.9
11 3 4 18.6 5.4
12 3 -4 81.09 7.1
-12 3 4 87.59 13
-12 -3 -4 101.59 14.1
12 -3 4 88.49 10.6
12 3 -4 83.89 12.6
12 3 4 94.09 9.9
-12 3 -4 87.59 12.5
12 -3 -4 96.19 13.2
12 -3 -4 78.79 8.9
-12 -3 4 66.99 11.7
-13 3 4 30.1 10.4
13 -3 4 29.5 7.9
13 3 -4 26.7 5.4
-13 -3 -4 37.5 10.7
-13 3 -4 44.5 11.1
13 -3 -4 37 7.1
13 3 4 34.2 7.3
13 -3 -4 45.8 10.7
-13 -3 4 48.4 10.6
0 -4 4 2498.85 69.19
0 4 -4 2488.45 69.09
0 -4 -4 2495.85 70.39
0 4 4 2507.05 70.49
0 4 4 2527.45 70.09
0 -4 -4 2488.75 69.69
0 -4 4 2465.05 68.99
1 4 -4 637.84 19.9
-1 4 4 562.54 21.2
-1 -4 -4 579.84 21.3
1 4 -4 598.34 16.9
-1 -4 -4 565.94 20.6
1 -4 4 601.54 21
-1 4 4 596.54 21.3
1 -4 4 574.64 21
1 4 -4 615.14 19.2
-1 -4 4 566.14 19
1 4 4 548.45 20.8
1 -4 -4 565.84 21.2
-1 4 -4 546.25 20.5
-1 -4 4 589.84 19.3
1 -4 -4 564.94 20.6
-1 4 -4 618.34 21.3
2 -4 4 1629.34 48.5
2 4 -4 1641.34 44.2
2 -4 4 1628.84 48.5
2 4 -4 1594.54 42.2
-2 4 4 1580.94 47.6
-2 4 4 1617.14 48.2
-2 -4 -4 1586.54 47.3
-2 -4 -4 1576.14 45.8
-2 -4 -4 1578.94 47.9
-2 -4 4 1581.94 44.3
2 4 4 1612.34 44.4
-2 4 -4 1680.83 48.7
2 -4 -4 1667.63 47.6
-2 4 -4 1587.74 48.3
2 -4 -4 1571.34 47.9
2 4 4 1577.84 48.1
2 -4 -4 1536.55 44.4
-2 -4 4 1622.44 44.3
-3 4 4 1443.76 44.3
3 4 -4 1427.06 38.8
-3 4 4 1450.35 44
3 -4 4 1394.26 44.9
-3 -4 -4 1426.66 41.4
-3 -4 -4 1416.66 44.3
-3 -4 -4 1429.56 43.7
3 -4 4 1508.25 45.7
3 -4 -4 1396.06 40.8
3 -4 -4 1448.96 40.8
-3 -4 4 1471.85 39.1
-3 4 -4 1467.25 45.3
-3 -4 4 1449.55 39.1
3 4 4 1405.76 40.3
3 -4 -4 1464.45 40.2
-3 4 -4 1492.15 45.5
3 -4 -4 1428.66 44.2
-4 -4 -4 1695.63 48.2
-4 4 4 1633.74 50.89
-4 4 4 1707.53 50.89
4 -4 4 1667.83 47.5
4 -4 4 1650.53 47.4
-4 -4 -4 1694.03 51.29
4 -4 4 1721.33 53.09
-4 4 -4 1750.52 47.5
-4 4 -4 1702.03 52.49
4 -4 -4 1640.74 47.7
4 -4 -4 1679.63 46.7
4 4 4 1718.63 46.9
4 -4 -4 1642.64 47.8
4 4 4 1701.63 50.39
-4 4 -4 1708.73 52.69
5 -4 4 379.36 14.3
-5 4 4 361.96 16.6
5 4 -4 350.86 13.5
5 -4 4 371.66 14.3
-5 -4 -4 360.16 14.9
-5 -4 -4 368.86 17
5 -4 4 373.26 14
5 -4 -4 319.27 13.8
5 -4 -4 354.66 12.9
-5 4 -4 337.97 14
5 4 4 330.57 12.9
5 -4 -4 348.67 14.3
-5 -4 4 327.37 13.5
-5 4 -4 361.56 17.9
6 -4 4 203.48 10.9
6 -4 4 213.88 11.1
-6 -4 -4 222.48 13.3
6 -4 4 229.38 10.9
6 4 -4 221.88 10.7
-6 -4 -4 225.68 12
-6 4 4 218.28 13
-6 4 -4 226.98 11.6
6 -4 -4 204.68 11
6 -4 -4 208.08 11.2
6 -4 -4 213.48 9.7
-6 4 -4 202.18 14.3
-6 -4 4 205.18 10.9
6 4 4 210.28 9.8
-7 4 4 576.74 24
7 -4 4 576.34 22.2
-7 -4 -4 602.44 24.3
7 -4 4 562.54 21.1
-7 -4 -4 557.84 22.4
7 -4 4 566.24 22
7 4 -4 611.94 21.9
7 -4 -4 567.94 22.3
7 4 4 602.04 20.1
7 -4 -4 574.24 22.2
-7 4 -4 565.44 22.1
-7 -4 4 578.14 21.9
7 -4 -4 588.14 20
-7 4 -4 585.04 26
-8 -4 -4 227.18 14.1
8 4 -4 243.78 13.3
8 -4 4 225.88 12.5
8 -4 4 240.68 13.7
8 4 -4 243.58 7.3
8 -4 -4 236.88 11.3
-8 -4 4 192.88 12.8
-8 4 -4 223.78 13.7
8 -4 -4 227.08 13.5
8 -4 -4 216.08 13.3
8 4 4 233.38 11.4
9 4 -4 423.56 19.5
9 -4 4 452.75 18.9
9 4 -4 425.86 13.3
-9 -4 -4 439.56 20.8
-9 4 -4 399.46 19.9
9 -4 -4 401.76 19.8
9 -4 -4 440.26 20.5
9 4 4 424.66 17.1
-9 -4 4 424.86 19.8
10 4 -4 19.5 6
-10 -4 -4 22.2 7.8
10 4 -4 21.2 3.1
-10 4 4 18.9 7.6
10 -4 4 22.6 5.9
-10 4 -4 23.5 7.3
10 -4 -4 23.3 7
10 -4 -4 29.2 7.7
10 4 4 20.5 5
-10 -4 4 26.4 7.1
10 -4 -4 20.7 5.1
-11 4 4 123.89 14.5
-11 -4 -4 150.98 15.3
11 4 -4 146.59 14.3
11 4 -4 151.08 7.8
11 -4 4 151.08 12.3
11 -4 -4 149.49 14.8
-11 4 -4 137.59 14.5
-11 -4 4 140.09 13.9
11 4 4 120.39 10.3
11 -4 -4 131.59 10.5
11 -4 -4 131.59 14.5
12 4 -4 30.8 4.6
-12 -4 -4 24.2 9.6
-12 4 4 22 9.1
12 -4 4 17.3 6.8
-12 -4 4 30.9 8.9
12 -4 -4 25.1 6.2
12 -4 -4 15.7 7.9
-12 4 -4 25.8 9.5
12 4 4 29.8 6.5
0 5 4 689.93 24.8
0 -5 4 657.93 23.2
0 -5 4 693.53 23.7
0 5 -4 687.13 20.5
0 5 4 668.63 24.4
0 -5 -4 702.13 22.1
0 -5 -4 698.43 24.3
0 -5 -4 667.13 24.7
1 5 -4 1919.81 51.69
-1 -5 -4 1941.11 54.39
1 -5 4 1949.2 56.59
1 5 -4 1935.21 54.49
1 -5 4 2030.7 57.09
-1 5 4 2002.2 57.29
-1 5 4 1961.1 57.49
-1 -5 -4 2002.1 56.59
-1 -5 -4 1968.7 57.19
1 5 4 1923.91 56.89
-1 -5 4 1893.11 54.49
-1 5 -4 1894.11 52.59
1 5 4 1934.61 53.19
-1 5 -4 1897.61 56.49
1 -5 -4 1860.81 56.29
1 -5 -4 1824.82 53.19
-1 -5 4 1878.51 54.49
-1 5 -4 1975.6 56.59
1 -5 -4 1881.51 57.09
1 5 4 1927.41 56.59
2 -5 4 465.35 19.6
-2 5 4 436.96 19.1
-2 -5 -4 455.15 17.3
2 5 -4 458.15 15.9
-2 -5 -4 430.16 18.9
2 -5 4 481.35 19.5
-2 5 4 442.56 18.8
-2 -5 -4 449.16 18.2
2 5 -4 448.36 13.9
-2 5 -4 475.55 19.6
2 -5 -4 465.25 19.4
2 5 4 448.06 15.7
-2 -5 4 480.35 16.2
-2 -5 4 475.55 16.3
-2 5 -4 480.05 19.4
2 -5 -4 459.45 16
2 -5 -4 491.95 19.1
2 -5 -4 484.55 15.7
2 -5 -4 486.95 16.9
-3 -5 -4 1530.55 46
3 -5 4 1506.55 48
3 -5 4 1506.05 47.8
-3 -5 -4 1520.55 43.7
-3 5 4 1469.25 47
-3 5 4 1546.75 47.2
3 -5 4 1465.55 42.1
3 5 -4 1546.35 41.8
-3 -5 -4 1498.35 46.8
3 5 -4 1461.85 39.8
-3 5 -4 1485.15 47.6
3 -5 -4 1517.75 47.2
-3 5 -4 1504.25 47.5
-3 -5 4 1531.85 42.1
-3 -5 4 1524.95 41.9
3 -5 -4 1498.25 43.3
3 -5 -4 1517.15 42.4
3 5 4 1472.35 42.5
3 -5 -4 1498.35 42.6
-4 5 4 274.27 14.6
4 -5 4 266.17 10.6
-4 -5 -4 254.77 14
4 5 -4 264.17 7.3
-4 5 4 278.47 14.8
-4 -5 -4 263.47 13.2
4 -5 4 261.37 10.9
-4 -5 -4 275.77 12.2
4 -5 4 260.77 15.3
4 -5 4 278.37 11.3
4 5 -4 272.07 7.5
-4 -5 4 231.18 8.8
4 5 4 241.58 10.5
4 -5 -4 256.57 10.5
4 -5 -4 249.58 11.3
-4 5 -4 234.88 14.3
-4 5 -4 239.38 14.4
4 -5 -4 231.38 10.5
-4 -5 4 234.08 8.5
-4 5 -4 240.38 10.7
-5 -5 -4 634.14 25.7
5 -5 4 658.33 22.8
5 -5 4 663.03 22.5
-5 5 4 661.43 26.3
-5 -5 -4 678.33 23.6
5 -5 4 679.53 22.7
5 5 -4 688.73 22
-5 -5 4 709.13 22.3
-5 5 -4 703.53 22.8
5 -5 -4 671.73 23.2
-5 5 -4 706.23 28
5 -5 -4 666.93 22.9
5 5 4 679.23 21.8
5 -5 -4 671.43 21.9
6 -5 4 403.66 16.3
6 -5 4 400.16 16.4
6 5 -4 417.36 16
6 -5 4 410.46 16.1
-6 -5 -4 403.26 19
-6 5 4 392.46 19.5
-6 -5 -4 412.56 17.2
-6 5 -4 372.46 20.2
6 -5 -4 398.76 16.5
6 -5 -4 388.16 16.6
-6 5 -4 395.36 16.4
-6 -5 4 406.56 16.2
6 5 4 378.16 14.8
6 -5 -4 390.86 15
-7 -5 -4 185.88 11.8
7 -5 4 168.98 10.6
7 -5 4 160.18 10.2
7 5 -4 166.28 10.5
7 -5 4 163.08 10.6
-7 -5 4 169.08 10.9
7 -5 -4 166.38 11
7 -5 -4 149.59 9.1
-7 5 -4 154.58 13.5
-7 5 -4 160.38 10.9
7 -5 -4 168.18 10.8
7 5 4 157.98 9
8 5 -4 343.07 16.3
8 5 -4 349.77 10.6
8 -5 4 319.87 16.8
-8 -5 -4 342.87 17.6
8 -5 4 348.37 16.1
-8 -5 4 357.86 16.7
8 -5 -4 354.16 17.3
8 5 4 355.26 14.8
-8 5 -4 365.56 17.4
8 -5 -4 386.56 17.8
8 -5 -4 393.26 15.5
9 -5 4 83.89 8.8
-9 -5 -4 63.89 9.6
9 5 -4 72.79 8.9
9 5 -4 79.89 4.4
9 -5 4 79.99 10
9 -5 -4 77.39 9.7
9 5 4 67.79 7.2
-9 5 -4 70.69 9.5
-9 -5 4 63.89 8.8
9 -5 -4 83.99 10.3
-10 5 4 219.58 16
-10 -5 -4 191.38 15.2
10 5 -4 212.08 14.2
10 5 -4 191.88 8.2
10 -5 4 222.28 13.9
10 -5 -4 181.28 14.1
-10 -5 4 186.08 14.5
10 -5 -4 212.18 15.1
10 -5 -4 187.08 12
10 5 4 203.68 11.9
-10 5 -4 207.78 15
-11 5 4 76.09 11.8
11 -5 4 75.89 9.8
-11 -5 -4 66.09 11.3
11 5 -4 62.49 5.4
11 -5 -4 59.09 10.7
11 5 4 63.69 8.1
11 -5 -4 59.59 10.3
-11 5 -4 48.9 10
11 -5 -4 46.7 7.4
-11 -5 4 57.59 9.9
-12 5 4 131.39 15.8
12 -5 4 141.29 13.6
-12 -5 -4 132.09 15.3
12 5 -4 119.99 7.9
12 -5 -4 133.99 11.7
-12 -5 4 115.49 13.7
12 -5 -4 124.89 14.8
12 5 4 140.59 11.5
0 6 -4 465.85 15.6
0 6 4 508.45 20.4
0 -6 4 477.35 18.9
0 6 4 472.05 16.7
0 6 -4 400.46 17.7
0 6 4 486.85 19.8
0 -6 -4 484.75 19.6
0 -6 -4 446.56 16.9
0 -6 4 487.35 18.7
0 -6 -4 447.16 19.7
1 6 -4 305.17 13.5
-1 6 4 325.47 15.6
-1 6 4 315.47 16.1
1 -6 4 304.67 15.3
-1 -6 -4 317.67 14.9
-1 -6 -4 308.67 15.6
-1 -6 -4 287.77 13.6
1 -6 4 304.97 14.9
1 6 -4 328.97 11.4
-1 -6 4 316.77 14
1 6 4 331.77 15.5
1 6 4 335.37 12.7
1 -6 -4 344.47 16.3
-1 6 -4 313.17 14.9
-1 -6 4 338.47 14
-1 6 -4 333.67 12.2
1 -6 -4 299.97 12.7
1 -6 -4 322.77 15.3
-2 6 4 79.19 8.4
2 6 -4 75.89 6.1
2 6 -4 85.79 4.9
-2 -6 -4 85.59 8.9
2 -6 4 82.59 5.1
2 -6 4 96.39 9
-2 6 4 66.49 8.3
2 -6 4 83.69 8.1
-2 -6 -4 80.89 8.2
-2 -6 -4 74.99 7.8
-2 -6 -4 82.29 7.9
-2 -6 4 74.79 6.4
2 -6 -4 73.99 5.6
-2 6 -4 74.39 5.7
2 6 4 84.49 6.4
2 -6 -4 97.39 9.2
2 -6 -4 75.09 5.2
2 -6 -4 77.69 6.1
-2 -6 4 63.09 5.8
-2 6 -4 87.39 8.3
2 -6 -4 87.59 9.8
-3 -6 -4 787.72 28.8
-3 6 4 819.02 30.9
-3 -6 -4 830.72 27.1
3 6 -4 822.12 25.8
3 -6 4 833.82 31.4
3 -6 4 875.51 31.6
3 6 -4 798.32 23.6
3 -6 4 804.82 25.4
-3 6 4 850.51 30.7
-3 -6 -4 824.72 30
-3 -6 -4 808.92 28.4
3 -6 -4 857.31 31.1
-3 6 -4 853.41 31.1
-3 6 -4 837.82 31.1
3 6 4 838.42 26
-3 -6 4 843.42 26.2
-3 -6 4 860.61 26
3 -6 -4 850.91 26.7
3 -6 -4 847.12 25.8
3 -6 -4 867.21 26
4 -6 4 1578.44 46.6
-4 -6 -4 1635.44 47.6
-4 -6 -4 1580.14 50.79
4 -6 4 1584.14 52.89
4 6 -4 1583.34 43.2
-4 6 4 1620.84 51.59
4 -6 4 1666.63 45.8
4 -6 4 1649.73 46.5
-4 6 -4 1652.73 52.89
4 6 4 1645.34 46.3
4 -6 -4 1625.14 46.5
-4 6 -4 1618.44 45.7
4 -6 -4 1592.34 47.2
4 -6 -4 1640.74 46.3
-4 6 -4 1576.94 52.29
-4 -6 4 1619.44 44.8
-4 -6 4 1640.54 45.3
5 -6 4 885.61 28.2
-5 -6 -4 896.91 29.1
-5 6 4 839.72 32.2
5 -6 4 877.81 28.1
5 -6 4 898.21 27.7
-5 -6 -4 869.21 31.8
5 6 -4 914.91 23.8
-5 -6 4 852.61 23.9
5 -6 -4 817.12 27.2
-5 6 -4 847.22 33.5
5 6 4 863.21 27.1
-5 -6 4 862.11 24.2
-5 6 -4 876.11 27.6
-5 -6 4 848.72 26.7
5 -6 -4 862.51 28.6
5 -6 -4 814.02 27.7
6 6 -4 24.6 2.2
6 -6 4 24 5
-6 -6 -4 27.2 6
-6 -6 -4 15.6 5.3
6 -6 4 19.8 4.7
6 -6 4 25.3 4.8
-6 6 4 21.5 7
6 -6 -4 15.4 4.8
-6 6 -4 24.1 7.2
-6 -6 4 19.7 4.3
6 -6 -4 20.8 4.7
-6 6 -4 24 5.2
6 6 4 35.4 5
6 -6 -4 24.9 4.4
-7 -6 -4 588.24 23.8
7 6 -4 631.84 17.3
7 -6 4 615.84 23.6
7 -6 4 610.24 23.2
7 -6 4 593.94 22.8
-7 6 -4 589.64 28
-7 -6 4 607.44 22.6
7 -6 -4 670.03 22.6
-7 6 -4 613.04 23.3
7 -6 -4 628.64 23.6
7 -6 -4 629.54 24.1
7 6 4 608.74 21.4
-8 -6 -4 73.19 10
8 -6 4 69.29 9
8 -6 4 76.39 8.6
8 6 -4 84.19 4.1
-8 -6 4 72.79 8.4
8 6 4 81.19 7.4
8 -6 -4 74.19 9
-8 6 -4 75.99 9.1
8 -6 -4 71.69 9.2
-9 -6 -4 454.95 22
9 -6 4 506.35 22.4
9 -6 4 475.05 20.7
9 6 -4 461.95 14.6
9 -6 -4 474.25 22.1
-9 6 -4 476.45 21.7
9 -6 -4 464.35 21.6
9 -6 -4 472.25 19.6
9 6 4 490.55 19
-9 -6 4 455.95 20.6
10 -6 4 59.29 9.8
10 -6 4 43.1 7.9
-10 6 4 67.09 10.7
10 6 -4 65.89 4.9
-10 -6 -4 77.59 11.2
10 -6 -4 61.89 10.3
10 6 4 63.19 7.7
-10 -6 4 58.19 9.1
10 -6 -4 68.99 8.2
10 -6 -4 59.49 9.6
-10 6 -4 57.09 9.5
11 -6 4 142.49 12.6
-11 -6 -4 153.58 15.7
11 6 -4 151.48 7.9
-11 6 4 132.09 15.1
11 -6 -4 147.79 11.8
11 -6 -4 169.88 15.1
11 -6 -4 182.68 14.8
11 6 4 170.08 11.7
-11 -6 4 163.08 17.9
-11 6 -4 174.18 16.2
12 -6 4 3.1 5.7
12 6 -4 4.9 3.1
-12 -6 -4 1.6 8.8
-12 6 4 -3.6 7.1
12 -6 -4 3.1 6.8
-12 6 -4 -8.6 7.7
12 -6 -4 5.5 5.2
12 6 4 1 4.7
12 -6 -4 1.3 6.5
0 7 4 483.15 21
0 7 -4 469.35 16.4
0 -7 -4 478.85 21.2
0 -7 4 492.65 16.3
0 7 -4 473.75 19.7
0 -7 4 445.06 19.2
0 -7 -4 486.85 18.2
0 -7 -4 468.05 20.3
0 -7 4 453.15 19.6
0 7 4 497.65 17.7
-1 -7 -4 868.91 28.9
-1 7 4 901.61 36.3
1 -7 4 896.01 26.1
-1 7 4 885.81 31.7
-1 7 4 914.11 27.8
-1 -7 -4 863.31 30.7
1 -7 4 856.51 31.3
1 7 -4 885.91 26.1
-1 -7 -4 907.11 32
1 -7 4 847.72 30.7
1 -7 -4 864.11 32
-1 7 -4 811.22 30.5
1 7 4 853.31 27.3
-1 -7 4 862.21 29.6
-1 -7 4 846.92 26.5
1 7 4 822.52 30.7
1 -7 -4 834.82 27.6
-1 -7 4 854.61 29.2
1 -7 -4 841.52 30.9
-1 7 -4 862.81 26.8
1 -7 -4 876.21 25.8
-2 -7 -4 679.93 22.9
2 7 -4 691.93 21.3
-2 -7 -4 685.43 25.1
-2 7 4 677.13 27.2
2 -7 4 675.63 21.8
2 -7 4 696.43 27.2
-2 -7 -4 691.43 27.1
-2 7 4 661.13 27.6
2 -7 4 717.43 28
2 -7 -4 686.53 21.7
2 7 4 693.53 23.1
-2 7 -4 753.22 28
-2 -7 4 691.73 23.3
-2 -7 4 683.83 24.4
-2 -7 4 671.33 23.9
-2 7 -4 740.13 23.1
2 -7 -4 708.23 22.5
2 -7 -4 698.53 27.9
2 -7 -4 678.93 23.3
3 7 -4 180.38 8
3 -7 4 174.88 8.8
3 -7 4 198.88 14
-3 -7 -4 186.28 12.7
-3 7 4 187.28 13.5
-3 -7 -4 172.58 12.8
-3 -7 -4 184.68 11.6
3 -7 4 172.78 12.7
-3 -7 4 191.38 9.7
3 -7 -4 192.98 9.4
-3 7 -4 183.08 9.6
3 7 4 184.68 9.6
3 -7 -4 184.78 10
-3 7 -4 185.18 13.2
-3 -7 4 195.98 10.4
-3 -7 4 203.78 11.5
3 -7 -4 185.68 9.1
4 -7 4 272.67 12
-4 -7 -4 261.87 13.6
4 7 -4 266.17 9.9
-4 -7 -4 251.17 15.4
4 -7 4 247.68 12
-4 -7 -4 268.77 15.4
-4 7 4 290.37 16.8
-4 -7 4 270.97 11.9
4 7 4 265.37 12
4 -7 -4 287.37 12.3
-4 7 -4 264.87 16.5
4 -7 -4 252.17 12.4
4 -7 -4 278.27 12
-4 -7 4 260.07 11.1
5 7 -4 119.39 6
5 -7 4 124.59 8.1
-5 -7 -4 122.19 11.2
5 -7 4 120.79 8.8
-5 7 4 130.99 12.2
-5 -7 -4 142.19 10.5
5 -7 4 111.79 8.5
5 -7 -4 132.49 8.6
-5 -7 4 126.79 7
5 -7 -4 141.79 8.7
5 7 4 120.89 8.3
-5 7 -4 120.09 12.4
-5 7 -4 130.39 8.6
5 -7 -4 123.79 8.9
-5 -7 4 129.29 6.4
-6 7 4 811.42 33.1
6 -7 4 796.02 28
6 -7 4 812.82 27.8
-6 -7 -4 793.22 28.6
6 7 -4 815.72 23.1
6 -7 4 821.92 27.3
6 -7 -4 813.32 27.3
-6 7 -4 787.02 33.7
6 -7 -4 809.62 27.7
6 7 4 800.22 26.5
6 -7 -4 809.12 28.6
-6 7 -4 843.62 27.7
7 -7 4 11.6 4.6
7 7 -4 17.4 2.6
-7 -7 -4 11.1 6
7 -7 4 7 4.4
7 -7 4 14 4.9
-7 7 -4 5.1 6
-7 7 -4 10.3 5.1
7 7 4 10.9 4.1
7 -7 -4 15.2 4.5
7 -7 -4 14.3 5.2
7 -7 -4 11.9 5.1
8 -7 4 625.14 24
8 7 -4 589.54 18
8 -7 4 622.74 25
-8 -7 -4 574.54 24.9
-8 7 -4 614.74 24.3
8 -7 -4 634.24 24.8
8 -7 -4 618.04 25.1
8 7 4 569.04 21.7
-9 -7 -4 81.99 11
9 -7 4 95.59 10.1
9 -7 4 77.09 10.2
9 7 -4 94.49 5.5
9 -7 -4 90.59 9.3
9 -7 -4 82.79 10.2
9 -7 -4 121.19 12.2
9 7 4 94.39 8.8
-9 7 -4 95.69 10.9
10 -7 4 379.86 19.4
-10 7 4 381.86 21.6
10 7 -4 365.96 13.5
10 -7 4 368.16 20.5
-10 -7 -4 408.96 22
10 -7 -4 392.76 21.1
10 -7 -4 414.56 18.8
-10 7 -4 409.66 21
10 7 4 384.46 17.4
10 -7 -4 426.96 21.2
11 -7 4 -2.5 5.6
-11 -7 -4 -1.7 7.8
-11 7 4 6.5 7
11 7 -4 4 2.8
11 -7 -4 3 7
11 -7 -4 10.9 6.6
11 -7 -4 13.3 5.8
11 7 4 2.1 5
-11 7 -4 -0.4 6.5
-12 -7 -4 107.99 15
12 -7 4 109.99 12.6
-12 7 4 95.19 14.7
12 7 -4 108.69 7.4
12 7 4 112.89 10.9
12 -7 -4 96.79 11.2
12 -7 -4 100.99 14.1
-12 7 -4 93.79 13.5
12 -7 -4 94.39 13.3
0 -8 4 233.68 10.6
0 -8 -4 238.38 9.8
0 -8 4 226.18 14.2
0 8 4 256.77 12.1
0 -8 -4 224.48 12.3
0 8 -4 222.98 10.7
0 -8 -4 243.78 15.4
1 8 -4 127.39 7.7
-1 -8 -4 131.19 11.5
-1 -8 -4 132.79 7.6
1 -8 4 138.19 7.9
-1 -8 -4 139.59 10.7
-1 8 4 147.99 9.1
1 -8 4 130.59 11.2
-1 8 4 118.69 11.4
1 -8 -4 105.19 12.5
-1 -8 4 126.99 8.8
-1 8 -4 130.49 8.3
-1 -8 4 113.89 9.8
1 -8 -4 127.79 11.9
1 -8 -4 121.99 9
1 -8 -4 137.09 7.1
1 8 4 123.99 8.7
2 -8 4 568.04 19
-2 -8 -4 540.55 24.1
-2 -8 -4 555.74 19.3
-2 8 4 518.45 24.1
2 -8 4 552.84 24.8
-2 -8 -4 536.35 22.2
2 8 -4 524.85 18.3
2 -8 -4 565.74 20.4
2 8 4 571.64 20
2 -8 -4 539.05 18.1
-2 8 -4 593.14 20
2 -8 -4 531.25 24.6
-2 -8 4 551.34 20.4
-2 -8 4 536.55 21.6
2 -8 -4 538.65 19.5
-3 -8 -4 385.26 18.5
3 8 -4 368.46 13.2
-3 -8 -4 366.66 18.8
3 -8 4 378.06 20.3
3 -8 4 369.66 14.3
-3 -8 -4 377.76 15.9
-3 8 4 374.26 19.8
3 -8 -4 336.57 15
3 8 4 337.27 14.8
-3 -8 4 305.97 15.3
3 -8 -4 330.67 14
-3 8 -4 343.67 14.7
-3 -8 4 327.47 15.5
3 -8 -4 341.87 13.4
-4 8 4 15.4 6.9
-4 -8 -4 24.5 7
-4 -8 -4 22.2 6.6
4 -8 4 18.1 4.2
4 8 -4 21.1 3.7
-4 -8 -4 16.5 7.5
4 -8 -4 24.7 4.5
4 -8 -4 24.6 5.3
-4 -8 4 18.3 4.6
4 8 4 25.7 5.3
4 -8 -4 28.6 4.8
-4 -8 4 20.4 6.3
-5 8 4 394.76 22.1
-5 -8 -4 395.96 18.1
5 -8 4 393.36 16.5
5 8 -4 414.66 13.9
-5 -8 -4 401.06 20.6
5 -8 -4 386.36 16.3
-5 -8 4 399.76 15.6
5 -8 -4 415.16 17.6
5 -8 -4 383.96 16
5 8 4 413.36 16.5
6 -8 4 112.39 8.8
-6 -8 -4 119.69 11.7
-6 8 4 95.69 12.4
6 8 -4 103.99 6.2
6 -8 -4 110.79 9.4
6 -8 -4 103.89 8.5
6 8 4 107.09 8.5
6 -8 -4 96.99 8.2
7 -8 4 383.46 17.8
7 8 -4 380.16 13.2
-7 -8 -4 377.86 18.9
7 -8 -4 388.46 18.5
7 -8 -4 394.96 17.7
7 8 4 389.96 16.6
-8 -8 -4 58.49 9.7
8 -8 4 63.89 8.8
8 8 -4 64.29 5.1
8 -8 -4 55.89 8.7
8 -8 -4 56.89 8.2
8 8 4 58.89 7.2
-9 -8 -4 489.25 24.1
9 8 -4 509.75 16.8
9 -8 4 514.45 23.9
9 -8 -4 534.35 24.3
-9 8 -4 483.45 23.1
9 -8 -4 507.45 21.6
9 -8 -4 518.95 23.3
9 8 4 537.65 20.9
-10 -8 -4 52.69 10.5
10 -8 4 29.7 8.3
10 8 -4 40.7 4.6
-10 8 4 29.6 8.9
10 -8 -4 43.8 8.9
10 -8 -4 36.7 8.2
10 8 4 32.5 6.5
10 -8 -4 35.2 7.4
-10 8 -4 40.6 9.5
-11 8 4 210.68 17.6
11 8 -4 205.38 9.9
11 -8 4 223.88 16.7
11 -8 -4 232.18 16.6
11 -8 -4 220.28 17.2
11 -8 -4 222.08 15
-11 8 -4 197.08 16.2
11 8 4 220.68 13.7
0 -9 4 63.79 9.4
0 -9 -4 74.09 10.2
0 9 -4 75.39 7.1
0 -9 4 81.19 7.5
0 9 4 77.49 7.8
0 -9 -4 56.19 7.8
-1 9 4 186.78 11.3
1 -9 4 201.68 10.4
-1 -9 -4 201.78 14.8
1 -9 4 197.88 14.4
1 9 -4 193.48 10.4
-1 -9 -4 215.58 12.6
1 -9 -4 214.98 15.6
-1 9 -4 194.88 10.6
-1 -9 4 215.78 11.5
-1 -9 4 206.98 13.9
1 9 4 203.18 11.5
1 -9 -4 222.68 12.1
-2 -9 -4 316.17 18.4
-2 -9 -4 322.47 16.9
2 -9 4 342.57 19.2
2 9 -4 318.77 13.1
2 -9 4 324.67 13.2
-2 -9 4 294.97 14.9
2 -9 -4 294.37 12.4
2 9 4 296.27 14.2
-2 -9 4 300.87 16.2
-2 9 -4 294.17 13.8
2 -9 -4 298.47 14.4
3 -9 4 137.29 13.3
3 9 -4 113.69 7.8
3 -9 4 105.89 7.7
-3 -9 -4 138.59 13
-3 -9 -4 124.19 12
3 9 4 131.39 9.3
-3 9 -4 122.09 8.9
3 -9 -4 117.99 9.2
-3 -9 4 125.39 10.1
3 -9 -4 116.19 7.3
-3 -9 4 112.49 10.6
4 9 -4 627.24 21
-4 9 4 629.04 30
4 -9 4 619.24 22.7
-4 -9 -4 645.74 27.1
-4 -9 -4 651.83 31.9
4 9 4 674.33 23.5
4 -9 -4 637.14 22
4 -9 -4 675.43 24.3
-4 -9 4 616.34 24.5
4 -9 -4 648.94 23.5
-5 9 4 100.89 13
5 9 -4 106.19 7.1
-5 -9 -4 90.99 12.2
5 -9 4 94.29 8.5
5 -9 -4 92.69 7.5
5 -9 -4 95.89 8.2
5 9 4 107.99 9.1
5 -9 -4 96.09 9.6
-5 -9 4 123.09 12
-6 -9 -4 158.38 15.6
6 9 -4 160.78 8.3
6 -9 4 162.08 11.1
6 -9 -4 162.38 11.3
6 -9 -4 154.98 10.1
6 9 4 169.28 10.8
-6 -9 4 156.78 14.1
7 -9 4 19.9 5.7
-7 -9 -4 35.7 10
7 9 -4 18.6 3.7
7 -9 -4 26.4 6.6
7 -9 -4 17.6 5.2
7 9 4 21.6 5.5
8 -9 4 327.47 17.2
8 9 -4 319.07 12.4
8 -9 -4 307.77 17.4
8 9 4 290.97 14.9
8 -9 -4 318.87 16.6
8 -9 -4 327.37 16.9
9 9 -4 127.89 7.6
9 -9 4 132.89 13.7
9 9 4 139.59 10.8
9 -9 -4 113.89 13
9 -9 -4 115.29 11.3
9 -9 -4 112.69 12.1
10 9 -4 259.47 11.5
-10 9 4 257.87 18.5
10 -9 4 269.27 17.7
10 9 4 290.27 15.6
10 -9 -4 307.57 18.9
10 -9 -4 264.97 16
10 -9 -4 275.07 17.5
11 -9 4 -3.3 5.6
11 9 -4 4.7 3.4
-11 9 4 2.7 7.4
11 -9 -4 2.5 5.7
11 -9 -4 9.7 7.3
11 -9 -4 10.5 5.8
11 9 4 5.5 5.4
0 10 -4 296.77 13.5
0 10 4 263.57 14.1
0 -10 4 275.47 17.3
0 -10 4 279.97 12.9
0 -10 -4 276.07 18.3
0 -10 -4 302.47 15.4
1 -10 4 63.69 10.4
-1 -10 -4 55.99 9.7
-1 -10 -4 40 8.3
1 10 -4 59.69 6.6
1 -10 4 50.29 6.3
-1 10 4 45.3 7.2
-1 10 -4 44.2 6.4
1 10 4 35.7 6.8
-1 -10 4 45.3 8.1
-1 -10 4 52.29 6.8
1 -10 -4 46.4 7.3
1 -10 -4 36.9 8.7
-2 -10 -4 174.08 15.4
2 10 -4 201.08 10.8
2 -10 4 185.58 15.4
2 -10 4 191.98 10.3
-2 -10 -4 199.38 14.2
-2 -10 4 198.68 12.5
2 10 4 170.48 11.9
2 -10 -4 156.98 11.3
-2 10 -4 178.08 11
-2 -10 4 177.28 19.9
3 -10 4 316.37 14.2
-3 -10 -4 313.57 18.3
3 10 -4 319.97 13.8
3 10 4 341.17 16
3 -10 -4 332.77 15.8
-3 -10 4 323.77 16.9
4 10 -4 346.07 14.3
-4 -10 -4 349.96 20
4 -10 4 346.57 15.3
-4 -10 4 339.97 17.5
4 -10 -4 346.67 16.6
4 10 4 349.57 16.2
5 -10 4 274.17 14
-5 -10 -4 293.17 19.2
5 10 -4 292.47 12.6
-5 -10 4 282.37 16.8
5 -10 -4 297.37 15.4
5 10 4 305.87 15
6 10 -4 75.69 6.6
-6 -10 -4 54.29 11.4
6 -10 4 84.49 9.1
-6 -10 4 74.39 11.5
6 -10 -4 75.39 9.3
6 10 4 62.49 7.9
7 10 -4 37.5 5.1
-7 -10 -4 26.3 10.1
7 -10 4 41.3 7.3
7 -10 -4 37.4 7.6
7 -10 -4 41.7 10.9
7 -10 -4 43.6 7
7 10 4 31.5 6.5
-7 -10 4 54.79 10.2
8 10 -4 60.59 6
8 -10 4 48.2 8.2
-8 -10 -4 49.5 12.1
8 -10 -4 49.4 8.1
-8 -10 4 47.2 10.5
8 -10 -4 46.9 9.2
8 -10 -4 36.9 7.2
8 10 4 60.49 8.1
-9 10 4 215.08 21
9 -10 4 229.98 15.5
-9 -10 -4 208.48 20.7
9 10 -4 229.88 10.8
9 -10 -4 196.78 14.2
9 -10 -4 214.08 15.7
9 -10 -4 193.48 14.2
9 10 4 199.18 13.4
10 10 -4 44.2 5.5
-10 10 4 41.5 10.5
10 -10 4 49.4 9.7
10 -10 -4 37.1 8.2
10 10 4 49 8
10 -10 -4 43.6 10.1
10 -10 -4 42.4 8.8
0 11 -4 1.9 4.1
0 -11 4 -1.1 4.2
0 11 4 -0.8 5.1
0 -11 -4 -0.5 6.1
0 -11 -4 2.8 5.6
1 11 -4 526.65 20.1
-1 -11 -4 552.04 23
1 -11 4 516.95 19.5
1 -11 4 466.25 25.1
-1 -11 -4 523.05 26.2
1 11 4 492.15 21.1
-1 11 -4 521.35 20.6
-1 -11 4 483.35 19.9
1 -11 -4 481.85 21.1
2 -11 4 39.6 9.5
2 11 -4 32.3 5.6
2 -11 4 31.4 5.4
-2 -11 -4 25 7.9
-2 11 -4 28.1 6.2
2 -11 -4 15.8 6.1
2 11 4 20.2 6.4
-2 -11 4 28.8 6.5
-3 -11 -4 592.84 26.2
3 11 -4 587.04 21.4
3 -11 4 580.24 21.7
-3 -11 4 571.84 23.3
3 -11 -4 618.44 23.8
3 11 4 543.65 22.5
4 -11 4 427.46 18.3
-4 -11 -4 430.56 22.9
4 11 -4 427.36 17.4
-4 -11 4 436.56 21.2
4 -11 -4 443.26 19.9
4 11 4 498.55 20.1
5 11 -4 123.99 9
5 -11 4 122.59 10
-5 -11 -4 147.99 15.8
5 11 4 118.99 10.6
5 -11 -4 136.69 11.2
-5 -11 4 146.79 14.5
6 -11 4 64.09 8.8
-6 -11 -4 69.79 12.6
6 11 -4 61.79 6.7
6 11 4 75.29 8.8
6 -11 -4 81.89 9.9
-6 -11 4 55.39 10.5
7 11 -4 28.8 5.2
7 -11 4 27.2 6.6
-7 -11 -4 48.3 11.7
7 11 4 29.7 6.9
7 -11 -4 30.2 7.4
-7 -11 4 20.6 9
8 11 -4 111.19 8.7
-8 -11 -4 153.48 18.2
8 -11 4 115.69 12.2
8 11 4 117.19 11.1
-8 -11 4 137.29 16
8 -11 -4 116.49 13
-9 -11 -4 19.2 11.1
9 -11 4 6 6.7
9 11 -4 0.2 3.8
9 -11 -4 7.7 7.4
9 11 4 8.9 6
-9 -11 4 3.8 9.5
-10 -11 -4 68.09 14.7
10 -11 4 115.99 13.9
10 11 -4 90.39 7.9
10 11 4 100.39 10.9
-10 -11 4 97.69 15.3
10 -11 -4 88.99 12.9
0 -12 4 453.45 18.7
0 -12 -4 445.26 20.6
0 12 4 409.06 19.6
0 12 -4 451.35 19.1
1 12 -4 48.3 7.1
1 -12 4 46.5 6.7
-1 -12 -4 49.3 9
1 12 4 37.4 7.5
-1 -12 4 41.3 6.8
1 -12 -4 28.4 7
-1 12 -4 50.29 7.4
2 12 -4 664.53 24.2
-2 -12 -4 666.33 27.6
2 -12 4 657.03 24
-2 12 -4 673.13 25.5
2 12 4 656.93 25.9
2 -12 -4 638.94 25.7
-2 -12 4 617.24 24.6
3 -12 4 122.29 9.4
3 12 -4 140.89 10.2
-3 -12 -4 121.99 13.8
3 12 4 138.19 11.6
3 -12 -4 137.19 11.3
-3 -12 4 131.29 12.5
4 12 -4 392.06 17.2
4 -12 4 420.56 18.4
-4 -12 -4 419.06 22.8
4 12 4 405.36 19.2
-4 -12 4 366.26 19.6
4 -12 -4 410.66 19.4
-5 -12 -4 154.68 16.6
5 12 -4 146.99 10.5
5 -12 4 177.38 11.6
-5 -12 4 156.28 14.8
5 12 4 156.98 12.5
5 -12 -4 153.28 12.2
6 -12 4 115.09 11.5
6 12 -4 113.59 9.3
-6 -12 -4 133.89 16.3
6 -12 -4 122.29 12.5
-6 -12 4 80.59 12.2
6 12 4 114.59 11.1
7 -12 4 31.9 7.5
7 12 -4 50.59 6.8
-7 -12 -4 14 10.9
7 12 4 48.2 8.3
-7 -12 4 60.99 12.8
7 -12 -4 39.9 8.3
-8 -12 -4 39.1 12.8
8 12 -4 23.6 5.6
8 -12 4 40 8.4
8 12 4 35.4 7.6
-8 -12 4 21.8 15.9
8 -12 -4 38.5 8.9
9 -12 4 100.19 12.9
-9 -12 -4 106.09 17.2
9 12 -4 80.89 8
9 -12 -4 121.49 14.3
9 12 4 103.89 11.2
0 -13 4 -4.5 3.5
0 -13 -4 -1.6 5.4
0 13 -4 -1.5 4.7
1 -13 4 212.68 12.2
1 13 -4 208.38 13.4
-1 -13 -4 210.48 14.7
-1 -13 4 209.78 13.2
1 13 4 184.48 13.5
-1 13 -4 182.18 12.9
1 -13 -4 202.48 13.7
-2 -13 -4 78.09 11.2
2 -13 4 58.79 7.7
2 13 -4 64.49 8.3
-2 -13 4 64.29 8.9
2 -13 -4 65.59 9.1
2 13 4 57.09 8.6
-3 -13 -4 252.97 17.8
3 13 -4 240.28 14
3 -13 4 281.87 14.5
3 -13 -4 248.98 15.3
3 13 4 276.57 16.2
4 -13 4 316.37 16.3
4 13 -4 324.87 16
-4 -13 -4 305.37 20.3
4 -13 -4 322.77 18.1
4 13 4 297.87 16.8
5 13 -4 34.6 6.7
-5 -13 -4 41.3 11.5
5 -13 4 46.6 8
5 13 4 39.6 8
5 -13 -4 48.9 8.6
6 -13 4 26.3 7
-6 -13 -4 36.7 11.4
6 13 -4 25.7 5.9
6 -13 -4 13.5 6.6
6 13 4 23.7 7.5
-7 -13 -4 81.59 15.4
7 -13 4 63.09 9.7
7 13 -4 57.49 7.7
7 13 4 58.69 9.3
7 -13 -4 85.89 11.6
-8 -13 -4 20.9 13.3
8 -13 4 66.79 10.5
8 13 -4 38.6 6.7
8 -13 -4 56.29 10.6
8 13 4 40.7 8.7
0 14 -4 230.88 15.1
0 -14 -4 233.48 15.6
-1 -14 -4 6 7.3
1 14 -4 -4.4 5.2
1 -14 -4 4.3 5.9
1 14 4 4.2 6.2
-1 14 -4 0.8 5.3
2 14 -4 368.36 18.4
-2 -14 -4 335.67 20.7
2 -14 -4 355.06 19
2 14 4 340.27 19.2
-3 -14 -4 47.2 10.6
3 14 -4 53.59 8.4
3 -14 4 52.39 9.3
3 -14 -4 47.9 8.9
3 14 4 39.6 8.2
-4 -14 -4 158.88 16.9
4 -14 4 133.49 11.9
4 14 -4 160.98 12.4
4 14 4 129.59 12.9
4 -14 -4 150.38 13
-5 -14 -4 29.3 11.2
5 14 -4 21.4 6.4
5 -14 4 33.8 7
5 -14 -4 26.8 7.6
5 14 4 22.8 8.1
6 -14 4 109.69 12.2
-6 -14 -4 78.69 14.7
6 14 -4 88.69 9.7
6 14 4 86.19 11.2
6 -14 -4 116.09 13
7 14 -4 2.1 5.4
7 -14 4 6.8 6
-7 -14 -4 2.2 10.5
7 -14 -4 9.4 6.9
7 14 4 3 6.1
0 -15 -4 16.9 7.3
0 15 -4 11.2 6.5
-1 -15 -4 385.16 21.4
1 15 -4 374.06 19.9
1 -15 -4 403.36 21.1
-2 -15 -4 -1.5 6.6
2 15 -4 -1.3 5.9
2 15 4 -1.6 6.9
2 -15 -4 10.1 6.7
-3 -15 -4 213.78 17.3
3 15 -4 183.88 14.1
3 -15 -4 203.78 15.2
3 15 4 200.08 16
-4 -15 -4 11.4 9
4 15 -4 9.7 6.1
4 15 4 -1.4 6.4
4 -15 -4 1.2 6
-5 -15 -4 140.29 17.4
5 15 -4 143.49 12.7
5 15 4 158.98 14.7
5 -15 -4 178.48 14.6
-6 -15 -4 23.3 11.3
6 15 -4 9.1 6.2
6 -15 -4 1.6 6.3
6 15 4 3.1 6.7
0 16 -4 301.97 19
0 -16 -4 346.97 20
1 16 -4 -2.5 5.9
-1 -16 -4 10.5 7.7
1 -16 -4 8.3 6.7
-2 -16 -4 201.18 16.6
2 16 -4 165.88 14.6
2 -16 -4 212.18 16.4
-3 -16 -4 30.3 9.4
3 16 -4 12.5 7.2
3 -16 -4 21.2 8.3
3 16 4 17.3 8.2
-4 -16 -4 90.39 14
4 16 -4 87.29 11
4 16 4 86.99 12.2
4 -16 -4 103.99 13.5
5 16 -4 22.1 6.9
-5 -16 -4 9.8 10.7
5 -16 -4 34.4 9.1
5 16 4 22.2 8.3
0 -17 -4 44.7 9.8
-1 -17 -4 147.59 16.1
1 17 -4 134.69 14
1 -17 -4 145.59 15.3
-2 -17 -4 52.69 11.1
2 17 -4 45.4 9.3
2 -17 -4 55.19 10.6
-3 -17 -4 30.7 10
3 17 -4 16.7 7.5
3 -17 -4 32.6 8.7
3 17 4 16.9 9
0 0 5 0.1 1.9
0 0 -5 0.6 1.9
0 0 5 1 1.9
-1 0 5 698.03 21.9
1 0 -5 603.44 21.4
-1 0 5 731.13 22
1 0 5 757.92 23.6
-1 0 -5 725.73 23.3
-1 0 -5 722.03 23.5
1 0 5 749.53 23.4
-2 0 -5 903.81 29.6
-2 0 -5 909.91 29.3
2 0 5 944.71 29.5
-2 0 5 902.71 26.9
2 0 5 941.11 29.4
2 0 -5 915.41 26.5
2 0 -5 908.51 26.8
-3 0 -5 3827.62 104.49
3 0 -5 3775.12 98.29
-3 0 -5 3675.13 103.89
-3 0 5 3908.91 100.19
3 0 5 3793.52 103.89
3 0 5 3845.72 104.09
3 0 -5 3817.92 99.99
-4 0 5 614.64 18.3
4 0 -5 572.84 18.8
4 0 5 584.94 22.2
-4 0 -5 584.44 22.3
4 0 -5 584.54 16.2
-4 0 -5 581.54 22.7
-4 0 5 586.44 18.2
4 0 5 576.74 18.7
4 0 -5 582.84 19.1
-4 0 -5 595.64 19.7
4 0 -5 606.14 18.3
5 0 -5 421.76 15.6
-5 0 5 433.26 14.4
5 0 5 400.96 14.8
-5 0 -5 448.16 19.4
5 0 -5 413.26 12.3
5 0 -5 419.86 15.7
-5 0 -5 442.06 18.9
-5 0 -5 412.86 16
5 0 -5 448.36 14.5
-5 0 5 433.66 14.4
6 0 5 25.7 4.1
-6 0 -5 21.9 5.4
6 0 -5 26.1 2.4
-6 0 5 25.7 3.4
-6 0 5 29.8 3.6
6 0 -5 22.3 4.5
6 0 -5 30.3 4.9
-6 0 -5 37.4 5.4
-7 0 -5 1093.99 38.4
-7 0 5 1058.59 31.9
-7 0 -5 1068.59 35.3
7 0 -5 1096.29 35
7 0 -5 1065.59 29.9
7 0 5 1043.7 33
-7 0 5 1101.59 31.8
8 0 -5 535.05 16.9
-8 0 -5 557.24 22.7
8 0 -5 550.34 22.1
8 0 5 517.65 19.9
9 0 -5 740.13 28.4
-9 0 5 730.23 29
9 0 -5 741.13 22.8
9 0 5 761.02 26.2
-9 0 -5 713.83 28.7
-10 0 5 10.8 6.6
10 0 5 31.5 5.8
-10 0 -5 27 8
10 0 -5 34.4 7.4
-11 0 5 57.69 10.5
11 0 -5 53.79 6
11 0 5 64.99 8.3
-11 0 -5 46.2 9.7
11 0 -5 64.89 10.4
12 0 -5 -1.6 3.4
12 0 5 -4.8 4.4
-12 0 5 -0.3 7
-12 0 -5 2 7.4
12 0 -5 -10.2 5.7
-13 0 5 303.87 21.3
13 0 -5 286.27 14.8
13 0 -5 321.97 21.3
-13 0 -5 288.17 21.3
13 0 5 328.27 18.6
0 -1 -5 1047.2 31.4
0 -1 5 1082.99 31.1
0 1 -5 965.3 30.7
0 -1 5 1062.79 30.9
0 1 -5 1046.7 30.8
0 1 5 1018.9 31.3
1 1 -5 799.02 23.8
1 -1 5 814.32 25.6
-1 1 5 821.02 25
-1 -1 -5 777.72 25.7
1 1 -5 788.02 23.8
1 -1 5 838.32 25.8
-1 1 -5 812.62 25.6
1 1 5 780.22 25.4
1 1 5 787.32 25.6
-1 -1 5 772.42 23.7
1 -1 -5 794.62 24.5
-1 1 -5 791.82 25.6
-1 -1 5 780.82 23.9
2 -1 5 3898.91 102.99
2 1 -5 3704.73 98.99
2 -1 5 3770.02 102.79
-2 -1 -5 3691.73 102.49
-2 -1 -5 3664.43 102.79
-2 1 5 3750.82 100.79
-2 -1 5 3816.72 99.09
-2 1 -5 3727.73 102.69
2 1 5 3773.02 102.39
-2 -1 5 3812.12 99.19
2 1 5 3846.92 102.79
2 -1 -5 3880.41 100.29
-2 1 -5 3966.1 103.49
2 -1 -5 3687.83 100.49
3 1 -5 898.61 24.7
-3 -1 -5 876.51 26.1
-3 1 5 850.41 26.2
3 1 -5 878.01 24
-3 1 5 865.01 26
3 -1 5 893.81 29.1
-3 -1 -5 856.11 28.6
3 -1 5 869.11 29
-3 -1 -5 880.01 29.1
3 -1 -5 822.92 25.4
-3 1 -5 841.02 29
3 1 5 859.21 28.5
-3 1 -5 804.02 28.5
-3 -1 5 854.41 24
-3 -1 5 841.92 23.9
3 -1 -5 849.22 26
3 -1 -5 808.32 23.5
3 1 5 849.81 28.3
-4 -1 -5 687.33 22.3
-4 -1 -5 687.73 25.2
4 1 -5 694.83 19.2
4 -1 5 689.33 25.1
4 1 -5 701.33 21.6
-4 1 5 721.93 22.2
4 -1 5 687.73 21.3
-4 -1 -5 655.23 24.6
-4 1 5 713.63 21.9
-4 1 -5 658.23 25
-4 -1 5 708.73 19.2
4 -1 -5 695.73 21.9
-4 1 -5 650.13 25.1
4 1 5 635.14 24.2
4 -1 -5 658.13 19.3
4 -1 -5 674.33 21.4
4 1 5 661.03 21
-4 1 -5 702.13 22.1
4 -1 -5 693.53 21.9
5 1 -5 68.69 5.6
-5 1 5 66.99 5.7
-5 1 5 70.29 5.6
5 -1 5 67.19 5.3
-5 -1 -5 78.99 7.6
-5 -1 -5 75.99 6.7
5 -1 5 64.69 7.3
-5 -1 -5 57.29 7.3
-5 1 -5 55.69 7.3
5 -1 -5 66.29 5.7
-5 1 -5 72.79 7.6
5 -1 -5 70.79 5.8
-5 1 -5 73.89 6.5
5 -1 -5 65.49 3.7
5 -1 -5 63.19 5.4
5 1 5 66.39 5.1
-5 -1 5 63.29 3.3
-6 1 5 185.78 9.4
-6 -1 -5 190.68 10.9
-6 1 5 191.58 9.5
6 1 -5 188.08 5.7
6 -1 5 181.08 9.1
6 1 -5 196.28 5.8
6 1 -5 189.68 9.9
-6 -1 -5 185.58 12.4
6 -1 -5 162.28 9.5
6 -1 -5 159.18 9.5
-6 1 -5 166.58 12
6 -1 -5 164.88 6.9
6 1 5 156.38 8.6
-6 1 -5 159.58 9.6
-6 -1 5 160.48 6.4
7 1 -5 338.17 10.5
-7 -1 -5 335.27 17.8
-7 -1 -5 354.16 16.3
7 -1 5 314.57 14
-7 1 5 350.76 14.3
7 1 -5 308.47 15
7 1 5 366.76 14.3
-7 1 -5 348.37 16.2
7 -1 -5 354.36 15.7
7 -1 -5 350.86 11.9
-7 -1 5 333.37 10.9
7 -1 -5 361.66 15.8
-7 1 -5 332.97 18.3
8 1 -5 1447.36 45.7
8 -1 5 1445.36 43.7
-8 -1 -5 1407.46 46
8 1 -5 1408.56 39.3
8 -1 -5 1451.95 40.8
8 -1 -5 1436.56 45.8
-8 -1 5 1404.06 39
8 1 5 1490.95 43.5
-8 1 -5 1492.95 46.4
8 -1 -5 1515.75 46.2
9 1 -5 536.75 22.7
-9 -1 -5 515.05 23.1
9 -1 5 526.15 20.7
9 1 -5 517.25 16.7
9 -1 -5 527.85 22.7
9 -1 -5 508.35 17.9
-9 1 -5 553.54 23.5
9 1 5 504.65 20.2
-9 -1 5 556.64 23.6
-10 1 5 100.69 11.9
10 1 -5 104.99 6.4
10 -1 5 128.19 10
10 1 -5 113.69 11.8
-10 -1 -5 79.29 11.1
10 -1 -5 93.69 11.1
-10 1 -5 90.29 11.5
-10 -1 5 111.19 12.3
10 1 5 96.99 9.2
-11 -1 -5 -4.4 6
11 -1 5 3.3 4.5
-11 1 5 1.6 6.8
11 1 -5 -14.3 4.5
11 1 -5 0.2 2.8
-11 1 -5 -1.2 6.8
11 1 5 1.6 4.2
-11 -1 5 -0.3 6.4
11 -1 -5 -2 5.4
11 -1 -5 1.1 3.3
-12 -1 -5 151.48 16.2
12 -1 5 137.19 12.1
12 1 -5 143.69 9.2
-12 1 5 130.79 15.1
12 1 -5 147.29 15.6
-12 -1 5 164.38 16.7
12 1 5 151.38 12.3
12 -1 -5 153.18 10.1
-12 1 -5 117.99 14.5
12 -1 -5 141.39 15.2
-13 1 5 40 10.6
13 1 -5 66.19 12
13 1 -5 57.69 7.1
13 -1 5 55.59 9.4
-13 -1 -5 40.6 11.7
13 -1 -5 62.79 11.7
13 1 5 46 8.5
-13 -1 5 59.29 11.9
-13 1 -5 47.7 11.5
13 -1 -5 52.79 7.5
0 2 -5 259.87 10.9
0 2 5 266.47 11.8
0 -2 5 265.67 11
0 -2 5 278.77 11.1
0 -2 -5 267.87 11.9
-1 -2 -5 1208.28 37.2
1 -2 5 1198.78 36.7
-1 2 5 1267.67 36.8
1 2 -5 1249.57 34.8
1 -2 5 1230.28 36.9
1 2 -5 1229.28 34.9
1 -2 -5 1203.98 36.4
-1 -2 5 1238.88 35
-1 2 -5 1153.48 36.6
1 2 5 1243.88 37.2
1 -2 -5 1228.68 36
-1 2 -5 1206.88 36.7
-1 -2 5 1227.48 34.8
-2 -2 -5 908.91 29.1
2 2 -5 884.01 24.9
2 2 -5 899.01 25
2 -2 5 877.71 28.9
-2 2 5 881.01 27.7
2 -2 5 896.11 29
-2 2 5 864.61 27.3
-2 -2 5 845.12 25
-2 2 -5 858.91 28.7
2 -2 -5 877.91 27.1
2 2 5 863.21 28.3
-2 2 -5 873.41 28.9
2 2 5 861.81 28.5
-2 -2 5 871.31 24.9
-3 2 5 608.24 20.8
-3 2 5 582.04 20.8
-3 -2 -5 580.74 20
3 -2 5 605.84 22.8
-3 -2 -5 561.74 22.3
3 2 -5 615.04 17
3 -2 5 590.04 22.6
-3 -2 5 653.03 17.1
-3 -2 5 648.64 17.2
3 -2 -5 627.14 18.1
3 -2 -5 642.54 21.1
3 2 5 609.34 22.1
-3 2 -5 609.74 22.8
3 2 5 634.34 25.1
3 2 5 608.64 19.1
3 -2 -5 636.24 19.6
-3 2 -5 631.34 23.1
4 -2 5 1019.6 30
4 -2 5 992.2 34.2
4 2 -5 1034.4 29.9
4 -2 5 1020.7 30
-4 2 5 1004.8 31.6
-4 -2 -5 1009 30.9
-4 -2 -5 993.8 33.8
-4 2 5 1070.79 31.7
-4 2 -5 1028.2 30.4
4 2 5 1021.2 29.6
4 -2 -5 1016.9 30.1
-4 2 -5 1013.3 34.5
4 -2 -5 969.5 28.3
4 -2 -5 1010 31.6
-4 2 -5 1008.2 34.2
4 -2 -5 985.9 30.3
-5 -2 -5 198.18 10.2
-5 2 5 193.88 9.8
-5 -2 -5 182.98 11.5
5 2 -5 184.28 8.8
5 -2 5 190.68 12.6
-5 2 5 191.98 10
5 -2 5 194.68 8.9
-5 2 -5 153.78 11.1
5 -2 -5 156.58 6.9
-5 2 -5 148.19 8.9
-5 2 -5 153.88 11.4
5 -2 -5 153.58 8.8
5 -2 -5 161.98 9.7
5 2 5 137.49 7.8
5 -2 -5 162.08 8.7
-6 -2 -5 251.37 14.5
6 2 -5 236.58 11.4
-6 -2 -5 250.37 12.6
6 -2 5 229.88 10.8
-6 2 5 241.28 11.9
6 2 5 228.08 10.5
6 -2 -5 233.48 9.2
-6 2 -5 247.28 14.7
6 -2 -5 242.88 11.7
6 -2 -5 244.88 11.9
-6 2 -5 209.78 11.8
-7 2 5 963.8 32.5
-7 -2 -5 920.81 35.4
7 2 -5 994.4 26.3
7 -2 5 1006.7 31.7
7 2 -5 1002.1 32.8
-7 -2 -5 1023.4 33.7
-7 2 -5 1009.4 33.2
7 -2 -5 1073.99 33.7
7 -2 -5 984 32.9
7 -2 -5 1026.4 29.4
7 2 5 1021.2 31.2
-7 2 -5 995.2 36.9
8 2 -5 288.57 15.1
8 -2 5 276.17 13.7
-8 -2 -5 314.57 16.3
8 2 -5 283.67 9.5
8 -2 -5 315.57 12.2
-8 -2 5 329.47 16.3
8 -2 -5 304.17 15.7
-8 2 -5 301.47 16
8 -2 -5 320.77 15.8
8 2 5 288.77 13.5
9 -2 5 425.46 18.5
-9 -2 -5 493.35 21.7
9 2 -5 429.76 19.6
9 -2 -5 430.56 20.4
9 2 5 434.36 17.9
9 -2 -5 433.76 19.9
-9 -2 5 447.56 20.8
9 -2 -5 452.75 16.4
-9 2 -5 413.56 20.5
10 -2 5 188.78 12.1
-10 2 5 172.68 13.4
10 2 -5 190.58 13.5
-10 -2 -5 137.49 12.2
10 2 -5 173.38 7.9
-10 -2 5 185.78 14.2
-10 2 -5 190.68 14.6
10 -2 -5 180.98 12.8
10 2 5 178.88 11.4
11 2 -5 29.4 4.2
-11 -2 -5 37.4 9.3
-11 2 5 33 8.9
11 2 -5 25.4 7.9
11 -2 5 34.8 7
11 2 5 47 7.3
11 -2 -5 19.7 7.4
-11 2 -5 35.9 9.3
11 -2 -5 25.8 5.1
-11 -2 5 28.5 8.4
12 -2 5 87.79 10.7
-12 2 5 88.59 12.9
12 2 -5 88.89 7.2
-12 -2 -5 76.49 12.7
12 2 -5 84.19 12.1
-12 -2 5 94.29 12.8
12 -2 -5 100.69 9.3
12 2 5 92.69 10.4
-12 2 -5 64.59 11.8
12 -2 -5 88.09 12.7
13 2 -5 125.19 9.3
-13 -2 -5 108.79 16
13 2 -5 131.59 15.9
-13 2 5 107.89 14.9
13 -2 5 129.99 13.1
-13 -2 5 103.69 14.6
-13 2 -5 123.79 15.5
13 -2 -5 129.39 11
13 -2 -5 127.59 15.2
13 2 5 143.79 13.2
0 3 -5 639.44 21.3
0 -3 5 644.54 21.4
0 -3 5 620.24 21.3
0 -3 -5 654.23 22.1
0 -3 -5 634.34 22.4
0 3 5 647.14 22.6
1 3 -5 1055.29 30.8
1 -3 5 1013.5 32.8
-1 -3 -5 1057.09 33.5
-1 3 5 1048.8 32.7
1 -3 5 1061.69 33
1 3 -5 1047.2 30.9
-1 -3 -5 1073.49 33.2
-1 3 5 1049.09 33.2
-1 -3 5 1077.59 31
1 -3 -5 1076.69 33.2
-1 3 -5 1010.6 32.7
-1 3 -5 1078.09 33.1
-1 -3 5 1030.2 31
1 3 5 1063.19 33.4
1 -3 -5 1031 32.4
2 -3 5 627.84 22.5
-2 3 5 603.14 21.3
2 3 -5 629.24 18.4
-2 3 5 635.14 21.9
-2 -3 -5 614.64 22.5
2 -3 5 596.04 22.4
-2 3 -5 610.04 22.3
2 -3 -5 586.04 21.4
2 3 5 579.74 21.7
-2 -3 5 610.24 18.7
-2 3 -5 585.74 22.1
2 -3 -5 627.64 19.5
-2 -3 5 613.14 18.4
2 -3 -5 589.64 20.9
-3 -3 -5 2362.06 63.89
3 -3 5 2287.97 67.39
-3 -3 -5 2248.97 66.69
3 3 -5 2397.26 60.19
-3 3 5 2253.37 65.69
-3 3 5 2270.77 65.19
3 -3 5 2224.38 67.09
-3 3 -5 2238.48 67.09
3 -3 -5 2279.67 62.59
-3 3 -5 2372.96 67.49
-3 -3 5 2360.06 60.49
3 -3 -5 2327.17 61.79
3 3 5 2334.77 62.59
3 3 5 2259.17 65.99
3 -3 -5 2375.46 63.09
-3 -3 5 2351.76 60.29
-4 3 5 178.48 10.1
4 -3 5 210.88 8.8
4 -3 5 171.48 8.2
-4 -3 -5 199.78 9.9
4 3 -5 202.18 8.4
4 -3 5 183.98 11.9
-4 3 5 188.08 10.6
-4 -3 -5 189.48 11.7
4 -3 -5 146.69 8
4 3 5 161.28 8
-4 3 -5 159.18 11.2
-4 3 -5 147.29 10.8
4 -3 -5 152.58 7.1
-4 3 -5 171.98 8.5
4 -3 -5 168.88 8.6
4 -3 -5 167.98 10.1
5 -3 5 871.11 26.6
-5 3 5 825.12 28.5
-5 -3 -5 834.02 27.4
5 3 -5 808.42 26.2
5 -3 5 830.72 26.8
-5 -3 -5 849.91 30.7
-5 3 5 833.12 29
5 -3 -5 815.22 27
-5 3 -5 823.12 34.5
5 3 5 849.41 25.9
5 -3 -5 865.61 27.1
-5 3 -5 815.02 26.8
5 -3 -5 852.21 25
-5 3 -5 917.31 32
6 -3 5 354.46 14.7
6 -3 5 357.46 14.1
-6 3 5 366.86 16.2
-6 -3 -5 340.27 15.4
6 3 -5 353.66 14.3
-6 -3 -5 336.87 17.2
6 -3 -5 315.67 14.4
6 -3 -5 325.17 12.3
6 3 5 335.67 13.2
6 -3 -5 307.17 14.3
-6 3 -5 315.77 14.6
-6 3 -5 317.87 17.6
-7 -3 -5 153.18 11
-7 3 5 153.68 10.9
7 3 -5 173.48 10.2
7 -3 5 141.69 9.3
-7 -3 -5 133.59 11.3
7 -3 -5 138.09 7.7
7 -3 -5 127.69 9.6
7 3 5 137.39 8.5
7 -3 -5 133.09 9.1
-7 3 -5 127.79 10
-7 3 -5 123.29 12.3
-7 -3 5 133.79 9.8
8 3 -5 967.1 25.9
8 -3 5 964.7 32.1
-8 -3 -5 964.3 34
8 3 -5 1016 33.5
8 -3 -5 948.41 33.6
8 3 5 990 31.2
8 -3 -5 974.2 33.8
8 -3 -5 973 30
-8 3 -5 925.31 33.5
-8 -3 5 1003.4 33.8
9 -3 5 76.79 8.3
-9 -3 -5 69.89 10
9 3 -5 90.59 9.8
9 -3 -5 67.29 8.9
9 -3 -5 91.29 7.2
-9 3 -5 89.89 10.5
9 -3 -5 87.59 10.4
9 3 5 104.59 8.6
-9 -3 5 69.39 9.4
10 3 -5 148.49 6.8
10 -3 5 156.58 11.4
-10 -3 -5 134.79 13.8
-10 3 5 162.98 14.3
10 3 -5 157.08 12.5
10 -3 -5 151.18 12.8
-10 3 -5 137.29 13.6
10 -3 -5 140.39 11.6
10 3 5 145.89 10.4
-10 -3 5 142.39 12.6
11 3 -5 92.49 6.1
11 3 -5 88.59 11.6
-11 3 5 86.99 12.6
-11 -3 -5 83.99 12.3
11 -3 5 96.79 10.6
-11 -3 5 71.99 11
-11 3 -5 76.49 11.8
11 -3 -5 89.39 12
11 3 5 99.99 10
11 -3 -5 86.19 8.4
12 -3 5 53.99 8.9
-12 -3 -5 46 11.1
12 3 -5 42.8 5.3
-12 3 5 42.6 10.5
12 3 -5 34.6 9.2
-12 3 -5 16.9 9
-12 -3 5 40.7 10.7
12 -3 -5 34.6 9.3
12 -3 -5 44.5 7.1
12 3 5 36.2 7.4
0 -4 5 1144.09 34.8
0 -4 -5 1102.49 35.9
0 4 -5 1146.19 34.8
0 -4 5 1142.59 34.8
0 4 5 1155.08 36.2
0 -4 -5 1100.89 35.3
-1 4 5 77.09 7.1
-1 4 5 70.99 6.9
1 4 -5 77.79 5.3
1 -4 5 76.89 6.9
-1 -4 -5 75.69 6.4
-1 -4 -5 76.99 7.4
1 -4 5 82.69 6.6
-1 -4 -5 70.29 6.5
1 4 -5 73.89 3.8
-1 -4 5 58.69 5.2
-1 -4 5 63.89 5.1
1 4 5 63.49 6.7
1 -4 -5 67.49 6.9
1 -4 -5 72.29 5.7
-1 4 -5 70.59 6.7
-1 4 -5 65.99 6.4
1 -4 -5 63.99 6.1
-2 -4 -5 2824.92 80.39
-2 -4 -5 3013.1 83.09
2 4 -5 2917.11 78.89
2 -4 5 2901.31 83.49
2 -4 5 2801.62 83.29
-2 -4 -5 2890.61 83.39
-2 4 5 2964 83.29
-2 -4 -5 2953.4 82.79
-2 4 5 2987.3 82.89
2 4 -5 2914.41 76.79
2 -4 -5 3053.99 82.59
2 -4 -5 3008.8 79.19
-2 -4 5 2957.8 79.29
2 -4 -5 2920.71 79.19
-2 4 -5 2980.8 83.69
2 -4 -5 3032.5 83.39
-2 4 -5 2830.82 83.09
-2 -4 5 3020.3 79.19
2 4 5 3147.39 87.79
2 -4 -5 2991.3 78.69
2 4 5 3039 79.29
-3 -4 -5 1182.68 35.5
-3 4 5 1177.88 38
3 -4 5 1217.68 39.5
-3 -4 -5 1113.69 38.1
3 -4 5 1168.48 39.1
3 4 -5 1158.18 32.2
-3 4 5 1162.78 37.5
3 4 -5 1134.09 30.5
3 -4 -5 1171.08 33.5
-3 4 -5 1182.98 38.9
-3 4 -5 1188.18 39
-3 -4 5 1228.28 32.7
-3 -4 5 1210.78 32.5
3 -4 -5 1190.08 37.9
3 -4 -5 1216.18 34.4
3 4 5 1158.68 34
3 -4 -5 1133.69 34.1
-4 -4 -5 653.13 22.5
4 -4 5 609.14 20.8
-4 4 5 676.03 24.9
-4 -4 -5 642.04 25.1
4 4 -5 681.43 21
4 -4 5 670.33 26.3
4 -4 5 652.73 21.5
-4 4 5 641.64 24.2
4 -4 -5 667.33 20.6
-4 4 -5 670.03 21.3
4 4 5 656.83 21.1
-4 4 -5 666.83 26.2
4 -4 -5 662.93 21.8
4 -4 -5 658.13 21.7
-4 4 -5 672.43 26.2
5 -4 5 197.68 10
5 4 -5 187.08 9.4
-5 -4 -5 216.38 11.5
5 -4 5 190.98 9.7
-5 4 5 202.98 12.4
-5 -4 -5 202.58 13.1
5 -4 -5 185.98 10
5 4 5 202.38 9.5
5 -4 -5 198.98 8.9
-5 4 -5 186.28 13.1
-5 4 -5 203.48 10.2
5 -4 -5 181.78 9.9
6 4 -5 252.77 11.7
6 -4 5 252.87 12
-6 -4 -5 235.88 13.1
-6 -4 -5 261.67 15.2
-6 4 5 229.38 13.9
6 -4 5 245.18 12.1
-6 4 -5 237.08 15.6
6 -4 -5 265.97 12.6
-6 -4 5 261.77 12.2
6 -4 -5 247.88 10.7
6 4 5 265.07 11.5
6 -4 -5 243.98 12.3
-6 4 -5 263.17 12.7
-7 -4 -5 647.24 24.8
7 4 -5 624.34 23.2
7 -4 5 648.64 24
7 -4 5 622.34 23
-7 4 5 607.34 28.3
7 -4 -5 645.24 21.6
7 -4 -5 678.33 24.4
-7 -4 5 683.33 24
-7 4 -5 620.24 23.8
7 -4 -5 654.63 24.3
-7 4 -5 631.24 28.2
7 4 5 679.13 22.3
8 -4 5 110.29 9.3
8 4 -5 114.39 9.3
-8 -4 -5 112.89 11
-8 -4 5 116.79 10
8 4 5 112.39 8.2
8 -4 -5 100.49 10.4
8 -4 -5 94.59 7.5
-8 4 -5 104.49 10.3
8 -4 -5 94.79 8.6
-9 -4 -5 307.17 17.4
9 4 -5 304.27 16.1
9 -4 5 296.17 15.3
9 4 -5 294.37 9.4
9 -4 -5 270.37 16.1
-9 4 -5 289.17 16.7
9 4 5 302.27 14.1
9 -4 -5 308.47 16.8
9 -4 -5 290.27 13.4
-9 -4 5 326.17 16.8
-10 4 5 31.4 8.8
-10 -4 -5 44 9.5
10 -4 5 56.09 8
10 4 -5 51.99 4.1
10 4 -5 57.59 8.9
-10 -4 5 52.69 8.9
10 -4 -5 39 8.3
-10 4 -5 34.6 8.3
10 4 5 66.49 7.8
10 -4 -5 34.8 8.3
-11 4 5 77.29 12.2
11 4 -5 94.29 6
11 4 -5 91.29 11.9
-11 -4 -5 82.49 12.2
11 -4 5 91.39 10.7
11 -4 -5 97.19 12.4
11 4 5 87.79 9.4
-11 -4 5 81.89 11.2
11 -4 -5 103.29 12.8
-11 4 -5 73.59 11.5
11 -4 -5 105.49 9.7
12 4 -5 10.4 7.2
-12 4 5 5.2 7.8
-12 -4 -5 4.4 8.2
12 -4 5 8.5 6.1
12 4 -5 16 3.6
12 -4 -5 -5.2 5.8
-12 -4 5 0.2 6.6
-12 4 -5 14.2 8.3
12 -4 -5 3.4 4.5
12 4 5 10.9 5.6
0 -5 -5 62.59 6.6
0 5 5 56.99 7.1
0 -5 5 66.59 6
0 5 -5 66.09 4.5
0 5 5 59.39 7
0 -5 5 67.29 6.6
0 -5 -5 59.29 6
0 -5 -5 73.49 7.7
-1 5 5 1650.53 49.8
1 -5 5 1740.53 49.99
-1 -5 -5 1606.64 47
1 5 -5 1605.54 47.1
-1 5 5 1678.43 50.49
1 5 -5 1603.64 44.3
-1 -5 -5 1631.64 50.09
1 -5 5 1660.33 49.7
-1 -5 -5 1624.74 49.3
-1 -5 5 1602.24 47.3
-1 5 -5 1649.63 45.4
1 -5 -5 1671.43 49.6
1 -5 -5 1598.24 49.99
1 5 5 1652.73 50.09
1 -5 -5 1613.74 46.9
1 5 5 1652.53 46.2
-1 5 -5 1593.94 49.1
-1 -5 5 1616.24 47.5
1 -5 -5 1589.54 46
-2 -5 -5 578.24 20.1
-2 5 5 566.34 22.5
2 -5 5 578.14 22.7
2 -5 5 563.14 22.8
-2 -5 -5 553.24 20.6
2 5 -5 569.04 16.9
-2 5 5 576.04 22.9
-2 -5 -5 573.14 22
2 5 -5 589.04 19.2
-2 -5 -5 571.94 22.7
-2 5 -5 614.74 23.1
2 -5 -5 544.45 19
2 -5 -5 601.04 23
-2 5 -5 574.34 18.9
-2 5 -5 560.74 22.5
-2 -5 5 608.74 19.6
2 -5 -5 581.34 18.7
-2 -5 5 585.24 19.5
2 -5 -5 608.34 18.8
2 5 5 585.94 19.2
3 5 -5 579.54 17.7
3 -5 5 569.24 17.9
-3 -5 -5 587.64 23
3 -5 5 578.94 23.6
3 -5 5 607.64 23.7
-3 -5 -5 581.64 20.4
3 5 -5 561.94 15.9
-3 -5 -5 588.44 21.1
-3 5 5 565.04 22.9
-3 -5 -5 587.04 22.1
-3 5 5 578.64 22.5
3 -5 -5 517.15 18.7
-3 5 -5 531.85 22.8
3 -5 -5 532.65 18.1
3 -5 -5 543.85 22.5
3 -5 -5 513.25 18.4
-3 -5 5 544.75 17.8
-3 5 -5 540.95 22.8
3 5 5 514.55 18.5
-3 -5 5 551.54 17.8
-4 -5 -5 1118.29 38.2
-4 -5 -5 1130.79 35.1
4 -5 5 1165.48 34
4 -5 5 1131.09 39.7
4 -5 5 1098.89 33.2
-4 5 5 1081.19 37.4
4 5 -5 1086.99 29.3
4 5 -5 1075.99 29.3
-4 5 -5 1169.18 39.8
-4 5 -5 1092.89 38.8
4 5 5 1166.18 33.5
-4 5 -5 1147.39 33.2
4 -5 -5 1123.79 33.1
-4 -5 5 1133.99 30.6
-4 -5 5 1106.79 30.6
4 -5 -5 1131.49 33.9
4 -5 -5 1130.29 34.1
5 -5 5 308.47 13.4
-5 -5 -5 289.57 16.5
5 5 -5 315.97 12.6
-5 -5 -5 336.87 15.1
-5 5 5 304.27 16.3
5 -5 5 319.47 13.5
5 5 5 341.37 13.3
5 -5 -5 311.07 13.7
-5 -5 5 329.47 13
5 -5 -5 333.07 14.1
-5 5 -5 346.97 18.5
-5 5 -5 314.87 13.4
5 -5 -5 334.47 12.8
6 -5 5 539.35 20.2
-6 -5 -5 521.55 23.6
-6 -5 -5 549.65 21.6
-6 5 5 532.55 23.6
6 -5 5 556.94 20.7
6 5 -5 542.05 19.6
-6 5 -5 574.44 20.7
6 -5 -5 570.94 19.4
6 5 5 560.44 19.5
-6 5 -5 550.74 25.4
6 -5 -5 536.05 20.8
6 -5 -5 545.35 20.7
-6 -5 5 576.54 20.2
7 -5 5 15.2 4.9
-7 -5 -5 20.3 6.2
7 -5 5 16.7 4.5
7 5 -5 12.4 4.3
-7 -5 5 12.5 4.5
-7 5 -5 17.3 5.5
7 5 5 9.1 3.8
7 -5 -5 14.1 5
-7 5 -5 16.9 6.7
7 -5 -5 14.9 4.8
7 -5 -5 16.1 4.1
-8 -5 -5 197.48 13.8
8 -5 5 205.78 11.9
8 5 -5 201.98 12.2
8 -5 5 187.08 12.5
8 -5 -5 221.18 11.2
8 -5 -5 183.58 12.5
8 5 5 214.58 11.2
-8 -5 5 202.48 12.4
8 -5 -5 213.78 13.1
-8 5 -5 193.18 12.9
9 -5 5 15.4 5.1
9 5 -5 11.2 5.6
-9 -5 -5 11.6 5.5
9 5 -5 9 1.7
-9 -5 5 7 6
-9 5 -5 9.1 5.8
9 5 5 7.2 4.2
9 -5 -5 5.5 4.5
9 -5 -5 8.4 5.4
-10 5 5 83.49 11.7
10 5 -5 73.49 10
-10 -5 -5 103.29 12.5
10 5 -5 87.79 5
10 -5 5 86.49 9.9
10 -5 -5 94.79 11.1
-10 5 -5 92.79 11.8
10 -5 -5 88.29 11.4
-10 -5 5 80.39 10.3
10 5 5 95.09 9.1
10 -5 -5 81.29 8.6
-11 5 5 25.4 9
-11 -5 -5 28.9 9.3
11 5 -5 25 3.6
11 5 -5 32.3 8.3
11 -5 5 22.5 6.8
-11 -5 5 22.6 7.6
11 -5 -5 12.7 5.2
11 -5 -5 29.7 8.3
-11 5 -5 17.4 8
11 5 5 30.3 6.5
11 -5 -5 31.4 8.8
-12 -5 -5 80.49 13.3
12 -5 5 89.69 11.6
-12 5 5 79.39 13.3
12 5 -5 96.09 6.6
12 5 5 86.39 9.9
-12 5 -5 72.39 12.6
12 -5 -5 74.49 9.4
-12 -5 5 65.89 11.6
12 -5 -5 78.39 12.2
0 6 5 2745.83 79.19
0 6 5 2816.62 79.99
0 -6 -5 2652.43 75.19
0 -6 5 2639.44 77.39
0 -6 -5 2807.42 79.89
0 -6 -5 2737.33 78.59
0 -6 -5 2706.13 73.79
0 6 5 2754.52 75.19
0 6 -5 2790.92 73.59
0 -6 5 2751.52 77.89
1 6 -5 1379.66 38.9
1 6 -5 1369.86 42
-1 -6 -5 1348.77 43.9
1 -6 5 1432.46 44.7
-1 -6 -5 1407.46 45.3
-1 6 5 1383.16 45.4
-1 -6 -5 1338.67 41.7
-1 6 5 1446.96 45.2
-1 -6 -5 1411.76 40.2
1 -6 5 1392.36 44.2
1 -6 -5 1411.16 40.9
1 -6 -5 1418.56 45.3
-1 6 -5 1406.16 44.1
-1 6 -5 1398.56 39.9
-1 -6 5 1405.56 42.4
1 6 5 1367.56 40.5
1 -6 -5 1326.67 44
-1 -6 5 1426.16 42.6
1 -6 -5 1467.25 39.8
-2 6 5 1360.96 45.3
2 -6 5 1446.96 45.8
2 6 -5 1437.36 41.2
2 -6 5 1436.46 40.7
2 -6 5 1413.86 45.3
-2 6 5 1412.96 45
-2 -6 -5 1407.46 45.2
-2 -6 -5 1385.96 44.1
-2 -6 -5 1397.36 42.5
-2 -6 -5 1394.66 41
2 6 -5 1373.36 38.3
2 6 5 1306.97 40.2
2 -6 -5 1339.37 40.5
-2 6 -5 1394.96 44.9
-2 -6 5 1354.76 41.2
2 -6 -5 1383.96 39.8
2 -6 -5 1359.96 39.9
2 -6 -5 1425.76 45.5
-2 -6 5 1332.67 41
-2 6 -5 1462.45 40.4
-3 -6 -5 1572.34 48.6
3 6 -5 1624.34 43.6
-3 6 5 1565.34 51.49
-3 6 5 1615.14 51.19
3 -6 5 1586.34 51.79
3 -6 5 1653.63 45.5
3 -6 5 1619.54 52.29
-3 -6 -5 1613.04 51.29
3 6 -5 1645.44 45.8
-3 -6 -5 1629.14 47.7
-3 -6 5 1626.24 46.4
3 -6 -5 1602.04 46
3 -6 -5 1617.64 46.8
-3 6 -5 1668.33 52.19
-3 -6 5 1588.44 46
3 6 5 1586.34 46.3
3 -6 -5 1598.64 51.59
-3 6 -5 1703.73 46.5
-3 -6 5 1580.24 45.9
-4 6 5 755.42 29
4 -6 5 750.62 30.4
-4 -6 -5 715.53 28.6
-4 -6 -5 778.72 26.3
4 -6 5 738.63 23.9
4 -6 5 737.83 24.4
4 6 -5 743.63 20.9
-4 -6 5 719.23 22.3
-4 6 -5 723.23 23.3
4 -6 -5 753.72 24.5
4 -6 -5 746.43 23.9
-4 6 -5 750.52 30
-4 6 -5 748.63 31
-4 -6 5 750.12 22.7
4 -6 -5 727.33 24.8
4 6 5 761.92 24.4
5 -6 5 802.52 26
-5 6 5 761.62 30
5 6 -5 789.72 21
-5 -6 -5 745.63 29.6
5 -6 5 760.42 25.4
-5 -6 -5 789.62 27.6
5 -6 -5 792.32 25.1
5 -6 -5 740.33 25.6
-5 6 -5 702.63 30.7
-5 6 -5 760.82 25
5 -6 -5 794.72 26.4
5 6 5 748.83 25
-6 -6 -5 407.26 18.2
-6 -6 -5 407.36 20.9
6 6 -5 404.26 11.3
-6 6 5 399.86 20.4
6 -6 5 406.06 17
6 -6 5 383.86 16.6
6 6 5 395.26 15.9
6 -6 -5 406.36 16
-6 6 -5 392.36 21.7
6 -6 -5 408.96 17.5
6 -6 -5 409.16 17.1
-6 6 -5 416.56 16.8
-6 -6 5 413.66 17.5
7 -6 5 33.9 6
-7 -6 -5 35.9 7.6
7 -6 5 25.4 5.3
7 6 -5 24.8 1.8
-7 -6 5 35.7 5.9
-7 6 -5 23.7 5.9
7 -6 -5 25.8 5.9
7 -6 -5 33.3 6.1
7 6 5 38.4 5.7
7 -6 -5 27.9 4.9
-7 6 -5 34 8.5
8 -6 5 71.49 9.1
8 -6 5 61.59 7.8
-8 -6 -5 59.39 9.2
8 6 -5 67.89 3.3
8 -6 -5 75.79 7.8
8 6 5 74.99 7.5
8 -6 -5 69.49 8.7
-8 6 -5 83.59 9.6
8 -6 -5 84.69 9.9
-8 -6 5 82.09 8.9
9 -6 5 40.9 7.8
9 -6 5 44.3 7.2
-9 -6 -5 48.7 9.8
9 6 -5 40.6 3.2
9 6 5 50.89 6.8
9 -6 -5 38.2 7.6
-9 6 -5 36.2 7.8
9 -6 -5 48.8 8.3
-9 -6 5 43.2 8.9
10 -6 5 88.79 10.5
10 6 -5 98.79 5.4
10 6 5 82.89 8.9
10 -6 -5 98.09 12
10 -6 -5 125.99 13
-10 6 -5 101.59 12
10 -6 -5 105.99 10.1
-11 6 5 50.29 10.8
11 -6 5 55.79 9.2
11 6 -5 63.29 5
-11 -6 -5 57.59 12.3
-11 6 -5 59.89 10.8
11 6 5 41.3 7.3
11 -6 -5 52.09 8
11 -6 -5 56.29 10.5
11 -6 -5 32.9 9
-12 -6 -5 2 9.1
-12 6 5 -2.2 7.4
12 -6 5 0.7 5.7
12 6 -5 3.9 2.8
12 -6 -5 0.3 4.7
12 -6 -5 11.8 7.1
-12 6 -5 -0.5 7.6
12 6 5 4.5 5
12 -6 -5 8.6 7
0 -7 5 895.71 32
0 -7 -5 881.51 29.6
0 -7 -5 888.21 32.5
0 -7 -5 918.91 27.8
0 7 5 965.8 33.7
0 7 -5 927.61 28
0 -7 5 922.71 28.9
0 -7 -5 906.41 33.5
0 -7 5 949.01 32.1
0 7 5 955.3 29.4
-1 -7 -5 1553.44 46.1
-1 7 5 1592.74 51.29
-1 7 5 1573.24 49.6
-1 -7 -5 1518.75 48.6
1 -7 5 1552.84 49.1
1 -7 5 1496.45 49
-1 -7 -5 1575.64 43.8
-1 -7 -5 1600.84 50.19
-1 7 5 1607.84 47.2
1 7 -5 1476.15 42.8
1 -7 5 1586.34 42.8
1 -7 -5 1472.15 48.6
-1 -7 5 1501.15 43.4
1 7 5 1546.45 44.7
1 -7 -5 1504.45 43.1
1 -7 -5 1494.55 44.9
-1 -7 5 1478.25 46.6
-1 7 -5 1509.45 43.8
1 7 5 1486.05 48.8
1 -7 -5 1466.05 49.3
-1 -7 5 1478.35 46.5
-2 7 5 485.25 22.3
2 -7 5 467.05 16.6
2 -7 5 527.15 26.3
2 -7 5 488.15 22.6
-2 7 5 473.05 22.5
2 7 -5 470.55 16.2
-2 -7 -5 472.75 22.4
-2 -7 -5 485.45 18.3
-2 -7 -5 497.05 20.5
2 7 5 500.25 18.3
-2 -7 5 522.55 19.4
2 -7 -5 504.65 18.6
2 -7 -5 534.65 23.4
-2 7 -5 533.35 18.3
2 -7 -5 509.45 17.7
-2 -7 5 513.85 17.9
2 -7 -5 546.65 17.5
-2 -7 5 522.95 19.7
-2 7 -5 496.35 25.2
3 7 -5 726.83 21.7
-3 -7 -5 700.43 25.2
-3 7 5 729.23 29.1
-3 -7 -5 717.93 27
3 -7 5 723.83 23.1
3 -7 5 714.33 29.5
-3 -7 -5 702.03 28.7
3 7 5 709.83 24.1
-3 -7 5 730.33 24.5
3 -7 -5 731.23 23.5
3 -7 -5 719.93 24.6
-3 -7 5 717.03 24.2
-3 -7 5 744.43 24.7
3 -7 -5 732.03 23.7
-3 7 -5 771.42 24.3
-3 7 -5 741.13 30.1
4 7 -5 421.96 13.5
-4 -7 -5 404.66 19.4
-4 7 5 418.06 21
4 -7 5 420.16 15.9
-4 -7 -5 432.76 20.7
-4 -7 -5 447.06 18.5
4 7 5 398.36 16
4 -7 -5 427.56 16.1
-4 7 -5 419.16 21.6
4 -7 -5 388.96 15.7
4 -7 -5 412.66 16.8
-4 -7 5 397.86 15.3
-4 -7 5 390.16 14.9
-5 -7 -5 786.42 28.1
-5 7 5 752.52 31.1
5 7 -5 780.62 22.3
-5 -7 -5 792.22 31.4
5 -7 5 768.42 26
-5 7 -5 877.21 31.9
-5 7 -5 781.02 32.9
5 -7 -5 764.32 26.1
-5 -7 5 787.72 22.9
5 -7 -5 764.22 25.9
5 -7 -5 775.12 27
-5 -7 5 768.82 23.1
5 7 5 725.03 25.5
-6 7 5 15.9 7.1
-6 -7 -5 24.7 6.8
6 -7 5 17.9 5.2
6 7 -5 27.3 2.9
6 -7 5 24.7 5.2
6 -7 -5 30 5.8
6 7 5 27.8 5.2
6 -7 -5 25.4 5.2
-6 7 -5 23.6 5.7
6 -7 -5 21 4.7
-6 7 -5 20.9 7.4
7 7 -5 98.49 4.9
-7 -7 -5 108.29 11.2
7 -7 5 97.69 8.8
7 -7 5 92.79 9.1
7 -7 -5 103.79 9
7 -7 -5 114.79 9.4
7 -7 -5 115.29 9
-7 7 -5 105.89 14.5
7 7 5 113.69 8.6
-7 7 -5 102.09 9.6
8 7 -5 128.39 5.6
8 -7 5 128.59 11.2
-8 -7 -5 113.39 12.3
8 -7 5 127.29 10.7
8 7 5 123.09 9.4
8 -7 -5 133.59 10.8
8 -7 -5 143.89 11.3
-8 7 -5 131.59 11.2
8 -7 -5 139.59 9.9
-9 -7 -5 113.59 12.9
9 -7 5 120.59 12.5
9 7 -5 104.69 5.4
9 -7 5 134.49 11
9 -7 -5 119.79 12.1
9 7 5 120.79 9.7
9 -7 -5 106.79 11.7
-9 7 -5 97.49 11.1
-10 -7 -5 6.2 7.6
-10 7 5 10.8 7.5
10 -7 5 7.3 6.9
10 -7 5 11.6 5.7
10 7 -5 11.5 2.7
10 -7 -5 4.6 6.3
10 7 5 9 5
-10 7 -5 8.9 6.9
10 -7 -5 8.1 6
10 -7 -5 14.7 5.3
-11 7 5 14 8.5
11 -7 5 9.5 6.2
11 7 -5 7 2.8
-11 -7 -5 10.9 9
11 -7 -5 6.1 6.7
-11 7 -5 9 7.2
11 -7 -5 6.6 7.3
11 7 5 3.3 4.9
11 -7 -5 6.7 5.2
-12 -7 -5 5.5 9.5
12 7 -5 10.5 3.3
12 -7 5 7.7 6.3
-12 7 5 -0.6 7.7
-12 7 -5 8.9 8.3
12 -7 -5 4.5 5.4
12 -7 -5 6.1 6.8
12 7 5 6.3 5.5
12 -7 -5 3 6.6
0 -8 5 996.5 29.5
0 8 5 1005 31.5
0 -8 5 970.6 34.6
0 -8 -5 975.8 29.3
0 -8 -5 972.1 32
0 8 -5 926.01 29.7
0 -8 -5 975.6 36.2
-1 8 5 509.95 24
-1 -8 -5 467.95 18
-1 -8 -5 515.45 24.1
-1 -8 -5 484.05 21
-1 8 5 531.75 20.1
1 -8 5 527.15 23.7
1 -8 5 533.65 18.2
1 8 -5 500.85 18.3
-1 8 -5 569.84 19.4
1 8 5 577.14 20.6
1 -8 -5 579.14 18.4
-1 -8 5 575.54 19.1
1 -8 -5 579.94 25.2
-1 -8 5 572.64 22.7
1 -8 -5 591.84 20.7
-2 -8 -5 1200.68 35.1
-2 -8 -5 1176.98 37.8
2 -8 5 1120.09 40.7
2 -8 5 1170.98 33.9
-2 8 5 1143.19 41
2 8 -5 1183.68 33.5
-2 -8 -5 1120.79 40.7
2 8 5 1128.09 35.5
2 -8 -5 1156.68 46.6
-2 8 -5 1176.98 35.3
-2 -8 5 1083.19 37
2 -8 -5 1081.49 34.4
2 -8 -5 1113.99 33.7
2 -8 -5 1128.59 35.7
-2 -8 5 1116.19 34.7
-3 -8 -5 60.79 9.7
-3 -8 -5 68.79 7.8
3 8 -5 72.49 5.7
3 -8 5 63.99 6.3
-3 -8 -5 64.49 9.4
3 -8 5 68.59 10.1
-3 8 5 74.39 10.3
-3 -8 5 61.29 7.5
3 -8 -5 54.39 6.1
-3 -8 5 57.89 6.8
3 -8 -5 58.29 6.1
3 8 5 65.29 7.3
3 -8 -5 56.39 6.9
-3 8 -5 66.09 6.8
-4 -8 -5 729.93 29
-4 8 5 750.62 31.2
4 -8 5 729.83 24.7
4 8 -5 750.32 22.7
-4 -8 -5 716.53 30.3
-4 -8 -5 695.13 26.5
4 -8 -5 737.03 24.7
4 -8 -5 735.13 25.1
-4 -8 5 739.53 26.5
4 -8 -5 777.52 26.4
4 8 5 750.82 25.5
-4 -8 5 758.72 25.3
5 -8 5 63.69 7
-5 -8 -5 62.19 10.6
-5 8 5 64.79 10.6
-5 -8 -5 58.59 8.8
5 8 -5 61.29 4.9
5 -8 -5 59.69 6.9
5 8 5 46.8 6.4
5 -8 -5 57.09 6.6
5 -8 -5 53.19 7.2
-5 -8 5 51.89 5.6
-6 -8 -5 611.84 25.2
6 -8 5 616.14 23.3
-6 -8 -5 657.43 28.1
6 8 -5 631.34 19.2
6 -8 -5 620.94 24.2
6 -8 -5 602.84 23.1
6 8 5 645.24 22.9
6 -8 -5 619.64 23.1
-7 -8 -5 116.19 12.3
7 -8 5 117.39 9.5
7 8 -5 122.79 6.3
7 -8 -5 125.09 9.9
7 -8 -5 131.99 10.7
7 8 5 137.09 10
7 -8 -5 134.39 9.7
8 -8 5 58.19 8.5
-8 -8 -5 52.49 9.6
8 8 -5 52.39 4.3
8 8 5 43.5 6.7
8 -8 -5 48.1 8.3
8 -8 -5 61.09 8.5
9 8 -5 39.2 3.9
9 -8 5 34.8 7.8
-9 -8 -5 26.7 8.9
9 8 5 27.3 6.3
9 -8 -5 33.7 6.6
9 -8 -5 43.3 8.2
9 -8 -5 34.5 8.2
-10 8 5 10.8 7.4
10 -8 5 1.2 5.6
-10 -8 -5 3.7 8
10 8 -5 13.7 3.2
10 -8 -5 -1.8 4.2
10 -8 -5 -3.1 5.3
10 -8 -5 5 6.3
10 8 5 2.1 4.8
-11 -8 -5 -9.5 8.9
11 8 -5 2.9 2.8
-11 8 5 2.2 7.5
11 -8 -5 3.1 6
11 -8 -5 5.2 7.5
11 -8 -5 -1.8 4.5
11 8 5 2.9 5
0 -9 5 550.54 24.8
0 -9 5 597.84 20.2
0 -9 -5 598.04 27
0 9 5 584.54 21.9
0 -9 -5 615.24 22.8
0 -9 -5 584.74 21.2
0 9 -5 566.24 20.6
1 -9 5 890.51 35.1
1 9 -5 950.3 29.2
-1 -9 -5 925.11 36.1
1 -9 5 944.01 28.8
-1 9 5 913.31 30.6
-1 -9 -5 920.81 32.1
1 -9 -5 916.71 36.1
1 9 5 913.91 30.7
-1 -9 5 920.11 29.2
1 -9 -5 918.21 31
-1 -9 5 918.81 33.6
1 -9 -5 913.61 28.2
-1 9 -5 950.3 30
2 9 -5 989.7 29.9
2 -9 5 964.7 30
-2 -9 -5 1006.4 34.5
-2 -9 -5 925.11 36.7
2 -9 5 988.3 37.8
-2 -9 5 980.1 31.1
2 -9 -5 948.61 29.5
-2 9 -5 950.3 31.2
-2 -9 5 948.21 33.9
2 -9 -5 1009.9 32.4
2 9 5 948.71 31.9
-3 -9 -5 471.45 23.8
3 -9 5 517.05 25.7
3 -9 5 482.55 18.1
-3 -9 -5 477.45 22
3 9 -5 482.85 17.4
-3 -9 5 488.05 20.1
-3 9 -5 504.75 19.4
3 9 5 493.75 19.5
3 -9 -5 494.45 19.9
3 -9 -5 477.65 17.8
-3 -9 5 521.45 20.9
4 9 -5 230.68 10.3
4 -9 5 231.78 11.4
-4 -9 -5 248.58 16.7
-4 9 5 226.68 17.3
4 9 5 216.88 12.6
4 -9 -5 225.98 11.4
-4 -9 5 191.78 13
4 -9 -5 218.78 11.9
4 -9 -5 216.68 12.3
-5 9 5 467.65 24.9
5 -9 5 475.25 18.8
5 9 -5 480.15 16.3
-5 -9 -5 468.65 23.3
5 9 5 470.95 19.2
5 -9 -5 416.16 17.8
5 -9 -5 478.15 20
-5 -9 5 458.05 20.5
5 -9 -5 468.55 19
6 -9 5 50.89 7.2
-6 -9 -5 68.19 11.5
6 9 -5 54.79 5.1
6 -9 -5 65.79 8.5
6 9 5 58.69 7.4
6 -9 -5 68.09 7.6
-6 -9 5 56.69 9.9
6 -9 -5 50.39 7.1
7 9 -5 384.06 13.8
7 -9 5 395.26 18.2
-7 -9 -5 330.77 21.7
7 -9 -5 419.36 19.5
7 9 5 381.46 17.3
7 -9 -5 394.36 18
8 9 -5 63.19 5.6
8 -9 5 70.49 9.3
8 9 5 70.59 8.2
8 -9 -5 73.69 9.6
8 -9 -5 65.39 9.6
9 9 -5 31.3 4.3
9 -9 5 35.4 7.9
9 -9 -5 32.7 7.6
9 -9 -5 32.2 7.1
9 9 5 38.2 7
9 -9 -5 34.8 8.5
10 -9 5 8.2 6.9
10 9 -5 5.5 3
-10 9 5 -4.3 6.3
10 -9 -5 0.2 6.1
10 -9 -5 7.3 6.5
10 9 5 -0.8 5
10 -9 -5 4.6 5.4
11 -9 5 57.89 11.2
-11 9 5 26 9.5
11 9 -5 43.3 4.9
11 -9 -5 49.9 9.8
11 9 5 37.3 7.8
11 -9 -5 28.9 7.5
11 -9 -5 60.19 11.2
0 10 5 393.86 17.9
0 -10 5 423.26 21.6
0 10 -5 420.86 17
0 -10 -5 420.06 23
0 -10 -5 404.36 18.7
0 -10 5 423.76 16.2
1 -10 5 970.7 30.9
-1 -10 -5 996.9 34.5
-1 -10 -5 934.91 38.3
1 10 -5 992.9 31.5
1 -10 5 949.31 37.9
1 10 5 929.61 32.7
1 -10 -5 1064.99 34
-1 10 -5 996.1 32.3
-1 -10 5 1007.9 31.5
-1 -10 5 997.7 36.7
-2 -10 -5 322.07 17.9
-2 -10 -5 322.57 20.2
2 -10 5 306.47 13.5
2 -10 5 326.17 20.1
2 10 -5 327.57 14
-2 -10 5 313.77 14.7
2 -10 -5 318.17 15.7
-2 10 -5 316.87 15.1
2 10 5 311.17 15.4
-3 -10 -5 616.74 26.4
3 -10 5 592.54 21.4
3 10 -5 636.44 21.3
3 10 5 565.84 22.7
3 -10 -5 624.34 23.6
-3 -10 5 577.04 22.9
4 10 -5 97.79 7.7
-4 -10 -5 78.49 11.9
4 -10 5 96.29 9
4 10 5 128.69 10.5
-4 -10 5 116.69 11.3
4 -10 -5 123.59 10.1
5 10 -5 96.29 7.2
5 -10 5 90.49 8.1
-5 -10 -5 107.19 12.8
-5 -10 5 83.29 10.9
5 -10 -5 78.19 9.3
5 -10 -5 87.59 9.4
5 10 5 80.69 9
-6 -10 -5 102.99 14.1
6 10 -5 94.69 7.3
6 -10 5 100.99 9.9
6 10 5 112.69 10.3
6 -10 -5 98.39 10.5
6 -10 -5 113.09 9.2
-6 -10 5 88.29 11.3
7 -10 5 329.67 16.9
7 10 -5 327.07 13.1
-7 -10 -5 323.27 21.6
7 -10 -5 333.57 16.5
-7 -10 5 323.37 20
7 -10 -5 323.57 17.6
7 10 5 335.97 16.5
8 10 -5 38.5 5
8 -10 5 38 7.7
-8 -10 -5 45.9 12
8 -10 -5 33.6 8
8 -10 -5 33.7 7.2
-8 -10 5 47.4 10.5
8 10 5 38.5 7.2
8 -10 -5 29.3 7.2
9 -10 5 15.8 7.2
9 10 -5 3.5 3.4
-9 -10 -5 -5.8 8.9
9 10 5 18.7 6.2
9 -10 -5 19.1 6.3
9 -10 -5 10.5 6.8
9 -10 -5 9.4 6.9
-10 -10 -5 65.99 14.7
10 -10 5 74.19 11.2
-10 10 5 60.69 11.9
10 10 -5 64.49 6.2
10 -10 -5 57.29 8.9
10 10 5 61.39 9.1
10 -10 -5 55.79 10.1
10 -10 -5 69.59 11.7
0 11 -5 19.7 5.3
0 11 5 19.6 6
0 -11 -5 16 6.7
0 -11 5 22.6 5.4
0 -11 -5 21.3 8.2
1 -11 5 467.85 25.3
-1 -11 -5 442.56 24.9
1 -11 5 455.65 17.9
1 11 -5 507.85 19.1
-1 -11 -5 451.25 21.2
-1 11 -5 476.55 19.6
-1 -11 5 477.55 18.8
1 -11 -5 479.35 20.7
1 11 5 431.06 19.7
2 -11 5 390.16 23.4
2 -11 5 397.16 16.3
2 11 -5 398.86 16.7
-2 -11 -5 400.56 20.3
2 -11 -5 425.66 18.7
-2 11 -5 387.76 17.7
2 11 5 366.16 17.8
3 11 -5 243.28 12.1
-3 -11 -5 225.08 16.5
3 -11 5 214.68 11.9
3 -11 -5 227.38 13.6
-3 -11 5 209.78 13.6
3 11 5 210.48 13.9
4 -11 5 84.39 8.7
4 11 -5 94.99 8
-4 -11 -5 82.59 12.2
4 -11 -5 97.39 10.2
-4 -11 5 80.19 12.6
4 11 5 102.49 10.3
5 11 -5 20.5 4.7
-5 -11 -5 20.1 9.6
5 -11 5 23.9 5.9
5 -11 -5 17.9 6.2
-5 -11 5 20.7 9.1
5 11 5 15.4 5.7
6 11 -5 165.68 10
-6 -11 -5 185.18 18.2
6 -11 5 178.28 12.3
6 11 5 161.78 12.3
6 -11 -5 168.98 12.6
7 11 -5 153.38 9.6
-7 -11 -5 149.19 17.3
7 -11 5 151.68 11.7
7 -11 -5 155.98 12.9
7 11 5 162.18 12.5
-8 -11 -5 180.58 19.7
8 -11 5 203.78 14.8
8 11 -5 205.38 10.8
8 -11 -5 200.78 15.1
8 11 5 239.88 14.9
9 11 -5 25.5 5
9 -11 5 23.1 7.3
-9 -11 -5 20.6 11.9
9 -11 -5 33.6 8.9
9 11 5 22 7.2
10 -11 5 31.6 9.3
10 11 -5 31.6 5.2
-10 -11 -5 40.3 13.7
10 -11 -5 39 9.8
10 11 5 31.8 7.6
0 -12 -5 247.88 15.3
0 12 -5 249.08 13.7
-1 -12 -5 35.4 8.5
1 12 -5 41.4 6.7
-1 12 -5 39.9 6.9
1 -12 -5 33.7 7.6
1 12 5 47 7.9
2 -12 5 238.08 12.8
2 12 -5 237.88 13.2
-2 -12 -5 244.98 16.4
2 -12 -5 229.78 14.3
-2 12 -5 195.58 13.2
2 12 5 263.27 15.3
3 -12 5 44.2 6.5
3 12 -5 42.7 6.5
-3 -12 -5 52.69 10.6
3 -12 -5 57.49 8.7
3 12 5 61.99 8.5
-4 -12 -5 104.69 13.6
4 12 -5 139.09 9.9
4 -12 5 119.89 9.8
4 12 5 125.09 11.6
4 -12 -5 122.99 11
5 12 -5 53.09 6.9
-5 -12 -5 49.9 11.7
5 -12 5 48.3 7.3
5 12 5 59.39 8.8
5 -12 -5 72.79 9.9
-6 -12 -5 60.69 12.8
6 -12 5 54.69 8.3
6 12 -5 49.8 6.7
6 12 5 67.59 9.6
6 -12 -5 70.69 10.2
-7 -12 -5 233.18 20.9
7 12 -5 279.27 13.4
7 -12 5 266.87 16.2
7 12 5 261.07 16.3
7 -12 -5 262.47 16.8
8 12 -5 59.59 7.1
-8 -12 -5 70.39 14.9
8 -12 5 70.89 10.6
8 12 5 66.49 9.5
8 -12 -5 67.29 10.9
9 -12 5 152.68 13.5
9 12 -5 148.89 10.2
-9 -12 -5 146.29 19.3
9 -12 -5 157.38 16.3
9 12 5 144.59 13.4
0 -13 -5 -1.5 5.3
0 13 -5 -3.3 4
1 13 -5 53.29 8
-1 -13 -5 67.59 10.2
-1 13 -5 46.9 8.2
1 13 5 63.59 9.2
1 -13 -5 60.49 9.3
-2 -13 -5 14.8 7.7
2 13 -5 21.6 6.1
2 -13 -5 14.2 6.2
2 13 5 5.5 6.1
3 13 -5 213.28 13.1
-3 -13 -5 209.18 16.6
3 13 5 215.38 15.1
3 -13 -5 226.98 14.6
-4 -13 -5 27 10.2
4 13 -5 22.1 5.9
4 13 5 32.7 8
4 -13 -5 31.2 7.5
-5 -13 -5 52.99 12.1
5 13 -5 40 6.7
5 -13 -5 40.8 8.4
5 13 5 46.2 8.7
-6 -13 -5 86.69 14.9
6 -13 5 94.09 16.9
6 13 -5 92.19 9
6 -13 -5 93.59 11.8
6 13 5 94.19 11.5
-7 -13 -5 49.5 13.4
7 -13 5 35.4 9.1
7 13 -5 41.9 6.9
7 13 5 47.1 8.9
7 -13 -5 50.79 10.1
8 13 -5 172.48 11.6
8 -13 5 185.58 20.3
-8 -13 -5 143.49 19.9
8 13 5 172.38 14.5
8 -13 -5 204.38 15.9
0 14 -5 5.1 6.1
0 -14 -5 16.2 6.7
1 14 -5 52.99 8.6
-1 -14 -5 67.39 11.1
1 -14 -5 50.99 9.1
-1 14 -5 47.6 8.8
-2 -14 -5 9.1 7.4
2 14 -5 -1.7 5.4
2 14 5 -0.5 5.6
2 -14 -5 9.4 6
3 14 -5 19.9 6.4
-3 -14 -5 33.2 9.9
3 -14 -5 18.5 7
3 14 5 14.4 7.5
-4 -14 -5 138.39 16.3
4 14 -5 159.88 12.2
4 14 5 159.98 14.5
4 -14 -5 165.78 13.7
-5 -14 -5 74.79 13.8
5 14 -5 58.69 8.2
5 14 5 64.69 10.4
5 -14 -5 68.19 10.7
-6 -14 -5 7.3 10.2
6 14 -5 11.2 5.6
6 14 5 12.9 7.3
6 -14 -5 16.6 7.3
-7 -14 -5 121.99 17.5
7 14 -5 103.59 10.1
7 -14 -5 114.59 13.8
7 14 5 105.39 12.5
0 -15 -5 92.49 12
0 15 -5 94.39 11.3
1 15 -5 46.2 8.6
-1 -15 -5 81.39 11.7
1 -15 -5 73.49 11
-2 -15 -5 15 8.1
2 15 -5 5.7 6.4
2 -15 -5 14.8 6.9
2 15 5 15.7 7.6
3 15 -5 7.8 6.3
-3 -15 -5 12.5 8.6
3 -15 -5 16 7.4
3 15 5 16.1 7.5
-4 -15 -5 106.99 14.8
4 15 -5 87.79 10.3
4 -15 -5 84.69 11.9
4 15 5 92.09 12.1
-5 -15 -5 2.4 9
5 15 -5 5.2 5.6
5 15 5 5.3 7.3
5 -15 -5 3.5 6.3
6 15 -5 86.29 10
-6 -15 -5 84.79 16.2
6 15 5 89.39 12.2
6 -15 -5 112.79 14.1
0 -16 -5 32.4 8.6
0 16 -5 23.8 7.8
1 16 -5 5 6.3
-1 -16 -5 7.9 7.5
1 -16 -5 7.4 6.9
2 16 -5 6.3 6.5
-2 -16 -5 22.7 8.7
2 -16 -5 6 6.2
-3 -16 -5 65.69 11.9
3 16 -5 67.09 10.1
3 16 5 60.49 10.8
3 -16 -5 68.89 10.9
-4 -16 -5 8.3 8.8
4 16 -5 -0.3 5.9
4 16 5 2.8 7.5
4 -16 -5 6.1 6.8
5 16 -5 103.19 11.4
-5 -16 -5 105.09 15.7
5 -16 -5 91.19 12.5
5 16 5 109.39 13.8
0 -17 -5 63.09 11.1
-1 -17 -5 52.29 10.8
1 17 -5 23.3 8.4
1 -17 -5 39.8 9.3
-2 -17 -5 68.89 12.2
2 17 -5 88.79 11.9
2 -17 -5 76.59 11.8
0 0 -6 529.95 18.8
0 0 6 525.25 18.6
0 0 6 554.54 19
-1 0 -6 104.09 7.5
1 0 6 119.79 7.7
-1 0 6 125.29 7.1
1 0 6 128.19 7.9
-1 0 6 124.89 7
-1 0 -6 127.19 8
-2 0 -6 11.1 3.9
2 0 -6 11.7 2.7
-2 0 -6 10.3 3.9
2 0 6 6.5 3.5
2 0 6 9.8 3.3
2 0 -6 16.8 3
-2 0 6 12.8 3
-3 0 -6 8702.43 233.58
3 0 -6 8945.91 229.28
-3 0 -6 8645.93 233.88
-3 0 -6 9009.5 229.98
3 0 -6 8879.31 229.28
3 0 -6 8683.03 227.08
-3 0 6 8996.4 229.48
3 0 6 9180.88 233.88
3 0 6 8753.82 233.58
4 0 -6 6.6 1.3
4 0 6 8 3.9
-4 0 6 7.2 2.2
4 0 -6 13.5 2.9
4 0 -6 8.2 2.8
-4 0 -6 10 3.6
-4 0 -6 6.3 3.7
4 0 -6 8.9 2.4
-4 0 -6 10.2 4
4 0 6 2.4 2.1
5 0 -6 137.99 5.2
5 0 -6 149.88 7.1
-5 0 -6 143.39 8.9
5 0 -6 126.39 7.5
-5 0 6 151.58 7.1
5 0 -6 131.59 7.9
-5 0 -6 133.59 10.6
-5 0 -6 127.19 10.5
5 0 6 129.89 7.6
-6 0 -6 145.49 11.9
6 0 -6 157.18 8.9
6 0 -6 153.08 9
-6 0 -6 144.69 10
6 0 6 147.89 8.6
-6 0 6 152.18 7.4
6 0 -6 152.98 5.9
-7 0 -6 215.58 15
7 0 6 218.38 11.1
7 0 -6 216.58 8
7 0 -6 209.78 12
-7 0 6 212.08 9.6
-7 0 6 207.68 9.4
-7 0 -6 223.08 13
8 0 -6 30.7 6.4
8 0 -6 17.5 3
8 0 6 29.6 5.5
-8 0 -6 41.1 7.5
9 0 6 31 5.9
9 0 -6 30.6 6.9
9 0 -6 31 3.8
-9 0 -6 35 7.8
-10 0 -6 43 8.9
10 0 6 70.09 8.6
-10 0 6 57.49 9.9
10 0 -6 64.29 9.5
11 0 -6 33 4.8
11 0 6 22 6.3
-11 0 -6 26.2 8.9
11 0 -6 44.4 8.9
-11 0 6 35.9 9.4
12 0 -6 5.5 3.7
12 0 -6 -2 6.1
-12 0 -6 4.7 8.4
12 0 6 0.4 4.9
-12 0 6 12.1 8
-13 0 -6 33 9.9
13 0 -6 68.69 12.2
-13 0 6 50.19 11.6
13 0 6 58.19 9.8
13 0 -6 47.8 6.8
0 -1 -6 284.07 12.4
0 -1 6 291.57 11.9
0 -1 6 278.67 11.8
0 1 6 288.37 12.2
0 1 -6 272.47 11.7
0 1 -6 285.67 12
0 1 6 262.27 12
-1 1 6 138.49 8.3
-1 -1 -6 149.39 9
1 1 -6 144.49 7.4
1 1 -6 140.69 7.4
1 -1 6 131.59 8.4
1 -1 6 140.69 8.4
1 1 6 146.19 8.7
-1 -1 6 155.98 7.8
-1 1 -6 147.19 8.7
1 1 6 151.28 8.6
-1 1 -6 146.69 8.6
-1 -1 6 164.38 7.8
-2 -1 -6 9193.88 243.58
2 -1 6 9510.05 243.48
-2 -1 -6 9462.75 243.38
-2 1 6 9354.46 241.18
2 1 -6 9222.08 241.98
2 -1 6 9067.39 242.88
2 -1 -6 9497.35 240.58
-2 1 -6 9474.55 243.48
2 -1 -6 8891.71 237.78
2 -1 -6 9664.43 241.08
-2 1 -6 8991 243.38
-2 -1 6 9006.3 246.38
2 1 6 9193.58 242.88
-2 -1 6 9110.09 239.58
2 1 6 9478.95 243.38
-3 -1 -6 981.5 33.3
-3 -1 -6 943.21 32.7
3 -1 6 977.3 32.9
-3 -1 -6 1006 30.2
3 1 -6 1012.4 28.4
3 -1 6 1006.1 33.2
-3 1 6 1020.3 30.5
3 1 -6 1026.9 26.2
3 1 -6 1028.7 30.6
-3 -1 6 979.8 28.4
-3 1 -6 1001.1 29.6
-3 1 -6 981 33.1
-3 1 -6 987.7 33.4
-3 -1 6 995.2 28.3
3 1 6 978.2 32.8
3 1 6 994.9 29.2
3 -1 -6 984.5 30.1
3 -1 -6 961 27.4
3 -1 -6 993.3 29.3
3 1 6 1023.4 32.9
4 1 -6 2262.87 56.69
4 1 -6 2163.88 60.59
-4 -1 -6 2124.69 61.49
-4 -1 -6 2229.08 65.69
4 1 -6 2270.17 58.79
4 -1 6 2270.57 60.79
4 -1 6 2328.17 65.99
-4 1 6 2243.68 61.29
-4 1 6 2215.28 61.39
-4 -1 -6 2238.18 65.29
-4 1 -6 2159.78 61.19
-4 -1 6 2270.47 58.69
4 -1 -6 2128.79 61.09
4 1 6 2201.08 60.49
-4 1 -6 2253.87 66.19
4 -1 -6 2183.48 58.39
-4 -1 6 2222.48 58.79
4 -1 -6 2132.99 60.89
4 -1 -6 2180.08 60.39
-4 1 -6 2142.09 65.29
4 1 6 2181.08 64.69
-5 -1 -6 24 5
5 1 -6 28.3 4.3
-5 1 6 27.6 4.1
-5 1 6 32.8 4.3
5 1 -6 28.1 1.5
5 1 -6 28.5 1.5
-5 -1 -6 19 5.2
-5 -1 -6 24.3 5.4
5 -1 6 25.4 3.9
5 -1 -6 18.7 4
-5 -1 6 20.9 2.3
5 1 6 24 4
-5 1 -6 21.2 5.4
5 -1 -6 17.8 3.6
5 -1 -6 21.6 4.1
-5 1 -6 24.4 5.6
-5 1 -6 23.5 4.6
5 -1 -6 24.9 2.6
-6 -1 -6 156.58 11.8
-6 1 6 149.88 8.6
6 1 -6 162.28 5.3
6 1 -6 151.28 9.2
-6 -1 -6 169.48 10.6
6 1 -6 161.68 5.7
-6 1 6 159.98 8.9
6 -1 6 146.49 8.7
-6 1 -6 145.39 12.1
6 -1 -6 169.78 9.3
-6 1 -6 156.18 10.2
6 -1 -6 157.08 9.2
6 1 6 145.99 8.4
6 -1 -6 162.28 6.6
-6 -1 6 163.28 5.9
7 -1 6 24.3 4.8
-7 1 6 21.4 4.4
7 1 -6 26.4 2.4
7 1 -6 22 5.3
-7 -1 -6 27.1 6.5
-7 -1 -6 26.4 6.4
7 -1 -6 16.7 2.8
-7 1 -6 31.2 6.6
7 -1 -6 29.9 5.8
7 -1 -6 21.6 5.4
7 1 6 18.2 4.4
-7 -1 6 24 2.2
-7 1 -6 18.7 6.2
8 1 -6 967.5 32.3
8 1 -6 877.31 25.6
-8 -1 -6 917.01 32.6
8 -1 6 892.41 30.3
8 -1 -6 905.61 27
8 1 6 888.41 29.9
8 -1 -6 917.11 32
-8 1 -6 934.41 32.6
8 -1 -6 908.41 32.1
9 1 -6 59.59 4.7
-9 -1 -6 62.19 9.3
9 1 -6 54.09 8.2
9 -1 6 69.99 8.1
-9 1 -6 60.59 9.3
9 -1 -6 65.49 5.7
9 -1 -6 65.49 8.7
9 1 6 61.39 7.4
-9 -1 6 72.19 9.8
10 1 -6 64.59 9.4
10 -1 6 54.99 7.6
-10 1 6 62.59 9.5
-10 -1 -6 55.99 9.2
10 -1 -6 56.79 9
10 1 6 49.6 7.2
-10 1 -6 45.4 9.2
-10 -1 6 59.29 10
-11 1 6 11.6 7.5
11 1 -6 4.3 6.2
-11 -1 -6 8.9 7.7
11 -1 6 1.5 4.6
11 1 -6 4.3 2.8
-11 1 -6 -4.8 6.4
11 -1 -6 5.7 6.3
-11 -1 6 5.8 7
11 -1 -6 13.9 3.8
11 1 6 4 4.7
12 -1 6 11.2 6.3
-12 -1 -6 -1.3 7.6
12 1 -6 14.3 4
12 1 -6 -0.7 6.5
-12 1 6 7.1 7.9
12 -1 -6 8.3 4.1
-12 -1 6 15.6 8.1
-12 1 -6 0.9 7.9
12 -1 -6 5 6.8
12 1 6 4.2 5.4
13 -1 6 41.6 8.9
13 1 -6 52.39 11
-13 1 6 42.1 10.6
13 1 -6 29.8 5.6
-13 -1 -6 25.5 11
13 -1 -6 35.2 9.8
-13 -1 6 35 10.8
13 -1 -6 32.3 6.2
-13 1 -6 45.9 11.6
13 1 6 39.3 8.3
0 -2 6 976.9 30.1
0 2 -6 961.8 29.9
0 2 6 958.4 30.9
0 -2 -6 975.2 31
0 -2 6 949.01 29.8
1 -2 6 1237.18 38.6
1 -2 6 1283.67 38.8
-1 2 6 1295.67 38.6
-1 -2 -6 1306.57 39.5
1 2 -6 1339.67 37.1
1 2 -6 1306.17 36.8
-1 -2 6 1242.48 36.6
1 -2 -6 1231.38 38.2
-1 2 -6 1228.98 38.7
-1 -2 6 1248.28 36.8
-1 2 -6 1206.08 38.3
1 2 6 1316.67 39.5
1 -2 -6 1219.98 37.7
-2 2 6 1904.81 53.89
-2 -2 -6 1856.91 54.79
2 2 -6 1869.01 48.7
2 2 -6 1903.61 51.09
2 -2 6 1910.91 55.39
-2 -2 -6 1843.52 55.19
2 -2 6 1807.32 54.79
-2 2 -6 1879.31 55.29
-2 2 -6 1818.32 54.79
2 2 6 1874.01 54.69
-2 -2 6 1826.62 50.79
2 -2 -6 1870.01 50.09
-2 -2 6 1845.62 51.09
2 2 6 1908.11 55.09
2 -2 -6 1897.61 51.59
2 -2 -6 1824.72 53.19
-3 2 6 5121.09 136.89
3 -2 6 5340.67 139.89
-3 2 6 5120.09 136.39
-3 -2 -6 5173.98 139.49
-3 -2 -6 5068.99 135.69
3 2 -6 5225.88 132.89
3 -2 6 5242.58 139.69
3 -2 -6 5116.99 136.59
-3 -2 6 5066.19 133.89
-3 2 -6 5113.49 139.59
-3 2 -6 5271.17 139.69
3 -2 -6 4940.11 134.59
3 2 6 5153.88 138.59
3 2 6 5003.5 134.29
3 -2 -6 4961 132.99
-3 -2 6 5074.99 132.89
-3 2 -6 5147.98 134.59
3 -2 -6 5196.08 135.89
4 -2 6 2339.07 62.69
-4 2 6 2249.87 64.39
-4 -2 -6 2244.98 63.69
4 2 -6 2327.07 62.39
-4 2 6 2326.27 64.29
4 -2 6 2356.46 67.89
-4 -2 -6 2287.57 67.59
4 -2 -6 2240.68 60.69
-4 2 -6 2239.88 62.79
4 2 6 2338.17 66.79
4 2 6 2183.68 62.19
-4 2 -6 2373.16 68.29
4 -2 -6 2229.38 62.89
4 -2 -6 2291.57 64.29
4 -2 -6 2239.38 62.39
-4 2 -6 2195.78 67.29
-5 -2 -6 54.09 7.7
-5 2 6 58.19 6.2
-5 2 6 50.69 5.9
5 -2 6 53.09 5.4
5 2 -6 62.29 5.8
-5 -2 -6 65.59 6.6
5 -2 -6 25.4 4.2
-5 2 -6 36.9 5.5
5 -2 -6 40.9 3.6
-5 2 -6 28.7 7.3
5 2 6 38.7 4.7
-5 2 -6 33.2 6.8
5 -2 -6 41.7 5.1
-6 2 6 20.5 4.7
-6 -2 -6 28 5.9
6 2 -6 28.5 4.8
6 -2 6 20.2 4.1
-6 -2 -6 22.6 5.8
6 -2 -6 38.5 3.7
6 2 6 38.8 5
-6 2 -6 39.5 7.3
6 -2 -6 35.6 5.4
-6 2 -6 32.4 5.3
6 -2 -6 34.5 5.5
-7 -2 -6 187.08 13.9
7 -2 6 184.98 10.6
-7 2 6 199.38 11.5
7 2 -6 187.68 11.2
7 2 -6 192.68 5.7
-7 -2 -6 183.28 12.5
7 -2 -6 186.58 11.5
-7 2 -6 179.38 14
7 -2 -6 191.78 8.7
7 2 6 199.78 10.6
-7 2 -6 207.68 12.4
7 -2 -6 190.88 11.4
-8 -2 -6 346.17 17.4
8 2 -6 319.07 9.9
8 2 -6 321.87 15.9
8 -2 6 336.47 15.2
8 2 6 287.97 14.1
8 -2 -6 320.27 16.2
8 -2 -6 304.97 15.9
8 -2 -6 302.07 12.4
-8 2 -6 328.47 16.1
9 2 -6 202.28 7.9
9 -2 6 196.58 12.4
-9 -2 -6 226.68 15.2
9 2 -6 208.78 13.5
-9 -2 6 224.78 14.7
9 -2 -6 225.18 10.4
9 -2 -6 222.28 14.1
9 2 6 224.48 12.4
9 -2 -6 216.28 13.9
-9 2 -6 204.48 14.6
10 -2 6 45.5 7.2
-10 -2 -6 43.4 9.3
10 2 -6 43.9 8
10 2 6 48.3 7.1
-10 -2 6 29 7.8
-10 2 -6 24.3 8
10 -2 -6 47.5 8.5
-11 2 6 2.6 7.1
11 2 -6 31.4 4
11 -2 6 21.5 6.2
11 2 -6 17.7 7.3
-11 -2 -6 11.6 8.2
-11 -2 6 10.4 6.8
11 -2 -6 16 7.3
11 -2 -6 18.3 4.8
-11 2 -6 17.3 7.8
11 2 6 27.3 6.6
12 2 -6 57.89 5.8
-12 2 6 64.59 11.7
-12 -2 -6 46.7 11.6
12 2 -6 62.29 11.6
12 -2 6 51.39 8.8
12 -2 -6 37.9 9.5
-12 2 -6 47.9 11.1
12 2 6 46.3 8.1
-12 -2 6 46.1 10.5
12 -2 -6 46.4 6.9
0 3 6 2178.78 62.79
0 3 -6 2183.68 57.99
0 3 -6 2140.29 61.09
0 -3 -6 2202.38 62.19
0 -3 6 2096.39 60.99
0 -3 6 2207.68 61.39
0 -3 -6 2173.58 62.69
1 -3 6 519.15 19.5
1 3 -6 489.15 17.3
1 -3 6 483.85 19.1
-1 3 6 497.25 19.4
1 3 -6 486.75 14.9
-1 -3 -6 505.75 19.9
-1 3 -6 529.45 19.5
-1 3 -6 513.65 19.2
-1 -3 6 500.95 17.5
1 -3 -6 504.25 19.4
1 -3 -6 499.45 18.7
-1 -3 6 521.25 17.6
1 3 6 534.65 20.1
2 -3 6 3738.33 100.69
-2 -3 -6 3637.14 97.39
2 3 -6 3530.45 95.49
2 3 -6 3753.12 93.29
-2 -3 -6 3526.65 100.29
2 -3 6 3455.45 99.89
-2 -3 -6 3644.94 98.99
-2 3 6 3619.74 98.79
-2 3 6 3625.24 99.39
-2 -3 6 3653.53 95.89
2 -3 -6 3684.23 99.29
2 -3 -6 3660.93 94.99
2 3 6 3615.04 99.99
-2 -3 6 3596.14 95.69
2 -3 -6 3601.74 95.99
-2 3 -6 3601.74 99.99
-2 3 -6 3482.05 99.99
-3 -3 -6 1284.97 39.5
-3 3 6 1323.47 40.8
-3 -3 -6 1314.77 42.8
3 -3 6 1316.97 42.8
-3 3 6 1327.67 41.4
3 3 -6 1337.67 36.2
3 3 -6 1337.37 34.2
3 -3 6 1329.67 43
3 -3 -6 1289.27 38.3
-3 3 -6 1362.16 43
3 -3 -6 1320.67 37.1
3 3 6 1297.67 41.8
-3 -3 6 1332.27 36.5
-3 -3 6 1364.86 36.3
-3 3 -6 1414.76 39.9
3 -3 -6 1332.67 37.9
-3 3 -6 1328.37 43
3 3 6 1364.06 38.2
4 -3 6 994.2 29.8
4 3 -6 1005.1 29.6
-4 3 6 978.3 32.4
-4 -3 -6 1033.7 31.7
-4 3 6 1022.4 33.1
4 -3 6 1057.69 35.7
-4 -3 -6 1034.1 35.1
4 -3 6 1105.39 30.6
4 3 6 950 33.4
4 3 6 986.2 29.9
-4 3 -6 1005.4 35
4 -3 -6 954.8 30
4 -3 -6 948.81 30.3
4 -3 -6 982.8 32.6
4 -3 -6 949.8 28.7
-4 3 -6 1037.6 35.5
-4 3 -6 943.81 30
5 3 -6 959.8 30.9
-5 3 6 989.9 33.4
-5 -3 -6 1001.9 36.1
-5 -3 -6 985.8 32.7
5 -3 6 1055.79 31.7
5 -3 6 1016.1 31.5
5 3 6 1037.1 31.1
5 -3 -6 1024.3 31.8
5 -3 -6 1022.7 29.8
-5 3 -6 1093.59 37.6
-5 3 -6 1078.19 32.2
5 -3 -6 1047.1 32.1
6 -3 6 26.7 4.6
-6 -3 -6 41.6 6.1
-6 -3 -6 22.7 6.2
6 3 -6 24.9 4.6
-6 3 6 19.3 5
6 -3 -6 14.5 4.2
-6 3 -6 13.4 6
6 -3 -6 7.2 3.9
6 -3 -6 8.8 2.7
6 3 6 11.6 3.6
-6 3 -6 19.4 5
7 3 -6 204.78 11.6
7 -3 6 178.78 10.6
-7 3 6 198.08 12.6
-7 -3 -6 183.48 13.8
-7 -3 -6 191.88 12.8
-7 3 -6 203.78 15.5
7 -3 -6 210.88 9.6
7 -3 -6 215.68 12.1
7 -3 -6 199.48 11.7
7 3 6 206.78 10.6
-7 3 -6 197.08 11.5
8 -3 6 168.68 10.9
8 3 -6 152.18 4.9
8 3 -6 174.28 11.4
-8 -3 -6 146.39 11.2
8 -3 -6 164.38 11.5
-8 -3 6 152.98 11.4
8 -3 -6 163.48 8.9
8 3 6 168.98 10.2
-8 3 -6 145.39 10.8
8 -3 -6 142.69 11.1
9 -3 6 384.16 17.3
9 3 -6 395.76 18.4
-9 -3 -6 346.67 19.2
9 3 -6 359.06 11.4
-9 -3 6 382.06 18.8
-9 3 -6 390.46 19.3
9 -3 -6 382.26 18.9
9 3 6 349.67 16.2
9 -3 -6 366.46 14.9
9 -3 -6 393.86 19
-10 -3 -6 5.6 7
10 3 -6 2.2 1.9
10 3 -6 0.4 4.6
10 -3 6 7.7 4.8
-10 3 -6 -4.2 5.6
10 3 6 -1.2 3.9
-10 -3 6 6 5.8
10 -3 -6 5.7 5.4
10 -3 -6 -7.9 4.4
-11 -3 -6 45.1 10.5
-11 3 6 60.59 11.4
11 3 -6 56.89 5
11 -3 6 54.59 9
11 3 -6 61.59 10.1
11 -3 -6 61.69 10.5
11 -3 -6 56.69 7.1
11 3 6 64.99 8.6
-11 3 -6 58.69 10.8
-11 -3 6 56.19 9.8
-12 -3 -6 18.9 9.6
12 -3 6 21.8 7.1
12 3 -6 7 8
-12 3 6 8.9 8.3
12 3 -6 13.7 3.6
12 3 6 30.8 7.1
-12 3 -6 19.4 9.1
-12 -3 6 8.3 7.3
12 -3 -6 16.1 7.5
12 -3 -6 14.8 5.2
0 -4 -6 242.68 12.6
0 4 -6 205.88 8.3
0 -4 6 225.48 11.3
0 -4 6 226.38 11.1
0 4 6 254.37 12.8
0 -4 -6 215.98 9.8
0 -4 -6 212.28 9.7
0 -4 -6 206.58 11.4
1 -4 6 1888.11 56.99
-1 -4 -6 2001.9 54.59
-1 -4 -6 1904.51 56.99
-1 4 6 1949.9 57.29
1 4 -6 1921.31 54.69
-1 -4 -6 1963.5 54.29
-1 4 6 1898.41 57.49
1 4 -6 1937.11 51.79
1 -4 6 1887.41 56.89
-1 -4 -6 1955.9 57.99
-1 -4 6 1935.51 54.89
1 -4 -6 1957.1 57.49
-1 4 -6 1877.71 56.69
1 4 6 1959.6 57.69
-1 4 -6 1916.01 57.49
1 -4 -6 1992.5 53.49
-1 -4 6 1956 55.19
-1 4 -6 1950.8 52.89
1 -4 -6 1959.8 53.39
1 -4 -6 1964.4 56.79
-2 -4 -6 513.05 20.6
-2 4 6 490.05 19.7
-2 4 6 516.95 20.3
2 -4 6 493.75 20.2
-2 -4 -6 506.35 20.1
2 -4 6 471.65 20.1
-2 -4 -6 510.85 18.4
2 4 -6 477.95 16.3
-2 -4 -6 500.25 18
2 4 -6 507.95 14.4
2 -4 -6 481.25 16.4
-2 -4 6 472.35 16.5
2 -4 -6 481.45 15.9
-2 4 -6 468.45 19.9
-2 4 -6 465.45 19.8
-2 -4 6 489.65 16.8
2 -4 -6 499.95 19.9
2 -4 -6 463.15 16.4
3 -4 6 869.41 31.5
3 -4 6 862.51 31.3
3 4 -6 874.61 25
-3 4 6 838.32 29.8
3 4 -6 848.42 23.2
-3 -4 -6 851.51 31.3
-3 4 6 844.92 30.3
-3 -4 -6 863.01 28.4
3 -4 -6 854.21 26.6
3 -4 -6 865.51 26.9
-3 -4 6 863.71 25.1
3 -4 -6 895.61 30.3
3 -4 -6 881.91 26
3 4 6 881.91 30.5
-3 4 -6 882.01 31.4
3 4 6 891.11 26.9
-3 4 -6 920.41 31.7
-3 -4 6 899.91 25.4
4 -4 6 408.96 15
-4 -4 -6 421.46 17.4
4 4 -6 432.46 14.7
-4 -4 -6 421.16 19.6
4 -4 6 416.16 15.7
4 -4 6 449.95 20.8
-4 4 6 428.16 19
-4 4 6 446.06 18.7
4 -4 -6 429.56 14.8
4 -4 -6 424.76 15.8
4 -4 -6 414.96 15.9
-4 4 -6 429.86 15.5
-4 4 -6 448.26 20.4
4 4 6 404.96 15.4
-4 4 -6 469.15 20.7
5 -4 6 363.96 14.6
-5 -4 -6 358.06 18.6
-5 -4 -6 359.66 16.2
-5 4 6 348.07 17
5 4 -6 340.47 13.7
5 -4 6 358.66 14.4
5 -4 -6 377.76 13.5
-5 4 -6 368.86 19.2
-5 4 -6 384.86 15
5 -4 -6 363.76 14.8
5 4 6 370.96 14.2
5 -4 -6 361.76 15
-6 -4 -6 143.89 12.1
-6 -4 -6 172.08 11.5
6 -4 6 139.29 9
6 4 -6 141.69 9.1
-6 4 6 139.29 11.2
6 -4 6 146.19 9.3
6 -4 -6 147.39 8
-6 4 -6 138.39 13
6 -4 -6 148.29 9.6
6 4 6 155.58 9
6 -4 -6 149.88 9.5
-6 4 -6 156.48 10
7 -4 6 121.69 9.2
7 -4 6 135.59 9.5
-7 -4 -6 120.29 9.9
7 4 -6 133.49 9.7
-7 4 -6 131.29 12.8
7 4 6 129.99 8.8
7 -4 -6 126.09 9.8
-7 4 -6 136.89 10.4
7 -4 -6 127.49 9.8
-7 -4 6 123.99 10
7 -4 -6 142.79 8.1
8 4 -6 837.62 29.7
-8 -4 -6 851.31 31.6
8 -4 6 904.91 30
8 -4 -6 899.51 31.2
8 -4 -6 846.92 27.4
-8 -4 6 800.92 29.8
8 4 6 825.02 28.2
-8 4 -6 809.52 30.3
8 -4 -6 828.42 30.5
9 -4 6 98.09 9.6
9 4 -6 128.49 11
-9 -4 -6 107.89 12.1
-9 -4 6 105.69 11.2
9 -4 -6 106.29 8.1
9 4 6 89.29 8.7
9 -4 -6 93.29 10.7
9 -4 -6 92.49 10.3
-9 4 -6 114.89 11.5
10 4 -6 237.88 8.7
10 4 -6 245.28 15.6
-10 -4 -6 212.68 16.6
10 -4 6 251.57 15
-10 -4 6 256.77 16
10 -4 -6 257.17 16.5
10 4 6 267.07 14.2
-10 4 -6 265.17 16.8
10 -4 -6 254.87 16.3
11 4 -6 8.3 2.6
11 -4 6 -1.8 5.1
11 4 -6 1.7 5.7
-11 4 6 12.3 7.8
-11 -4 -6 11.6 8.5
11 -4 -6 4.1 6.4
-11 4 -6 7 5.8
-11 -4 6 8.4 6.9
11 -4 -6 4 4.1
11 -4 -6 -3.5 5.7
11 4 6 15.2 5.6
12 -4 6 75.49 10.6
12 4 -6 111.09 13.5
-12 -4 -6 60.59 12.7
12 4 -6 77.69 6.2
-12 4 6 70.69 11.7
12 -4 -6 62.49 8.4
12 4 6 75.19 9.5
-12 -4 6 90.89 12.7
-12 4 -6 53.09 11.7
12 -4 -6 74.09 12.1
0 -5 6 135.19 9
0 -5 -6 143.09 9.8
0 -5 -6 149.69 10.6
0 -5 6 149.59 9.6
0 5 6 144.19 10.6
0 -5 -6 152.28 7.8
0 -5 -6 133.59 7.8
0 5 -6 144.29 6.9
-1 -5 -6 72.49 6.5
-1 5 6 80.59 8.2
1 -5 6 79.49 7.6
1 5 -6 75.89 4.6
-1 -5 -6 85.29 7.8
-1 5 6 76.89 7.9
1 5 -6 84.39 6.4
1 -5 6 82.29 7.7
-1 -5 -6 85.19 8.6
-1 -5 -6 76.49 7.2
-1 -5 6 67.59 6.3
1 5 6 72.79 5.9
1 -5 -6 80.89 5.6
-1 -5 6 75.39 6.2
1 -5 -6 65.19 7
-1 5 -6 67.19 7
1 5 6 71.19 7.8
-1 5 -6 68.69 5.1
1 -5 -6 75.19 5.9
1 -5 -6 71.09 7.9
-2 5 6 720.93 27.4
2 5 -6 716.93 20.9
-2 -5 -6 707.83 24.4
2 5 -6 700.73 23.1
2 -5 6 710.73 27.5
-2 -5 -6 700.93 27.2
2 -5 6 753.72 27.6
-2 -5 -6 729.73 24.9
-2 -5 -6 677.73 26.3
-2 5 6 730.43 27
-2 -5 6 754.82 23.9
-2 -5 6 725.83 23.5
2 5 6 717.73 23.3
2 -5 -6 760.92 23.1
-2 5 -6 735.43 27.2
-2 5 -6 761.12 23
2 -5 -6 745.63 23.3
2 -5 -6 733.63 22.6
2 -5 -6 760.72 27.5
3 -5 6 470.95 15.3
-3 5 6 469.55 19.8
-3 -5 -6 451.05 18.2
3 -5 6 479.35 21
-3 -5 -6 459.85 20.4
-3 5 6 441.86 20.1
-3 -5 -6 479.45 18.3
-3 -5 -6 431.86 19.1
3 5 -6 446.16 13.1
3 -5 6 470.25 20.8
3 5 -6 486.45 15.1
3 5 6 397.16 15.7
-3 -5 6 445.96 15.2
-3 5 -6 404.36 19.6
-3 -5 6 421.96 14.9
3 -5 -6 410.86 19.3
3 -5 -6 414.76 15.7
-3 5 -6 414.16 19.9
3 -5 -6 410.16 15.2
3 -5 -6 422.96 15.9
4 5 -6 416.16 14.6
-4 -5 -6 410.66 17.8
4 -5 6 427.66 15.3
4 -5 6 427.86 15.9
-4 5 6 420.76 19.6
4 -5 6 428.16 20.8
4 5 -6 404.66 11.7
4 5 -6 425.36 11.8
-4 -5 -6 416.86 20.3
-4 -5 6 429.16 12.9
4 -5 -6 423.16 16
4 5 6 416.96 15.8
-4 5 -6 403.26 15.3
-4 -5 6 429.46 12.9
-4 5 -6 432.66 20.8
-4 5 -6 398.96 20.1
4 -5 -6 423.16 16
4 -5 -6 421.36 15.1
5 -5 6 433.76 16.7
-5 5 6 407.96 19.5
-5 -5 -6 427.16 20.6
5 5 -6 422.86 15.6
5 -5 6 425.26 16.1
-5 -5 -6 433.56 18.4
5 -5 -6 436.56 16.9
-5 5 -6 452.25 22.1
5 -5 -6 417.56 15.5
-5 5 -6 416.86 16.5
5 5 6 412.46 16.1
5 -5 -6 400.36 16.5
6 -5 6 105.89 8.7
6 5 -6 116.29 7.9
-6 -5 -6 120.19 10.7
-6 -5 -6 118.09 11.7
-6 5 6 107.49 10.5
6 -5 6 114.89 8.3
-6 -5 6 134.19 9
6 -5 -6 134.09 8
-6 5 -6 112.29 12.1
6 -5 -6 129.79 9.2
-6 5 -6 118.89 9
6 5 6 129.59 8.6
6 -5 -6 123.39 9.2
-7 -5 -6 538.55 22.3
7 -5 6 494.35 20.2
7 5 -6 511.95 19.6
7 -5 6 501.55 20
-7 -5 6 492.15 19.8
-7 5 -6 500.05 20.5
7 5 6 491.75 19
7 -5 -6 543.45 21.1
7 -5 -6 505.65 20.8
7 -5 -6 510.65 18.7
-7 5 -6 464.55 24.6
-8 -5 -6 41.7 8.5
8 -5 6 29.6 6.4
8 5 -6 30.1 5.8
8 -5 6 43.4 6.6
8 -5 -6 30.6 6.5
-8 5 -6 38.3 7.3
8 5 6 30.3 5.5
8 -5 -6 32.3 5.2
8 -5 -6 34.6 6.9
-8 -5 6 36.8 6.5
9 5 -6 557.74 23.1
9 -5 6 590.34 23.3
-9 -5 -6 550.64 25
9 5 -6 531.25 14.9
9 5 6 523.15 21.1
9 -5 -6 575.84 24.3
-9 -5 6 529.15 22.9
-9 5 -6 530.95 23.6
9 -5 -6 522.55 20.7
9 -5 -6 548.85 24
10 5 -6 42.6 8
-10 -5 -6 27.8 9.4
10 -5 6 33.3 6.9
10 5 -6 33.6 3
10 -5 -6 37.7 8.4
-10 5 -6 45.8 9.3
10 -5 -6 35.9 8.1
10 5 6 32.6 6.6
-10 -5 6 36.7 8.1
11 -5 6 172.18 14
11 5 -6 169.58 7.4
-11 -5 -6 190.98 17.1
-11 5 6 146.79 16.1
11 5 -6 158.68 13.9
-11 5 -6 161.48 15.8
11 -5 -6 196.18 15.6
11 5 6 163.98 12.2
11 -5 -6 164.58 14.7
11 -5 -6 171.68 11.9
-11 -5 6 159.78 14
-12 5 6 52.29 11.6
12 -5 6 49.3 9.5
-12 -5 -6 47.3 12
12 5 -6 54.19 5
-12 -5 6 62.49 11.1
12 -5 -6 52.29 10.6
12 -5 -6 48.7 7.9
12 5 6 60.09 8.8
-12 5 -6 53.19 11.2
0 -6 -6 1227.68 35.2
0 -6 -6 1220.58 40.7
0 -6 -6 1186.58 36.3
0 6 -6 1156.58 34.4
0 6 6 1190.68 37.9
0 -6 6 1213.18 38.7
0 -6 6 1193.58 38.7
0 6 6 1191.28 40.1
0 6 6 1235.88 40.7
0 -6 -6 1169.08 39.4
1 -6 6 364.46 17.4
-1 6 6 370.06 18.3
-1 -6 -6 406.66 15
1 -6 6 377.46 17.3
1 6 -6 366.36 15.6
-1 -6 -6 385.96 15.9
-1 -6 -6 368.86 17.4
-1 6 6 368.06 17.9
1 6 -6 363.46 12.8
-1 -6 -6 377.26 18.4
1 6 6 361.76 14.4
-1 -6 6 354.56 15.7
1 -6 -6 363.76 14.6
1 -6 -6 376.46 18.3
-1 6 -6 340.07 16.7
-1 6 -6 359.06 13.6
1 -6 -6 378.56 13.8
-1 -6 6 373.86 16
1 -6 -6 373.16 17.5
2 -6 6 25.7 5.7
2 -6 6 36 6.8
-2 -6 -6 35.4 6
-2 6 6 30.4 6.6
-2 -6 -6 33 6.7
2 6 -6 31.4 4.6
2 6 -6 31.8 3.5
-2 -6 -6 26.8 5.7
-2 -6 -6 33.6 6.5
-2 6 6 44.9 7.2
2 -6 -6 39.2 4.5
2 -6 -6 47.4 7.5
2 6 6 47.2 5.8
2 -6 -6 45 5.4
-2 -6 6 37.6 5.1
-2 6 -6 46.5 5.1
-2 6 -6 44.4 7
2 -6 -6 36.6 4.6
-2 -6 6 36.9 4.9
3 6 -6 104.09 5.4
3 6 -6 110.79 8
-3 -6 -6 109.99 11.2
-3 6 6 111.49 10.6
3 -6 6 113.69 10.4
3 -6 6 107.89 6.4
3 -6 6 109.89 10.9
-3 -6 -6 109.29 9.9
-3 -6 -6 100.59 10
3 6 6 111.59 7.7
3 -6 -6 100.79 7.4
3 -6 -6 108.39 7.2
-3 6 -6 103.19 7.1
-3 -6 6 125.29 7.2
-3 6 -6 112.79 10.5
-3 -6 6 117.89 7.3
-3 -6 6 119.79 8.4
3 -6 -6 110.89 7
4 -6 6 509.15 19
-4 -6 -6 555.24 24.1
-4 -6 -6 533.75 21.5
-4 -6 -6 541.15 22
4 -6 6 539.15 25
-4 6 6 534.05 23.5
4 -6 6 515.45 18.3
4 6 -6 538.85 15.7
-4 6 -6 567.64 24.9
4 -6 -6 547.35 19.7
-4 -6 6 540.35 17.2
-4 6 -6 540.85 18.4
4 -6 -6 522.65 19.1
4 -6 -6 533.55 18.6
-4 -6 6 527.85 17.2
4 6 6 512.95 19
-5 -6 -6 145.79 12.2
-5 -6 -6 138.89 11.3
5 6 -6 127.59 4.9
5 -6 6 121.39 7.9
5 -6 6 124.69 8.9
-5 6 6 119.89 11.4
-5 6 -6 111.39 12
5 -6 -6 127.69 8.8
-5 6 -6 128.89 8.9
5 6 6 133.99 8.9
5 -6 -6 122.29 7.8
5 -6 -6 119.49 8.5
-6 6 6 397.26 20.8
6 6 -6 399.36 11.2
-6 -6 -6 403.56 19.1
6 -6 6 366.06 16.5
6 -6 6 374.06 17
6 -6 -6 419.06 17.8
6 -6 -6 451.05 16.6
6 -6 -6 415.66 17.6
-6 6 -6 456.65 17.6
-6 6 -6 456.05 23.5
6 6 6 439.26 17
7 -6 6 137.29 9.8
7 -6 6 121.49 9.4
-7 -6 -6 128.69 12.1
7 -6 -6 117.39 8.5
7 6 6 113.59 9
-7 6 -6 112.99 13.8
7 -6 -6 120.39 9.7
7 -6 -6 109.69 9.6
-7 6 -6 111.79 9.6
8 -6 6 291.67 15.6
-8 -6 -6 310.07 17.7
8 -6 6 274.17 14.9
8 6 6 281.57 14.2
8 -6 -6 292.97 16.1
-8 6 -6 296.67 15.9
8 -6 -6 289.37 15.3
8 -6 -6 320.17 14.3
9 6 -6 35.4 2.5
9 -6 6 42.3 7.8
-9 -6 -6 36 9
9 -6 6 41.7 7.2
9 -6 -6 34.9 6.2
9 6 6 43.8 6.7
9 -6 -6 53.19 8.6
9 -6 -6 33.2 7.7
-9 6 -6 40.6 8.2
-10 -6 -6 467.55 24.6
10 -6 6 495.05 22.4
10 6 -6 464.65 14.4
10 -6 -6 500.75 23.9
10 6 6 498.05 20.8
10 -6 -6 500.05 23.7
-10 6 -6 441.66 22.8
11 -6 6 78.59 10.4
11 6 -6 80.59 5.2
-11 -6 -6 71.69 13
-11 6 6 60.79 11.5
11 -6 -6 108.19 13.5
11 -6 -6 65.89 10.8
11 -6 -6 83.09 9.7
-11 6 -6 76.99 12.1
11 6 6 80.69 9.6
12 -6 6 85.29 11.8
-12 6 6 115.89 15.6
-12 -6 -6 102.49 15.3
12 6 -6 113.09 6.5
12 -6 -6 105.19 11
12 6 6 107.49 11.3
12 -6 -6 126.69 14.9
12 -6 -6 134.09 15.5
-12 6 -6 114.39 14.9
0 7 6 15 4.8
0 7 6 13.3 5.8
0 -7 -6 17 5.4
0 -7 6 9 5
0 7 -6 11.9 3.3
0 -7 -6 20.4 4.7
0 -7 -6 16.9 6.1
0 -7 -6 16.1 3.9
1 7 -6 770.72 24.3
-1 7 6 807.82 30.8
-1 -7 -6 796.92 31
-1 -7 -6 823.82 25.8
1 -7 6 807.62 30.2
-1 -7 -6 782.22 27.5
-1 7 6 794.72 31.9
-1 7 -6 813.52 25.4
-1 -7 6 759.82 28
1 -7 -6 797.52 25
1 -7 -6 769.02 33.2
1 -7 -6 796.62 26.5
1 7 6 805.52 26.4
1 -7 -6 790.82 30.9
-2 -7 -6 19.4 6.2
-2 -7 -6 38.6 7.7
-2 7 6 19.8 6.4
-2 7 6 30.4 8.4
2 -7 6 27.2 4
2 -7 6 25.5 6.6
2 7 -6 31.6 3.9
-2 -7 -6 26.3 6.4
2 -7 -6 33.4 4.7
2 -7 -6 33.8 7.4
2 7 6 37.9 5.6
-2 -7 6 29.6 5.3
2 -7 -6 39.7 5
-2 -7 6 36.9 5.4
2 -7 -6 34.2 5.4
-2 7 -6 35 5.2
-3 7 6 329.37 18.2
3 -7 6 343.17 19
3 -7 6 334.77 12.8
-3 -7 -6 346.27 15.9
-3 -7 -6 355.66 17.5
-3 -7 -6 332.97 18.3
3 7 -6 333.67 11.7
3 -7 -6 313.57 13.3
-3 -7 6 318.17 14.2
3 7 6 308.47 14.2
-3 7 -6 329.07 13.8
-3 -7 6 362.06 16.3
-3 -7 6 308.67 13.9
3 -7 -6 323.47 14.2
3 -7 -6 326.27 13.4
-4 -7 -6 55.59 9.2
4 7 -6 66.69 4.8
4 -7 6 63.89 5.7
-4 -7 -6 71.29 9
-4 7 6 50.59 8.9
-4 -7 -6 59.89 9.1
4 -7 -6 65.59 6.7
-4 -7 6 57.49 5.2
4 -7 -6 72.29 6.7
4 -7 -6 69.39 7.3
4 7 6 51.49 6.3
-4 -7 6 64.49 6
-5 7 6 718.73 29.3
5 -7 6 643.14 22.9
-5 -7 -6 664.03 27.4
-5 -7 -6 643.14 28.3
-5 -7 -6 658.43 25.8
5 7 -6 670.13 19.4
-5 -7 6 692.23 19.6
5 -7 -6 648.44 24.1
5 7 6 677.53 23.6
5 -7 -6 655.43 23.5
5 -7 -6 662.73 23.2
-5 -7 6 645.14 19.6
-6 -7 -6 117.59 11.6
6 -7 6 110.09 8.4
6 7 -6 107.39 5
-6 7 -6 89.19 8.7
6 -7 -6 112.29 8.9
6 -7 -6 106.19 9.1
6 -7 -6 100.49 8.2
6 7 6 107.59 8.8
7 -7 6 281.87 14.7
7 7 -6 276.67 8.9
-7 -7 -6 280.17 16.7
-7 7 -6 276.87 14.8
7 -7 -6 276.37 15
7 -7 -6 292.47 13.7
7 -7 -6 256.37 14.3
7 7 6 265.67 13.6
8 -7 6 15.3 6
8 7 -6 19.6 2.2
8 -7 6 21.1 5.9
-8 -7 -6 14 7.6
8 -7 -6 16.1 5.4
-8 7 -6 7.2 5.5
8 -7 -6 7.7 4.3
8 -7 -6 21.7 6
8 7 6 13.9 5.1
9 -7 6 393.06 19.4
-9 -7 -6 359.26 20.7
9 -7 6 367.56 20.5
9 7 -6 350.76 11.3
9 7 6 375.46 17.2
9 -7 -6 349.77 19
-9 7 -6 352.56 18.6
9 -7 -6 361.76 19
10 -7 6 66.29 14
10 7 -6 57.29 4.2
-10 -7 -6 74.19 12.5
10 7 6 64.59 8.7
10 -7 -6 71.89 10.8
-10 7 -6 48.4 9.5
10 -7 -6 61.79 10.6
-11 -7 -6 245.78 21.9
-11 7 6 275.47 19.8
11 7 -6 246.68 9.6
11 7 6 260.77 15.5
11 -7 -6 275.97 15.9
11 -7 -6 266.17 18.5
-11 7 -6 253.87 19
11 -7 -6 254.77 17.8
0 -8 6 170.68 8.4
0 -8 -6 159.78 9.1
0 8 -6 160.18 9.1
0 -8 -6 166.88 11.2
0 -8 -6 170.68 13.9
0 8 6 170.58 10.6
0 -8 6 168.08 12.2
-1 8 6 0.8 5.5
-1 -8 -6 -1 5.5
1 -8 6 2.4 2.7
1 8 -6 0.4 3
-1 -8 -6 4 5.8
1 -8 6 0 4.8
-1 -8 -6 3.2 4.1
-1 8 6 2.2 4.2
-1 -8 6 1.9 3.5
1 8 6 1.9 4.3
-1 8 -6 5.6 3.5
1 -8 -6 -0.4 4.4
1 -8 -6 3.9 5.2
1 -8 -6 0.6 3.2
-1 -8 6 -1 4.2
-2 8 6 39.9 8.5
2 -8 6 31.3 4.4
-2 -8 -6 39.8 8
-2 -8 -6 45.3 8.3
2 -8 6 44.8 8.8
2 8 -6 36.4 4.5
-2 -8 -6 27 5.7
-2 -8 6 37.7 5.9
2 -8 -6 34.8 6
2 -8 -6 38.9 5.3
-2 -8 6 40.4 6.5
2 8 6 40.2 6.4
2 -8 -6 36.7 5.1
-2 8 -6 37 5.3
-3 8 6 35 8.1
3 8 -6 29.4 4.1
3 -8 6 33 4.6
3 -8 6 30.2 8
-3 -8 -6 33.9 8.3
-3 -8 -6 22.7 6.3
-3 -8 -6 31.1 8.1
-3 -8 6 33.2 5.5
3 -8 -6 38.9 6.2
3 8 6 28.4 6
3 -8 -6 43.6 5.4
-3 8 -6 24.7 4.9
-3 -8 6 31.2 6.5
3 -8 -6 37.5 5.2
-4 8 6 1149.98 42.1
4 -8 6 1146.09 34.8
-4 -8 -6 1078.39 37.1
4 8 -6 1138.19 32.5
-4 -8 -6 1148.79 39.6
-4 -8 -6 1174.78 41.8
4 -8 -6 1129.49 36.4
-4 -8 6 1137.09 35.1
4 -8 -6 1082.49 34.9
4 -8 -6 1145.69 35.5
4 8 6 1109.09 35.7
-4 -8 6 1099.19 35.9
-5 -8 -6 134.99 12.5
-5 8 6 169.48 14.6
5 -8 6 124.59 8.8
-5 -8 -6 147.19 12.6
5 8 -6 141.19 7
5 -8 -6 139.39 10.1
5 -8 -6 162.08 10.2
5 8 6 143.89 9.8
-5 -8 6 143.19 9.3
-5 -8 6 141.19 11
5 -8 -6 133.59 9.2
6 8 -6 509.05 16.1
6 -8 6 500.25 20.3
-6 -8 -6 498.05 24.6
-6 -8 -6 484.75 22.7
6 8 6 523.95 20.3
6 -8 -6 544.25 20.5
6 -8 -6 529.05 20.7
6 -8 -6 491.65 21
7 8 -6 134.29 6.3
7 -8 6 127.79 10.4
-7 -8 -6 155.68 14.7
7 -8 -6 123.39 10.6
7 8 6 125.39 10.1
7 -8 -6 130.39 9.8
7 -8 -6 121.09 9.9
8 8 -6 164.98 7.2
8 -8 6 190.08 12.7
-8 -8 -6 167.18 15.1
8 -8 -6 165.58 12.6
8 -8 -6 170.18 12.2
8 8 6 176.58 11.8
8 -8 -6 179.48 11.8
9 8 -6 76.59 4.9
9 -8 6 98.09 11.4
-9 -8 -6 46 10.7
9 -8 -6 73.49 10.1
9 -8 -6 71.29 10.7
9 8 6 70.09 8.7
10 8 -6 306.97 10.9
-10 -8 -6 288.57 20.9
10 -8 -6 288.97 18.6
10 -8 -6 292.47 18.4
10 8 6 309.47 16.8
10 -8 -6 324.97 17.3
11 8 -6 3.5 2.6
-11 -8 -6 5.7 11
-11 8 6 1.2 7.3
11 8 6 1.5 5.4
11 -8 -6 10.6 5.9
11 -8 -6 1.1 6.3
11 -8 -6 15.9 7.7
0 9 6 -1 4.2
0 9 -6 10.8 4
0 -9 -6 1.9 3.4
0 -9 -6 0.7 5
0 -9 6 -2.5 4.8
0 -9 -6 1.8 5.3
0 -9 6 5.8 3.6
-1 -9 -6 344.77 20.6
-1 -9 -6 364.96 17.5
1 -9 6 342.67 13.5
-1 -9 -6 357.46 14.1
1 9 -6 354.56 14.3
1 -9 6 341.97 19.4
-1 -9 6 336.17 17.8
1 9 6 336.17 15.9
-1 -9 6 354.16 14.7
1 -9 -6 330.87 13.7
-1 9 -6 341.57 14.7
1 -9 -6 330.77 15.7
-2 -9 -6 81.89 10.6
2 -9 6 63.69 10.4
2 -9 6 67.49 5.9
-2 -9 -6 87.89 11.3
2 9 -6 69.49 6.5
-2 -9 -6 80.29 7.7
-2 -9 6 86.19 8.9
-2 9 -6 88.89 8.3
2 9 6 102.99 9.3
2 -9 -6 83.29 6.6
2 -9 -6 85.69 8.8
-2 -9 6 85.19 9.4
3 -9 6 541.85 26.7
-3 -9 -6 572.14 21.6
-3 -9 -6 552.74 26.6
3 9 -6 560.04 18.7
3 -9 6 568.74 19.5
-3 -9 -6 567.54 24.4
-3 9 -6 504.55 20.3
3 9 6 503.05 20.7
-3 -9 6 524.65 22.8
3 -9 -6 508.65 19.2
3 -9 -6 535.95 21.2
4 -9 6 434.26 17.1
-4 9 6 428.76 24.5
-4 -9 -6 442.66 22.2
-4 -9 -6 453.55 19.7
4 9 -6 454.25 15.8
4 -9 -6 446.06 18.9
4 -9 -6 435.46 17.5
-4 -9 6 412.66 19.4
4 -9 -6 444.56 17.9
4 9 6 425.26 18.4
-5 -9 -6 513.65 24.5
-5 9 6 542.45 27.2
-5 -9 -6 519.95 23.3
5 9 -6 528.05 17.6
5 -9 6 509.55 20.1
5 -9 -6 512.85 20.6
5 -9 -6 522.85 21.6
5 9 6 558.84 21.1
5 -9 -6 500.85 20
-5 -9 6 522.85 22.7
-6 -9 -6 106.49 14.1
6 9 -6 90.79 6.3
6 -9 6 103.29 8.6
-6 -9 -6 103.39 13.5
6 -9 -6 94.99 10.1
-6 -9 6 90.79 10.8
6 9 6 96.89 9.3
6 -9 -6 96.99 9.3
6 -9 -6 94.99 9.2
7 9 -6 82.79 5.9
7 -9 6 83.49 9.2
-7 -9 -6 76.79 12.8
7 -9 -6 86.49 9.4
7 9 6 76.69 8.7
7 -9 -6 91.19 9.4
7 -9 -6 96.89 10.5
8 9 -6 50.19 4.6
-8 -9 -6 30.6 10.7
8 -9 6 51.79 8.4
8 -9 -6 37 7.3
8 -9 -6 55.89 9.2
8 9 6 48.9 7.6
9 -9 6 345.27 18.9
9 9 -6 334.37 12.3
9 -9 -6 327.37 19.3
9 9 6 332.77 17.2
9 -9 -6 350.76 18.9
10 9 -6 80.99 6
10 -9 6 82.29 11.5
10 -9 -6 81.79 12
10 -9 -6 73.29 11.1
10 9 6 86.99 10.3
10 -9 -6 69.59 9.5
-11 9 6 90.39 13.7
11 9 -6 94.29 6.4
11 9 6 80.39 10.2
11 -9 -6 97.89 13.8
11 -9 -6 92.59 11.2
11 -9 -6 91.99 12.7
0 10 6 86.39 9.5
0 -10 6 100.69 11.1
0 -10 -6 88.99 12.4
0 10 -6 98.59 8.6
0 -10 -6 103.19 10.3
-1 -10 -6 207.18 14.1
-1 -10 -6 198.28 16.3
1 -10 6 212.38 16.4
1 10 -6 224.78 11.6
1 -10 -6 228.18 12.9
-1 10 -6 226.28 12.1
2 -10 6 191.58 10
2 10 -6 193.48 10.5
2 -10 6 180.88 15.3
-2 -10 -6 186.68 15.6
-2 -10 -6 161.08 13.7
-2 10 -6 161.78 11.2
2 10 6 161.58 12.1
2 -10 -6 154.88 11.3
3 10 -6 349.27 14.3
-3 -10 -6 317.97 18.9
3 -10 6 333.17 14.3
3 -10 -6 347.37 16.6
3 10 6 352.16 16.8
-4 -10 -6 587.44 26.6
4 10 -6 567.94 19.9
4 -10 6 548.45 20.9
4 10 6 574.74 23
4 -10 -6 596.74 23.4
4 -10 -6 577.04 21.3
5 -10 6 216.68 12.4
-5 -10 -6 230.48 17.6
5 10 -6 226.78 10.6
5 -10 -6 240.48 14
5 -10 -6 202.38 12
5 10 6 230.48 13.7
6 10 -6 131.29 8.3
-6 -10 -6 130.99 15.5
6 -10 6 139.59 10.2
6 -10 -6 155.68 10.4
6 10 6 177.28 12.1
6 -10 -6 150.78 11.6
-7 -10 -6 16.3 9.9
7 10 -6 23.2 4.2
7 -10 6 23.3 6.1
7 -10 -6 24.4 6.9
7 -10 -6 28.4 6.4
7 10 6 13.3 5.9
7 -10 -6 4.2 4.6
8 10 -6 229.98 10.4
-8 -10 -6 247.98 20.3
8 -10 6 214.38 14.4
8 -10 -6 239.48 14.9
8 10 6 231.08 14.5
8 -10 -6 240.08 15.8
9 10 -6 72.29 6.2
-9 -10 -6 58.39 13.8
9 -10 6 100.79 12.4
9 -10 -6 75.29 10.6
9 -10 -6 87.99 12.7
9 10 6 65.49 9.3
9 -10 -6 66.89 9.7
10 -10 6 118.49 14.1
-10 -10 -6 113.69 17.6
10 10 -6 140.59 8.1
10 -10 -6 119.29 14.7
10 -10 -6 116.19 13.2
10 10 6 139.99 12.9
10 -10 -6 124.99 12.6
0 11 -6 172.18 10.8
0 -11 -6 165.68 12.5
1 11 -6 192.68 11.4
-1 -11 -6 196.48 16.7
-1 -11 -6 184.38 13.9
-1 11 -6 181.68 11.6
1 -11 -6 208.58 13.3
1 11 6 181.38 13.1
-2 -11 -6 524.75 23.9
2 -11 6 477.35 26.4
2 11 -6 538.55 20.1
2 -11 -6 508.25 21.9
2 11 6 540.05 22.3
-2 11 -6 518.35 21.1
-3 -11 -6 150.18 14.7
3 11 -6 141.49 9.7
3 11 6 149.88 12.2
3 -11 -6 145.99 11.3
4 -11 6 424.26 24.9
-4 -11 -6 521.85 25
4 11 -6 462.05 17.8
4 -11 -6 425.96 20.2
4 11 6 468.45 20.6
-5 -11 -6 178.08 17.4
5 -11 6 197.28 11.8
5 11 -6 199.78 10.8
5 -11 -6 180.88 12.9
5 11 6 194.38 13.2
6 11 -6 44.4 5.6
6 -11 6 38.3 6.9
-6 -11 -6 35.6 11.3
6 11 6 40.4 7.9
6 -11 -6 39.3 7.8
-7 -11 -6 50.19 12.5
7 11 -6 45.6 5.8
7 -11 6 55.69 8.2
7 11 6 62.29 9.1
7 -11 -6 59.59 9.7
8 -11 6 99.19 11.7
-8 -11 -6 88.69 15.2
8 11 -6 108.59 8.2
8 11 6 97.49 10.9
8 -11 -6 94.59 12
9 11 -6 163.08 9.7
-9 -11 -6 131.79 18.2
9 -11 6 160.38 13.5
9 -11 -6 164.88 14.7
9 11 6 191.38 14.1
10 11 -6 9 3.9
-10 -11 -6 10.4 11.1
10 -11 6 5.8 6
10 11 6 12.9 6.6
10 -11 -6 5.7 7.4
0 -12 -6 17.9 6.9
0 12 -6 12.6 5.2
-1 -12 -6 293.67 17.5
1 12 -6 325.97 15.6
1 -12 -6 284.57 16.6
-1 12 -6 341.87 16.3
1 12 6 326.87 17.5
-2 -12 -6 22.3 8.3
2 12 -6 27.3 5.8
-2 12 -6 20.1 5.9
2 12 6 20.8 7
2 -12 -6 30.9 7
-3 -12 -6 477.95 23.8
3 12 -6 450.05 18.8
3 -12 -6 456.75 21
3 12 6 443.36 21.1
4 12 -6 130.19 10
-4 -12 -6 139.39 15.6
4 12 6 143.99 12.1
4 -12 -6 141.29 13.1
5 12 -6 56.29 7
-5 -12 -6 52.99 11.7
5 12 6 45 8.5
5 -12 -6 59.09 9.1
6 12 -6 0.6 4.1
-6 -12 -6 13.3 10.1
6 12 6 1.3 5.9
6 -12 -6 3 5.7
7 12 -6 62.39 7.2
-7 -12 -6 75.39 14.9
7 -12 -6 94.59 12
7 12 6 70.69 10
-8 -12 -6 117.69 18
8 12 -6 135.39 9.6
8 -12 -6 140.69 14.9
8 12 6 115.09 12.2
9 12 -6 27.1 5.3
-9 -12 -6 36.8 13.3
9 12 6 30.7 8.4
9 -12 -6 45.1 9.9
0 13 -6 206.48 13.6
0 -13 -6 233.18 15.5
-1 -13 -6 34.5 8.4
1 13 -6 37.2 7
1 -13 -6 49.1 8.8
-1 13 -6 34 7.5
-2 -13 -6 517.55 25.3
2 13 -6 561.44 22.4
2 -13 -6 528.35 24
2 13 6 570.54 24.4
-3 -13 -6 185.58 15.9
3 13 -6 170.58 12.2
3 -13 -6 173.98 13.4
3 13 6 209.08 15
4 13 -6 65.89 8.2
-4 -13 -6 49.3 11.4
4 -13 -6 74.89 10.3
4 13 6 66.29 9.9
5 13 -6 80.99 8.6
-5 -13 -6 93.69 14.5
5 13 6 90.39 11.3
5 -13 -6 94.29 11.3
6 13 -6 45.7 6.9
-6 -13 -6 35.9 11.9
6 13 6 51.99 9.7
6 -13 -6 42.5 8.8
7 13 -6 58.59 7.4
-7 -13 -6 52.39 13.7
7 13 6 59.59 9.7
7 -13 -6 70.39 11.2
-8 -13 -6 44.7 14.7
8 13 -6 29.1 6
8 13 6 52.79 9.6
8 -13 -6 37.2 9.6
0 -14 -6 53.69 9.8
0 14 -6 33.6 7.6
1 14 -6 326.37 17.6
-1 -14 -6 333.57 19.4
1 -14 -6 345.47 18.9
-1 14 -6 310.77 17.5
-2 -14 -6 96.69 12.5
2 14 -6 79.09 9.8
2 -14 -6 103.99 12
2 14 6 86.69 11.5
3 14 -6 354.16 17.8
-3 -14 -6 324.17 20.9
3 -14 -6 351.16 19.3
3 14 6 363.86 20.4
-4 -14 -6 64.19 12.6
4 14 -6 64.19 8.7
4 -14 -6 55.49 9.8
4 14 6 69.69 10.9
5 14 -6 56.09 8
-5 -14 -6 25.6 10.9
5 -14 -6 41.5 8.9
5 14 6 31.4 8.7
-6 -14 -6 70.29 14.6
6 14 -6 57.99 8
6 14 6 59.29 10.3
6 -14 -6 64.19 10.9
-7 -14 -6 154.48 19.4
7 14 -6 136.19 11.2
7 14 6 137.89 14.4
7 -14 -6 137.39 15.2
0 -15 -6 266.17 17.7
0 15 -6 278.87 17.5
1 15 -6 12.4 6.8
-1 -15 -6 20.7 8.2
-1 15 -6 30.3 9.8
1 -15 -6 36.6 8.7
-2 -15 -6 224.08 17.1
2 15 -6 208.18 15.3
2 -15 -6 239.48 16.4
-3 -15 -6 1.9 8.1
3 15 -6 -0.2 5.7
3 15 6 3 6.8
3 -15 -6 4.4 6.2
-4 -15 -6 56.49 12.2
4 15 -6 50.79 8.7
4 -15 -6 77.59 11.5
4 15 6 47.6 10.4
-5 -15 -6 -2.9 8.9
5 15 -6 1.7 5.4
5 -15 -6 6.8 6.6
5 15 6 -6.9 6.7
6 15 -6 90.99 10.1
-6 -15 -6 84.59 15.3
6 15 6 71.39 11.3
6 -15 -6 85.59 12.2
0 16 -6 32.6 8.9
0 -16 -6 68.79 11.5
1 16 -6 179.48 15.3
-1 -16 -6 211.18 16.9
1 -16 -6 195.48 15.8
-2 -16 -6 11 8.1
2 16 -6 10.6 6.6
2 -16 -6 19.5 7.8
3 16 -6 114.59 12.6
-3 -16 -6 131.79 15.9
3 -16 -6 159.58 16
-4 -16 -6 30.5 10.8
4 16 -6 26.3 7.7
4 -16 -6 22.9 8.7
4 16 6 11.9 8.2
0 -17 -6 121.89 14.8
1 17 -6 76.99 11.4
-1 -17 -6 65.09 11.6
1 -17 -6 92.49 12.7
-2 -17 -6 48.2 11.2
2 17 -6 52.99 9.6
2 -17 -6 46.6 10.5
0 0 7 2.2 2.7
0 0 -7 -0.2 2.4
0 0 7 2.1 2.5
1 0 7 411.46 16.8
-1 0 -7 407.76 16.7
1 0 -7 414.46 13.9
-1 0 7 411.46 15.8
-1 0 -7 422.36 17.1
-1 0 7 423.96 16
1 0 7 407.16 16.7
2 0 -7 247.38 10.7
2 0 -7 224.68 8.2
-2 0 7 225.78 10.5
-2 0 7 230.78 10.7
-2 0 -7 255.67 13.1
-2 0 -7 248.28 11.4
2 0 7 261.77 12.9
2 0 7 253.87 12.7
-2 0 -7 250.07 12.8
-3 0 -7 32.5 4.5
3 0 7 28 5.4
-3 0 7 22.4 3.6
3 0 7 31.4 5.5
-3 0 -7 32.8 5.7
-3 0 -7 24.3 5.3
3 0 -7 28.5 3.8
3 0 -7 30.5 2.5
3 0 -7 27.8 3.8
-4 0 -7 39.3 5.6
4 0 -7 54.79 4.9
4 0 7 58.09 5
-4 0 -7 52.39 7.3
-4 0 7 51.79 4.8
4 0 -7 51.39 5.3
-4 0 -7 35.3 6.5
4 0 7 48.1 6.8
4 0 -7 53.59 4.7
4 0 -7 49.4 3
5 0 -7 12.1 2.9
5 0 7 6 3
5 0 -7 9.7 1.7
-5 0 -7 17.1 4.9
5 0 -7 8.2 3.3
-5 0 -7 11.8 4.9
-5 0 7 11.7 2.8
5 0 -7 8.9 3.3
-6 0 7 420.96 14.7
6 0 7 419.16 16.3
6 0 -7 425.36 17
6 0 -7 443.16 17
6 0 -7 438.86 13
-6 0 -7 424.56 18
-6 0 -7 370.46 20.4
7 0 -7 68.69 7.7
-7 0 -7 67.19 10
-7 0 -7 81.59 8.6
7 0 7 68.89 7.2
7 0 -7 57.39 7.4
7 0 -7 69.89 4.3
8 0 -7 1491.85 41.9
8 0 -7 1507.95 47.9
-8 0 -7 1540.55 48.7
8 0 7 1553.44 46.5
9 0 -7 200.68 8.7
9 0 -7 199.88 13.4
-9 0 -7 187.48 13.2
9 0 7 207.48 12.3
10 0 -7 176.28 8.5
-10 0 7 162.98 14.1
10 0 7 144.49 11.3
10 0 -7 169.68 13.3
-10 0 -7 163.28 14.4
-11 0 -7 38 10
11 0 7 41 7.5
11 0 -7 27 8.4
-11 0 7 36.1 9.7
-12 0 7 378.06 22.6
-12 0 -7 358.56 23
12 0 -7 371.16 15.4
12 0 7 357.16 19.5
12 0 -7 309.27 20.5
0 -1 -7 800.52 26.8
0 1 7 801.92 26.5
0 -1 7 809.42 26.3
0 1 -7 785.62 25.9
0 1 -7 767.92 26.1
0 1 7 797.42 26.6
0 -1 7 772.82 26
1 1 -7 1679.73 45.1
-1 -1 -7 1663.03 50.29
1 -1 7 1716.43 49.9
1 1 -7 1628.24 48
1 -1 7 1747.23 50.29
-1 1 7 1705.93 49.3
-1 -1 7 1673.73 48.1
-1 1 -7 1763.02 50.29
1 1 7 1619.74 49.7
-1 -1 7 1713.43 48.5
1 -1 -7 1686.93 46.7
-1 1 -7 1695.03 50.09
1 -1 -7 1560.74 48.6
1 1 7 1683.23 49.9
-2 1 7 35.1 4.7
-2 -1 -7 25.2 5.2
2 1 -7 22.5 3.4
2 -1 7 19 4.4
2 -1 7 23.4 4.6
2 1 -7 27.4 2.4
-2 -1 -7 27 4.4
2 -1 -7 24.8 2.7
2 1 7 18.8 4.5
2 1 7 18.3 4.3
-2 1 -7 20.5 4.6
2 -1 -7 25.9 4
-2 -1 7 23 3.5
2 -1 -7 17.1 3.2
-2 -1 7 18.8 3.3
-2 1 -7 22.2 4.8
3 1 -7 1371.86 37.7
3 1 -7 1282.77 35.2
3 -1 7 1303.47 42.3
3 1 -7 1314.47 37.7
3 -1 7 1295.57 42.1
-3 -1 -7 1330.57 42.7
-3 1 7 1323.87 39.5
-3 -1 -7 1302.37 42.7
-3 -1 -7 1270.97 39.2
3 1 7 1317.37 42.1
3 1 7 1395.56 38.2
3 -1 -7 1325.67 36.2
-3 -1 7 1323.67 37.6
3 1 7 1406.86 43.3
3 -1 -7 1324.97 38.1
-3 1 -7 1319.47 42.9
3 -1 -7 1309.17 39.2
-3 1 -7 1313.17 38.6
-3 -1 7 1341.87 37.8
-3 1 -7 1311.47 42.4
4 -1 7 291.47 15.5
-4 -1 -7 293.87 15.9
4 -1 7 291.47 12
4 1 -7 283.77 8.8
-4 1 7 281.07 12.6
4 1 -7 288.97 10.6
-4 -1 -7 311.47 15.9
4 1 -7 289.87 12.5
-4 -1 -7 293.27 12.8
4 1 -7 283.67 11.8
-4 1 -7 312.87 16.1
-4 1 -7 289.57 12.7
4 -1 -7 319.97 11.7
4 -1 -7 306.57 12.4
4 -1 -7 302.67 12.6
4 1 7 325.47 15.7
4 1 7 312.07 12.1
-4 -1 7 315.57 10.9
-4 1 -7 296.57 15.9
-4 -1 7 311.07 10.9
4 -1 -7 310.57 10.1
5 1 -7 87.79 3.6
-5 -1 -7 73.69 9.3
5 1 -7 84.59 6.6
5 -1 7 86.79 6.6
-5 1 7 89.49 6.9
5 1 -7 88.79 3.7
-5 -1 -7 78.39 8
-5 1 -7 93.19 7.9
5 1 7 101.09 6.7
-5 1 -7 102.39 10
5 -1 -7 99.59 6.6
-5 -1 7 103.59 4.9
5 -1 -7 103.99 5
5 -1 -7 94.49 7.1
-5 -1 7 103.69 5.1
-6 -1 -7 69.19 9.6
6 1 -7 59.99 6.7
-6 -1 -7 68.59 8.1
6 1 -7 59.49 3.1
-6 1 7 52.49 6
6 -1 7 56.09 6.3
6 -1 -7 73.29 7.1
6 1 7 63.89 6.6
6 -1 -7 68.79 4.4
-6 1 -7 70.59 7.9
6 -1 -7 69.59 6.9
-6 -1 7 69.79 3.6
-6 -1 7 72.59 3.9
-6 1 -7 67.39 9.3
7 1 -7 1589.94 43
-7 1 7 1656.63 47.5
7 -1 7 1570.54 47.9
-7 -1 -7 1607.74 49.99
7 1 -7 1615.24 49.1
-7 -1 -7 1611.94 54.39
-7 1 -7 1649.13 54.89
7 -1 -7 1644.44 49.4
7 -1 -7 1618.94 44.6
7 -1 -7 1667.43 49.3
-7 1 -7 1603.64 49.7
7 1 7 1603.94 47.9
8 1 -7 299.47 10.4
8 -1 7 307.97 14.9
8 1 -7 352.06 16.5
-8 -1 -7 317.57 16.3
8 -1 -7 307.87 15.7
8 -1 -7 292.87 15.2
8 1 7 320.87 14.7
-8 1 -7 328.57 16.9
8 -1 -7 312.07 11.8
9 1 -7 541.75 16.9
9 -1 7 581.64 22.1
9 1 -7 494.55 22.6
-9 -1 -7 530.65 24
-9 1 -7 514.05 23.6
9 -1 -7 519.45 18.1
9 -1 -7 586.24 23.9
9 1 7 547.95 21.4
10 1 -7 114.99 6.4
10 1 -7 115.09 11.8
10 -1 7 98.99 10.2
-10 -1 -7 117.59 13.2
10 1 7 109.69 10.4
10 -1 -7 102.39 7.2
-10 1 -7 112.99 12.9
10 -1 -7 103.99 11.5
-10 -1 7 87.19 11.5
11 1 -7 66.49 10.6
-11 1 7 71.69 11.6
11 -1 7 80.79 9.9
-11 -1 -7 69.59 12.1
-11 1 -7 82.19 12.5
-11 -1 7 93.79 12.4
11 -1 -7 95.69 12.3
11 1 7 86.89 10.1
12 1 -7 17.4 4.2
-12 1 7 15.7 8.7
12 1 -7 16.7 8
-12 -1 -7 9.1 8.8
12 -1 7 12.1 6.5
-12 1 -7 15.2 8
-12 -1 7 25 9.2
12 -1 -7 28.5 8.9
12 -1 -7 13.6 4.6
0 -2 -7 1659.53 46.4
0 2 -7 1368.76 45.7
0 -2 -7 1554.34 47.2
0 2 7 1624.84 47.6
0 2 -7 1617.04 42.9
0 -2 7 1605.74 46.5
0 2 -7 1600.34 46.3
0 -2 7 1553.44 46.1
-1 -2 -7 980.9 32.6
1 -2 7 1009.3 32.1
-1 -2 -7 967.4 29.8
1 -2 7 980.6 31.8
-1 2 7 962.1 31.7
1 2 -7 967.1 27.1
1 2 -7 967.4 30.1
-1 -2 7 944.41 29.9
-1 2 -7 945.61 31.8
-1 2 -7 1028.2 32.1
1 -2 -7 992.3 28.9
1 -2 -7 981.4 29.1
-1 -2 7 988 30.2
1 -2 -7 963.7 30.9
1 2 7 947.81 32.1
1 2 7 949.6 31.9
1 -2 -7 977.8 31.4
2 -2 7 1746.03 52.09
-2 -2 -7 1658.23 49.2
2 2 -7 1732.23 45.4
-2 -2 -7 1734.63 52.49
-2 2 7 1740.03 50.69
2 -2 7 1745.63 51.89
2 2 -7 1687.93 48
-2 2 -7 1711.03 51.99
2 -2 -7 1701.03 46.5
-2 -2 7 1665.83 48.1
2 2 7 1699.23 51.59
2 -2 -7 1674.93 47.7
-2 2 -7 1734.03 52.29
2 2 7 1750.12 51.99
-2 -2 7 1700.83 47.9
-3 -2 -7 1029.4 33.4
3 2 -7 1069.19 28.7
3 2 -7 1115.09 31.1
3 2 -7 1082.59 31.4
3 -2 7 1089.69 36.7
-3 -2 -7 1050.59 36.6
-3 2 7 1112.39 34.5
3 -2 7 1042.9 36.2
3 -2 -7 1066.59 31.2
3 -2 -7 1033.4 30.4
-3 2 -7 1134.99 37.1
-3 2 -7 1095.19 37
3 -2 -7 1050.69 32.1
3 -2 -7 1076.79 34
3 2 7 1148.99 32.2
-3 -2 7 1105.79 31.2
-3 -2 7 1100.89 31
3 2 7 1086.39 36
-3 2 -7 1102.89 32.4
-4 2 7 60.19 6.7
-4 -2 -7 62.49 8.2
4 -2 7 65.09 8.2
-4 2 7 62.69 6.5
4 2 -7 65.09 1.9
-4 -2 -7 63.89 6.9
4 -2 7 77.09 5.6
4 2 -7 58.99 5.1
-4 -2 7 47.7 3.3
-4 2 -7 48.9 7.4
-4 2 -7 47.6 7.4
4 -2 -7 44.7 5.7
-4 2 -7 46.8 5.6
4 -2 -7 56.19 5.4
4 2 7 50.39 5.2
-4 -2 7 50.39 3.3
4 -2 -7 49.7 5.2
4 2 7 44.4 6.7
4 -2 -7 55.49 4.1
5 2 -7 447.96 17
-5 2 7 490.65 18.9
-5 -2 -7 477.35 18.6
-5 2 7 467.85 18.5
-5 -2 -7 461.65 21.7
5 -2 7 455.65 17.2
-5 2 -7 472.45 22.2
-5 2 -7 492.95 18.3
5 2 7 493.15 17.3
5 -2 -7 485.95 17.4
5 -2 -7 483.25 17.8
5 -2 -7 466.55 15.3
6 -2 7 872.21 28.6
6 2 -7 881.01 28.7
-6 -2 -7 862.21 33.8
-6 2 7 844.92 29.2
-6 -2 -7 870.11 29.9
-6 2 -7 856.31 34
6 -2 -7 905.61 29
-6 2 -7 927.21 29.9
6 -2 -7 892.81 29.4
6 -2 -7 883.11 26
6 2 7 889.91 28.2
-7 -2 -7 630.04 24
7 2 -7 635.64 16.5
7 -2 7 600.74 22.2
-7 -2 -7 569.34 26.6
-7 2 7 631.84 24.3
7 2 -7 630.54 23
-7 2 -7 606.24 23.2
7 2 7 591.34 21.7
7 -2 -7 620.14 23.1
-7 2 -7 597.24 27.8
7 -2 -7 590.14 19.4
7 -2 -7 611.44 23.3
8 -2 7 548.25 21.1
8 2 -7 541.85 15.2
8 2 -7 518.85 21.5
-8 -2 -7 512.45 22.3
8 -2 -7 535.95 22.1
-8 2 -7 530.25 22.6
8 2 7 511.35 20.1
8 -2 -7 496.75 17.8
8 -2 -7 546.35 22.3
9 2 -7 185.78 12.7
9 -2 7 179.38 11.6
-9 -2 -7 187.48 14.5
9 2 -7 187.08 7.2
9 2 7 202.28 12
9 -2 -7 185.38 13
9 -2 -7 195.78 13.4
-9 2 -7 183.48 13.9
9 -2 -7 200.48 9.7
-9 -2 7 170.38 13.3
10 2 -7 29.1 3.4
10 -2 7 31.2 6.7
10 2 -7 31.7 6.9
-10 -2 -7 23.3 8.3
10 2 7 27.4 6.1
-10 2 -7 29.9 8.3
10 -2 -7 37.8 5.1
-10 -2 7 27.1 7.8
10 -2 -7 36 7.8
11 2 -7 39.9 4.4
-11 -2 -7 43.1 9.1
-11 2 7 56.69 10.6
11 -2 7 44.2 8.3
11 2 -7 49.1 9.4
-11 2 -7 44.5 9.1
11 -2 -7 30.3 8.5
11 2 7 46.5 7.9
-11 -2 7 32.9 8.8
12 2 -7 147.39 16
12 -2 7 185.98 14.5
-12 2 7 162.78 17
12 2 -7 159.58 9.1
-12 -2 -7 168.98 17.8
12 -2 -7 174.18 11.2
12 2 7 171.58 13.6
12 -2 -7 184.78 16
-12 2 -7 182.38 18.2
-12 -2 7 174.88 17.2
0 -3 -7 853.01 29.3
0 -3 -7 910.81 27
0 -3 7 937.31 29.3
0 3 7 860.41 30.1
0 -3 -7 845.72 29.8
0 3 -7 933.31 25.6
0 -3 7 820.12 28.5
1 3 -7 374.36 15
1 -3 7 407.46 17.1
-1 3 7 414.16 17.5
1 3 -7 392.06 12.6
-1 -3 -7 386.56 17.4
1 -3 7 403.26 17
-1 -3 -7 371.86 15.2
-1 -3 7 420.96 15.6
1 -3 -7 408.66 13.7
1 -3 -7 419.76 16.9
-1 3 -7 398.56 16.9
-1 3 -7 401.86 17
1 -3 -7 409.16 17.2
-1 -3 7 406.66 15.5
1 3 7 409.16 17.7
1 -3 -7 418.16 14.5
-1 3 -7 411.16 13.7
2 -3 7 1637.24 49
2 3 -7 1545.65 41.7
-2 -3 -7 1586.54 49.2
-2 -3 -7 1624.24 45.1
2 3 -7 1602.14 44.4
2 -3 7 1622.64 48.8
-2 -3 -7 1568.84 46
-2 3 7 1598.54 48
2 -3 -7 1484.05 43.1
2 -3 -7 1545.95 44.3
2 -3 -7 1512.35 43.4
-2 -3 7 1523.65 44.5
2 -3 -7 1563.44 47.5
-2 -3 7 1583.74 44.4
2 3 7 1532.85 48.2
-2 3 -7 1595.74 48.6
-2 3 -7 1559.34 48.6
2 3 7 1517.25 45.8
2 3 7 1569.74 48.6
-3 -3 -7 38.1 6.5
-3 -3 -7 31.9 5.9
-3 3 7 29.6 5.2
3 -3 7 30.1 5.7
3 -3 7 31.1 6.1
3 3 -7 36.5 3.3
-3 3 7 29.8 5
3 3 7 29.1 4.2
3 -3 -7 22.2 3.5
-3 -3 7 22.3 3
-3 3 -7 20.7 4
-3 -3 7 22.4 2.9
3 -3 -7 19.3 2.9
3 -3 -7 22.7 3.9
3 3 7 25.7 5.4
-3 3 -7 18 5.1
-3 3 -7 19.4 5.2
-4 3 7 1096.09 36.4
-4 -3 -7 1091.69 35.7
-4 -3 -7 1121.09 39.3
4 3 -7 1072.19 33.1
-4 3 7 1113.99 37
4 -3 7 1179.58 34.3
4 -3 7 1134.89 39.7
-4 3 -7 1139.69 39.6
-4 -3 7 1146.19 30.1
4 -3 -7 1127.19 33.8
-4 3 -7 1167.08 34.3
4 3 7 1107.59 33.9
4 -3 -7 1127.49 32.6
-4 3 -7 1252.97 40.4
4 3 7 1195.18 42.6
4 -3 -7 1138.79 34.5
-4 -3 7 1131.09 30.2
-5 -3 -7 204.08 14
-5 -3 -7 225.48 11.9
5 -3 7 210.98 10.7
-5 3 7 198.18 12.1
5 3 -7 220.28 10.2
5 -3 -7 214.58 10.7
-5 3 -7 222.08 11.3
5 -3 -7 216.38 10.5
-5 3 -7 242.28 15.2
5 -3 -7 222.78 9.2
5 3 7 211.88 10.4
-6 -3 -7 232.38 13.4
-6 -3 -7 190.08 14.1
-6 3 7 209.48 12.4
6 -3 7 191.48 10.8
6 3 -7 211.98 10.8
6 -3 -7 212.48 11.2
6 -3 -7 201.58 11.3
6 3 7 196.88 10.6
-6 3 -7 189.48 14.6
6 -3 -7 212.98 9.3
-6 3 -7 207.68 11.7
7 -3 7 530.05 20.6
-7 -3 -7 571.24 23.2
7 3 -7 555.34 21.1
-7 3 -7 540.65 21.8
7 -3 -7 567.84 21.8
-7 3 -7 528.35 25.8
7 -3 -7 528.85 18.5
7 -3 -7 548.55 21.7
7 3 7 550.04 20.2
8 3 -7 74.89 8.6
-8 -3 -7 67.89 9.7
8 3 -7 74.99 2.8
8 -3 7 77.09 8.4
8 -3 -7 73.59 8.9
8 3 7 85.19 8.3
8 -3 -7 85.89 9.4
-8 3 -7 89.09 10
8 -3 -7 102.79 7
9 3 -7 114.39 10.3
9 3 -7 111.29 4.7
-9 -3 -7 109.49 12.3
9 -3 7 124.39 10.2
-9 -3 7 116.09 11.6
9 -3 -7 116.89 7.8
-9 3 -7 114.39 11.9
9 3 7 121.79 9.8
9 -3 -7 117.19 11.8
9 -3 -7 104.99 11.1
10 3 -7 22.3 6.8
10 -3 7 25.5 6.3
-10 -3 -7 14.3 7.7
10 -3 -7 19.2 6.8
10 -3 -7 22.5 7.1
-10 3 -7 18 7.4
-10 -3 7 12 6.3
10 -3 -7 24.9 4.8
10 3 7 26.1 6
11 -3 7 159.48 13.3
-11 -3 -7 196.38 16.9
11 3 -7 141.69 14.4
-11 3 7 142.09 15.6
11 3 -7 148.19 7.4
11 3 7 183.98 12.7
11 -3 -7 165.08 14.4
-11 3 -7 172.88 15.4
-11 -3 7 138.29 14.4
12 3 -7 29.5 4.2
12 3 -7 24.5 8.6
-12 3 7 23.5 9.3
-12 -3 -7 32.5 11.3
12 -3 7 29.4 7.7
12 -3 -7 32.3 9.4
-12 3 -7 15.1 9.3
12 -3 -7 26.5 5.8
12 3 7 33.5 7.7
-12 -3 7 32.1 9.3
0 4 -7 138.29 6.6
0 -4 7 137.49 8.8
0 -4 7 145.19 9.1
0 -4 -7 129.09 9.4
0 -4 -7 144.39 8
0 4 7 135.89 10.2
0 -4 -7 139.59 7.7
0 -4 -7 143.69 10.3
1 4 -7 1993.6 59.49
-1 4 7 2158.98 63.09
-1 -4 -7 2094.39 58.89
-1 -4 -7 2146.09 63.19
1 -4 7 2090.39 62.09
-1 -4 -7 2116.39 62.39
1 4 -7 2078.49 56.49
1 -4 7 2199.08 62.69
-1 -4 -7 2144.59 59.29
1 -4 -7 2123.89 58.39
-1 -4 7 2118.39 60.19
1 -4 -7 2192.88 57.79
1 4 7 2064.29 62.79
1 -4 -7 2125.79 61.89
1 -4 -7 2078.09 57.89
1 -4 -7 2126.39 62.59
-1 4 -7 2037.4 61.79
-1 -4 7 2064.09 59.89
-1 4 -7 2184.78 57.69
-2 -4 -7 895.11 27.9
-2 -4 -7 873.61 31.1
-2 -4 -7 860.71 28.2
2 -4 7 891.81 31.1
2 4 -7 878.81 26.6
2 -4 7 888.51 31
-2 4 7 877.41 30.1
2 4 -7 887.41 24.1
-2 4 7 846.92 30.3
2 -4 -7 813.92 29.8
2 4 7 863.21 26.6
-2 -4 7 825.72 26.8
2 -4 -7 831.52 26.4
-2 -4 7 815.82 26.5
-2 4 -7 855.01 33.8
-2 4 -7 833.32 30.3
2 -4 -7 853.71 26
2 -4 -7 849.02 25.7
-2 4 -7 859.91 26.2
-3 -4 -7 2351.46 69.09
3 4 -7 2322.67 61.59
-3 -4 -7 2200.98 64.89
3 -4 7 2389.36 69.29
3 -4 7 2315.57 69.19
3 4 -7 2242.88 59.49
-3 4 7 2235.18 67.29
-3 4 7 2235.98 66.69
-3 -4 7 2278.67 61.99
-3 -4 7 2302.67 61.69
-3 4 -7 2356.56 68.99
3 -4 -7 2259.17 62.09
-3 4 -7 2376.16 62.69
3 -4 -7 2252.57 63.29
3 -4 -7 2261.87 66.99
-3 4 -7 2279.67 68.59
3 -4 -7 2200.38 62.69
3 4 7 2152.78 62.89
3 4 7 2373.06 68.29
-4 -4 -7 14.9 5.4
-4 -4 -7 9.8 5.5
4 4 -7 14 1.2
4 -4 7 15.8 3.7
4 4 -7 14 1.1
-4 4 7 18.4 5.3
4 -4 7 10.7 3.1
4 4 -7 8.9 2.7
4 -4 7 15.6 5.8
4 -4 -7 9.5 3.5
-4 -4 7 9.6 1.5
-4 4 -7 3 4.4
4 -4 -7 9.5 2.6
-4 -4 7 9.8 1.6
-4 4 -7 7.6 4.7
4 4 7 12.1 3.6
4 -4 -7 20.4 3.8
-4 4 -7 13.5 3.9
5 -4 7 455.75 17.1
-5 -4 -7 433.26 18.7
-5 4 7 445.76 19.4
5 4 -7 438.26 16.1
-5 -4 -7 418.26 20.9
5 -4 7 435.66 16.3
5 -4 -7 413.46 16.6
-5 4 -7 439.36 21.6
5 -4 -7 427.36 17.1
5 4 7 388.46 16.1
-5 4 -7 435.86 16.9
5 -4 -7 455.15 15.6
6 4 -7 1129.19 35
-6 -4 -7 1137.49 37.6
6 -4 7 1132.49 35.6
-6 -4 -7 1091.19 40.9
-6 4 7 1127.49 38.4
6 -4 7 1095.09 35.3
6 -4 -7 1119.19 35.8
6 -4 -7 1147.69 36.3
6 -4 -7 1152.28 33.8
-6 4 -7 1166.88 36.1
-6 4 -7 1071.69 41.4
6 4 7 1178.18 35.2
7 -4 7 226.68 12.1
7 4 -7 243.58 12.4
-7 -4 -7 244.48 14.9
7 4 7 236.48 12
7 -4 -7 202.18 12.3
-7 4 -7 205.48 16
7 -4 -7 216.88 10.6
-7 4 -7 208.28 12.7
7 -4 -7 211.18 12.1
8 -4 7 224.08 12.6
-8 -4 -7 200.28 14.5
8 4 -7 222.68 12.5
8 4 7 186.08 11.4
-8 -4 7 190.88 12.9
8 -4 -7 184.88 12.4
-8 4 -7 191.18 13
8 -4 -7 169.68 9.9
8 -4 -7 203.78 12.9
9 4 -7 23.5 1.8
9 4 -7 14.4 5.3
9 -4 7 34.3 6.6
-9 -4 -7 12.5 7.2
9 -4 -7 27.9 6.8
9 -4 -7 24 4.7
-9 4 -7 18.9 6.9
9 -4 -7 23.8 6.7
-9 -4 7 28.2 7
9 4 7 27.6 5.6
10 -4 7 253.17 14.8
-10 -4 -7 254.67 17.9
10 4 -7 256.27 16.1
10 -4 -7 210.78 15.5
-10 -4 7 202.88 14.8
10 4 7 235.48 13.9
10 -4 -7 203.98 15.1
-10 4 -7 219.08 15.9
10 -4 -7 232.58 12.4
11 4 -7 4.3 2.2
11 -4 7 5 5.9
11 4 -7 10.9 6.7
-11 4 7 5.2 7.8
-11 -4 -7 -0.9 8
-11 -4 7 7.9 6.4
11 -4 -7 5.2 6.5
11 4 7 7.9 5.2
-11 4 -7 -0.8 7.2
11 -4 -7 2.6 6.3
12 -4 7 67.59 10.3
12 4 -7 83.79 6
-12 -4 -7 77.29 14
-12 4 7 54.69 11.7
12 4 -7 98.49 12.8
12 4 7 73.99 9.8
-12 -4 7 74.49 11.6
-12 4 -7 92.69 13.8
12 -4 -7 91.69 13.2
12 -4 -7 81.49 9.1
0 5 7 1982.2 60.49
0 -5 -7 1967.2 60.29
0 -5 7 1896.61 58.19
0 -5 7 2049.89 58.89
0 -5 -7 2054.99 55.59
0 -5 -7 1951.2 55.69
0 -5 -7 1950.3 59.39
0 5 -7 2013.3 54.29
-1 -5 -7 938.91 32.8
-1 5 7 933.21 32.3
-1 -5 -7 881.11 28.8
1 -5 7 903.21 31.6
-1 -5 -7 914.71 31.9
1 -5 7 900.91 31.7
1 5 -7 909.11 29.3
-1 -5 -7 916.61 28.6
-1 5 7 939.41 32.7
1 5 -7 923.71 26.2
1 -5 -7 858.01 27.6
-1 5 -7 837.92 30.9
-1 -5 7 881.51 29.6
-1 5 -7 878.91 27
-1 -5 7 881.81 29.4
1 -5 -7 900.31 27.2
1 -5 -7 939.41 35.2
1 5 7 899.71 36.4
1 -5 -7 900.91 32.2
1 5 7 877.31 28
-2 -5 -7 416.26 16.5
2 -5 7 388.26 18.3
-2 -5 -7 395.36 18.9
2 -5 7 375.56 18.3
-2 5 7 374.16 17.9
2 5 -7 364.56 14.5
-2 -5 -7 349.27 15.9
-2 -5 -7 399.96 18.2
2 5 -7 381.06 12.3
-2 5 7 393.26 18.8
2 -5 -7 373.36 14.3
-2 5 -7 395.96 14.3
2 -5 -7 366.56 17.9
-2 -5 7 387.36 15.2
2 -5 -7 405.56 14
-2 5 -7 383.26 18.1
-2 -5 7 380.36 14.9
2 -5 -7 379.76 14.4
2 5 7 360.46 14.6
3 -5 7 173.88 12.3
-3 -5 -7 164.38 13.9
-3 5 7 171.68 13.2
3 -5 7 202.58 13.2
3 5 -7 160.88 6.5
-3 5 7 165.18 12
-3 -5 -7 177.18 11.7
-3 -5 -7 170.98 12.7
3 5 -7 178.78 8.2
-3 -5 -7 166.48 11.3
-3 5 -7 189.68 13
-3 5 -7 181.18 8.9
-3 -5 7 180.08 8.6
3 -5 -7 171.18 9.2
3 -5 -7 180.88 9.2
3 -5 -7 180.38 8.6
-3 5 -7 195.88 9.3
-3 -5 7 177.38 8.4
-4 5 7 665.13 27.1
4 -5 7 724.73 29.8
4 -5 7 677.03 22.5
-4 -5 -7 691.93 26
4 5 -7 719.13 22.2
4 -5 7 709.03 23.7
4 5 -7 703.33 19.9
-4 -5 -7 735.03 29.2
4 5 -7 718.33 19.5
-4 -5 7 706.53 20.8
4 5 7 683.43 23.5
-4 5 -7 732.63 23.3
4 -5 -7 713.13 23.8
4 -5 -7 704.73 23.8
4 -5 -7 713.03 22.9
-4 -5 7 736.53 20.7
-4 5 -7 720.63 29.4
-4 5 -7 754.12 30.5
-5 -5 -7 780.32 32.2
-5 5 7 806.82 31.1
5 -5 7 834.72 27.6
5 5 -7 826.42 26.1
5 -5 7 811.82 26.8
-5 -5 -7 821.42 29.7
-5 5 -7 873.11 27.3
5 -5 -7 841.32 26.3
5 -5 -7 847.22 27.7
5 5 7 807.52 27.1
5 -5 -7 853.81 28
-5 5 -7 846.72 33.5
-6 5 7 277.17 16.1
6 5 -7 273.47 12.9
-6 -5 -7 291.17 16
6 -5 7 259.07 13.2
-6 -5 -7 289.77 18
6 -5 7 277.17 13.4
-6 5 -7 295.47 13.9
6 -5 -7 279.17 12.3
-6 5 -7 274.57 18.1
6 -5 -7 267.37 13.6
6 5 7 266.17 12.8
6 -5 -7 273.47 13.4
7 -5 7 591.04 23.1
7 5 -7 600.04 22.8
7 -5 7 582.14 23.1
-7 -5 -7 620.74 25.6
-7 -5 7 645.14 23.5
-7 5 -7 606.94 29.1
-7 5 -7 649.93 24.3
7 5 7 611.64 22.5
7 -5 -7 629.74 21.8
7 -5 -7 648.34 24.3
7 -5 -7 628.34 24
8 -5 7 28.7 5.7
8 5 -7 21.7 5.4
-8 -5 -7 24 8.2
8 -5 -7 28.3 6.4
8 -5 -7 41.2 5.7
-8 5 -7 31.2 6.9
8 5 7 31.1 5.7
8 -5 -7 27.8 6.3
-8 -5 7 34.3 6.5
9 5 -7 80.49 9.6
9 -5 7 67.09 8.4
-9 -5 -7 52.49 10.3
-9 5 -7 45.5 8.5
9 5 7 57.79 7.6
-9 -5 7 55.39 8.8
9 -5 -7 54.19 8.7
9 -5 -7 52.79 6.7
9 -5 -7 50.39 8.5
-10 -5 -7 41.4 10.1
10 5 -7 42.7 3
10 5 -7 46.4 10.4
10 -5 7 57.09 9
-10 5 -7 41.6 9
10 -5 -7 34.3 6.4
10 -5 -7 46.5 9.1
-10 -5 7 33.1 7.9
10 5 7 53.69 7.9
10 -5 -7 62.59 10.1
-11 -5 -7 153.88 17
11 5 -7 167.48 6.9
-11 5 7 129.29 14.7
11 -5 7 165.08 14.1
11 -5 -7 142.29 15.1
-11 5 -7 145.29 15.4
11 -5 -7 184.08 15.4
-11 -5 7 171.88 14.3
11 5 7 174.18 12.8
-12 5 7 35.2 10.6
-12 -5 -7 9 9.8
12 5 -7 19 3.3
12 -5 7 28.2 8
12 -5 -7 30.6 9
-12 -5 7 20.1 9.5
-12 5 -7 22.6 9.2
12 -5 -7 30 6.6
12 -5 -7 30.2 8.9
12 5 7 27.7 7.1
0 -6 -7 226.08 11.5
0 -6 7 223.18 12.7
0 6 7 242.98 13.1
0 -6 -7 241.48 14.8
0 6 7 224.38 14.3
0 6 -7 220.18 9.7
0 -6 -7 240.48 14
0 -6 -7 235.98 10.8
0 -6 7 236.28 13.2
1 -6 7 1033.6 35.8
-1 -6 -7 1028.5 36.7
-1 -6 -7 1050.89 31.9
-1 6 7 1035.3 36.2
1 -6 7 1054.19 35.9
-1 6 7 1028.9 36.8
1 6 -7 1002.7 29.7
-1 -6 -7 1067.59 36.1
-1 -6 -7 1038.7 32.9
-1 6 -7 1021.6 30.8
1 6 7 1017.4 31.8
1 -6 -7 1012.3 31.1
1 -6 -7 1014.2 36.5
1 -6 -7 981.9 31.6
-1 6 -7 960.5 38.3
-1 -6 7 1071.09 34.1
-1 -6 7 973.5 33.2
1 -6 -7 1021.7 30.8
-2 -6 -7 310.37 15.4
2 -6 7 327.27 17.8
2 6 -7 328.47 11.5
2 -6 7 338.67 17.7
-2 6 7 309.17 17.4
-2 6 7 322.77 17.3
-2 -6 -7 308.47 14.7
-2 -6 -7 317.47 17.5
2 -6 -7 331.27 12.9
-2 -6 7 322.27 14
2 -6 -7 321.37 13.5
2 -6 -7 321.27 13.1
-2 -6 7 328.37 14.2
2 6 7 317.17 13.7
-2 6 -7 356.76 18.1
2 -6 -7 321.77 17.4
-2 6 -7 327.27 13
-3 -6 -7 150.68 11.7
-3 -6 -7 170.18 12
-3 6 7 171.78 12.8
3 6 -7 169.98 6.9
3 -6 7 164.28 13.1
3 -6 7 160.28 7.7
-3 -6 -7 160.48 12.7
-3 -6 7 157.08 8.6
3 -6 -7 143.99 8.9
-3 6 -7 171.08 13.1
-3 -6 7 160.88 8.7
-3 6 -7 161.18 9.1
3 -6 -7 152.28 8.8
3 -6 -7 157.58 8.5
3 6 7 151.48 9.6
-4 6 7 201.08 14.4
-4 -6 -7 176.48 14.3
4 6 -7 189.28 7.2
4 -6 7 190.88 15
-4 -6 -7 203.18 13.7
4 -6 7 185.28 9.3
-4 -6 -7 213.78 13.7
-4 6 -7 221.08 10
-4 6 -7 182.78 14.4
-4 -6 7 197.08 8.6
4 6 7 190.18 10.8
4 -6 -7 201.88 10.6
4 -6 -7 202.28 10.5
4 -6 -7 194.78 9.9
-4 -6 7 200.78 8.5
-5 -6 -7 749.03 28
-5 -6 -7 738.23 30.9
5 -6 7 715.73 24.4
5 6 -7 749.73 20.2
-5 6 7 753.32 30
5 6 7 744.23 25.2
5 -6 -7 715.73 25.4
-5 6 -7 714.53 31.9
-5 6 -7 737.53 24.6
5 -6 -7 705.43 24.1
5 -6 -7 707.73 25.3
-6 6 7 464.35 26.2
6 -6 7 418.76 17.7
6 -6 7 439.16 18.8
6 6 -7 432.26 12.2
-6 -6 -7 408.26 20.5
6 -6 -7 489.55 17.9
-6 6 -7 490.15 18.9
-6 6 -7 425.06 27.3
6 -6 -7 456.85 18.9
6 6 7 459.55 18.2
6 -6 -7 465.45 19
7 -6 7 55.59 7.5
7 -6 7 47.5 7
-7 -6 -7 62.99 9.8
7 -6 -7 56.89 7.8
-7 6 -7 61.79 8.4
7 6 7 66.29 7.7
-7 6 -7 40.4 14.4
7 -6 -7 53.69 7.8
7 -6 -7 48.5 6.2
8 -6 7 49.99 7.5
8 -6 7 37.1 7
-8 -6 -7 22.2 8.2
8 6 7 45 6.8
8 -6 -7 41.8 7.4
8 -6 -7 50.59 7.9
-8 6 -7 46.9 8
8 -6 -7 43.7 6.2
-9 -6 -7 162.78 15.7
9 -6 7 173.58 12.7
-9 6 -7 174.18 13.4
9 -6 -7 162.18 11.2
9 -6 -7 154.68 12.5
9 6 7 154.08 11.4
9 -6 -7 174.48 13.2
10 -6 7 82.79 10.3
-10 -6 -7 80.89 12.7
10 6 7 77.49 9.3
10 -6 -7 88.29 11.6
10 -6 -7 87.99 11.4
-10 6 -7 84.99 11.6
-11 -6 -7 7.1 9.3
11 -6 7 1.7 5.3
11 -6 -7 6 4.9
-11 6 -7 4.8 7.5
11 -6 -7 -3 5.8
11 -6 -7 -0.4 6.1
11 6 7 1.8 5.3
-12 6 7 -1.1 8
12 -6 7 11.2 6.7
-12 -6 -7 -11.7 7.8
12 -6 -7 20.7 8.5
-12 6 -7 18.5 8.9
12 6 7 28.5 7.1
12 -6 -7 10.5 7.7
12 -6 -7 15.7 5.9
0 -7 -7 3771.72 103.79
0 -7 -7 3840.42 109.49
0 7 -7 3666.63 101.59
0 7 7 3874.01 103.49
0 -7 7 3758.82 106.99
0 -7 -7 3835.42 108.59
0 -7 -7 3915.01 102.49
-1 7 7 463.35 23
-1 -7 -7 470.25 17.7
-1 -7 -7 460.65 19.3
-1 7 7 445.46 21.9
1 -7 7 447.86 21.2
1 7 -7 465.25 16.2
-1 -7 -7 485.85 22.8
-1 7 -7 461.85 17
1 7 7 492.95 18.5
1 -7 -7 448.76 22.2
1 -7 -7 447.16 18
1 -7 -7 490.75 17.3
-1 -7 7 478.25 19.9
2 -7 7 585.44 18.7
-2 -7 -7 636.24 22.2
2 -7 7 608.54 26
-2 7 7 656.13 26.7
-2 -7 -7 617.54 26.5
2 7 -7 636.44 19.2
-2 -7 -7 604.64 23.5
-2 -7 7 574.24 22
2 7 7 560.64 21.4
-2 7 -7 545.45 20.2
2 -7 -7 556.44 21
2 -7 -7 563.94 20.1
2 -7 -7 552.34 20.1
-3 -7 -7 88.59 9.4
-3 7 7 100.59 11
-3 -7 -7 94.99 10.8
3 -7 7 86.39 6
-3 -7 -7 90.99 11.1
3 -7 7 80.99 10.7
3 7 -7 89.29 5.5
-3 -7 7 84.59 7.3
3 -7 -7 75.69 6.8
3 -7 -7 79.59 7.7
3 -7 -7 87.69 6.7
-3 7 -7 91.99 7.1
3 7 7 84.89 8.1
-4 -7 -7 1043 35.5
4 -7 7 1056.79 31.8
4 7 -7 1015.1 29.3
-4 -7 -7 1014.5 38.8
-4 7 7 1019.7 38.3
-4 -7 -7 1062.79 36.5
4 -7 -7 1028.1 33.3
-4 -7 7 1062.99 31.4
4 -7 -7 1021.4 32.4
-4 -7 7 1013.2 36.4
4 7 7 1038.9 33.1
4 -7 -7 1034.9 32.8
-5 7 7 32.7 8
5 7 -7 37.3 3.4
-5 -7 -7 43.9 9
5 -7 7 38.6 5.7
-5 -7 -7 37.7 8.5
-5 -7 -7 46.4 8.8
5 -7 -7 29.2 5.6
-5 -7 7 35.1 2.9
-5 -7 7 30.4 3
5 7 7 19.6 5.2
5 -7 -7 38.1 5.4
5 -7 -7 28.3 5.4
6 -7 7 552.94 21.6
-6 -7 -7 561.34 24.8
6 7 -7 560.24 16.7
6 -7 -7 553.44 22.2
6 -7 -7 579.74 22.8
6 7 7 608.64 22.2
6 -7 -7 630.64 21.8
7 -7 7 134.79 10.2
7 7 -7 152.48 5.7
-7 -7 -7 133.89 13.5
7 -7 -7 164.58 11.5
7 -7 -7 153.78 10.5
-7 7 -7 155.18 12.4
7 7 7 164.08 10.9
7 -7 -7 170.78 10.3
-8 -7 -7 111.49 13.3
8 -7 7 107.19 10.9
8 7 -7 108.39 4.4
8 -7 -7 121.09 11.9
8 7 7 116.39 10.4
8 -7 -7 116.39 9.3
8 -7 -7 113.59 9.6
-8 7 -7 116.29 11.6
9 7 -7 21.2 2.2
9 -7 7 16.4 6
-9 -7 -7 3.8 8
9 -7 -7 28.9 7.1
9 7 7 24.4 6.1
-9 7 -7 16.4 6.9
9 -7 -7 21.8 5.8
9 -7 -7 22.6 6.9
-10 -7 -7 12.1 9.8
10 7 7 29.4 7
-10 7 -7 21.9 7.8
10 -7 -7 40.2 8.6
10 -7 -7 36.2 8.7
-11 7 7 7.6 7.5
-11 -7 -7 -5.3 8.8
11 -7 -7 2 7.4
11 -7 -7 -5.7 5.3
-11 7 -7 -4.9 6.6
11 7 7 0.3 5.3
11 -7 -7 -3.6 4.2
0 -8 -7 587.94 26.4
0 -8 -7 556.84 21.6
0 8 7 557.74 21.1
0 -8 7 548.95 24
0 -8 -7 561.14 19.8
0 8 -7 551.54 19.6
1 -8 7 2300.37 70.69
-1 -8 -7 2302.47 71.79
1 8 -7 2253.37 63.19
-1 -8 -7 2405.16 67.19
-1 -8 -7 2328.07 64.49
1 8 7 2282.17 65.49
-1 -8 7 2195.88 67.89
-1 8 -7 2291.37 64.29
1 -8 -7 2251.57 63.79
1 -8 -7 2283.57 65.69
1 -8 -7 2280.27 77.09
2 -8 7 612.24 27.8
2 8 -7 632.74 20.9
-2 -8 -7 602.64 28
-2 -8 -7 655.43 23.3
-2 8 7 647.94 28.5
-2 -8 -7 652.73 25.7
-2 -8 7 646.64 24.7
2 -8 -7 653.93 23.5
2 -8 -7 659.03 22.2
2 -8 -7 675.73 22.5
-2 8 -7 673.53 22.8
2 8 7 643.24 23.6
-3 -8 -7 816.92 29.2
3 -8 7 820.22 25.9
-3 -8 -7 810.82 33.5
3 -8 7 852.11 34.6
3 8 -7 875.61 25.3
-3 -8 -7 856.01 31.4
-3 8 7 841.42 33.8
-3 -8 7 807.82 28.2
3 -8 -7 843.22 28.3
-3 8 -7 781.02 27.3
3 -8 -7 806.12 27.2
3 8 7 802.72 28.1
3 -8 -7 805.92 27
-4 -8 -7 154.98 13.4
4 8 -7 169.28 7.9
-4 -8 -7 172.48 14.4
-4 8 7 170.38 14.6
-4 -8 -7 175.18 14.5
4 -8 7 166.48 9
-4 -8 7 150.08 9.6
4 -8 -7 128.19 9.1
4 -8 -7 151.48 9.5
4 -8 -7 145.49 10.3
4 8 7 169.48 10.7
5 8 -7 929.11 26.7
5 -8 7 891.81 29.8
-5 8 7 909.61 36.9
-5 -8 -7 941.31 35.2
-5 -8 -7 870.21 33.1
5 -8 -7 905.61 30.7
5 8 7 946.51 31.1
5 -8 -7 914.11 31.5
5 -8 -7 944.11 30.7
6 8 -7 42.3 4
-6 -8 -7 50.39 9.6
-6 -8 -7 42.5 10
6 -8 7 53.09 7.1
6 -8 -7 53.29 7.2
6 8 7 55.49 7.3
6 -8 -7 55.09 7
6 -8 -7 58.19 8
7 8 -7 71.09 4.8
7 -8 7 92.39 9.4
-7 -8 -7 87.69 12.2
7 -8 -7 87.19 9.9
7 -8 -7 74.59 8
7 -8 -7 73.09 8.7
7 8 7 91.29 9.2
8 8 -7 19.4 2.6
8 -8 7 9.2 5.5
-8 -8 -7 14.2 8.2
8 -8 -7 11.8 5.1
8 -8 -7 13.7 6.1
8 8 7 7.2 5
9 -8 7 -1.3 5.4
9 8 -7 7.2 2.3
-9 -8 -7 5.7 8.8
9 -8 -7 16.7 6.4
9 -8 -7 10.6 6.7
9 -8 -7 2.2 4.4
9 8 7 1.8 5
-10 -8 -7 -2.6 8.9
10 -8 -7 3.4 6.4
10 -8 -7 5.8 6.3
10 8 7 2.3 5.4
-11 -8 -7 6.8 10.4
-11 8 7 17.8 9.3
11 -8 -7 9.5 7.1
11 -8 -7 3.1 6.8
11 8 7 21.7 6.9
11 -8 -7 12.3 6
0 9 -7 1516.45 43.3
0 -9 -7 1455.75 45.4
0 -9 -7 1363.06 42.3
0 -9 -7 1451.55 51.09
0 9 7 1461.15 44.8
0 -9 7 1427.66 48.8
-1 -9 -7 647.04 29.2
-1 -9 -7 611.04 22.1
1 -9 7 617.94 27.6
-1 -9 -7 609.44 24.8
1 9 -7 660.33 21.9
-1 9 -7 614.14 22.5
1 -9 -7 640.44 24
1 9 7 608.44 23.5
1 -9 -7 634.54 21.9
-1 -9 7 645.74 26.3
-2 -9 -7 400.66 22.6
-2 -9 -7 438.26 20.8
2 9 -7 428.86 16.1
2 -9 7 431.06 22.9
-2 -9 -7 421.36 17.8
2 9 7 432.76 18.5
2 -9 -7 457.95 18.7
-2 -9 7 425.76 20.2
2 -9 -7 425.96 16.7
-2 9 -7 419.06 17.4
-3 -9 -7 146.09 13.8
-3 -9 -7 134.39 13.5
-3 -9 -7 112.29 10.2
3 9 -7 128.19 8
3 -9 7 134.39 13.9
-3 9 -7 123.59 9.2
3 -9 -7 119.29 8.7
3 -9 -7 122.59 9.8
3 9 7 118.29 9.9
-4 -9 -7 319.97 19.3
-4 9 7 317.07 21.1
4 9 -7 319.27 12.8
4 -9 7 366.06 19.6
-4 -9 -7 318.27 16.9
4 9 7 311.07 16
4 -9 -7 317.97 14.9
4 -9 -7 325.47 14.6
4 -9 -7 351.66 16.3
-5 -9 -7 7.1 8.2
5 -9 7 -0.4 3.5
-5 9 7 2.2 7.4
5 9 -7 4.8 2.9
-5 -9 -7 3.6 6.7
5 -9 -7 2.1 4
5 9 7 3.3 4.7
5 -9 -7 9.3 4.2
5 -9 -7 3 3.7
6 -9 7 250.97 13.3
6 9 -7 277.87 10.6
-6 -9 -7 256.77 18.6
-6 -9 -7 223.08 17.7
6 -9 -7 255.47 13.9
6 9 7 235.48 13.9
6 -9 -7 259.67 14.7
6 -9 -7 276.07 14.3
-7 -9 -7 56.99 11.2
7 9 -7 69.09 5.5
7 -9 7 70.99 8.6
-7 -9 -7 80.59 12.9
7 -9 -7 71.09 9.5
7 -9 -7 76.19 8.9
7 9 7 82.89 9.5
7 -9 -7 75.99 8.7
8 -9 7 57.59 8.5
-8 -9 -7 41.8 11.5
8 9 -7 55.99 4.9
-8 -9 -7 53.09 12.4
8 -9 -7 29.6 7.6
8 9 7 50.09 7.9
8 -9 -7 45.1 7.8
8 -9 -7 48.2 7.6
9 9 -7 8.3 2.9
9 -9 7 6.6 6.3
9 -9 -7 4.1 6.9
9 -9 -7 6.5 5.6
9 9 7 5.6 5.4
10 -9 7 11.8 6.5
10 9 -7 17 3.2
10 -9 -7 30.3 8.6
10 -9 -7 19.6 6.7
10 9 7 22.7 7.3
10 -9 -7 7.5 6.5
-11 9 7 4.8 9
11 9 7 11.7 6.7
11 -9 -7 11.9 6.9
11 -9 -7 11.1 5.8
0 -10 7 77.39 12.3
0 10 -7 79.79 8
0 -10 -7 60.49 8.7
1 10 -7 143.59 9.6
1 -10 7 134.59 13.2
-1 -10 -7 151.68 14.7
-1 -10 -7 132.69 12.3
1 10 7 138.09 11.4
-1 10 -7 124.89 9.8
1 -10 -7 121.69 10.5
-2 -10 -7 464.55 25.2
2 -10 7 465.55 25
-2 -10 -7 437.06 21.8
2 10 -7 462.35 18
2 10 7 517.65 21.2
-2 10 -7 487.25 19.5
2 -10 -7 499.15 20.6
2 -10 -7 474.25 18.3
-3 -10 -7 99.89 12.5
3 10 -7 87.89 7.7
3 10 7 121.29 10.3
3 -10 -7 106.59 9.6
3 -10 -7 113.19 8
-4 -10 -7 142.89 14.6
4 10 -7 133.79 8.4
4 -10 -7 114.39 9.1
4 -10 -7 124.39 10.3
4 10 7 133.69 11.3
-5 -10 -7 77.59 12.7
5 10 -7 81.69 6.8
5 10 7 63.89 8.8
5 -10 -7 83.99 9.7
5 -10 -7 78.49 8.3
-6 -10 -7 196.18 17.3
6 10 -7 199.18 9.7
6 -10 -7 197.88 20
6 -10 -7 198.28 12.2
6 10 7 209.38 13.7
6 -10 -7 200.58 13.4
7 10 -7 174.78 9.2
7 -10 7 203.78 14.7
-7 -10 -7 216.28 18.5
7 10 7 217.38 13.9
7 -10 -7 203.48 13
7 -10 -7 161.28 12.7
7 -10 -7 194.78 13.8
8 -10 7 129.59 12.8
8 10 -7 130.49 7.8
-8 -10 -7 126.89 16.5
8 -10 -7 132.79 11.6
8 10 7 123.79 11.9
8 -10 -7 123.79 13.3
9 -10 7 41.6 9
9 10 -7 33.4 4.6
-9 -10 -7 25.8 12
9 -10 -7 35.9 8.4
9 -10 -7 36.2 9
9 10 7 37.5 8
10 10 -7 30 4.4
-10 -10 -7 55.39 13.7
10 -10 7 32.6 9.1
10 -10 -7 42.6 8.6
10 10 7 42.1 8.4
10 -10 -7 31.7 8.4
10 -10 -7 50.69 10.7
0 11 -7 129.49 10.1
0 -11 -7 126.69 12.1
-1 -11 -7 49.6 9.2
1 11 -7 51.49 6.8
-1 -11 -7 48.9 11.1
1 -11 -7 60.29 8.9
1 11 7 53.29 8.3
-1 11 -7 53.79 7.3
2 11 -7 365.46 16.4
-2 -11 -7 393.06 20.6
-2 11 -7 413.06 18.2
2 11 7 434.66 19.8
2 -11 -7 425.06 19.3
3 11 -7 260.17 12.7
-3 -11 -7 245.08 17.5
3 11 7 258.97 15.5
3 -11 -7 224.58 14.1
4 11 -7 91.29 8
-4 -11 -7 108.69 13.9
4 -11 -7 106.19 10.9
4 11 7 100.29 10.6
5 11 -7 141.79 9
-5 -11 -7 117.89 14.9
5 11 7 150.98 13.1
5 -11 -7 132.89 11.4
-6 -11 -7 115.29 15.5
6 11 -7 94.89 7.9
6 -11 -7 105.89 11.5
6 11 7 99.69 10.8
-7 -11 -7 249.48 20.8
7 11 -7 249.68 11.8
7 11 7 251.87 15.8
7 -11 -7 236.28 15.9
8 11 -7 38.5 5.4
-8 -11 -7 48.7 13.2
8 11 7 45.9 8.7
8 -11 -7 43.8 9.2
9 11 -7 146.59 9.1
-9 -11 -7 131.99 18.2
9 11 7 162.48 13.9
9 -11 -7 170.08 24.3
9 -11 -7 174.58 17.1
0 -12 -7 64.79 9.7
0 12 -7 77.99 8.8
1 12 -7 347.57 16.5
-1 -12 -7 369.26 19.6
-1 12 -7 336.77 16.8
1 -12 -7 347.07 18.2
-2 -12 -7 54.79 10
2 12 -7 38.4 6.4
-2 12 -7 52.39 8.1
2 12 7 44.4 8.6
2 -12 -7 32.6 7.8
-3 -12 -7 130.79 14.8
3 12 -7 133.29 10.2
3 12 7 152.98 13.1
3 -12 -7 133.59 11.6
-4 -12 -7 113.99 14.6
4 12 -7 105.39 9.1
4 -12 -7 117.69 12.1
4 12 7 103.09 11.4
5 12 -7 59.49 6.9
-5 -12 -7 75.49 13.8
5 -12 -7 74.49 10.3
5 12 7 68.79 9.8
-6 -12 -7 69.99 13.9
6 12 -7 81.99 7.8
6 -12 -7 85.39 11
6 12 7 77.29 10.1
-7 -12 -7 79.19 15.4
7 12 -7 62.89 7.2
7 12 7 84.89 10.8
7 -12 -7 98.39 12.4
8 12 -7 132.99 9.7
-8 -12 -7 124.59 18.3
8 12 7 148.79 13.9
8 -12 -7 163.78 14.5
9 12 -7 1.4 4
-9 -12 -7 13.6 12.1
9 12 7 10.3 7.1
9 -12 -7 20.9 8.2
0 -13 -7 31.2 8.3
0 13 -7 38.8 7.4
-1 -13 -7 0.4 6.1
1 13 -7 9 5.3
-1 13 -7 10.2 5.8
1 -13 -7 10.3 6.2
-2 -13 -7 250.47 17.5
2 13 -7 271.97 14.9
2 13 7 222.68 15.6
2 -13 -7 257.37 16.1
3 13 -7 143.79 11
-3 -13 -7 144.29 15.7
3 13 7 157.58 14.3
3 -13 -7 116.19 12.4
4 13 -7 67.79 8.1
-4 -13 -7 80.99 13
4 13 7 74.49 10.7
4 -13 -7 63.09 9.9
5 13 -7 18.5 5.7
-5 -13 -7 13.6 10.2
5 13 7 38.4 8.7
5 -13 -7 21.8 7.4
-6 -13 -7 83.59 15.1
6 13 -7 70.89 8.2
6 13 7 101.59 11.9
6 -13 -7 68.79 11.3
-7 -13 -7 66.49 14.5
7 13 -7 70.99 7.9
7 13 7 96.09 11.9
7 -13 -7 96.79 12.5
8 13 -7 19.1 5.5
-8 -13 -7 24.9 12.9
8 13 7 31.7 8.4
8 -13 -7 48.2 9.9
0 -14 -7 4.2 6.3
0 14 -7 0.2 5.3
1 14 -7 23.6 7.2
-1 -14 -7 31.6 8.7
-1 14 -7 33.1 7.7
1 -14 -7 42.9 8.8
-2 -14 -7 99.29 13.3
2 14 -7 115.29 11
2 -14 -7 114.19 12.7
-3 -14 -7 69.09 12.2
3 14 -7 95.29 10.2
3 14 7 74.79 11.1
3 -14 -7 74.59 10.8
-4 -14 -7 143.79 16.4
4 14 -7 137.99 11.6
4 -14 -7 126.89 13.9
4 14 7 141.29 14.5
5 14 -7 32.1 6.9
-5 -14 -7 12.9 10.3
5 -14 -7 32.3 8.6
5 14 7 23.8 8.6
-6 -14 -7 89.89 15.7
6 14 -7 95.49 9.7
6 -14 -7 121.09 14
6 14 7 114.49 13.2
-7 -14 -7 67.19 15.2
7 14 -7 62.89 8.1
7 -14 -7 60.09 10.5
7 14 7 71.29 11.2
0 -15 -7 8 7
0 15 -7 -0.8 5.7
-1 -15 -7 4 7.2
1 15 -7 -2.4 5.8
1 -15 -7 13.9 7.2
-1 15 -7 9.7 6.7
2 15 -7 32.1 8
-2 -15 -7 32 9.5
2 -15 -7 27 8
-3 -15 -7 75.89 13
3 15 -7 82.49 10.2
3 -15 -7 68.79 10.7
3 15 7 74.39 13
4 15 -7 3.8 5.6
-4 -15 -7 2.1 8.8
4 -15 -7 12.4 7.3
4 15 7 4.6 7.7
-5 -15 -7 86.49 14.8
5 15 -7 85.69 10.2
5 15 7 91.19 12.7
5 -15 -7 127.39 14.5
6 15 -7 11.6 6
-6 -15 -7 11.3 10.7
6 15 7 9.8 7.9
6 -15 -7 13.6 7.5
0 16 -7 54.39 9.9
0 -16 -7 76.49 11.7
-1 -16 -7 27 9.1
1 16 -7 19.6 7.3
1 -16 -7 21.1 8
-2 -16 -7 32.7 10.1
2 16 -7 20.1 7.3
2 -16 -7 25.5 8.2
3 16 -7 8.9 6.5
-3 -16 -7 12.9 9
3 -16 -7 12.1 7
-4 -16 -7 57.39 13
4 16 -7 51.49 8.9
4 16 7 33.5 10.1
4 -16 -7 55.09 10.5
0 17 -7 14.8 8.6
0 -17 -7 33.7 9.6
1 17 -7 60.89 10.5
-1 -17 -7 56.89 11.2
1 -17 -7 61.49 10.9
0 0 8 2458.15 69.89
0 0 8 2555.14 70.49
0 0 -8 2434.56 70.09
0 0 -8 2410.26 66.09
-1 0 -8 459.15 16.6
1 0 -8 460.65 14.5
1 0 8 448.56 18.6
1 0 -8 458.65 15.6
-1 0 8 460.85 17.5
1 0 8 439.66 18.4
-1 0 -8 465.15 18.8
-1 0 8 469.65 17.9
-1 0 -8 441.06 18.7
-2 0 -8 1678.83 51.09
-2 0 8 1649.93 48
-2 0 -8 1596.44 47.7
2 0 -8 1573.24 47.8
2 0 -8 1660.23 46.2
-2 0 8 1649.33 48.3
2 0 8 1704.93 50.99
2 0 -8 1663.43 44.8
-2 0 -8 1672.83 51.29
2 0 8 1686.43 50.89
3 0 8 131.09 9.9
3 0 -8 120.39 5.4
3 0 -8 134.59 7.3
3 0 8 124.69 8.1
-3 0 -8 121.39 8.7
-3 0 -8 133.69 10.3
-3 0 8 124.59 7.8
-3 0 -8 139.99 10.4
3 0 8 140.39 10.2
3 0 -8 122.59 7.6
4 0 8 1613.44 46.5
-4 0 -8 1642.84 52.69
4 0 -8 1599.24 43.6
-4 0 8 1625.94 46.7
4 0 -8 1595.24 45.4
4 0 8 1612.04 51.49
-4 0 -8 1651.23 52.09
4 0 -8 1662.23 46.5
-4 0 -8 1639.34 47.8
4 0 -8 1614.64 46.6
-5 0 -8 43.8 7.8
-5 0 8 56.59 5.2
5 0 8 51.69 5.9
5 0 -8 45.3 5.2
-5 0 -8 40.2 6.6
5 0 -8 54.69 6.1
5 0 -8 48.8 3.4
-6 0 -8 880.31 35.9
-6 0 8 958.1 28.5
-6 0 -8 957.1 32.1
6 0 -8 948.91 30.4
6 0 -8 948.61 26.5
6 0 -8 958.9 31
6 0 8 936.51 30.3
-7 0 -8 140.29 13.2
7 0 -8 153.98 10
-7 0 -8 146.49 11.8
7 0 -8 162.18 10.1
7 0 -8 139.19 6.5
7 0 8 135.39 9.9
8 0 -8 190.78 8.3
8 0 -8 190.78 12.6
-8 0 -8 178.68 13.6
8 0 8 223.88 12.2
9 0 8 21.7 5.7
9 0 -8 13.9 2.9
9 0 -8 17.1 5.7
-9 0 -8 10.8 6.9
10 0 -8 -0.5 5.1
10 0 8 0.1 4.3
10 0 -8 2.4 2.4
-10 0 -8 -7.5 6.3
-11 0 8 10.7 7.6
-11 0 -8 7.2 8.2
11 0 -8 1.4 6.3
11 0 8 16.5 5.9
12 0 -8 64.09 11.2
-12 0 -8 54.19 12.3
12 0 8 53.99 9.5
-12 0 8 46.6 10.6
12 0 -8 48.3 6
0 -1 8 548.45 20.3
0 -1 -8 534.65 18.2
0 1 8 546.05 20.6
0 -1 8 537.15 20.2
0 1 8 536.95 20.7
0 1 -8 523.45 20.4
0 1 -8 543.95 16.9
0 -1 -8 549.05 20.9
0 1 -8 550.84 20.5
-1 1 8 1769.82 52.19
1 1 -8 1760.42 47.7
1 1 -8 1818.02 51.39
-1 -1 -8 1815.12 53.59
1 -1 8 1805.22 52.99
1 -1 8 1736.33 52.59
-1 -1 -8 1767.62 50.09
1 1 8 1842.62 53.49
-1 -1 8 1770.42 51.39
1 1 8 1772.42 52.89
1 -1 -8 1755.82 48
-1 -1 8 1783.32 51.19
1 -1 -8 1728.73 51.79
-1 1 -8 1625.24 52.49
-1 1 -8 1694.93 52.59
1 -1 -8 1751.12 49.1
2 1 -8 722.93 24.1
2 1 -8 765.82 22.8
2 -1 8 730.63 27
-2 -1 -8 712.83 27.3
2 -1 8 758.52 27.2
2 1 -8 721.83 21.3
-2 -1 -8 731.03 24.9
-2 1 8 755.92 25.7
-2 -1 8 753.62 24.5
2 -1 -8 740.13 25.1
-2 1 -8 767.52 27.7
2 -1 -8 733.13 21.8
-2 1 -8 711.63 26.9
-2 1 -8 802.72 24.7
2 1 8 748.53 27.3
2 -1 -8 747.13 23.3
2 1 8 724.03 26.8
-2 -1 8 745.23 24.2
-3 -1 -8 1304.67 43.8
3 -1 8 1380.66 43.8
-3 1 8 1332.37 40.6
-3 -1 -8 1311.07 40.3
3 -1 8 1381.86 43.7
-3 -1 -8 1352.66 43.7
3 1 -8 1323.87 38.3
3 1 -8 1325.17 38.7
3 1 -8 1333.07 36
-3 -1 8 1370.46 39.1
-3 1 -8 1348.27 44.3
-3 -1 8 1320.87 38.7
-3 1 -8 1376.76 39.9
3 -1 -8 1304.07 36.7
3 -1 -8 1290.77 38.6
-3 1 -8 1365.26 43.7
3 -1 -8 1286.77 39.9
3 1 8 1322.97 38.6
3 1 8 1317.67 43.1
4 -1 8 445.16 16.1
4 1 -8 440.56 15.9
-4 -1 -8 458.55 17.9
4 1 -8 418.46 16.2
4 -1 8 445.06 20.3
-4 1 8 426.66 17
4 1 -8 440.76 15
-4 -1 -8 434.76 20.7
-4 -1 -8 427.46 20.2
4 1 -8 439.66 12.9
-4 1 -8 442.36 20.4
4 -1 -8 418.86 13.7
-4 -1 8 432.46 15
4 -1 -8 441.76 16.3
4 -1 -8 424.66 16.6
4 1 8 436.96 19.9
-4 1 -8 447.76 20.8
4 1 8 425.76 15.8
-4 1 -8 392.56 16.6
4 -1 -8 427.56 15.2
-4 -1 8 449.46 15.2
5 1 -8 447.06 13.1
-5 -1 -8 454.25 18.7
5 1 -8 421.56 16.7
5 -1 8 435.96 17
-5 1 8 462.45 17.4
-5 -1 -8 469.05 22.1
-5 -1 8 456.75 14.9
5 -1 -8 465.65 16.5
-5 -1 8 433.96 14.5
5 -1 -8 431.96 14.2
5 -1 -8 460.35 17.4
-5 1 -8 445.96 21.9
-5 1 -8 478.95 18.4
5 1 8 416.36 16.5
-6 -1 -8 241.38 16.5
6 1 -8 278.97 8.7
-6 -1 -8 281.97 14.8
6 1 -8 271.47 13
6 -1 8 274.67 12.9
6 -1 -8 262.97 9.8
-6 1 -8 235.38 16.3
6 1 8 251.47 12.2
6 -1 -8 262.17 12.7
-6 -1 8 268.37 9.4
-6 1 -8 269.77 14.1
6 -1 -8 266.97 13.2
-6 -1 8 256.77 9.1
7 -1 8 613.24 22.7
7 1 -8 600.04 17.7
-7 -1 -8 622.94 24.7
7 1 -8 571.74 22.5
-7 -1 -8 594.74 27.9
7 -1 -8 605.74 19.1
-7 1 -8 624.24 24.4
-7 1 -8 615.74 28.6
7 -1 -8 613.74 23
7 -1 -8 649.93 23.8
7 1 8 631.44 22.6
8 1 -8 32.1 3.2
8 -1 8 23.7 5.5
-8 -1 -8 34 7.9
8 1 -8 47 7.2
8 -1 -8 37.3 6.7
-8 1 -8 61.69 9
8 -1 -8 49.6 7.5
8 -1 -8 29.4 4
8 1 8 53.69 7.2
9 -1 8 53.09 7.6
-9 -1 -8 55.99 9.6
9 1 -8 49.8 4.2
9 1 -8 45.2 7.9
-9 1 -8 65.09 10
9 1 8 50.59 7.3
9 -1 -8 53.09 5.1
9 -1 -8 42.4 7.8
-10 -1 -8 56.49 10.4
10 -1 8 64.29 8.7
10 1 -8 60.99 9.4
10 1 -8 49.99 4.6
-10 1 -8 40.1 8.3
-10 -1 8 65.19 10.3
10 -1 -8 59.39 5.7
10 -1 -8 58.39 9.4
10 1 8 60.29 8.4
-11 1 8 62.69 11
11 1 -8 50.89 9.9
11 -1 8 53.39 9
-11 -1 -8 53.29 10.8
-11 1 -8 36.3 10.2
11 1 8 48.6 8.5
11 -1 -8 45.1 8.9
11 -1 -8 49.5 6
-11 -1 8 59.19 10.6
12 1 -8 41.5 5.3
12 1 -8 42.6 9.8
12 -1 8 24.4 7.7
-12 1 8 19.4 8.7
-12 -1 -8 39.7 11.1
12 1 8 30.5 7.5
12 -1 -8 46.7 10.2
-12 1 -8 21.4 10.5
12 -1 -8 25.1 5.3
-12 -1 8 14.8 8.4
0 2 -8 2907.71 85.09
0 -2 8 3102.49 85.49
0 -2 8 2983.3 84.99
0 2 -8 3185.98 81.29
0 -2 -8 3032.1 82.69
0 -2 -8 3156.08 86.79
0 2 8 3076.79 86.49
-1 -2 -8 222.08 12.9
1 -2 8 222.78 12.2
1 2 -8 231.48 8.6
-1 -2 -8 221.38 10.7
1 -2 8 219.98 12.1
1 2 -8 218.78 10.9
-1 2 8 239.18 12.5
-1 -2 8 225.18 11
-1 2 -8 238.48 12.7
-1 -2 8 259.37 11.7
1 2 8 262.87 13.5
1 -2 -8 249.58 9.4
1 -2 -8 237.78 12.4
-1 2 -8 243.48 12.6
1 -2 -8 227.48 10.2
1 2 8 250.37 13.1
-1 2 -8 243.88 9.6
-2 2 8 2938.81 81.59
2 2 -8 2878.71 78.99
-2 -2 -8 2770.92 79.69
-2 -2 -8 2827.92 83.19
2 2 -8 2775.62 75.69
2 -2 8 2924.51 82.99
2 -2 8 2918.21 82.89
2 -2 -8 2860.31 76.89
-2 2 -8 3039 78.99
2 -2 -8 2853.61 78.19
2 2 8 2914.81 83.09
-2 -2 8 2921.91 79.19
2 2 8 2897.41 82.59
-2 2 -8 2955.9 83.39
-2 2 -8 2903.41 82.79
-2 -2 8 2884.81 78.89
-3 2 8 623.84 22.7
3 2 -8 652.33 19.9
-3 -2 -8 635.54 25.2
3 -2 8 600.84 24.4
3 2 -8 634.94 19.6
3 -2 8 636.54 24.8
-3 -2 -8 616.74 22.3
3 2 -8 603.74 17.2
3 2 8 609.94 24.1
3 2 8 624.14 20.3
3 -2 -8 601.04 19.2
-3 -2 8 608.84 19.9
-3 2 -8 539.05 23.7
3 -2 -8 582.74 22
-3 2 -8 588.84 20.8
3 -2 -8 575.64 20.1
3 -2 -8 578.64 18.6
-3 -2 8 607.04 19.6
-3 2 -8 593.74 24.7
4 2 -8 1147.59 34.6
-4 2 8 1152.28 37.3
-4 -2 -8 1175.08 37.2
-4 -2 -8 1204.88 41.1
4 2 -8 1142.69 31.1
4 -2 8 1178.38 35.2
4 -2 8 1146.49 40.3
4 -2 -8 1166.98 33.2
-4 2 -8 1195.78 41.2
-4 -2 8 1177.98 33
-4 2 -8 1128.19 35.6
4 2 8 1190.58 35.2
-4 -2 8 1179.88 33.1
4 2 8 1213.78 40.7
4 -2 -8 1134.59 34.3
4 -2 -8 1170.48 35.5
-4 2 -8 1216.38 40.9
5 2 -8 1071.09 33.3
-5 -2 -8 1117.79 40
5 2 -8 1082.09 28.6
5 2 -8 1105.49 28.6
-5 -2 -8 1092.69 35.3
5 -2 8 1073.99 33.7
5 -2 -8 1061.29 33.2
-5 2 -8 1060.29 39.4
5 2 8 1071.59 33.4
-5 2 -8 1112.19 34.6
-5 -2 8 1114.19 29
-5 -2 8 1069.29 28.9
5 -2 -8 1087.69 34.2
5 -2 -8 1108.29 31.3
6 2 -8 256.57 12.7
-6 -2 -8 270.17 17.2
6 2 -8 285.37 8.1
6 -2 8 247.98 12.6
-6 2 8 282.77 13.9
-6 -2 -8 281.47 15.3
6 2 8 265.57 12.8
6 -2 -8 273.37 13.6
6 -2 -8 300.57 13.5
-6 2 -8 298.97 18.2
6 -2 -8 272.67 10.7
-6 2 -8 307.37 14.7
7 -2 8 37.6 5.9
7 2 -8 39.6 2.6
7 2 -8 40.9 6.4
-7 -2 -8 45.4 8.2
-7 -2 -8 41.1 8.6
7 -2 -8 47.6 4.7
7 -2 -8 51.29 7
7 -2 -8 54.39 7.4
7 2 8 47.7 6.4
-7 2 -8 48.6 9.5
-7 2 -8 60.09 8.3
8 2 -8 527.65 15.6
8 -2 8 532.05 21.3
8 2 -8 533.25 22.1
-8 -2 -8 546.05 24
8 2 8 546.15 21.2
-8 2 -8 545.75 22.7
8 -2 -8 529.25 22.5
8 -2 -8 551.34 22.5
8 -2 -8 561.84 18.6
9 2 -8 60.69 4
-9 -2 -8 61.99 10.3
9 2 -8 63.59 8.7
9 -2 8 63.39 8.2
-9 2 -8 63.79 9.8
9 2 8 73.19 8.4
9 -2 -8 80.29 6.3
9 -2 -8 71.69 9.3
9 -2 -8 84.69 10.5
10 2 -8 5.4 5.2
10 -2 8 4.4 4.8
10 2 -8 0.7 1.8
-10 -2 -8 -2.5 7
10 -2 -8 -2.4 4.8
-10 2 -8 -7.5 5.6
-10 -2 8 -1.3 5.4
10 2 8 2.6 4.2
10 -2 -8 1.7 2.8
-11 2 8 59.69 10.2
11 -2 8 55.69 9.1
11 2 -8 39 9
-11 -2 -8 58.89 11.7
-11 -2 8 79.29 11.4
11 -2 -8 63.99 6.9
11 2 8 51.59 8.5
11 -2 -8 69.49 10.9
-11 2 -8 51.49 11.1
12 -2 8 30.7 8
12 2 -8 29.1 8.6
-12 -2 -8 8.8 9.7
-12 2 8 11 8.3
12 2 -8 21.7 4
12 -2 -8 22 5.4
12 2 8 27 7.3
-12 -2 8 16.8 8.5
-12 2 -8 15.9 9.6
12 -2 -8 32.4 9.5
0 -3 -8 1409.16 41.1
0 -3 -8 1409.36 44.8
0 -3 8 1450.65 43.6
0 3 8 1376.76 44.7
0 -3 8 1413.26 43.5
0 3 -8 1409.76 39.5
0 -3 -8 1439.96 44.6
1 -3 8 2480.85 70.79
-1 -3 -8 2523.65 71.79
1 3 -8 2412.96 64.69
-1 -3 -8 2446.36 67.69
-1 -3 -8 2564.24 68.99
1 3 -8 2324.87 68.09
-1 3 8 2447.16 70.89
1 -3 8 2364.26 70.19
-1 3 -8 2338.07 70.29
1 3 8 2379.86 70.99
1 -3 -8 2379.96 66.59
1 -3 -8 2493.55 65.79
1 -3 -8 2423.76 70.49
-1 3 -8 2513.15 65.89
-1 -3 8 2400.86 68.29
-1 -3 8 2387.26 68.39
-2 -3 -8 59.99 7.9
2 -3 8 60.19 7.6
2 -3 8 70.79 7.6
2 3 -8 57.69 5.3
-2 3 8 52.79 7
2 3 -8 62.99 3.8
-2 -3 -8 72.89 7
-2 -3 -8 57.69 7.1
2 -3 -8 73.49 7.4
2 -3 -8 74.09 5
2 3 8 84.59 8.4
2 -3 -8 69.99 5.1
-2 -3 8 71.19 5.8
2 -3 -8 73.39 5.4
-2 3 -8 74.19 8
2 3 8 83.89 8.3
-2 -3 8 71.99 5.7
-2 3 -8 82.79 8.1
3 3 -8 1731.73 47.5
3 3 -8 1689.93 45.1
3 -3 8 1748.63 54.29
-3 -3 -8 1686.23 54.09
3 3 -8 1669.93 47.2
3 -3 8 1780.62 54.49
-3 -3 -8 1694.63 50.69
-3 3 8 1734.93 52.39
-3 3 -8 1675.13 53.69
-3 3 -8 1676.63 48.6
-3 3 -8 1760.42 54.49
3 -3 -8 1658.13 47.6
3 -3 -8 1722.23 48.9
3 -3 -8 1697.93 47.3
3 3 8 1735.43 48.8
-3 -3 8 1658.53 47.7
3 3 8 1692.03 53.09
-3 -3 8 1708.63 47.5
4 3 -8 1269.07 33.3
-4 -3 -8 1255.97 40
4 3 -8 1303.87 33.3
-4 -3 -8 1281.07 43.7
4 3 -8 1264.17 36.8
4 -3 8 1293.87 43.8
4 -3 8 1305.27 37.9
-4 3 8 1269.37 40.6
-4 3 -8 1282.77 43.9
4 -3 -8 1239.88 36.1
-4 -3 8 1221.58 34.8
-4 3 -8 1276.37 43.5
-4 -3 8 1270.37 34.6
-4 3 -8 1231.28 37.9
4 -3 -8 1263.97 38.2
4 -3 -8 1223.68 37.1
4 3 8 1256.77 37.7
-5 -3 -8 347.87 16.7
5 -3 8 354.16 14.3
-5 3 8 338.57 16
5 3 -8 346.67 13.9
-5 -3 -8 323.97 18.4
5 -3 -8 303.37 13.4
5 -3 -8 331.97 14.5
-5 3 -8 307.77 14.4
5 -3 -8 316.17 12.2
-5 3 -8 302.47 18.2
5 3 8 328.37 13.8
-6 -3 -8 448.26 19.9
-6 3 8 431.56 19.3
6 -3 8 406.76 17.4
6 3 -8 452.95 17.5
-6 -3 -8 421.86 22.6
6 -3 -8 433.46 18.1
-6 3 -8 424.46 22.6
6 -3 -8 446.16 15.5
6 -3 -8 450.55 17.7
6 3 8 447.36 17.5
-6 3 -8 446.36 18.5
7 -3 8 91.99 8.1
7 3 -8 105.79 8.7
-7 -3 -8 106.19 11.2
7 -3 -8 102.99 9.6
-7 3 -8 78.79 11.4
7 -3 -8 89.59 6.7
-7 3 -8 104.29 8.9
7 -3 -8 98.79 9.6
7 3 8 93.79 8
8 -3 8 55.19 7.4
8 3 -8 51.79 7.5
-8 -3 -8 47.4 9.1
8 3 -8 51.99 2.4
8 -3 -8 46.3 7.3
8 3 8 46.7 6.8
8 -3 -8 41.1 5.1
-8 3 -8 46.5 8.1
8 -3 -8 41.7 7.4
-9 -3 -8 45.2 9.7
9 -3 8 67.59 8.2
9 3 -8 59.39 3.2
9 3 -8 47.8 7.8
9 3 8 41.9 7
-9 -3 8 56.99 8.8
9 -3 -8 61.39 9
-9 3 -8 56.79 9.3
9 -3 -8 53.89 8.7
9 -3 -8 58.09 6.2
-10 -3 -8 164.08 16
10 3 -8 169.58 13.1
10 -3 8 144.49 12.1
10 3 -8 153.58 6.5
10 3 8 169.48 12.2
-10 3 -8 162.28 15.4
10 -3 -8 171.08 13.7
-10 -3 8 149.79 13.1
10 -3 -8 170.78 13.5
10 -3 -8 158.08 9.7
-11 -3 -8 6.1 8.6
11 -3 8 9.4 6.3
11 3 -8 13.7 7.2
-11 -3 8 13.9 7.5
-11 3 -8 14.3 8.1
11 -3 -8 7.4 6.7
11 3 8 0.2 5.1
12 3 -8 105.19 13.4
-12 3 8 115.49 15.5
-12 -3 -8 111.99 15.7
12 3 -8 121.89 7.2
12 -3 8 120.09 13.1
12 3 8 116.19 12.1
-12 -3 8 135.29 15.2
12 -3 -8 127.79 14.9
12 -3 -8 97.39 9.7
-12 3 -8 95.99 14.5
0 -4 -8 1094.09 32.2
0 4 -8 1081.79 31.1
0 -4 -8 1063.99 32.5
0 4 8 1062.59 36.7
0 -4 8 1073.69 35.1
0 -4 -8 1063.89 36.6
0 -4 8 1073.39 35.2
0 -4 -8 1092.69 36.3
-1 4 8 540.15 22.8
1 -4 8 536.25 22.2
-1 -4 -8 528.05 19.3
1 -4 8 537.65 22.3
1 4 -8 542.55 20.2
-1 -4 -8 550.24 22.6
-1 -4 -8 578.04 23.6
1 4 -8 528.15 17.1
-1 -4 -8 556.84 20
1 -4 -8 569.94 19.2
1 -4 -8 564.44 18.2
-1 4 -8 540.55 18.2
-1 -4 8 545.15 20.4
1 -4 -8 579.14 22.9
1 4 8 569.64 23.3
-1 4 -8 575.74 22.4
1 -4 -8 589.44 18.7
-1 -4 8 566.74 20.8
-2 -4 -8 1049.59 34.7
-2 -4 -8 1102.49 38.5
-2 4 8 1060.69 37.2
-2 -4 -8 1080.79 34.1
2 -4 8 1118.99 38
2 4 -8 1045.2 33.3
2 4 -8 1057.19 30.6
2 -4 8 1075.49 37.7
2 -4 -8 1080.89 33.2
-2 4 -8 1134.19 38
2 -4 -8 1127.99 37.3
-2 -4 8 1098.09 33.7
2 -4 -8 1114.99 32.6
-2 4 -8 1145.19 32.9
2 4 8 1158.18 33.4
-2 -4 8 1133.99 34
2 -4 -8 1162.08 32.5
3 4 -8 351.46 10.7
3 -4 8 362.76 18.1
3 4 -8 347.07 13.6
-3 4 8 357.76 16.9
-3 4 8 337.87 17.2
3 4 -8 345.47 12.6
-3 -4 -8 362.76 18.5
-3 -4 -8 348.67 16.3
-3 -4 -8 322.17 15
3 -4 8 366.66 18.5
3 -4 -8 335.27 12.7
3 4 8 330.27 17.1
-3 4 -8 332.57 13.9
-3 4 -8 334.87 17.7
-3 -4 8 320.57 12.8
3 4 8 313.17 13.5
3 -4 -8 321.67 13.7
-3 -4 8 319.17 12.5
3 -4 -8 327.07 13
-4 4 8 290.97 15.2
4 4 -8 306.47 8.6
4 -4 8 289.27 17.1
-4 -4 -8 298.17 17.4
-4 -4 -8 316.97 15.8
4 4 -8 292.77 8.7
4 4 -8 294.97 11.6
4 -4 8 299.37 11.5
4 -4 8 306.37 12.6
4 -4 -8 266.07 11.9
-4 4 -8 242.08 15.9
-4 -4 8 260.77 9.7
4 -4 -8 256.17 11.1
4 -4 -8 267.57 12.6
-4 4 -8 271.77 16.5
-4 4 -8 278.17 12.9
-4 -4 8 271.17 9.5
4 4 8 265.67 12.5
-5 -4 -8 1249.97 42.4
5 -4 8 1283.47 40.1
-5 -4 -8 1299.27 46.4
-5 4 8 1294.27 43.3
5 4 -8 1308.57 39.1
5 -4 -8 1366.06 40.3
-5 4 -8 1367.16 40.5
5 -4 -8 1325.67 40.6
-5 4 -8 1404.86 47.7
5 -4 -8 1352.96 38.7
5 4 8 1344.17 40.2
-6 -4 -8 10.7 6.5
-6 4 8 10.2 5.2
6 4 -8 14.7 4.7
-6 -4 -8 11.2 6.4
6 -4 8 8.5 4.1
6 -4 -8 12.2 4.7
-6 4 -8 5.5 5.9
6 -4 -8 18.6 4.9
6 4 8 8.1 4.1
-6 4 -8 11.5 5
6 -4 -8 5.8 3.2
7 -4 8 156.48 10.5
-7 -4 -8 186.38 14
7 4 -8 178.28 11.1
-7 4 -8 174.48 11.9
7 -4 -8 152.08 11
7 4 8 145.79 10.2
7 -4 -8 150.48 10.8
7 -4 -8 161.78 9.1
-7 4 -8 156.48 15.1
8 -4 8 58.09 7.7
-8 -4 -8 62.39 10
8 4 -8 53.59 7.6
8 4 8 62.49 7.5
8 -4 -8 76.89 8.9
8 -4 -8 67.79 8.7
-8 4 -8 55.39 8.5
8 -4 -8 65.89 6.6
9 4 -8 189.88 13
9 4 -8 207.18 6.6
9 -4 8 238.48 13.7
-9 -4 -8 224.88 16.7
-9 4 -8 202.48 14.6
9 4 8 203.98 12.6
-9 -4 8 205.38 13.9
9 -4 -8 222.58 14.5
9 -4 -8 209.18 14
9 -4 -8 211.78 11.2
-10 -4 -8 4.3 7.9
10 4 -8 4 1.6
10 -4 8 15 5.9
10 4 -8 12.3 6.5
10 -4 -8 5.2 6.3
10 4 8 6.2 5.1
-10 -4 8 0.1 5.9
10 -4 -8 1.7 6.4
10 -4 -8 5 3.9
-10 4 -8 5.9 6.8
11 -4 8 204.68 15.3
-11 -4 -8 183.38 18.5
11 4 -8 231.28 16.2
11 4 -8 190.68 8
11 -4 -8 218.28 16.4
-11 -4 8 238.38 16.7
-11 4 -8 188.88 16.7
11 -4 -8 226.38 16.8
11 4 8 228.88 14.9
12 4 -8 34.2 4
-12 -4 -8 11.6 10.1
12 4 -8 32.2 8.8
12 -4 8 35.8 8.6
-12 4 8 41 11.1
12 4 8 25.7 7.5
-12 4 -8 15.7 9.3
-12 -4 8 24.9 9.2
12 -4 -8 29 6.5
12 -4 -8 27.9 9
0 5 8 485.85 21.6
0 -5 -8 452.85 20.9
0 -5 8 479.15 19.8
0 -5 8 436.26 19.3
0 -5 -8 463.15 17.1
0 -5 -8 462.05 20.4
0 -5 -8 467.15 17.1
0 5 -8 439.76 15.5
-1 -5 -8 1221.28 38.5
1 -5 8 1273.27 42.1
-1 5 8 1241.98 42.8
-1 -5 -8 1217.48 42.7
1 -5 8 1233.08 41.9
1 5 -8 1231.08 39.4
-1 -5 -8 1263.37 38.6
1 5 -8 1224.68 35.9
-1 -5 -8 1245.38 42.2
1 -5 -8 1354.86 43.4
-1 5 -8 1291.07 37.1
-1 5 -8 1307.77 41.9
1 -5 -8 1263.67 37.6
-1 -5 8 1348.57 40.5
1 -5 -8 1296.17 38
1 5 8 1277.87 38.1
1 -5 -8 1341.37 37.4
-1 -5 8 1357.36 40.3
-2 -5 -8 434.36 17.8
-2 5 8 432.56 20
-2 5 8 392.86 19.8
-2 -5 -8 448.66 18
2 5 -8 420.96 18.2
2 -5 8 435.36 20.2
-2 -5 -8 458.35 20.9
2 5 -8 443.46 13.9
-2 -5 -8 442.46 20.2
2 -5 8 418.96 19.9
-2 5 -8 422.96 15.7
2 -5 -8 405.06 19.6
2 -5 -8 414.96 15.9
2 -5 -8 404.96 15.5
-2 5 -8 427.86 19.8
-2 -5 8 409.56 16.4
2 -5 -8 400.16 15.1
2 5 8 432.76 16.4
-2 -5 8 442.26 16.9
-3 -5 -8 610.74 23.9
3 5 -8 612.04 18.2
-3 5 8 629.54 25.4
3 -5 8 609.94 26.4
-3 -5 -8 604.44 23.3
-3 -5 -8 641.64 27.1
3 -5 8 603.44 26.2
-3 -5 8 636.94 20.9
3 -5 -8 631.24 21.6
-3 5 -8 644.84 21.1
-3 5 -8 600.74 25.9
-3 5 -8 630.34 21.2
3 -5 -8 585.44 20.9
-3 -5 8 605.54 20.4
3 -5 -8 625.34 20.6
3 5 8 650.63 21.8
-4 -5 -8 582.34 23.8
4 5 -8 625.84 17.1
4 -5 8 609.04 26.9
4 -5 8 583.34 19.7
-4 -5 -8 582.24 26.5
-4 5 8 576.44 24.7
4 -5 -8 595.64 21
4 -5 -8 585.14 20.2
4 5 8 598.64 21.2
-4 -5 8 597.34 18.2
-4 -5 8 585.04 18.5
-4 5 -8 622.94 21.1
4 -5 -8 610.34 21.5
-4 5 -8 613.54 26.7
5 5 -8 55.99 2.8
5 5 -8 55.19 6.6
5 -5 8 49.2 6.3
5 -5 8 63.09 6.5
-5 5 8 59.09 9.1
-5 -5 -8 60.49 9.4
-5 -5 -8 61.59 9.8
-5 5 -8 59.99 7.1
5 -5 -8 66.29 6.9
5 5 8 54.59 6.5
-5 5 -8 67.99 10.4
5 -5 -8 58.99 6.7
5 -5 -8 71.79 6
6 5 -8 731.33 25.5
-6 -5 -8 695.23 27.5
-6 -5 -8 660.33 30.4
6 -5 8 663.33 23.9
6 -5 8 671.63 24.6
-6 5 -8 688.73 31.1
6 -5 -8 691.53 23.2
6 -5 -8 667.73 25.1
-6 5 -8 679.93 24.7
6 5 8 702.13 24.4
6 -5 -8 680.03 24.8
7 5 -8 345.87 18.1
7 -5 8 351.66 16.6
-7 -5 -8 373.46 19.8
7 5 8 365.06 16.4
-7 5 -8 383.36 17.5
7 -5 -8 391.16 17.8
7 -5 -8 394.06 15.5
-7 5 -8 351.16 21.8
7 -5 -8 356.36 17.3
8 5 -8 282.37 20
8 -5 8 318.97 15.7
-8 -5 -8 281.47 18
8 -5 -8 247.18 14.8
-8 -5 8 251.47 14.8
-8 5 -8 279.87 15.8
8 5 8 267.17 14.1
8 -5 -8 282.87 15.6
8 -5 -8 265.57 13
9 -5 8 47.2 7.5
-9 -5 -8 20.6 8.8
9 -5 -8 37.8 6
9 5 8 39.8 7.1
-9 5 -8 33.8 8.2
9 -5 -8 45.9 8.5
-9 -5 8 38.2 7.4
9 -5 -8 38.7 7.9
-10 -5 -8 511.05 26.6
10 -5 8 517.35 23.7
-10 5 -8 542.05 25.1
-10 -5 8 477.95 23.7
10 -5 -8 486.95 23.7
10 -5 -8 519.55 24.6
10 5 8 532.05 22.6
10 -5 -8 534.85 21.3
11 -5 8 51.19 9.1
-11 -5 -8 43.4 12.2
-11 -5 8 61.99 12.5
-11 5 -8 45.4 10.5
11 -5 -8 77.39 11.7
11 -5 -8 55.49 10.6
11 5 8 55.09 8.8
-12 -5 -8 125.59 17.4
12 -5 8 134.19 13.6
-12 5 8 138.99 16.9
12 5 8 127.39 12.7
12 -5 -8 134.99 15.6
12 -5 -8 118.29 14.8
-12 5 -8 129.39 15.9
12 -5 -8 132.29 11.4
0 -6 -8 14.6 4.4
0 6 -8 10.2 3.3
0 -6 -8 16.5 5
0 6 8 8.3 5.5
0 -6 -8 9.3 5.6
0 -6 8 10.1 4.9
0 6 8 14.4 5.2
0 -6 -8 13.1 5.3
-1 -6 -8 1035.7 34.1
1 -6 8 1099.39 37.7
-1 -6 -8 1024.7 37.2
1 6 -8 1043.2 31.2
-1 6 8 1029.7 38.3
-1 -6 -8 1055.89 38.4
-1 -6 -8 1050.39 33.4
1 -6 -8 1070.39 38.3
1 6 8 1074.49 33.4
-1 -6 8 1081.99 35.4
1 -6 -8 1085.19 33.3
1 -6 -8 1087.29 32.9
1 -6 -8 1140.09 32.5
-1 6 -8 1064.19 32.1
2 6 -8 612.44 19.4
-2 6 8 614.84 26.4
-2 -6 -8 620.14 23.1
2 -6 8 626.54 26.4
-2 -6 -8 602.54 23.5
-2 -6 -8 646.34 27.2
2 6 8 630.24 22.1
-2 -6 8 632.94 22.6
2 -6 -8 611.94 21.4
-2 -6 8 623.44 23.1
2 -6 -8 629.44 21
-2 6 -8 638.24 21.4
2 -6 -8 625.54 21.6
-3 -6 -8 163.18 12
-3 6 8 136.19 12.1
3 6 -8 145.79 6.6
3 -6 8 130.79 7.1
-3 -6 -8 148.49 13.2
-3 -6 -8 155.58 12.1
3 -6 8 165.38 13.2
-3 -6 8 140.29 8.3
-3 -6 8 138.29 8.3
3 -6 -8 133.39 8.6
3 -6 -8 150.58 8.4
3 -6 -8 141.49 8.8
3 6 8 138.99 9.5
-4 -6 -8 253.87 16.8
-4 6 8 232.08 15.6
-4 -6 -8 268.27 15.8
4 6 -8 265.47 9
4 -6 8 245.28 10.8
-4 -6 -8 266.27 15.6
-4 6 -8 260.67 12.5
-4 -6 8 248.98 10.3
-4 -6 8 255.37 10.4
4 -6 -8 254.77 12.4
4 -6 -8 258.67 11.6
4 -6 -8 232.78 12
4 6 8 274.47 13.1
5 -6 8 1194.48 37.3
-5 -6 -8 1184.28 41.2
-5 -6 -8 1229.88 45.2
5 6 -8 1258.37 33.3
-5 6 8 1239.68 43.4
5 6 8 1266.07 38.6
-5 6 -8 1266.07 37.9
5 -6 -8 1219.58 37.4
5 -6 -8 1218.68 38.6
5 -6 -8 1255.17 39
6 -6 8 729.13 25.8
6 6 -8 707.83 19.9
-6 -6 -8 747.83 29.5
6 -6 -8 755.62 25.2
-6 6 -8 734.13 26
6 -6 -8 748.83 26.9
6 6 8 766.52 26.3
6 -6 -8 730.23 26.6
7 -6 8 210.58 12.4
-7 -6 -8 223.18 16.2
7 -6 -8 259.07 14.1
7 -6 -8 228.18 12
7 6 8 214.48 12.4
-7 6 -8 244.28 13.6
7 -6 -8 216.18 13.1
-8 -6 -8 103.49 13
8 -6 -8 92.89 10.4
8 6 8 118.29 10
-8 6 -8 98.59 10.9
8 -6 -8 132.99 10.9
8 -6 -8 104.49 8.8
-9 -6 -8 445.86 24.2
9 -6 -8 441.86 21.4
9 6 8 454.45 20.1
9 -6 -8 434.36 21.5
9 -6 -8 467.75 19.3
-9 6 -8 422.36 21.2
-10 -6 -8 64.39 12.7
10 -6 -8 84.89 11.7
10 6 8 72.49 9.7
10 -6 -8 63.19 10.6
-10 6 -8 55.79 10.3
10 -6 -8 74.99 8.8
-11 -6 -8 264.27 21.5
11 -6 -8 272.77 18.8
-11 6 -8 297.97 19.7
11 6 8 308.27 17.4
11 -6 -8 287.37 19.8
0 7 8 357.26 15.3
0 -7 -8 342.57 14.4
0 -7 -8 331.27 15.3
0 7 -8 320.97 13.2
0 -7 8 336.87 17.3
0 -7 -8 338.27 19.1
-1 -7 -8 572.74 22.6
-1 7 8 578.54 26.2
1 -7 8 593.04 25.3
1 7 -8 586.04 19.6
-1 -7 -8 601.54 21.5
-1 -7 -8 606.94 26.8
1 -7 -8 592.44 20.5
-1 -7 8 578.84 23.3
1 -7 -8 582.94 21.6
1 -7 -8 599.34 30.3
-1 7 -8 558.54 20.3
1 7 8 600.64 21.7
1 -7 -8 626.74 21
-2 -7 -8 50.79 7.4
-2 -7 -8 47.8 8.9
-2 -7 -8 39.9 7.9
-2 7 8 55.19 9.2
2 -7 8 43.9 8.4
2 7 -8 71.49 5.4
-2 7 -8 49.5 5.8
2 -7 -8 58.89 6.1
2 -7 -8 50.69 6.1
-2 -7 8 48.6 6.5
2 7 8 48.1 6.7
2 -7 -8 47.6 6.5
3 -7 8 81.29 11
-3 -7 -8 80.99 9.3
-3 -7 -8 85.89 10.5
-3 -7 -8 77.49 10.6
3 7 -8 84.59 5.5
-3 7 8 76.39 10.4
-3 7 -8 63.99 6.8
3 -7 -8 63.89 6.9
-3 -7 8 62.99 6.7
3 -7 -8 65.69 7.3
3 7 8 71.39 7.8
3 -7 -8 66.49 6.6
-4 -7 -8 511.25 22.8
4 7 -8 487.25 15.5
-4 -7 -8 512.45 25
4 -7 8 452.45 19.8
-4 -7 -8 481.25 22.4
-4 7 8 491.75 24
4 -7 -8 492.15 19.3
4 -7 -8 466.85 18.7
-4 -7 8 477.85 17.3
4 7 8 503.15 19.7
4 -7 -8 471.85 18.3
5 7 -8 215.08 7.9
-5 -7 -8 198.48 18.7
-5 7 8 218.48 15.8
-5 -7 -8 201.98 15.4
5 -7 8 204.58 10.5
-5 -7 -8 197.88 15
5 -7 -8 186.68 11.5
5 -7 -8 202.78 10.9
5 -7 -8 191.48 11
-5 -7 8 193.98 7.1
-5 -7 8 196.38 7.1
5 7 8 201.48 12.1
-6 -7 -8 413.86 21.9
6 7 -8 437.76 13.5
6 -7 8 413.46 17.9
6 -7 -8 466.45 18.2
6 -7 -8 441.56 19.1
6 7 8 491.15 19.5
6 -7 -8 459.05 19.5
7 7 -8 209.18 7.1
7 -7 8 204.58 12.2
-7 -7 -8 192.58 16.1
7 7 8 213.18 12.7
7 -7 -8 215.68 13.3
7 -7 -8 206.28 11.6
7 -7 -8 213.48 13.1
8 7 -8 173.28 5.9
8 -7 8 184.68 12.7
-8 -7 -8 153.48 15.9
8 -7 -8 177.58 12.8
8 -7 -8 181.28 11.4
-8 7 -8 202.38 15.8
8 -7 -8 180.18 12.7
8 7 8 173.38 12.1
-9 -7 -8 -1.3 8.2
9 7 8 3.1 5
9 -7 -8 13.6 6.6
9 -7 -8 5.2 5.1
9 -7 -8 2.8 4.4
-9 7 -8 6 6.3
-10 -7 -8 277.67 21.5
10 7 8 320.37 17.6
10 -7 -8 316.47 16.5
-10 7 -8 304.67 19.6
10 -7 -8 324.47 19.1
10 -7 -8 287.57 18.5
-11 -7 -8 29.6 12.3
11 -7 -8 51.79 10.2
11 7 8 37.6 8
-11 7 -8 32.7 9.5
11 -7 -8 58.49 11.1
0 -8 -8 215.98 11.2
0 -8 -8 206.58 12.6
0 8 -8 212.78 10.5
0 -8 -8 208.28 16.1
0 8 8 216.18 12.8
0 -8 8 201.58 14
-1 -8 -8 93.59 12.1
-1 -8 -8 108.29 8.7
1 8 -8 129.59 7.9
1 -8 8 110.39 12.4
-1 -8 -8 110.09 10.6
1 -8 -8 91.69 9.1
-1 8 -8 97.69 7.6
-1 -8 8 93.49 9.7
1 8 8 100.39 9.3
1 -8 -8 104.99 7.9
2 8 -8 23.7 4.1
-2 -8 -8 16.1 5.8
-2 -8 -8 25.8 7.8
-2 8 8 13.4 7.1
2 -8 8 10.3 6.3
-2 -8 -8 34 8.3
2 -8 -8 34.1 5.4
-2 8 -8 25.5 5.1
2 -8 -8 23.5 4.6
2 -8 -8 16.9 5.2
-2 -8 8 22.6 5.5
2 8 8 15 5.4
-3 8 8 479.55 24.6
-3 -8 -8 483.45 25.2
-3 -8 -8 501.45 21
-3 -8 -8 505.75 22.8
3 -8 8 482.85 25
3 8 -8 477.75 16.7
3 -8 -8 496.85 18.9
3 8 8 509.75 20.4
3 -8 -8 481.55 19.6
-3 8 -8 513.25 19.5
3 -8 -8 512.55 19
-3 -8 8 469.65 19.6
4 8 -8 107.99 6.7
-4 -8 -8 114.79 12.9
-4 -8 -8 114.49 12.7
-4 8 8 116.29 12.9
-4 -8 -8 115.19 12.2
4 -8 -8 109.99 8.6
4 8 8 120.49 9.7
4 -8 -8 120.29 8.7
4 -8 -8 135.09 9.7
-5 8 8 504.55 26.4
-5 -8 -8 486.55 23.2
-5 -8 -8 496.55 24.4
5 8 -8 511.05 16.4
5 8 8 530.25 21
5 -8 -8 493.15 19.8
5 -8 -8 517.55 21
5 -8 -8 519.85 20.7
-6 -8 -8 116.49 13.3
6 -8 8 143.39 11.4
6 8 -8 115.99 6.1
-6 -8 -8 124.79 14.2
6 -8 -8 114.79 9.4
6 8 8 117.29 10.1
6 -8 -8 115.09 10
6 -8 -8 116.49 9.8
-7 -8 -8 112.19 13.7
7 8 -8 100.59 5.4
-7 -8 -8 115.69 14.3
7 -8 8 104.09 9.1
7 -8 -8 106.79 8.9
7 -8 -8 105.59 10.6
7 8 8 108.99 10.2
7 -8 -8 111.49 11.3
-8 -8 -8 5.2 8.9
8 8 -8 22.4 2.8
8 -8 8 22.7 6.1
8 8 8 19.5 6.3
8 -8 -8 27.7 5.8
8 -8 -8 27.3 6.8
8 -8 -8 27.3 7.1
-9 -8 -8 159.38 17.4
9 -8 8 205.08 14.3
9 8 -8 172.18 6.9
9 8 8 173.18 13.1
9 -8 -8 188.18 12.5
9 -8 -8 177.58 14.2
9 -8 -8 167.18 13.5
-10 -8 -8 14.8 10.6
10 -8 -8 15.7 7.7
10 8 8 20.9 7.1
10 -8 -8 21.3 7.9
-11 -8 -8 101.79 16.8
11 -8 -8 141.69 15.3
11 8 8 138.19 13.2
11 -8 -8 156.18 12.9
11 -8 -8 130.79 15.3
0 -9 -8 179.18 12.4
0 -9 -8 207.98 10.8
0 9 -8 188.58 10.8
0 -9 8 207.68 15
1 9 -8 100.29 8
-1 -9 -8 110.49 9.2
1 -9 8 105.69 12.6
-1 -9 -8 102.29 11
-1 -9 -8 115.89 13.2
1 -9 -8 107.79 10.2
1 9 8 101.29 9.8
-1 9 -8 111.49 8.8
1 -9 -8 104.79 7.9
-1 -9 8 98.59 10.8
2 -9 8 313.47 20.1
-2 -9 -8 342.77 18.6
-2 -9 -8 359.36 21.5
2 9 -8 354.86 14.3
-2 -9 -8 351.86 16
-2 9 -8 364.56 15.9
2 9 8 342.47 16.9
2 -9 -8 357.46 16.5
2 -9 -8 374.96 15.5
-3 -9 -8 246.18 16.5
3 -9 8 228.18 18
-3 -9 -8 231.08 13.7
3 9 -8 240.48 11
-3 -9 -8 214.98 17.5
3 -9 -8 247.48 13.4
3 9 8 251.77 14.2
-3 9 -8 232.18 12.5
3 -9 -8 218.98 11.7
-4 -9 -8 620.64 27.8
-4 -9 -8 655.73 26.3
4 9 -8 640.44 20.8
-4 9 8 659.83 35
4 -9 -8 636.74 24.4
4 -9 -8 614.84 23.4
4 -9 -8 601.54 22.9
4 9 8 631.04 24.6
5 9 -8 98.59 6.7
-5 -9 -8 96.69 13.1
-5 -9 -8 101.69 12
5 -9 -8 105.79 8.8
5 -9 -8 105.79 8.8
5 9 8 97.59 9.8
5 -9 -8 129.09 10.1
-6 -9 -8 142.69 15.2
-6 -9 -8 150.28 16
6 9 -8 135.19 7.3
6 -9 -8 127.59 10.2
6 -9 -8 142.49 11
6 9 8 143.59 11
6 -9 -8 147.29 10.5
-7 -9 -8 94.59 14.2
-7 -9 -8 98.89 13.4
7 9 -8 97.59 6
7 9 8 116.89 10.9
7 -9 -8 112.69 9.5
7 -9 -8 106.09 11.4
7 -9 -8 83.49 9.7
-8 -9 -8 151.68 17.8
-8 -9 -8 163.68 17.9
8 9 -8 163.08 7.4
8 9 8 152.88 12.5
8 -9 -8 164.08 12.3
8 -9 -8 128.69 13.3
8 -9 -8 152.28 12.3
-9 -9 -8 11.8 10.4
-9 -9 -8 33.6 11.8
9 9 -8 47.1 4.2
9 -9 -8 51.49 9
9 -9 -8 37.5 7.4
9 9 8 35.8 7.9
9 -9 -8 39.8 9.1
10 9 -8 205.78 10.5
10 -9 -8 183.88 16
10 -9 -8 203.88 16.2
10 9 8 208.28 14.9
0 -10 -8 62.89 9.1
0 -10 -8 68.89 7.3
0 10 -8 61.69 7.3
-1 -10 -8 40.5 8.6
1 10 -8 63.39 7.1
-1 -10 -8 66.29 11.9
1 -10 8 67.39 12.5
1 -10 -8 75.29 7.2
1 10 8 71.99 9.2
1 -10 -8 68.79 9
-1 10 -8 64.19 7.5
-2 -10 -8 214.08 17.3
2 -10 8 187.98 16.2
2 10 -8 201.78 10.9
-2 -10 -8 222.78 15.2
2 -10 -8 191.58 12.5
2 10 8 200.68 13.5
-2 10 -8 186.18 11.7
2 -10 -8 191.38 10.7
-3 -10 -8 122.29 13.4
3 10 -8 83.39 7.4
3 -10 -8 114.99 9.9
3 -10 -8 107.19 8.7
3 10 8 100.59 10.2
-4 -10 -8 403.66 22.1
4 10 -8 416.16 15.7
4 -10 -8 382.06 16.9
4 -10 -8 396.96 18.6
4 10 8 391.76 19
5 10 -8 69.29 6.4
-5 -10 -8 59.79 11.8
5 -10 -8 78.99 8.5
5 10 8 79.69 9.5
5 -10 -8 76.99 9.6
-6 -10 -8 185.08 18
6 10 -8 185.58 9.5
6 -10 -8 182.48 12.1
6 10 8 191.98 13.5
6 -10 -8 207.28 14.6
6 -10 -8 201.68 13.4
7 10 -8 198.18 9.7
-7 -10 -8 201.58 19.5
7 -10 -8 204.78 13.5
7 -10 -8 234.58 15
7 10 8 227.88 14.8
7 -10 -8 208.08 13.6
-8 -10 -8 116.29 16.2
8 10 -8 95.99 6.8
8 -10 -8 92.89 10.9
8 -10 -8 91.89 10.4
8 -10 -8 117.99 13
8 10 8 101.59 11.3
-9 -10 -8 207.58 21.7
9 10 -8 199.88 9.4
9 -10 -8 232.68 16.6
9 10 8 204.88 15
9 -10 -8 216.58 15.4
-10 -10 -8 40.2 13.4
10 10 -8 39.9 4.5
10 10 8 29.7 8.1
10 -10 -8 50.09 9.7
10 -10 -8 32.4 8.1
10 -10 -8 33.8 9.4
0 -11 -8 1.6 5.4
0 11 -8 7.5 4.4
-1 -11 -8 73.29 10.2
1 11 -8 71.59 7.9
1 -11 -8 64.69 9
-1 11 -8 84.79 9
2 11 -8 10.2 4.6
-2 -11 -8 4.7 7.3
-2 11 -8 11.4 5.2
2 -11 -8 13.7 5.8
2 11 8 10.9 6.2
-3 -11 -8 361.66 20.7
3 11 -8 336.47 15
3 -11 -8 343.37 17.5
3 11 8 343.47 18.3
4 11 -8 3.7 3.9
-4 -11 -8 -0.2 8
4 11 8 7.8 5.6
4 -11 -8 8 5.2
-5 -11 -8 115.59 14.9
5 11 -8 128.59 8.8
5 -11 -8 127.89 11.3
5 11 8 129.89 12.1
6 11 -8 93.19 7.9
-6 -11 -8 94.29 14.8
6 11 8 120.89 12.3
6 -11 -8 108.19 12
7 11 -8 37.7 5.3
-7 -11 -8 56.39 13.5
7 -11 -8 55.89 9
7 -11 -8 42.8 8.7
7 11 8 45.3 8.8
-8 -11 -8 188.58 20.7
8 11 -8 222.18 10.8
8 -11 -8 215.38 16.1
8 -11 -8 210.28 14.6
8 11 8 239.38 16.1
9 11 -8 9 3.8
-9 -11 -8 11.8 11.1
9 11 8 15.8 7.3
9 -11 -8 26 8.4
9 -11 -8 10.6 7
0 -12 -8 237.08 15.2
0 12 -8 267.97 14.2
-1 -12 -8 76.79 10.8
1 12 -8 69.09 8.2
1 -12 -8 83.29 10.2
-1 12 -8 70.19 8.8
2 12 -8 325.17 15.7
-2 -12 -8 336.87 19.6
2 12 8 353.36 18.8
-2 12 -8 327.17 17.3
2 -12 -8 335.97 18
3 12 -8 57.59 7.2
-3 -12 -8 53.89 10.7
3 -12 -8 54.49 9
3 12 8 50.59 8.9
4 12 -8 187.48 11.5
-4 -12 -8 195.28 17.3
4 12 8 205.78 15.1
4 -12 -8 191.58 13.8
5 12 -8 13.9 4.8
-5 -12 -8 14.1 9.6
5 -12 -8 14.3 6.4
5 12 8 10.3 6.6
6 12 -8 0.3 3.9
-6 -12 -8 -3.9 10.7
6 12 8 5 6.7
6 -12 -8 0.2 6.4
-7 -12 -8 153.08 19.4
7 12 -8 135.09 9.8
7 12 8 152.98 14.2
7 -12 -8 164.78 14.1
-8 -12 -8 11.4 11.7
8 12 -8 13.9 4.6
8 -12 -8 21.5 8.4
8 12 8 12.1 7.5
9 12 -8 68.69 6.8
9 12 8 67.89 10.7
0 -13 -8 121.39 13.1
0 13 -8 121.49 11.5
-1 -13 -8 485.45 23.5
1 13 -8 450.85 20.5
-1 13 -8 481.95 21.6
1 -13 -8 467.85 22.4
2 13 -8 210.08 13.1
-2 -13 -8 233.38 16.9
2 -13 -8 168.28 13.8
3 13 -8 417.46 18.6
-3 -13 -8 375.66 22.5
3 -13 -8 452.15 21.6
3 13 8 425.36 21.9
4 13 -8 38.4 6.8
-4 -13 -8 38.8 10.9
4 13 8 41.4 9.3
4 -13 -8 39.7 8.6
-5 -13 -8 58.59 12.7
5 13 -8 34.8 6.5
5 -13 -8 35.5 8.5
5 13 8 18.7 7.8
-6 -13 -8 86.19 15.1
6 13 -8 70.99 8
6 -13 -8 71.99 11.1
6 13 8 82.99 11.3
7 13 -8 14.6 5
-7 -13 -8 6.2 11.2
7 13 8 16.2 7.9
7 -13 -8 18.5 8.2
-8 -13 -8 52.99 15
8 13 -8 52.89 6.9
8 -13 -8 61.49 11.5
8 13 8 48.8 9.9
0 14 -8 192.88 14.2
0 -14 -8 261.77 17.1
-1 -14 -8 121.19 13.9
1 14 -8 112.09 12.1
1 -14 -8 163.08 13.7
-1 14 -8 137.49 13
-2 -14 -8 460.45 24.8
2 14 -8 445.56 20.7
2 -14 -8 428.56 22.3
-3 -14 -8 58.79 12
3 14 -8 80.69 9.5
3 14 8 81.69 12.5
3 -14 -8 81.29 11
4 14 -8 206.08 13.4
-4 -14 -8 198.58 19.2
4 -14 -8 195.18 15.3
4 14 8 209.38 16.6
5 14 -8 44.3 7.5
-5 -14 -8 27.5 11.4
5 -14 -8 43.3 9.3
5 14 8 43.5 9.9
-6 -14 -8 14.6 11.5
6 14 -8 33.5 6.8
6 -14 -8 18.1 7.8
6 14 8 25.7 9
7 14 -8 57.19 7.8
-7 -14 -8 49 14
7 14 8 50.19 10.3
7 -14 -8 76.69 11.8
0 15 -8 13.8 6.9
0 -15 -8 14.8 7.6
1 15 -8 122.29 12.7
-1 -15 -8 142.69 15.3
1 -15 -8 122.49 13.8
-1 15 -8 123.59 13
2 15 -8 34.2 8.1
-2 -15 -8 55.19 11.4
2 -15 -8 43.7 9.4
3 15 -8 213.58 14.8
-3 -15 -8 238.58 18.8
3 -15 -8 231.88 16.5
-4 -15 -8 -2.5 8.6
4 15 -8 -3.4 5
4 15 8 -6.6 7.1
4 -15 -8 -4.3 5.9
5 15 -8 74.09 9.5
-5 -15 -8 72.99 14.3
5 -15 -8 68.69 11.3
5 15 8 73.99 12
0 16 -8 -3.2 5.7
0 -16 -8 17.4 7.8
1 16 -8 29.8 8.4
-1 -16 -8 44.6 10.5
1 -16 -8 27.6 8.8
-2 -16 -8 111.19 14.5
2 16 -8 82.59 10.9
2 -16 -8 91.59 12.8
3 16 -8 3 6.3
-3 -16 -8 6.7 8.4
3 -16 -8 7.6 6.5
4 16 -8 101.29 11.4
-4 -16 -8 86.39 14.6
4 -16 -8 99.39 13.5
0 0 9 4.6 3.2
0 0 -9 6 3.6
0 0 9 0.2 2.6
0 0 -9 0.4 1.8
0 0 -9 -3 2
1 0 9 80.49 7.7
1 0 -9 75.79 4.8
-1 0 -9 66.69 6.8
-1 0 9 69.09 6.6
-1 0 9 75.89 7.1
-1 0 -9 77.59 5.3
1 0 -9 75.59 5.7
-1 0 -9 91.39 8.2
1 0 9 69.49 7.3
-1 0 -9 78.19 7.8
-2 0 9 17.1 4
2 0 -9 22.7 4.1
2 0 -9 17.8 2.6
2 0 9 22.3 5.1
-2 0 -9 25.3 5.5
-2 0 -9 13 5
-2 0 -9 26.5 5.8
-2 0 9 21.1 4.2
2 0 -9 19.1 3.6
2 0 9 21 5.1
3 0 9 398.36 15
-3 0 9 390.26 15.9
3 0 -9 388.06 14.4
3 0 9 396.76 18.6
3 0 -9 373.76 15.4
3 0 9 397.36 19.1
-3 0 -9 387.06 19.1
3 0 -9 400.86 12.8
-3 0 -9 368.26 16.4
-3 0 -9 386.46 18.7
-3 0 9 378.16 15.5
-4 0 -9 29.5 6.7
-4 0 -9 34.1 6.5
4 0 -9 33.7 4.1
4 0 9 28.8 6.4
-4 0 -9 49 7.9
4 0 -9 32.1 4.8
4 0 -9 32.8 3.2
-4 0 9 34.8 4.9
4 0 9 31.9 4.7
-5 0 -9 2017.3 65.29
5 0 -9 2061.49 54.59
5 0 -9 2100.39 58.59
-5 0 -9 2030.8 59.89
5 0 -9 2042.1 57.29
-5 0 9 1998.1 57.49
5 0 9 2022.1 58.09
6 0 -9 791.12 27.5
6 0 -9 797.82 23.3
6 0 -9 799.72 26.8
-6 0 -9 835.62 34.2
-6 0 -9 809.02 29.2
6 0 9 784.12 27
-7 0 -9 1586.44 49.3
7 0 -9 1554.84 47.8
7 0 -9 1532.85 42.4
7 0 -9 1568.94 47.2
-7 0 -9 1481.25 53.89
7 0 9 1538.75 47
8 0 9 126.49 10.1
8 0 -9 104.69 9
8 0 -9 93.99 5.7
-8 0 -9 108.69 11.9
9 0 -9 388.16 14
9 0 9 390.26 18.6
9 0 -9 410.26 19.7
-9 0 -9 416.36 21.4
10 0 -9 30.4 4.1
-10 0 -9 39.2 9.6
10 0 -9 31.8 8
10 0 9 31.8 6.9
-11 0 9 658.33 30.1
11 0 -9 630.04 21.8
11 0 -9 682.13 29.7
11 0 9 675.03 27.6
-11 0 -9 599.24 30
12 0 9 27.1 7.5
-12 0 9 16 9
-12 0 -9 -5.2 8.7
12 0 -9 15.6 8.1
0 -1 -9 967.4 28.4
0 1 -9 943.01 28.2
0 -1 9 1010.5 32.6
0 1 9 984 33.1
0 1 9 940.81 32.5
0 -1 9 979 32.3
0 1 -9 970 29.1
0 -1 -9 932.41 29.5
0 -1 -9 976 33
0 1 -9 963.3 32.4
1 -1 9 31.5 5.5
-1 -1 -9 20.5 5.1
-1 1 9 29.1 5.3
1 1 -9 28.4 3.9
-1 1 9 21.8 4.6
-1 -1 -9 29.3 5.3
1 1 -9 26.7 3.1
1 -1 9 33.6 5.6
1 1 -9 32.2 4.6
-1 1 -9 29.4 3.8
1 -1 -9 36.4 4.3
-1 -1 9 35.4 5
-1 1 -9 33.1 5.2
1 1 9 25.4 5.3
1 -1 -9 29.4 5.2
-1 -1 9 25.5 4.6
1 1 9 21.9 5
1 -1 -9 29.4 3.4
-1 1 -9 31.5 5.8
-2 -1 -9 189.58 12.2
2 1 -9 185.48 7.2
2 1 -9 178.38 8.3
-2 1 9 202.78 11.2
2 -1 9 183.68 11.7
2 1 -9 186.98 9.7
-2 -1 -9 177.88 10
2 -1 9 182.48 11.5
2 -1 -9 166.48 8.3
2 -1 -9 152.68 7.2
2 1 9 154.68 11
2 -1 -9 151.38 9.5
-2 1 -9 152.18 9.9
-2 -1 9 160.68 9.3
2 1 9 153.78 11
-2 1 -9 169.28 11.7
-2 1 -9 163.88 11.2
-2 -1 9 161.98 9.4
3 -1 9 162.18 11.5
3 -1 9 158.78 11.5
-3 1 9 168.28 10.1
3 1 -9 162.58 8.2
-3 -1 -9 156.08 10.8
3 1 -9 159.98 6.4
-3 -1 -9 155.18 11.7
3 1 -9 165.18 8.7
-3 -1 -9 159.98 12
3 -1 -9 140.09 8.2
3 -1 -9 147.49 9.1
-3 1 -9 129.69 9.7
3 1 9 158.68 8.3
-3 1 -9 151.78 11.3
-3 -1 9 150.98 8.8
-3 1 -9 155.28 11.7
3 1 9 155.58 11.3
3 -1 -9 146.29 6.7
-3 -1 9 142.59 8.4
4 1 -9 180.88 9.3
4 1 -9 183.58 9.3
-4 -1 -9 190.48 15.9
4 -1 9 197.38 13.3
-4 1 9 182.38 10.6
4 1 -9 174.68 8.7
4 1 -9 187.28 6.9
-4 -1 -9 184.18 13.6
-4 -1 -9 187.48 12
4 -1 9 189.98 9.5
-4 1 -9 166.48 10.9
-4 -1 9 159.08 8.8
4 -1 -9 168.08 7.4
-4 -1 9 163.48 8.7
4 1 9 174.98 14.8
4 -1 -9 161.08 8.9
-4 1 -9 174.98 13
-4 1 -9 183.98 13.5
4 1 9 184.88 9.7
4 -1 -9 165.28 8.2
5 -1 9 116.99 8.4
-5 -1 -9 137.69 11.1
5 1 -9 115.49 8.1
5 1 -9 116.89 5.3
-5 -1 -9 119.29 11.9
-5 -1 9 128.99 7.1
5 1 9 130.19 8.7
5 -1 -9 139.09 8.4
5 -1 -9 119.59 7.8
-5 1 -9 132.49 9.3
5 -1 -9 142.29 6.5
-5 1 -9 115.49 12
-5 -1 9 128.49 7.1
-6 -1 -9 906.41 36.5
6 1 -9 928.01 30.4
-6 -1 -9 928.91 31.9
6 -1 9 888.41 30.1
6 1 -9 916.71 25.5
6 -1 -9 913.81 29.7
-6 1 -9 890.71 31.5
-6 -1 9 919.41 26.6
6 -1 -9 920.71 26.7
6 -1 -9 951.6 30.7
6 1 9 925.21 30.1
-6 -1 9 885.61 26.2
-6 1 -9 878.01 36.2
7 1 -9 236.08 8.7
-7 -1 -9 242.18 15.2
-7 -1 -9 212.18 17.2
7 1 -9 243.48 13.3
7 -1 9 239.88 13.1
7 -1 -9 266.57 13.3
-7 1 -9 267.17 15.3
7 1 9 255.17 13.3
-7 1 -9 214.68 16.8
7 -1 -9 248.88 9.9
7 -1 -9 261.27 13.8
8 -1 9 506.35 21.1
8 1 -9 539.85 22.1
-8 -1 -9 565.54 24.3
8 1 -9 518.85 16.2
8 1 9 535.95 21.3
8 -1 -9 499.85 21.9
-8 1 -9 544.65 23.6
8 -1 -9 511.95 17.5
8 -1 -9 526.75 21.7
9 1 -9 7.8 2.3
-9 -1 -9 11.3 7.4
9 1 -9 9.3 5
9 -1 9 7.2 4.5
9 1 9 3.8 4.2
9 -1 -9 8 2.9
9 -1 -9 11.2 5.4
-9 1 -9 21.8 6.4
10 -1 9 350.66 18.3
10 1 -9 345.17 19.3
10 1 -9 334.77 12.6
-10 -1 -9 353.46 21.2
-10 1 -9 354.26 19.8
10 1 9 362.56 18.2
10 -1 -9 344.97 18.7
10 -1 -9 365.46 14.2
-11 -1 -9 75.19 12.9
11 1 -9 59.39 10.5
11 1 -9 61.09 5.7
11 -1 9 66.09 9.9
-11 1 -9 56.69 11.8
11 1 9 82.49 10.6
-11 -1 9 56.99 10.8
11 -1 -9 56.69 10.5
11 -1 -9 56.09 6.5
-12 1 9 271.17 20.3
12 -1 9 237.08 16.9
-12 -1 -9 262.37 21.3
12 1 -9 272.67 18.7
12 1 -9 251.07 11.7
-12 -1 9 242.78 19
12 1 9 260.97 17
12 -1 -9 240.18 18.4
-12 1 -9 227.88 20.1
0 2 9 797.72 28.4
0 2 -9 763.02 27.2
0 2 -9 738.43 23
0 -2 9 783.52 27.1
0 -2 -9 758.52 23.5
0 -2 9 774.32 27.1
0 -2 -9 791.02 28.4
0 2 9 755.62 27.6
0 -2 -9 729.93 24.6
-1 2 9 1532.05 48.2
-1 -2 -9 1504.25 45.3
1 2 -9 1557.54 42.8
-1 -2 -9 1548.35 49.3
1 2 -9 1552.94 46.7
1 -2 9 1465.95 47.8
1 -2 9 1567.64 48.6
1 2 -9 1602.74 43.9
1 -2 -9 1510.35 47.7
1 2 9 1564.04 48.8
1 -2 -9 1535.35 44.6
1 -2 -9 1565.74 43.5
-1 -2 9 1573.24 46.8
1 2 9 1565.34 49.1
-1 2 -9 1563.34 44.6
-1 2 -9 1596.54 43.8
-1 -2 9 1602.14 46.8
-1 2 -9 1537.25 48.8
2 2 -9 357.56 12.2
2 2 -9 369.86 15
-2 2 9 379.86 17.2
2 2 -9 348.17 13.2
-2 -2 -9 371.06 18.3
-2 -2 -9 349.57 15.8
2 -2 9 365.46 17.6
2 -2 9 376.96 17.8
-2 -2 -9 336.07 15.3
-2 2 -9 360.76 15.2
2 -2 -9 365.06 14.3
2 -2 -9 381.76 13.2
2 2 9 385.16 18
-2 -2 9 390.56 15.2
-2 2 -9 396.56 14
-2 2 -9 371.86 20.5
2 2 9 399.66 18.4
-2 -2 9 382.16 15.3
-2 2 -9 403.86 18.6
-3 -2 -9 356.56 18
3 2 -9 328.77 12.4
3 2 -9 344.77 13
-3 2 9 336.57 15.7
3 -2 9 349.77 17.2
3 -2 9 347.57 17.4
3 2 -9 343.97 10.5
-3 -2 -9 335.87 15.7
3 2 9 316.67 16.6
-3 -2 9 288.67 12.5
-3 2 -9 301.07 16.9
3 -2 -9 289.07 16.4
3 -2 -9 309.17 11.6
3 -2 -9 285.37 12.5
-3 2 -9 308.37 16.6
3 -2 -9 283.87 11.3
3 2 9 291.77 12.8
-3 2 -9 298.07 14
-3 -2 9 296.47 12.8
-4 2 9 16 5.5
4 -2 9 26.7 4.6
4 2 -9 26.2 2.5
4 -2 9 28 6.8
-4 -2 -9 30.5 7.4
4 2 -9 21.4 4.1
-4 -2 -9 35.1 7.1
-4 2 -9 30.6 7.1
-4 2 -9 27.2 6.8
4 -2 -9 32.5 4.4
4 2 9 36.5 5.1
-4 -2 9 30.9 3.9
-4 -2 9 31.7 3.8
-4 2 -9 29.9 6.1
4 -2 -9 34.8 3.8
4 -2 -9 25 4.3
-5 -2 -9 235.28 16.4
-5 -2 -9 243.58 14.8
5 2 -9 267.17 8.5
5 -2 9 262.87 12.5
5 2 -9 257.57 12.1
-5 2 -9 250.07 17.2
5 -2 -9 279.77 12.7
-5 -2 9 279.27 9.5
-5 -2 9 260.27 9.4
5 2 9 264.37 12.4
5 -2 -9 278.27 10.5
5 -2 -9 268.37 11.9
-5 2 -9 276.17 13.9
6 2 -9 136.19 5.2
6 -2 9 116.19 9
6 2 -9 120.69 9.1
-6 -2 -9 136.89 13.1
-6 -2 -9 132.79 12.1
6 2 9 127.09 9.3
6 -2 -9 148.19 7.4
6 -2 -9 128.69 9.6
6 -2 -9 148.99 9.2
-6 2 -9 156.58 11.4
-6 2 -9 141.29 13.6
7 2 -9 432.46 12
7 -2 9 393.36 17.2
-7 -2 -9 465.45 20.8
7 2 -9 405.66 17.5
7 -2 -9 380.36 17.4
7 -2 -9 388.76 14.3
7 2 9 369.46 16.9
-7 2 -9 356.86 21.8
-7 2 -9 397.86 18.8
7 -2 -9 378.06 17.3
8 2 -9 41.8 6.9
-8 -2 -9 59.29 9.9
8 2 -9 38.9 3.2
8 -2 9 49.2 7.2
-8 2 -9 61.89 9.2
8 -2 -9 58.89 8
8 2 9 45.7 6.7
8 -2 -9 55.59 8
8 -2 -9 44.8 5
9 2 -9 30.5 3
9 -2 9 39.6 6.8
9 2 -9 35.3 7
-9 -2 -9 27.2 8.7
9 -2 -9 31.6 6.9
9 2 9 37.8 6.8
-9 2 -9 32.8 7.5
9 -2 -9 30.1 4.4
9 -2 -9 27.2 6.8
10 2 -9 19.6 2.9
10 2 -9 24.4 6.9
-10 -2 -9 24.5 7.9
10 -2 9 7.2 5.8
10 -2 -9 7 6
10 2 9 22 6.4
-10 2 -9 5.7 7
10 -2 -9 17.7 4.1
-10 -2 9 11.1 6.6
11 2 -9 299.27 18.7
11 -2 9 292.67 17.3
11 2 -9 257.87 10.9
-11 -2 -9 259.67 20.2
11 -2 -9 256.67 13.3
-11 2 -9 293.27 20.2
11 -2 -9 283.67 18.7
-11 -2 9 279.37 18.7
11 2 9 309.87 17.3
-12 -2 -9 59.79 13.4
12 2 -9 87.89 12.3
-12 2 9 42.1 11.2
12 2 -9 64.79 5.9
12 -2 9 72.59 10.9
-12 2 -9 47.4 11.7
12 -2 -9 58.29 11.3
-12 -2 9 38.1 10.2
12 2 9 56.89 9.7
0 3 9 2791.52 81.59
0 -3 -9 2797.72 77.19
0 -3 9 2791.42 79.99
0 3 -9 2854.41 75.49
0 -3 -9 2877.41 75.99
0 -3 -9 2720.53 81.09
0 -3 9 2817.32 80.09
0 -3 -9 2842.02 76.19
1 -3 9 2280.97 67.79
-1 -3 -9 2297.37 63.29
-1 3 9 2272.77 67.99
1 -3 9 2230.98 67.59
1 3 -9 2320.07 61.69
1 3 -9 2285.07 65.79
-1 -3 -9 2304.47 68.89
-1 -3 -9 2197.28 64.29
1 -3 -9 2352.16 62.69
1 -3 -9 2268.87 63.69
-1 -3 9 2230.68 65.49
-1 -3 9 2236.78 65.69
1 3 9 2261.77 68.49
1 -3 -9 2351.86 67.99
-1 3 -9 2431.06 62.99
1 -3 -9 2321.37 62.19
-1 3 -9 2324.77 68.19
-2 -3 -9 667.33 21.8
2 3 -9 661.93 20
-2 3 9 617.14 24.6
-2 -3 -9 626.34 23.2
2 3 -9 642.24 22
-2 -3 -9 683.63 26.6
2 -3 9 639.14 25.4
2 -3 9 630.94 25.5
2 3 -9 663.83 19.1
2 3 9 612.34 21.1
2 -3 -9 605.64 24.2
2 -3 -9 605.74 19.8
-2 3 -9 620.54 21.8
-2 3 -9 595.84 25.2
2 -3 -9 590.24 19.9
-2 -3 9 639.94 22
2 -3 -9 622.74 21.3
2 3 9 674.33 29.9
-2 -3 9 596.44 21.8
2 3 9 614.94 25.1
-2 3 -9 637.84 20.7
3 3 -9 1434.26 41.7
3 -3 9 1479.85 48.8
3 3 -9 1483.25 42.5
3 3 -9 1450.25 39.8
-3 -3 -9 1469.05 49.2
3 -3 9 1441.66 48.4
-3 3 9 1437.26 46.8
-3 -3 -9 1442.46 45.5
3 -3 -9 1452.85 41.6
3 -3 -9 1528.15 43.5
-3 3 -9 1528.85 42.9
-3 3 -9 1460.75 43.6
3 -3 -9 1432.96 41.8
-3 3 -9 1496.55 49
3 3 9 1500.45 48.3
-3 -3 9 1476.35 42.8
3 3 9 1541.65 43.4
-3 -3 9 1448.66 42.4
-4 -3 -9 361.06 19.4
4 -3 9 368.06 19.4
4 3 -9 359.66 13.8
4 -3 9 340.37 14.2
-4 -3 -9 365.66 16.8
4 3 -9 363.76 10.8
-4 3 -9 366.36 19.7
-4 -3 9 331.97 12.4
4 -3 -9 323.77 13.3
4 -3 -9 368.36 15
-4 3 -9 329.87 18.7
-4 -3 9 337.47 12.2
4 -3 -9 341.67 12.9
-4 3 -9 348.37 15.3
4 3 9 345.17 14.6
-5 -3 -9 905.21 36.3
5 -3 9 957.6 30.5
5 3 -9 959 25.1
-5 -3 -9 948.81 32.7
5 3 -9 954.2 29.7
5 -3 -9 917.51 29.8
-5 3 -9 909.11 30.9
-5 3 -9 930.91 36.8
5 3 9 938.21 30.3
5 -3 -9 951.8 28.3
5 -3 -9 909.81 30.7
6 3 -9 873.61 25.1
6 3 -9 997.7 31.2
-6 3 9 943.01 33.4
-6 -3 -9 958.6 38
-6 -3 -9 926.61 34
6 -3 9 951.9 31.5
-6 3 -9 930.41 37.9
6 -3 -9 1008.4 32.3
6 -3 -9 950.9 28.9
6 3 9 968 31.2
-6 3 -9 974.2 32.5
6 -3 -9 972.7 31.4
7 3 -9 124.59 9.4
-7 -3 -9 147.19 12.9
7 -3 9 112.99 9.3
7 3 -9 140.39 4.5
7 -3 -9 147.59 8.3
-7 3 -9 130.79 11.1
-7 3 -9 120.89 13.2
7 3 9 134.59 10.1
7 -3 -9 138.89 9.9
7 -3 -9 147.69 10.1
-8 -3 -9 77.59 11
8 3 -9 82.89 3.5
8 3 -9 93.59 9.5
8 -3 9 82.69 8.8
8 3 9 76.39 8.3
8 -3 -9 70.29 8.9
8 -3 -9 77.59 9.2
8 -3 -9 71.19 6.6
-8 3 -9 79.39 10.1
-9 -3 -9 44.1 9.7
9 3 -9 44.8 3
9 3 -9 41.1 7.5
9 -3 9 42.4 7.4
9 3 9 44.7 7.2
9 -3 -9 39 7.5
-9 3 -9 47.2 9.1
9 -3 -9 34.1 5.1
9 -3 -9 29.4 7.1
10 3 -9 114.19 12.1
10 -3 9 114.89 12
-10 -3 -9 106.89 13.9
10 3 -9 113.89 5.4
10 -3 -9 124.09 8.8
-10 -3 9 127.19 13.3
10 3 9 128.99 11.9
-10 3 -9 100.59 12.9
10 -3 -9 112.69 13
10 -3 -9 124.09 13.3
11 3 -9 32.2 8.3
11 -3 9 39.3 8.7
-11 -3 -9 24.3 10.2
11 -3 -9 19 5.3
11 -3 -9 25.2 8.8
11 3 9 26.6 7.3
-11 3 -9 19.4 8.9
-11 -3 9 29.7 8.6
12 -3 9 128.09 13.8
-12 3 9 102.19 14.7
-12 -3 -9 96.99 15.7
12 3 -9 140.89 15.6
12 3 -9 114.39 7
12 -3 -9 120.99 14.5
12 3 9 130.59 13.3
-12 -3 9 130.59 15.3
-12 3 -9 113.19 15.2
0 -4 9 1662.53 50.09
0 -4 -9 1609.84 51.59
0 -4 -9 1603.54 47
0 -4 9 1575.64 49.8
0 -4 -9 1633.14 46.2
0 -4 -9 1642.14 45.9
0 4 9 1624.74 51.99
0 4 -9 1595.24 45.4
-1 -4 -9 830.52 29.9
1 4 -9 748.13 26.3
-1 -4 -9 757.42 25.6
1 -4 9 795.02 28.7
1 -4 9 765.72 28.4
-1 -4 -9 743.43 28.6
1 4 -9 776.22 22.7
-1 4 9 766.52 29
-1 -4 -9 775.32 24.9
1 -4 -9 745.23 23.6
-1 4 -9 762.12 23.6
-1 4 -9 701.03 27.7
1 -4 -9 724.23 24.5
-1 -4 9 724.23 26.2
1 4 9 738.93 29.1
1 -4 -9 717.63 23.5
-1 -4 9 705.93 26
1 -4 -9 743.53 28.7
-2 -4 -9 1048 34.4
-2 -4 -9 1118.29 38.9
2 -4 9 1050.79 37.5
-2 -4 -9 1070.49 33.8
2 4 -9 1052.79 30.3
-2 4 9 1086.59 37.8
2 4 -9 1111.59 34.2
2 -4 9 1099.39 38
-2 4 -9 1013.3 37.3
-2 4 -9 1108.79 32.6
2 -4 -9 1077.69 31.9
2 4 9 1097.29 33.1
2 -4 -9 1044.8 32.9
-2 4 -9 1057.29 32.8
2 4 9 1100.49 38
-2 -4 9 1112.09 34.1
2 -4 -9 1040 31.8
2 -4 -9 1047.8 40.5
-2 -4 9 1084.39 33.7
3 4 -9 511.95 16.4
3 -4 9 504.05 23
-3 -4 -9 501.15 20.1
3 -4 9 509.45 22.9
-3 -4 -9 506.05 19.8
3 4 -9 484.15 14.7
-3 -4 -9 508.25 23.3
3 -4 -9 466.45 16.6
-3 4 -9 477.55 17.4
-3 4 -9 467.35 18.3
-3 -4 9 461.25 17.2
-3 -4 9 459.65 16.8
3 4 9 463.25 17.8
3 -4 -9 442.06 16.6
3 -4 -9 444.06 17.6
-3 4 -9 458.55 22.2
4 -4 9 766.82 31.7
-4 -4 -9 781.12 31.9
4 4 -9 790.12 21.5
4 4 -9 764.42 24.2
4 -4 9 725.23 26.4
-4 -4 -9 756.22 28.6
4 -4 -9 774.12 26.1
4 4 9 807.62 26.1
-4 4 -9 764.62 31.4
-4 -4 9 777.72 22.9
4 -4 -9 741.13 24.2
4 -4 -9 788.72 25.2
-4 -4 9 743.73 23.2
-4 4 -9 779.52 26.2
5 4 -9 752.72 20.2
5 4 -9 750.52 24.6
-5 -4 -9 710.83 28.4
-5 4 9 720.63 28.5
5 -4 9 735.23 25.6
-5 -4 -9 713.43 31.3
5 -4 -9 742.53 23.9
5 -4 -9 763.32 26.2
-5 4 -9 783.22 26.3
-5 4 -9 744.23 31.9
5 4 9 723.53 25.5
5 -4 -9 773.52 25.4
6 4 -9 695.03 23.9
6 -4 9 651.83 24.2
-6 -4 -9 661.93 30.6
-6 -4 -9 698.63 27.1
6 -4 -9 683.73 22.5
6 4 9 683.73 24.3
-6 4 -9 680.63 25.1
6 -4 -9 670.73 25
6 -4 -9 684.33 24.4
-6 4 -9 620.94 30.1
7 4 -9 583.64 22.1
-7 -4 -9 580.54 25.7
7 -4 9 573.24 22.6
7 -4 -9 613.34 23.1
7 -4 -9 590.14 20.4
-7 4 -9 544.25 28.1
7 4 9 560.24 22
7 -4 -9 562.84 23.1
-7 4 -9 591.94 23.5
-8 -4 -9 155.68 14.8
8 4 -9 152.48 11.3
8 -4 9 148.39 10.9
8 -4 -9 146.69 11.1
8 -4 -9 129.39 10.3
-8 4 -9 130.69 11.8
8 -4 -9 139.29 9
8 4 9 140.29 10.6
9 4 -9 215.78 13.7
9 4 -9 217.18 6.8
-9 -4 -9 193.88 16.8
9 -4 9 226.68 14
9 -4 -9 213.18 14.2
9 4 9 210.48 13.2
-9 4 -9 186.28 14.6
9 -4 -9 204.78 14.2
-9 -4 9 194.18 13.8
9 -4 -9 213.98 11.4
10 4 -9 4.4 1.6
-10 -4 -9 -1.8 8.3
10 4 -9 2.5 5.9
10 -4 9 5 5.5
10 -4 -9 9.4 6.1
-10 4 -9 8 7.2
-10 -4 9 0.5 5.9
10 -4 -9 -6.9 5.3
10 -4 -9 3.5 3.8
10 4 9 -0.6 4.7
-11 -4 -9 174.58 18.5
11 -4 9 193.78 14.9
11 4 -9 163.18 14.2
-11 -4 9 174.68 14.9
-11 4 -9 170.38 17
11 4 9 156.58 13.2
11 -4 -9 181.88 16
11 -4 -9 165.58 11.5
11 -4 -9 170.78 15.3
-12 4 9 32.2 10.3
12 4 -9 28.3 3.6
12 4 -9 33.6 8.7
12 -4 9 20.6 7.5
-12 -4 -9 12 10.9
12 -4 -9 23.8 7.4
12 4 9 33.5 7.8
-12 -4 9 23.3 8.8
-12 4 -9 22.8 10.4
0 5 -9 1047.5 30.8
0 -5 9 1052.09 35.6
0 -5 -9 1045.2 32.4
0 -5 9 1000.8 35.6
0 -5 -9 1069.29 37.5
0 5 9 1018.9 37.4
0 -5 -9 1017.3 32.1
0 -5 -9 1013 31.2
-1 5 9 685.33 27.7
-1 -5 -9 644.94 23.1
-1 -5 -9 656.03 27.5
-1 -5 -9 666.73 26.9
1 5 -9 655.13 20.6
-1 -5 -9 624.84 23.1
1 -5 9 647.64 26.2
-1 -5 9 663.03 24.4
-1 5 -9 653.63 21.6
1 -5 -9 693.53 21.8
1 -5 -9 660.03 22.6
1 -5 -9 654.23 22.1
-1 -5 9 649.93 24.4
1 -5 -9 640.04 26.7
1 5 9 659.73 22.6
-2 -5 -9 213.08 20.7
-2 -5 -9 209.58 14.8
-2 -5 -9 226.18 13
2 5 -9 201.08 8.5
-2 -5 -9 197.28 12.1
2 -5 9 211.68 14.2
-2 5 -9 198.28 9.9
-2 -5 9 222.78 11.3
-2 -5 9 220.18 11.2
2 -5 -9 204.28 10
-2 5 -9 206.88 12.3
2 -5 -9 200.28 9.7
2 -5 -9 207.88 10.7
2 5 9 212.78 11
-3 -5 -9 122.69 10.3
-3 -5 -9 133.39 13.1
3 -5 9 131.69 12.1
3 5 -9 138.79 6.4
-3 -5 -9 121.89 10.9
3 -5 -9 147.49 8.5
-3 -5 9 158.38 8.7
3 5 9 159.48 9.8
-3 -5 9 152.78 8.5
3 -5 -9 166.38 9.5
3 -5 -9 144.69 8.3
-3 5 -9 156.58 8.9
-3 5 -9 172.98 9.8
-4 5 9 72.09 9.4
-4 -5 -9 65.59 9.9
4 -5 9 71.19 7.7
4 -5 9 63.69 12.9
-4 -5 -9 72.69 10.1
4 5 -9 59.89 3.9
-4 -5 -9 55.69 8.8
4 -5 -9 73.09 6.5
4 -5 -9 81.49 6.7
4 -5 -9 66.49 7.1
-4 -5 9 71.29 5
-4 5 -9 92.49 8.4
4 5 9 75.99 7.6
-4 -5 9 67.19 5.1
-5 -5 -9 792.12 30.9
5 -5 9 810.62 26.4
5 5 -9 846.92 22.4
-5 5 9 795.82 31.5
-5 -5 -9 818.12 34.4
5 -5 -9 828.02 27.6
5 -5 -9 828.92 26.5
5 -5 -9 789.52 27.8
-5 5 -9 824.32 27.8
5 5 9 792.22 27.6
6 5 -9 1241.88 33.6
-6 -5 -9 1284.57 44.1
6 5 9 1347.57 40.8
6 -5 -9 1325.47 41.5
-6 5 -9 1312.47 41.2
6 -5 -9 1304.97 39
6 -5 -9 1243.38 40.5
-7 -5 -9 140.19 13.5
7 -5 -9 139.39 9.1
-7 5 -9 162.58 11.7
7 -5 -9 133.09 10.8
7 -5 -9 144.89 10.6
7 5 9 163.28 11
8 -5 9 76.59 9
-8 -5 -9 100.09 12.2
8 5 9 88.49 9.2
8 -5 -9 88.79 10
8 -5 -9 71.39 9.2
8 -5 -9 85.89 8.2
-8 5 -9 79.09 10
-8 -5 9 70.89 8.6
-9 -5 -9 26 10.2
9 -5 9 34 7.3
9 -5 -9 58.89 9
-9 -5 9 39.3 7.6
-9 5 -9 34.6 8.3
9 5 9 40.2 7.3
9 -5 -9 33.5 5.9
9 -5 -9 34.9 7.9
-10 -5 -9 164.98 17.5
10 -5 9 156.18 16
10 -5 -9 140.89 14.4
10 -5 -9 143.89 14.4
-10 5 -9 110.69 13.4
10 -5 -9 133.99 10.7
10 5 9 152.18 12.4
-11 -5 -9 25.1 11.4
11 -5 -9 28.5 8.4
11 -5 -9 25.3 5.8
-11 5 -9 21.7 9.5
11 -5 -9 24 8.8
11 5 9 20.8 6.8
-12 -5 -9 94.59 16.5
-12 5 9 66.09 13
-12 5 -9 86.09 14.1
12 -5 -9 98.49 13.5
12 -5 -9 88.29 12.9
12 5 9 98.69 11.9
0 -6 -9 1805.82 51.99
0 -6 -9 1830.22 58.29
0 -6 9 1826.22 55.79
0 -6 -9 1757.72 51.99
0 6 -9 1721.33 50.19
0 -6 -9 1789.72 50.89
1 -6 9 383.86 19.3
-1 -6 -9 387.96 20.4
1 6 -9 388.86 14.1
-1 -6 -9 385.26 17
-1 -6 -9 374.26 16.5
-1 6 -9 395.66 15
1 6 9 380.16 16
1 -6 -9 397.56 15
-1 -6 9 393.66 17.7
1 -6 -9 382.06 15.7
-2 -6 -9 496.95 20.7
-2 -6 -9 536.45 21.3
2 -6 9 523.15 23.9
2 6 -9 537.95 17.1
-2 -6 -9 534.15 24.9
2 -6 -9 519.35 19
2 -6 -9 487.05 18.9
2 6 9 522.55 19.7
-2 6 -9 536.05 18.9
-2 -6 9 492.05 19.9
2 -6 -9 485.85 18.1
3 -6 9 20.7 6.8
-3 6 9 23.3 6.8
-3 -6 -9 17.4 6.8
-3 -6 -9 29.5 7.6
3 6 -9 21.8 3.2
-3 -6 -9 34.7 7.9
3 6 9 26.8 5.5
-3 -6 9 23.6 4.3
3 -6 -9 19.3 4.6
-3 6 -9 30.3 4.9
3 -6 -9 25.2 5
3 -6 -9 25.7 4.5
-4 -6 -9 649.43 30
-4 -6 -9 688.83 27.1
-4 6 9 686.83 29.2
-4 -6 -9 690.03 27.5
4 6 -9 707.03 20.5
4 6 9 698.53 24.7
-4 -6 9 720.03 22.1
4 -6 -9 684.33 24.2
4 -6 -9 701.63 24.6
-4 -6 9 712.13 23.3
4 -6 -9 659.53 23.3
-5 -6 -9 101.19 11.8
5 6 -9 85.29 4.7
-5 6 9 90.99 11.6
-5 -6 -9 92.69 12.5
-5 -6 -9 84.99 11.5
5 -6 -9 86.79 8.7
5 -6 -9 92.39 7.3
5 6 9 95.99 9
-5 6 -9 84.59 8.4
5 -6 -9 101.79 8.8
6 -6 9 292.77 14.1
6 6 -9 311.67 9.7
-6 -6 -9 313.97 19
6 -6 -9 314.17 15.4
-6 6 -9 328.97 15.6
6 -6 -9 331.57 14.3
6 -6 -9 325.97 15.9
6 6 9 314.77 15.6
-7 -6 -9 306.97 19.6
7 6 -9 307.77 9.1
7 -6 -9 346.57 16.9
7 6 9 342.37 16.3
7 -6 -9 327.87 14.8
7 -6 -9 334.37 16.4
-7 6 -9 299.67 16.1
-8 -6 -9 101.99 13.6
8 -6 -9 130.69 11.3
8 -6 -9 144.49 11.5
8 6 9 144.69 11.2
8 -6 -9 142.39 10.1
-8 6 -9 154.18 12.3
-9 -6 -9 91.59 13.9
-9 6 -9 78.99 11
9 -6 -9 77.39 8.4
9 6 9 78.29 9.5
9 -6 -9 91.39 11.1
9 -6 -9 96.69 11.4
-10 -6 -9 -12.1 8.8
10 6 9 3.9 5.4
10 -6 -9 -0.7 5.4
-10 6 -9 -3.3 6.7
10 -6 -9 -7.3 3.9
10 -6 -9 -1.8 5.7
-11 -6 -9 -2 9.9
-11 6 -9 13 8.9
11 -6 -9 14.7 7.9
11 -6 -9 14 7.8
11 6 9 9.8 6
0 -7 -9 180.58 10.8
0 7 -9 194.18 9.7
0 -7 -9 212.88 15.6
0 -7 -9 197.68 11.8
0 -7 9 206.78 13.5
-1 -7 -9 2174.08 69.29
-1 -7 -9 2169.08 63.49
-1 -7 -9 2209.48 62.69
1 -7 9 2211.48 67.79
1 7 -9 2150.58 60.29
1 -7 -9 2140.49 62.29
1 7 9 2179.78 62.69
1 -7 -9 2181.18 61.49
-1 -7 9 2197.18 65.29
1 -7 -9 2169.98 61.89
-1 7 -9 2176.08 61.29
2 -7 9 148.29 13.1
2 7 -9 145.69 7.9
-2 -7 -9 144.09 11.1
-2 7 9 149.88 13.6
-2 -7 -9 144.69 12
-2 -7 -9 149.09 13.9
-2 -7 9 152.28 10.4
2 -7 -9 165.18 9.8
2 -7 -9 154.38 9.8
2 -7 -9 157.18 9
2 7 9 149.79 10.4
-2 7 -9 147.69 9.2
-3 7 9 573.04 26.2
-3 -7 -9 576.44 27.3
-3 -7 -9 571.74 24
3 -7 9 555.34 26.7
3 7 -9 570.54 18.1
-3 -7 -9 569.24 23.2
-3 7 -9 556.34 20.9
3 -7 -9 519.75 20.4
-3 -7 9 538.65 20.7
3 -7 -9 535.35 20.7
3 -7 -9 545.55 20.1
3 7 9 555.74 21.5
4 7 -9 178.78 8.1
-4 -7 -9 162.48 13.9
-4 -7 -9 183.08 15.5
-4 -7 -9 168.38 14.4
-4 7 9 176.98 14.8
-4 -7 9 195.58 9.8
4 -7 -9 209.48 11.5
4 -7 -9 197.08 11.3
4 -7 -9 206.48 10.8
4 7 9 212.38 12
-5 -7 -9 746.23 29.7
5 7 -9 745.13 21.3
-5 -7 -9 744.63 29.6
-5 7 9 763.82 36.8
5 -7 -9 699.63 25.7
-5 -7 9 686.43 20.4
5 -7 -9 682.23 25.7
5 -7 -9 724.33 25.2
5 7 9 736.33 26.1
-5 -7 9 690.93 20.8
-6 -7 -9 64.19 11.2
6 7 -9 71.49 4.4
-6 -7 -9 64.99 11.7
6 -7 -9 70.49 8.6
6 7 9 88.89 9.2
6 -7 -9 79.69 8.9
6 -7 -9 71.69 7.5
7 7 -9 71.59 4
-7 -7 -9 65.79 11.7
7 -7 -9 81.19 9.5
7 -7 -9 81.49 9.4
7 -7 -9 79.79 8.1
7 7 9 91.89 9.5
8 7 -9 -3 1.3
-8 -7 -9 -11.7 7.6
8 -7 -9 -1.8 3.7
8 -7 -9 -0.9 5
8 -7 -9 -1.3 3.2
8 7 9 4.3 4.8
-9 -7 -9 35.4 11.2
9 -7 -9 41.9 8.6
9 -7 -9 56.39 9.2
9 -7 -9 45.9 7.4
9 7 9 39.2 7.7
-10 -7 -9 -0.8 9.2
10 7 9 5.1 6.1
10 -7 -9 9.3 6.5
10 -7 -9 9.1 5.2
10 -7 -9 11.3 7.3
-11 -7 -9 -15.3 9.4
11 7 9 11.2 6.2
11 -7 -9 -4.7 5.7
11 -7 -9 -4.5 6
0 8 -9 1978.7 55.39
0 -8 -9 1950.9 56.09
0 -8 -9 1925.51 57.39
0 -8 9 1869.61 60.69
-1 -8 -9 347.97 21
1 -8 9 367.96 19.9
-1 -8 -9 363.26 17.7
-1 -8 -9 374.46 16.2
1 8 -9 366.06 14.6
1 8 9 357.16 16.6
1 -8 -9 364.36 16.5
-1 -8 9 340.47 18
-1 8 -9 357.36 15
1 -8 -9 357.56 15.4
-2 8 9 1031 40.9
2 -8 9 1038.2 40.7
-2 -8 -9 1056.49 37.1
2 8 -9 1048 32.4
-2 -8 -9 1073.49 35.4
-2 -8 -9 1098.19 41.8
2 -8 -9 1099.69 35.3
-2 -8 9 1078.99 36.6
2 -8 -9 1153.88 36.1
-2 8 -9 1102.89 34.4
2 -8 -9 1070.59 34.3
2 8 9 1123.29 35.9
-3 -8 -9 46.8 9.6
-3 -8 -9 46.4 9.5
3 -8 9 38.8 9
-3 8 9 41 8.9
-3 -8 -9 34.6 7.7
3 8 -9 48.3 5.1
3 -8 -9 42.6 6.4
-3 8 -9 49.9 6.9
3 8 9 58.49 8
3 -8 -9 49.99 7.1
3 -8 -9 44.6 6
-4 -8 -9 854.01 35.9
-4 -8 -9 817.22 32.2
4 8 -9 828.62 24.9
-4 -8 -9 827.42 31
-4 8 9 856.51 35.4
4 -8 -9 826.42 28
4 8 9 771.42 28.5
4 -8 -9 785.52 28.5
4 -8 -9 777.62 28
-5 -8 -9 39.5 9.3
-5 -8 -9 51.69 10.6
5 8 -9 42.5 4.4
5 -8 -9 46.5 7
5 -8 -9 54.09 7.5
5 8 9 56.49 7.9
5 -8 -9 56.89 7.2
6 8 -9 161.58 7.4
-6 -8 -9 166.18 16
-6 -8 -9 178.88 15.9
6 -8 -9 171.58 10.9
6 -8 -9 190.08 12.2
6 -8 -9 167.18 11.5
6 8 9 179.08 12.1
7 8 -9 30.2 3.2
-7 -8 -9 45.2 11
-7 -8 -9 33 10.2
7 -8 -9 28.8 5.9
7 -8 -9 20.7 6.2
7 8 9 25.3 6.4
7 -8 -9 35.2 6.9
-8 -8 -9 61.19 12.8
8 8 -9 48 3.9
-8 -8 -9 55.29 12
8 -8 -9 50.19 8.4
8 8 9 51.89 8.4
8 -8 -9 43.6 8.8
8 -8 -9 50.19 7.6
-9 -8 -9 -4.8 9.3
9 8 -9 12.4 2.6
9 -8 -9 14.8 5.8
9 -8 -9 12.6 6.4
9 -8 -9 6.1 6.2
9 8 9 20.1 6.7
-10 -8 -9 26.7 13.3
10 -8 -9 47.5 9.7
10 -8 -9 55.39 10.1
10 -8 -9 48.8 7.9
10 8 9 37.3 8.1
-11 -8 -9 11.6 12.4
11 -8 -9 34.1 9.4
11 -8 -9 35.2 9.2
11 8 9 25.6 7.6
0 -9 9 199.38 14.8
0 -9 -9 178.38 10.7
0 9 -9 199.08 11
0 -9 -9 172.58 12.4
-1 -9 -9 1002.3 53.59
1 -9 9 1066.09 40.2
-1 -9 -9 1041.7 34.1
-1 -9 -9 1059.49 36.3
1 9 -9 997.3 32.6
1 -9 -9 1043.8 33.5
1 9 9 1076.39 35.5
-1 9 -9 1071.29 33.9
1 -9 -9 1073.69 35.5
-2 -9 -9 193.68 16.4
-2 -9 -9 212.18 14.8
2 -9 9 190.78 16.4
-2 -9 -9 196.28 12.8
2 9 -9 200.98 10.3
2 9 9 192.78 12.5
-2 9 -9 187.58 11.3
2 -9 -9 177.08 10.7
2 -9 -9 177.98 11.8
3 -9 9 281.87 28.8
-3 -9 -9 301.17 16.5
-3 -9 -9 293.17 20
-3 -9 -9 296.57 18
3 9 -9 285.47 12.4
3 -9 -9 289.77 14.2
-3 9 -9 262.47 13.9
3 9 9 275.97 15.1
3 -9 -9 289.77 14.9
4 9 -9 61.09 5.7
-4 -9 -9 50.79 9.1
-4 -9 -9 45.8 10.3
4 -9 -9 61.59 7.4
4 -9 -9 53.79 7.6
4 -9 -9 69.89 7.9
4 9 9 69.59 8.8
-5 -9 -9 331.17 20.6
-5 -9 -9 283.47 18.3
5 9 -9 309.67 12.5
5 -9 -9 349.57 16.8
5 -9 -9 316.37 15.7
5 -9 -9 324.47 15.8
5 9 9 366.06 17.1
-6 -9 -9 18.3 9.8
6 9 -9 38.5 4.3
-6 -9 -9 38.3 10.4
6 -9 -9 31 6.7
6 -9 -9 36.1 7.1
6 9 9 28 6.6
6 -9 -9 34.6 6.4
-7 -9 -9 17.3 9.5
-7 -9 -9 30.8 10.2
7 9 -9 27.4 3.6
7 -9 -9 31.4 7.1
7 -9 -9 17.6 5.6
7 -9 -9 20.2 6.1
7 9 9 24.1 6.8
-8 -9 -9 -1.7 9
8 9 -9 2.1 2.5
-8 -9 -9 0.3 9.3
8 -9 -9 1.4 4.9
8 -9 -9 6.8 5.9
8 -9 -9 -0.6 4.4
8 9 9 4.3 5.5
-9 -9 -9 26.1 12.1
9 9 -9 35.5 3.8
-9 -9 -9 31.9 12
9 -9 -9 32 7.9
9 -9 -9 32.6 7
9 9 9 35.3 8
9 -9 -9 34 8.7
-10 -9 -9 32.6 14.4
-10 -9 -9 26.9 12.2
10 9 9 29.6 7.9
10 -9 -9 43.9 9.7
10 -9 -9 49.9 9.7
0 10 -9 489.35 19.1
0 -10 -9 440.06 20.6
0 -10 -9 468.15 18.6
-1 -10 -9 113.59 12
-1 -10 -9 83.19 8.4
1 10 -9 98.29 8.3
-1 10 -9 86.69 8.7
1 -10 -9 98.39 10.2
1 -10 -9 74.79 7.7
2 10 -9 120.09 8.8
-2 -10 -9 143.19 11
-2 -10 -9 143.29 13.7
-2 -10 -9 133.99 14.6
-2 10 -9 127.39 9.9
2 -10 -9 120.39 9.3
2 -10 -9 132.79 10.8
2 10 9 135.79 11.4
-3 -10 -9 111.39 11.1
3 10 -9 86.79 7.6
-3 -10 -9 96.09 12.6
3 -10 -9 89.19 8.8
3 10 9 95.49 10.2
3 -10 -9 89.09 9.7
-4 -10 -9 124.99 14.4
4 10 -9 104.29 7.7
-4 -10 -9 120.99 14.3
4 -10 -9 103.59 8.9
4 -10 -9 118.69 11.3
4 10 9 99.59 10.5
5 10 -9 201.88 10.2
-5 -10 -9 220.88 17.8
5 -10 -9 192.88 12.2
5 -10 -9 184.38 12.8
5 10 9 203.38 13.6
-6 -10 -9 41.8 11.4
6 10 -9 42.7 5.2
6 10 9 49.7 8.5
6 -10 -9 30 7.8
6 -10 -9 51.09 7.7
6 -10 -9 39.6 7.7
-7 -10 -9 57.39 13.4
7 10 -9 66.39 5.9
7 -10 -9 89.19 11.1
7 -10 -9 75.29 9.3
7 -10 -9 70.09 9.4
7 10 9 94.79 10.8
8 10 -9 52.19 5.1
-8 -10 -9 49.1 13.5
8 -10 -9 46.6 8.4
8 10 9 54.19 9.2
8 -10 -9 45.9 9.5
8 -10 -9 51.79 8.8
9 10 -9 76.29 5.9
-9 -10 -9 52.19 13.8
9 -10 -9 65.09 10.9
9 10 9 78.39 10.8
9 -10 -9 87.69 10.6
9 -10 -9 69.99 10.5
-10 -10 -9 18.7 11.9
10 10 -9 -2.4 2.6
10 -10 -9 4 6.3
10 -10 -9 2.9 7.3
10 10 9 4.1 6.8
0 -11 -9 1.5 5.5
0 11 -9 6.5 4.6
1 11 -9 123.89 9.8
-1 -11 -9 131.79 13.1
-1 11 -9 116.59 9.8
1 -11 -9 133.69 11.4
2 11 -9 3 3.9
-2 -11 -9 1.5 6.9
-2 11 -9 4.4 4.5
2 11 9 10.5 5.9
2 -11 -9 10.5 5.6
-3 -11 -9 214.08 16.5
3 11 -9 190.18 11.2
3 11 9 182.68 13.6
3 -11 -9 207.58 13.5
4 11 -9 238.58 12.3
-4 -11 -9 274.57 19.2
4 -11 -9 287.37 16.5
4 -11 -9 259.37 15.5
4 11 9 263.97 16.3
-5 -11 -9 120.29 15.4
5 11 -9 143.99 9.4
5 11 9 176.08 13.8
5 -11 -9 189.98 13.3
5 -11 -9 156.68 11
-6 -11 -9 143.29 17.4
6 11 -9 148.89 9.6
6 -11 -9 156.28 12.3
6 11 9 191.68 14.7
6 -11 -9 182.48 13.7
-7 -11 -9 76.09 14.6
7 11 -9 70.59 6.7
7 -11 -9 81.29 10.3
7 -11 -9 77.29 11
7 11 9 83.39 11
8 11 -9 117.29 8.1
-8 -11 -9 94.39 16.4
8 -11 -9 143.79 12.4
8 11 9 138.29 13.7
8 -11 -9 147.69 15.1
9 11 -9 11.7 3.8
-9 -11 -9 6.7 11
9 11 9 14.1 7.4
9 -11 -9 8.7 6.4
9 -11 -9 19.8 7.8
0 -12 -9 249.28 16
0 12 -9 226.78 14
-1 -12 -9 23.5 7.7
1 12 -9 22.4 5.9
-1 12 -9 29.3 6.7
1 -12 -9 22.9 7.3
-2 -12 -9 240.78 17
2 12 -9 247.58 13.6
-2 12 -9 240.68 14.8
2 -12 -9 235.28 15.3
-3 -12 -9 133.69 15
3 12 -9 130.59 9.9
3 12 9 129.19 12.8
3 -12 -9 132.09 13
4 12 -9 176.88 11.1
-4 -12 -9 183.48 18.1
4 12 9 188.78 14.5
4 -12 -9 197.28 14.2
-5 -12 -9 240.68 19.8
5 12 -9 235.38 12.5
5 12 9 220.38 16.1
5 -12 -9 230.78 15.6
6 12 -9 180.38 11
-6 -12 -9 182.68 19.6
6 -12 -9 172.78 14.1
6 12 9 176.58 14.9
7 12 -9 155.08 10.1
-7 -12 -9 135.99 18.7
7 12 9 163.28 15.2
7 -12 -9 159.48 14
8 12 -9 21.9 5
-8 -12 -9 25.7 12.4
8 12 9 22.3 8.3
8 -12 -9 29.6 8.6
0 -13 -9 10.1 6.9
0 13 -9 21.2 6.6
-1 -13 -9 192.78 15.5
1 13 -9 193.98 13.2
-1 13 -9 188.98 13.6
1 -13 -9 166.28 13.8
2 13 -9 60.09 8.4
-2 -13 -9 64.19 11
2 -13 -9 76.99 10.7
3 13 -9 48.7 7.4
-3 -13 -9 55.19 11.5
3 -13 -9 70.09 10.4
3 13 9 56.79 11.4
-4 -13 -9 90.69 13.9
4 13 -9 89.99 9
4 -13 -9 98.99 12.5
4 13 9 76.79 11.2
-5 -13 -9 11.5 10.4
5 13 -9 18.6 5.6
5 13 9 37.8 9.3
5 -13 -9 28.2 8.6
6 13 -9 61.49 7.7
-6 -13 -9 54.19 14.9
6 13 9 85.69 11.8
6 -13 -9 69.19 10.9
7 13 -9 46.7 6.9
-7 -13 -9 26.7 12.6
7 -13 -9 61.69 10.6
7 13 9 44.1 9.9
0 14 -9 6.4 5.8
0 -14 -9 1.2 6.3
1 14 -9 -5.6 5
-1 -14 -9 14.8 7.3
1 -14 -9 22.1 7.7
-1 14 -9 4.7 6.1
2 14 -9 68.59 9.5
-2 -14 -9 81.99 12.4
2 -14 -9 78.29 11.3
-3 -14 -9 87.29 13.4
3 14 -9 97.79 10.3
3 -14 -9 89.99 11.9
4 14 -9 9.4 5.4
-4 -14 -9 9 9.6
4 14 9 20 8.2
4 -14 -9 9.1 7.2
5 14 -9 50.89 7.7
-5 -14 -9 53.39 13.8
5 -14 -9 54.59 10.2
5 14 9 52.49 10.3
6 14 -9 28.1 6.3
-6 -14 -9 34.5 12.4
6 -14 -9 30.3 8.4
6 14 9 29.1 9.2
0 -15 -9 17 8.1
0 15 -9 2.5 6.4
1 15 -9 43 8.8
-1 -15 -9 26.1 9
-1 15 -9 40.3 8.5
1 -15 -9 41.6 9.7
2 15 -9 62.89 9.6
-2 -15 -9 45.2 10.5
2 -15 -9 59.29 10.6
3 15 -9 16.8 6.7
-3 -15 -9 37.4 10.7
3 -15 -9 32.5 8.6
4 15 -9 36.9 7.8
-4 -15 -9 47 11.8
4 -15 -9 49.4 10.1
-5 -15 -9 12.3 10.3
5 15 -9 19.7 6.4
5 15 9 20.7 8.4
5 -15 -9 25.2 8.1
0 16 -9 -10.1 5.8
0 -16 -9 17.4 7.9
1 16 -9 -3.5 6.2
-1 -16 -9 14.8 8.3
1 -16 -9 5.4 7.4
-2 -16 -9 -3.6 6.9
2 16 -9 -4.3 5.6
2 -16 -9 8.5 6.5
3 16 -9 23.2 7.6
-3 -16 -9 30.9 10.1
3 -16 -9 29.3 9.2
0 0 -10 200.68 10
0 0 -10 205.28 12.2
0 0 -10 193.78 8.9
0 0 10 210.08 12.2
0 0 10 185.68 11.7
1 0 10 1505.35 47.6
-1 0 -10 1476.85 44.1
-1 0 10 1496.85 46.3
1 0 10 1487.75 47.9
-1 0 -10 1470.25 47.9
-1 0 10 1487.65 46.5
1 0 -10 1511.25 42.1
-1 0 -10 1570.34 42.9
1 0 -10 1467.35 43.1
-2 0 -10 58.89 7.5
2 0 10 59.29 8.1
-2 0 10 58.39 6.9
-2 0 -10 70.09 6.6
-2 0 10 56.59 6.2
2 0 -10 61.29 5.9
2 0 -10 53.79 6.2
2 0 10 63.19 8.3
2 0 -10 62.89 4.5
-2 0 -10 64.49 8.5
-2 0 -10 60.09 8.3
3 0 -10 39.2 5.1
-3 0 10 59.49 6.6
-3 0 -10 49 8.1
3 0 10 45.5 7.5
3 0 -10 44.2 3.8
3 0 10 48 5.4
-3 0 -10 41.8 7.3
-3 0 10 46.8 5.9
-3 0 -10 39.6 7.4
4 0 -10 16.5 4.3
-4 0 -10 27.6 6
4 0 10 21.8 4.4
4 0 -10 19.3 2.8
-4 0 10 20 4.2
-4 0 10 16.9 4.4
-4 0 -10 19.4 6.2
4 0 -10 17.1 3.4
5 0 -10 2597.14 69.09
5 0 -10 2604.74 71.39
5 0 10 2533.65 72.49
-5 0 10 2605.74 72.39
5 0 -10 2585.24 72.89
-5 0 -10 2685.23 75.19
-5 0 -10 2524.75 80.39
6 0 -10 521.25 16.3
6 0 -10 501.75 20.1
-6 0 -10 495.15 25.7
-6 0 -10 509.95 21.6
6 0 10 505.45 19.8
6 0 -10 507.35 19.3
7 0 10 5.5 4.4
7 0 -10 5.2 4.3
7 0 -10 2.4 4.3
7 0 -10 2.2 2.3
-7 0 -10 18.2 7.1
-7 0 -10 8.1 6.6
8 0 -10 -1.9 2
8 0 10 2 4.1
8 0 -10 -1.4 3.8
-8 0 -10 -2.3 4.7
-9 0 -10 -4.5 6.6
9 0 10 5.7 4.6
9 0 -10 13.3 5.5
9 0 -10 3.8 2.5
10 0 10 2.5 4.8
10 0 -10 1.7 2.9
10 0 -10 -2.8 5.6
-10 0 -10 2.3 7.9
-11 0 -10 18.5 8.3
11 0 -10 11.4 6.2
11 0 10 25.1 7.6
11 0 -10 14.6 4.1
12 0 10 3.8 5.8
-12 0 10 3.2 7.8
12 0 -10 -3.4 6.2
-12 0 -10 -14.2 8.8
0 1 -10 3014.5 87.89
0 1 -10 3158.68 83.99
0 -1 10 3068.89 87.79
0 -1 10 3131.19 88.29
0 1 -10 3124.59 82.99
0 1 10 3078.19 88.09
0 1 10 2996.4 88.29
0 -1 -10 3186.78 88.99
0 -1 -10 3176.38 83.29
0 -1 -10 3039.8 84.39
-1 -1 -10 1190.08 37
-1 -1 -10 1242.28 41.2
1 -1 10 1232.28 40.3
-1 -1 -10 1288.37 35.5
-1 1 10 1214.08 39.6
1 -1 10 1275.07 40.5
1 1 -10 1157.28 34.3
-1 1 10 1241.68 39.4
1 1 -10 1234.18 35.5
-1 1 -10 1195.08 40.5
1 -1 -10 1169.58 34.6
1 1 10 1195.08 40.4
1 -1 -10 1165.88 39.1
1 1 10 1227.68 40.5
-1 1 -10 1167.58 35.1
-1 1 -10 1191.78 36.5
-1 -1 10 1231.48 38.9
-1 -1 10 1131.09 38.1
1 -1 -10 1179.58 35.9
2 1 -10 503.05 16.4
2 -1 10 489.25 22.1
-2 1 10 514.15 20.9
-2 -1 -10 530.75 23.1
2 1 -10 481.35 19.3
2 1 -10 496.35 17.6
-2 -1 -10 488.55 19.5
-2 1 10 506.05 20.6
2 -1 10 509.85 22.2
2 1 10 523.85 22.5
-2 -1 10 546.55 20
2 1 10 571.04 23
-2 1 -10 554.84 18.1
-2 1 -10 520.05 22.8
2 -1 -10 543.75 17.1
-2 1 -10 498.95 19.6
2 -1 -10 473.75 20.1
-2 -1 10 526.45 20.2
2 -1 -10 516.85 18.1
-3 -1 -10 217.28 14.4
3 1 -10 201.18 7.8
3 -1 10 213.58 13.5
-3 -1 -10 203.28 11.8
3 1 -10 184.28 9.3
3 -1 10 199.78 13.3
-3 1 10 192.98 11.6
-3 -1 10 179.08 10.4
3 -1 -10 171.18 9.1
3 -1 -10 174.88 8
-3 1 -10 183.18 13.1
3 1 10 182.78 9.6
-3 1 -10 185.28 11.9
-3 -1 10 181.88 10
3 1 10 184.08 12.9
3 -1 -10 173.78 8.9
-3 1 -10 164.78 13
-4 -1 -10 1300.27 45.1
4 1 -10 1273.67 34.8
4 -1 10 1171.28 47.3
-4 -1 -10 1275.57 40.7
4 1 -10 1239.38 37.6
4 -1 10 1255.07 37.8
-4 -1 10 1241.68 37.9
-4 1 -10 1194.48 44.2
4 -1 -10 1248.28 38
-4 1 -10 1319.27 40.2
4 1 10 1260.87 38
-4 -1 10 1277.37 37.8
4 -1 -10 1229.28 36.3
4 -1 -10 1218.58 35.5
-5 -1 -10 513.45 25.5
5 1 -10 545.55 19.9
-5 -1 -10 547.45 22
5 -1 10 527.85 19.9
5 1 -10 534.65 16.2
5 -1 -10 523.95 17.1
-5 -1 10 530.75 18.4
5 -1 -10 525.95 18.8
5 -1 -10 533.65 19.9
5 1 10 550.14 20.1
-5 -1 10 471.15 18
-5 1 -10 550.24 21.4
-5 1 -10 509.95 25.5
-6 -1 -10 706.03 27.7
6 -1 10 720.33 25.2
6 1 -10 723.33 25.3
-6 -1 -10 645.04 30.8
6 1 -10 699.13 20.6
-6 1 -10 714.13 31.9
-6 -1 10 728.63 22
6 -1 -10 685.33 25.1
6 -1 -10 687.83 21.6
-6 -1 10 715.93 23
6 1 10 671.43 24.8
-6 1 -10 729.53 27.3
6 -1 -10 698.33 24.3
-7 -1 -10 213.08 15.1
7 -1 10 202.98 12.2
7 1 -10 215.48 12.7
7 1 -10 210.58 8.3
7 1 10 225.88 12.6
7 -1 -10 243.88 13
7 -1 -10 228.48 13.2
-7 -1 10 218.48 7.8
-7 -1 10 226.08 9.5
-7 1 -10 204.48 16.6
7 -1 -10 224.58 9.6
-7 1 -10 202.48 14.5
8 1 -10 35.3 6.8
8 1 -10 31.9 3.4
-8 -1 -10 26.1 8.1
8 -1 10 36.1 6.5
8 1 10 30.4 6.4
8 -1 -10 28.6 6.2
8 -1 -10 36.9 4.4
-8 1 -10 22.1 7.8
8 -1 -10 36.7 7
-9 -1 -10 56.39 10.6
9 -1 10 46.7 7.6
9 1 -10 44.3 4.1
9 1 -10 70.39 9.4
9 1 10 39.4 6.8
-9 1 -10 52.89 10
9 -1 -10 48.8 8.3
9 -1 -10 46.9 5
10 1 -10 3.9 6.3
10 -1 10 4.9 5.9
-10 -1 -10 10 8.4
10 1 -10 6.6 2.7
10 -1 -10 5.7 3.2
-10 1 -10 6.9 8
10 1 10 5.4 5.3
10 -1 -10 -1.2 5.7
11 1 -10 95.99 7.1
-11 -1 -10 93.89 14.6
11 1 -10 105.99 13
11 -1 10 91.19 11.6
-11 1 -10 91.69 12.8
11 -1 -10 97.99 8.2
11 1 10 116.89 12.1
11 -1 -10 100.09 13
-11 -1 10 90.49 12.6
12 1 -10 47.9 10.2
-12 1 10 58.89 12.4
-12 -1 -10 38.9 12.4
12 -1 10 78.09 10.7
-12 -1 10 45.6 10.8
12 -1 -10 69.89 11.7
-12 1 -10 39.9 12.1
12 1 10 64.49 9.9
0 -2 10 3140.69 89.29
0 2 -10 3128.19 84.29
0 -2 -10 3194.58 84.59
0 -2 -10 3116.49 85.89
0 2 10 3173.18 90.09
0 2 -10 3275.77 84.99
0 2 10 3130.79 90.39
0 -2 10 3119.79 89.09
0 2 -10 3023 89.09
0 -2 -10 3149.58 90.39
1 -2 10 3161.48 90.29
-1 -2 -10 3142.79 86.79
1 2 -10 3065.49 88.39
1 -2 10 3183.68 90.59
-1 -2 -10 3169.68 91.59
1 2 -10 3163.88 84.69
-1 2 10 3142.29 90.29
1 2 -10 3007.8 83.89
-1 -2 -10 3142.49 84.99
-1 2 -10 3177.08 84.99
-1 -2 10 3132.99 88.39
-1 -2 10 3179.38 88.79
1 2 10 3224.78 91.59
1 -2 -10 3091.09 84.59
1 -2 -10 3172.18 85.99
1 2 10 3089.19 90.49
1 -2 -10 3233.48 90.19
-1 2 -10 3255.37 91.09
-1 2 -10 3233.98 85.99
2 2 -10 917.21 30
-2 2 10 918.31 32.3
-2 -2 -10 851.81 33.4
2 -2 10 889.11 32.9
2 2 -10 934.31 26.5
2 2 -10 889.21 27.5
-2 -2 -10 857.71 30.3
2 -2 10 938.01 33.5
-2 -2 -10 909.71 28.1
2 -2 -10 918.31 28.3
2 2 10 891.51 33
-2 2 -10 917.61 29.7
-2 2 -10 964.7 28.3
2 -2 -10 911.51 27.3
-2 -2 10 924.01 30.2
2 -2 -10 884.31 28.6
-2 -2 10 883.21 29.8
2 2 10 896.71 33.3
-2 2 -10 914.01 33.8
3 -2 10 856.31 32
3 2 -10 795.42 23.7
-3 -2 -10 786.22 28.6
3 2 -10 817.02 25.7
-3 2 10 847.32 38.7
3 -2 10 836.62 31.9
-3 -2 -10 814.82 32.4
3 2 10 855.51 26.8
3 2 10 780.12 31
3 -2 -10 815.92 24.9
3 -2 -10 832.52 26.9
-3 2 -10 833.72 32.4
-3 2 -10 855.71 26.4
-3 -2 10 814.12 27.1
-3 -2 10 812.52 26.8
3 -2 -10 796.32 24.8
-3 2 -10 809.72 28
4 -2 10 605.84 26.9
4 -2 10 602.74 20.8
-4 -2 -10 576.24 26.5
4 2 -10 580.04 20.2
4 2 -10 583.14 17.5
-4 -2 -10 610.64 24.1
4 -2 -10 597.14 19
4 -2 -10 579.74 19.7
-4 2 -10 592.94 22.6
4 2 10 556.84 20.7
4 -2 -10 571.04 21
-4 2 -10 600.64 26.8
-4 -2 10 562.64 19.9
-4 -2 10 572.64 19.8
5 -2 10 1267.77 39.3
5 2 -10 1290.17 34.8
-5 -2 -10 1321.27 47.1
-5 -2 -10 1314.47 42
5 2 -10 1384.26 39.3
5 2 10 1217.48 38.9
-5 -2 10 1203.88 36
-5 2 -10 1293.87 46.5
5 -2 -10 1240.08 36.5
5 -2 -10 1228.08 38.1
-5 -2 10 1261.07 36.1
-5 2 -10 1291.67 40.7
5 -2 -10 1262.97 39.4
-6 -2 -10 513.05 26.2
6 2 -10 519.75 15.5
6 2 -10 533.95 20.3
-6 -2 -10 499.55 23.1
6 -2 10 520.75 20.4
6 -2 -10 512.95 19.7
-6 2 -10 496.65 25.9
6 2 10 554.54 20.7
6 -2 -10 528.05 20.9
6 -2 -10 514.45 17.6
-6 2 -10 518.35 21.9
-7 -2 -10 156.58 12.3
7 2 -10 145.99 5.9
7 -2 10 140.39 10.6
7 2 -10 148.89 10.3
7 2 10 142.49 10.4
7 -2 -10 134.29 7.8
-7 2 -10 124.79 13.7
7 -2 -10 142.99 10
-7 2 -10 146.39 12.4
7 -2 -10 154.78 10.2
8 -2 10 17.1 5.4
8 2 -10 20.2 5.6
8 2 -10 15.7 2.3
-8 -2 -10 21.9 8.2
-8 2 -10 17.1 7.2
8 -2 -10 21.5 3.8
8 -2 -10 19.1 5.8
8 -2 -10 21.1 5.7
8 2 10 11.5 4.7
-9 -2 -10 60.69 10.8
9 2 -10 75.99 9.6
9 2 -10 71.19 4.4
9 -2 10 77.49 9.3
-9 2 -10 53.79 10.1
9 -2 -10 69.19 9.5
9 -2 -10 54.39 8.8
9 2 10 58.49 8.3
9 -2 -10 66.69 6.3
-10 -2 -10 129.49 15.4
10 -2 10 161.08 12.7
10 2 -10 150.88 14.3
10 2 -10 144.89 7
10 -2 -10 131.89 13.7
10 -2 -10 152.98 9.3
-10 2 -10 139.69 14.5
10 2 10 157.28 12.7
11 2 -10 9.9 6.9
-11 -2 -10 -2.9 8.7
11 -2 10 7.4 6.1
11 2 -10 12.5 3.2
11 -2 -10 10.6 4.3
11 2 10 19.3 6.9
11 -2 -10 6.8 7
-11 2 -10 21.8 9.8
-11 -2 10 14.4 7.9
12 -2 10 58.59 10.1
12 2 -10 65.79 11.1
-12 -2 -10 36.9 12.6
-12 2 10 66.29 12.7
-12 2 -10 51.59 12.3
12 -2 -10 62.49 11.6
12 2 10 63.29 10.1
0 3 10 3136.69 89.59
0 -3 -10 3092.19 84.59
0 3 -10 2998.4 82.49
0 -3 10 3095.49 87.89
0 -3 -10 3118.59 82.69
0 -3 10 3128.59 87.79
0 -3 -10 3134.89 83.19
0 3 -10 2862.91 87.29
0 3 -10 3043.5 82.59
0 -3 -10 3170.08 89.59
-1 -3 -10 857.81 26.5
-1 -3 -10 872.01 32.5
-1 3 10 841.42 31.2
1 3 -10 822.02 25.3
1 3 -10 834.42 31.8
1 -3 10 819.72 30.6
1 -3 10 853.51 31
-1 -3 -10 859.01 26.4
-1 -3 -10 849.72 28.2
1 3 -10 836.12 25.1
-1 -3 10 821.72 28.9
1 3 10 830.72 31.7
-1 3 -10 772.82 30.4
1 -3 -10 830.12 25.9
1 -3 -10 821.12 30.7
-1 3 -10 882.11 26.2
1 -3 -10 809.02 25.2
-1 -3 10 830.72 29.1
1 3 10 874.81 31.8
-1 3 -10 849.41 26.6
1 -3 -10 846.52 27.3
-2 3 10 1059.39 37.3
2 3 -10 1051.29 29.7
-2 -3 -10 1033.6 32.1
2 -3 10 1017.9 36.7
2 3 -10 1056.39 30.6
2 -3 10 965.1 36.2
-2 -3 -10 992.3 33.8
-2 -3 -10 1031.7 37.7
-2 3 -10 985.8 36.8
-2 3 -10 1040.5 32.8
-2 -3 10 995.4 32.9
2 -3 -10 1021.7 30.3
2 3 10 1041.1 32
2 3 10 1049.79 37
2 -3 -10 1024.7 32
-2 3 -10 1072.49 31.6
-2 -3 10 1051.69 33.5
2 -3 -10 1051.39 30.9
3 -3 10 71.89 9.3
3 -3 10 81.79 10.2
-3 -3 -10 68.09 9.4
3 3 -10 74.89 5.8
-3 -3 -10 74.49 8.3
-3 -3 -10 75.59 10.3
3 3 -10 74.79 4.6
3 -3 -10 85.69 6.1
-3 3 -10 86.39 8.6
3 -3 -10 77.39 7.4
3 3 10 93.29 7.9
3 -3 -10 80.29 5.8
-3 3 -10 87.79 6.6
-3 3 -10 84.09 10.3
-3 -3 10 76.19 6.7
3 3 10 66.39 10.9
-3 -3 10 84.79 6.7
4 3 -10 179.18 9.8
4 -3 10 210.18 17.1
4 3 -10 188.48 7.4
-4 -3 -10 213.28 15.4
4 -3 10 223.58 11
-4 -3 -10 183.18 12.6
-4 -3 10 195.68 9.1
4 -3 -10 190.08 9.4
-4 3 -10 177.08 14.1
-4 3 -10 200.98 13
4 -3 -10 219.78 11.3
-4 -3 10 175.88 9.2
4 -3 -10 207.98 9.2
4 3 10 206.48 11.1
5 3 -10 697.83 24
5 -3 10 756.52 25.3
-5 -3 -10 693.43 31
5 3 -10 706.53 20.1
-5 -3 -10 717.23 28.2
5 -3 -10 726.53 23
5 -3 -10 695.03 24.1
-5 3 -10 733.63 26.2
-5 3 -10 744.03 31.7
5 -3 -10 710.13 25.3
5 3 10 684.83 24.6
-5 -3 10 677.23 20.5
-5 -3 10 713.03 20.4
-6 -3 -10 150.18 14.3
6 3 -10 153.88 9.8
6 3 -10 157.98 5.8
-6 -3 -10 159.28 14
6 -3 10 149.69 10.5
6 3 10 129.29 9.9
6 -3 -10 147.49 10.6
-6 3 -10 150.68 14.4
6 -3 -10 145.09 8.3
6 -3 -10 166.28 10.1
-6 3 -10 175.38 12.3
-7 -3 -10 31.6 7.7
7 3 -10 37.5 6.1
7 -3 10 45.2 6.8
7 3 -10 38.3 2.7
7 -3 -10 46.9 7.3
7 -3 -10 28.1 5.7
7 -3 -10 36.3 4.9
-7 3 -10 47.4 9.9
-7 3 -10 37.5 7.9
7 3 10 45.9 6.7
-8 -3 -10 30.3 9.2
8 -3 10 46 7.3
8 3 -10 36.3 2.7
8 3 -10 29.4 6.3
8 -3 -10 31.4 6.7
8 3 10 45.4 7.1
8 -3 -10 31.4 4.7
8 -3 -10 35.5 6.8
-8 3 -10 38.4 8.3
9 3 -10 34.4 7.2
9 3 -10 23.6 2.5
9 -3 10 18 6
-9 -3 -10 24.4 7.8
9 -3 -10 25.1 4.5
9 -3 -10 26 7
9 3 10 17 5.9
9 -3 -10 18.9 6.4
-9 3 -10 28.6 8.4
10 3 -10 18.6 6.7
-10 -3 -10 18.3 9.6
10 3 -10 18.8 2.7
10 -3 10 20 7.3
-10 -3 10 17.4 7.2
-10 3 -10 24.9 9.2
10 -3 -10 22.8 8
10 -3 -10 13.8 7.1
10 -3 -10 16.8 4.5
10 3 10 16.8 6.3
11 -3 10 191.48 15.3
11 3 -10 167.28 7.7
-11 -3 -10 185.08 19.1
11 3 -10 176.08 14.8
11 -3 -10 184.88 15.8
-11 -3 10 197.68 15.9
11 3 10 198.08 14.6
11 -3 -10 178.58 11.3
-11 3 -10 174.08 17.4
12 -3 10 26.7 7.6
-12 3 10 16.5 9
12 3 -10 16.2 3.2
-12 -3 -10 11.1 11.5
12 3 -10 23.4 8.2
-12 -3 10 37.3 9.6
-12 3 -10 18.2 10.7
12 3 10 18.2 7.3
12 -3 -10 20.9 8.4
0 -4 10 540.05 22.4
0 -4 -10 502.55 18.3
0 4 -10 523.55 17.7
0 -4 10 505.95 21.6
0 -4 -10 507.65 23.2
0 -4 -10 498.45 19.3
0 -4 -10 544.85 18.2
0 4 10 542.05 23.9
-1 4 10 1078.99 39
-1 -4 -10 1056.79 34.9
1 4 -10 1122.59 32.3
-1 -4 -10 1144.19 40.1
1 -4 10 1115.29 38.4
-1 -4 -10 1076.99 33.9
-1 -4 -10 1085.49 39.4
-1 -4 -10 1157.28 35.4
1 -4 10 1182.48 45.3
1 4 10 1112.59 39.5
-1 4 -10 1109.49 33.1
-1 -4 10 1117.29 36.4
1 -4 -10 1070.79 32.8
1 -4 -10 1092.19 33
-1 -4 10 1111.09 36.5
-1 4 -10 1099.99 33.1
1 -4 -10 1119.99 34.3
1 -4 -10 1056.99 38.9
-2 -4 -10 64.99 9.7
-2 -4 -10 64.89 8.2
-2 -4 -10 69.79 8.8
2 4 -10 72.79 5
2 -4 10 75.89 9.6
2 4 -10 69.19 5.4
-2 -4 10 73.79 7
2 -4 -10 69.09 5.9
2 -4 -10 63.89 5.6
2 4 10 63.19 8.9
-2 4 -10 75.59 6.2
2 4 10 79.69 7.4
-2 -4 10 71.49 6.8
-2 4 -10 69.09 7.3
2 -4 -10 61.89 6.8
3 -4 10 286.77 17.1
3 4 -10 251.67 10.8
-3 -4 -10 263.87 13.9
-3 -4 -10 277.77 15.8
-3 -4 -10 265.07 17.1
3 4 -10 279.07 9.8
-3 4 -10 247.78 13.2
-3 -4 10 258.37 11.9
3 4 10 281.27 12.8
-3 -4 10 264.07 12.3
3 -4 -10 281.07 11.6
3 -4 -10 273.97 11.4
-3 4 -10 247.28 11.7
3 -4 -10 241.48 12.4
-4 -4 -10 77.99 10.6
4 4 -10 89.69 6.9
-4 -4 -10 99.89 11.6
4 4 -10 101.19 4.9
-4 -4 10 85.09 5.9
4 -4 -10 98.49 7
4 -4 -10 82.99 8.1
-4 -4 10 84.49 6.2
-4 4 -10 100.79 9.3
4 -4 -10 90.89 6.7
4 4 10 89.99 7.7
-5 -4 -10 41.9 8.9
5 4 -10 45.9 6
-5 -4 -10 52.09 9.8
5 4 -10 44.4 3.3
5 -4 -10 51.39 5.7
5 -4 -10 57.49 6.5
5 -4 -10 52.09 6.5
-5 4 -10 49 7.5
5 4 10 59.59 7.3
-6 -4 -10 314.37 20.1
-6 -4 -10 307.77 17.3
6 4 -10 290.87 13.7
6 4 -10 299.97 9.1
6 4 10 281.37 14.2
6 -4 -10 301.17 14.3
-6 4 -10 301.67 15.8
6 -4 -10 303.97 15.2
6 -4 -10 284.77 12.6
7 -4 10 241.18 15.2
7 4 -10 276.87 13.9
-7 -4 -10 250.57 17.8
7 4 -10 257.07 8.1
7 -4 -10 295.87 14.8
7 4 10 288.07 14.7
-7 4 -10 287.87 15.9
7 -4 -10 297.17 15.4
7 -4 -10 274.27 12.4
8 4 -10 74.29 8.7
-8 -4 -10 63.49 11.3
8 -4 10 67.29 8.3
8 4 -10 72.19 3
8 -4 -10 60.29 6.6
8 -4 -10 68.99 9.1
8 4 10 68.79 8.6
8 -4 -10 73.19 9.1
-8 4 -10 53.69 9.1
-9 -4 -10 40.6 9.3
9 4 -10 32.1 2.5
9 -4 10 43.8 7.8
9 4 -10 42.8 8.2
9 -4 -10 34.6 7.7
-9 4 -10 41.2 9.1
9 4 10 37 7.6
9 -4 -10 32.6 7.5
9 -4 -10 35.7 5.7
-10 -4 -10 226.08 19.7
10 4 -10 229.18 15.5
10 -4 10 232.38 15.9
10 4 -10 216.28 7.6
10 -4 -10 226.58 12.6
10 -4 -10 211.28 15.6
10 4 10 257.07 15.4
10 -4 -10 234.08 16.4
-10 -4 10 235.48 16.1
-10 4 -10 205.98 18
11 -4 10 17.8 7.2
11 4 -10 13.1 2.8
-11 -4 -10 6.5 10.4
11 4 -10 27.6 8.6
-11 4 -10 8.7 8.9
11 -4 -10 8.6 7.2
11 -4 -10 16.5 7.9
-11 -4 10 12.7 7.9
11 4 10 15.6 6.6
11 -4 -10 9.2 4.9
-12 -4 -10 31.1 12.9
-12 -4 10 53.99 10.4
-12 4 -10 39 12.3
12 4 10 36.7 8.5
12 -4 -10 33.3 9.7
0 -5 -10 12.8 5.9
0 5 10 14.9 6.4
0 5 -10 20.1 3.9
0 -5 10 8.1 4.5
0 -5 -10 17.1 4.6
0 -5 -10 7.1 3.7
0 -5 -10 12.9 3.4
-1 -5 -10 53.19 8.8
-1 -5 -10 57.29 7.1
1 5 -10 42.4 4.6
1 -5 10 52.09 8.1
-1 -5 -10 54.59 7.2
-1 -5 -10 51.09 9.8
-1 -5 10 49.7 7
1 5 10 71.59 7.2
-1 5 -10 60.49 6
1 -5 -10 55.69 6.1
1 -5 -10 51.19 6.5
1 -5 -10 55.69 5.8
2 -5 10 260.17 16.1
-2 -5 -10 249.38 14.4
-2 -5 -10 258.47 16.9
-2 -5 -10 266.57 14.5
2 5 -10 268.67 10.2
2 -5 -10 257.47 11.6
2 -5 -10 265.77 12.6
2 -5 -10 260.07 11.5
-2 -5 10 242.28 12.8
-2 5 -10 234.08 12.2
2 5 10 275.07 12.9
-2 5 -10 268.77 12
-3 -5 -10 33.1 8
-3 -5 -10 19.8 7.5
3 -5 10 22 7
-3 -5 -10 24.2 6.9
3 5 -10 25.8 3.3
3 -5 -10 41.7 5.6
-3 5 -10 34 6.2
3 -5 -10 29 4.3
3 5 10 29.4 5.7
-3 5 -10 39.1 5.5
-3 -5 10 29.2 4.6
3 -5 -10 32.7 4.9
4 5 -10 71.09 4.5
-4 -5 -10 94.29 10.4
-4 -5 -10 62.79 10
-4 -5 -10 68.09 10.8
4 -5 -10 67.59 7.2
4 -5 -10 56.69 6.4
4 5 10 59.59 7.1
-4 -5 10 58.29 5.2
4 -5 -10 69.39 6.5
-4 -5 10 61.39 5.4
-4 5 -10 70.39 8.6
-5 -5 -10 576.94 26.2
-5 -5 -10 559.24 28.4
5 5 -10 594.64 17.4
-5 5 10 579.34 26
5 5 10 619.54 22.6
-5 5 -10 595.44 22.8
5 -5 -10 605.64 21
5 -5 -10 607.54 22
5 -5 -10 619.54 23.1
-6 -5 -10 312.07 19.3
6 5 -10 310.27 9.5
-6 5 -10 294.57 15.7
6 -5 -10 305.07 15.6
6 -5 -10 303.17 14.9
6 5 10 317.37 15.5
6 -5 -10 309.97 13.7
7 5 -10 394.16 10.9
-7 -5 -10 380.16 21.8
7 5 10 390.66 18
7 -5 -10 379.96 17.7
-7 5 -10 391.46 19.4
7 -5 -10 371.96 15.9
7 -5 -10 363.86 18.1
-8 -5 -10 90.39 13.3
8 -5 -10 121.69 10.1
8 -5 -10 115.19 8.8
8 -5 -10 122.89 10.6
8 5 10 131.79 11
-8 5 -10 98.09 11.3
-9 -5 -10 434.96 25.4
9 5 10 449.76 20.9
9 -5 -10 462.35 21.8
9 -5 -10 456.85 18.9
9 -5 -10 450.25 22.2
-9 5 -10 457.85 23.3
-10 -5 -10 67.09 14
10 5 10 64.39 9.5
10 -5 -10 65.19 7.9
10 -5 -10 46.6 9.7
-10 5 -10 45.3 10.2
10 -5 -10 51.99 9.8
-11 -5 -10 289.97 23.6
11 -5 -10 285.87 18.4
11 -5 -10 303.77 15.9
-11 5 -10 280.87 20.2
11 5 10 294.47 17.9
11 -5 -10 270.77 18.7
0 -6 10 31.8 6.6
0 -6 -10 33.4 6.1
0 6 -10 39.9 4.9
0 -6 -10 41.1 5.2
0 -6 -10 28.5 5.7
0 -6 -10 31.7 9.1
-1 -6 -10 62.29 7.9
-1 -6 -10 72.49 8.4
1 -6 10 64.29 9.5
1 6 -10 71.09 5.8
-1 -6 -10 66.29 10.2
1 -6 -10 71.69 6.2
1 -6 -10 73.99 6.5
-1 -6 10 82.79 8.4
-1 6 -10 82.49 6.9
1 -6 -10 81.59 7.7
1 6 10 88.49 8.3
-2 -6 -10 1 5.6
2 6 -10 0.1 2.3
2 -6 10 5.1 5.3
-2 -6 -10 5.9 5.9
-2 -6 -10 4 5.8
2 -6 -10 2.3 3.5
2 6 10 -0.2 3.8
-2 -6 10 1.4 3.6
2 -6 -10 4.6 3.1
2 -6 -10 -1.7 3.1
-2 6 -10 0.9 3
-3 -6 -10 120.49 12.8
3 6 -10 119.09 6.4
-3 -6 -10 110.29 11.5
-3 -6 -10 124.19 11.9
3 -6 10 130.89 12.9
3 -6 -10 109.89 8
-3 6 -10 114.39 8.2
-3 -6 10 108.39 8.1
3 6 10 121.89 9.3
3 -6 -10 97.49 7.4
3 -6 -10 107.89 8
-4 -6 -10 909.21 37.9
-4 -6 -10 925.11 34
-4 6 10 970.4 36.9
-4 -6 -10 940.21 34.7
4 6 -10 990.2 27.5
4 6 10 961.3 31.7
4 -6 -10 945.21 31.1
4 -6 -10 959 31.8
-4 -6 10 967.2 29.2
4 -6 -10 921.51 30.4
-5 -6 -10 171.08 15.5
-5 -6 -10 209.78 16.6
5 6 -10 198.48 7.7
-5 -6 -10 173.38 14.4
5 -6 -10 199.28 10.9
5 -6 -10 197.78 11.4
5 6 10 190.88 12.2
5 -6 -10 197.58 12.1
-6 -6 -10 360.16 21.5
6 6 -10 391.86 12.2
6 6 10 408.36 18
6 -6 -10 401.56 16.7
6 -6 -10 402.46 17.8
6 -6 -10 417.06 18.5
-6 6 -10 396.26 18.1
7 6 -10 163.88 5.7
-7 -6 -10 143.19 15.5
7 -6 -10 150.38 11.6
7 -6 -10 155.48 10.1
7 6 10 149.39 11.1
-7 6 -10 146.59 12.1
7 -6 -10 164.98 11.5
-8 -6 -10 454.05 25.2
8 -6 -10 451.75 20.9
-8 6 -10 441.16 21.3
8 -6 -10 453.55 18.9
8 6 10 484.25 20.9
8 -6 -10 444.36 20.9
-9 -6 -10 37.3 11.6
9 -6 -10 37.8 8.2
9 -6 -10 42.7 8.5
9 6 10 43.1 8.2
9 -6 -10 41.5 6.8
-9 6 -10 40.7 9.2
-10 -6 -10 289.07 23.1
-10 6 -10 339.17 21.4
10 -6 -10 314.27 19
10 -6 -10 299.17 16.1
10 -6 -10 321.27 19.5
10 6 10 322.17 18.1
-11 -6 -10 94.39 16.6
11 6 10 91.69 11.6
-11 6 -10 73.19 12.9
11 -6 -10 80.39 12.4
11 -6 -10 83.29 9.6
11 -6 -10 82.49 12.1
0 -7 -10 102.99 9.6
0 7 -10 126.79 8
0 -7 10 108.79 11.2
0 -7 -10 105.19 8.9
1 -7 10 16.3 6
1 7 -10 16.5 3.8
-1 -7 -10 17.2 7.3
-1 -7 -10 11.5 5.4
-1 -7 -10 5.2 5.6
-1 -7 10 9.2 5
1 7 10 18.2 5.5
1 -7 -10 18.2 4.4
-1 7 -10 9.4 3.7
1 -7 -10 10.8 4.8
1 -7 -10 13.4 4
-2 -7 -10 278.97 15.8
-2 -7 -10 267.27 14.8
2 7 -10 280.27 11.4
-2 -7 -10 267.37 18.3
2 -7 10 257.07 17.2
-2 7 -10 249.18 12.5
2 -7 -10 265.17 12.5
2 7 10 238.88 13.5
2 -7 -10 246.68 12.8
-2 -7 10 269.27 14.4
2 -7 -10 267.07 13.1
-3 -7 -10 377.96 19.4
-3 -7 -10 374.56 19.1
-3 -7 -10 370.06 22.1
3 7 -10 395.56 14.2
3 -7 10 395.56 22.3
3 -7 -10 365.26 16.5
3 -7 -10 393.56 16.7
3 7 10 390.46 17.4
3 -7 -10 417.26 16.6
-3 7 -10 427.16 17.1
-3 -7 10 393.66 16.7
4 7 -10 273.77 10.4
-4 7 10 250.37 17.6
-4 -7 -10 284.07 19.8
-4 -7 -10 253.77 16.7
-4 -7 -10 241.88 16.5
4 7 10 244.38 14
4 -7 -10 244.18 12.8
4 -7 -10 301.27 14
4 -7 -10 248.48 13.5
5 7 -10 381.36 12.8
-5 -7 -10 352.16 20.2
-5 -7 -10 352.46 20.6
5 -7 -10 385.86 17.5
5 -7 -10 387.86 16.4
5 -7 -10 377.46 17
5 7 10 385.36 17.4
-6 -7 -10 223.78 16.7
-6 -7 -10 192.78 17.4
6 7 -10 212.08 8.1
6 -7 -10 231.88 12.4
6 7 10 198.88 13.2
6 -7 -10 209.38 12.7
6 -7 -10 196.78 12.8
-7 -7 -10 153.18 16.2
-7 -7 -10 172.58 17.1
7 7 -10 158.58 6.3
7 -7 -10 149.69 10.6
7 7 10 166.48 12.2
7 -7 -10 153.18 11.7
7 -7 -10 143.69 11.3
-8 -7 -10 36.4 11.1
8 7 -10 45.8 3.2
8 -7 -10 40.6 7.9
8 -7 -10 54.29 7.4
8 -7 -10 57.99 8.8
8 7 10 58.59 8.5
-9 -7 -10 111.79 16.4
9 7 10 147.99 12.8
9 -7 -10 140.39 11.1
9 -7 -10 153.58 13.1
9 -7 -10 131.69 13.7
-10 -7 -10 32.2 13.1
10 -7 -10 34.2 7.2
10 -7 -10 32.7 8.5
10 -7 -10 48.6 10.6
10 7 10 45.5 9
-11 -7 -10 146.39 19.4
11 -7 -10 123.29 15.1
11 -7 -10 140.39 15.7
11 -7 -10 153.68 12.2
11 7 10 130.89 13.4
0 -8 -10 142.89 10.1
0 -8 -10 147.29 11.1
0 8 -10 135.39 9
0 -8 10 148.39 13
-1 -8 -10 277.97 15.3
-1 -8 -10 257.37 13.7
1 -8 10 273.07 17.8
1 8 -10 277.37 12.4
-1 8 -10 230.08 12.1
1 -8 -10 250.37 13.7
1 -8 -10 258.07 13.2
-1 -8 10 252.27 15.3
-2 -8 -10 125.29 10.9
-2 -8 -10 125.39 12.3
-2 -8 -10 119.29 13.8
2 8 -10 128.89 8.2
2 -8 10 121.19 13.8
2 8 10 132.99 11.1
-2 8 -10 137.89 9.2
2 -8 -10 130.99 9.9
2 -8 -10 133.79 9.6
-3 -8 -10 118.99 11.7
-3 -8 -10 137.49 13.4
3 -8 10 115.79 13.6
-3 -8 -10 120.49 13.8
-3 8 10 124.59 14.4
3 8 -10 108.49 7.4
-3 8 -10 110.79 9.3
3 -8 -10 129.09 9.7
3 -8 -10 123.09 9.3
3 8 10 130.69 11.1
3 -8 -10 118.09 9.3
-4 -8 -10 157.18 14.9
-4 -8 -10 163.18 14
4 8 -10 157.98 8.3
-4 8 10 178.48 15.8
4 -8 -10 169.98 11.2
4 -8 -10 170.18 11.1
4 -8 -10 165.08 10.6
4 8 10 165.28 12.2
-5 -8 -10 69.09 11.8
-5 -8 -10 46 10
5 8 -10 47.9 4.7
5 -8 -10 45.3 7.2
5 8 10 56.79 8.1
5 -8 -10 54.69 7.6
5 -8 -10 61.99 7.4
-6 -8 -10 146.49 15.7
6 8 -10 166.58 7.4
-6 -8 -10 165.98 16
6 -8 -10 139.39 11
6 -8 -10 147.09 11.2
6 8 10 157.58 12.3
6 -8 -10 151.28 10.8
-7 -8 -10 129.79 15.6
7 8 -10 132.09 6.3
-7 -8 -10 108.49 14.6
7 -8 -10 148.09 11.6
7 -8 -10 124.39 10.2
7 -8 -10 137.89 11.4
7 8 10 135.79 11.8
-8 -8 -10 55.49 13.7
8 8 -10 53.59 4.1
-8 -8 -10 48.2 12.1
8 -8 -10 58.69 8
8 -8 -10 54.09 9.8
8 -8 -10 75.89 10
8 8 10 60.89 9.3
-9 -8 -10 8.6 10.8
-9 -8 -10 -4.3 9.4
9 8 10 1 5.9
9 -8 -10 1.4 4.8
9 -8 -10 4.3 5.6
9 -8 -10 4.3 6.1
-10 -8 -10 49.7 14.2
10 -8 -10 94.19 13
10 8 10 79.19 10.8
10 -8 -10 71.59 9.7
10 -8 -10 81.09 11.8
0 -9 -10 -3 5
0 9 -10 3.7 3.9
0 -9 -10 -1.6 3.8
-1 -9 -10 348.97 17.8
-1 -9 -10 333.77 15.8
1 9 -10 358.06 14.9
1 -9 10 338.67 23.5
1 -9 -10 320.77 15.2
1 -9 -10 323.47 16.4
-1 9 -10 332.17 15.2
2 9 -10 403.66 16.1
-2 -9 -10 398.96 20.3
-2 -9 -10 428.56 26.2
-2 -9 -10 432.66 19.2
2 -9 10 432.66 24.2
-2 9 -10 382.16 17.1
2 9 10 379.26 18.7
2 -9 -10 384.46 18.1
2 -9 -10 417.16 17.5
-3 -9 -10 152.98 12.3
-3 -9 -10 137.59 13.9
-3 -9 -10 151.68 15.6
3 9 -10 132.69 8.6
3 -9 -10 142.79 10
3 -9 -10 140.19 10.5
3 9 10 132.09 11.1
-3 9 -10 119.79 9.9
-4 -9 -10 123.69 14.1
4 9 -10 102.29 7.3
-4 -9 -10 108.89 12.1
4 -9 -10 108.49 9.7
4 -9 -10 99.29 9
4 9 10 101.39 10.6
4 -9 -10 125.99 9.8
-5 -9 -10 341.27 21.2
5 9 -10 374.46 13.6
-5 -9 -10 361.16 20.3
5 -9 -10 379.76 17.4
5 -9 -10 324.57 16.1
5 -9 -10 335.97 17.4
5 9 10 332.77 17.4
-6 -9 -10 265.97 18.7
-6 -9 -10 244.58 19
6 9 -10 241.68 10.3
6 9 10 259.77 15.6
6 -9 -10 238.98 14.5
6 -9 -10 252.87 14
6 -9 -10 228.68 14
-7 -9 -10 295.17 21.5
7 9 -10 283.77 11
-7 -9 -10 267.17 20.4
7 9 10 272.77 16.5
7 -9 -10 276.67 16.4
7 -9 -10 283.17 16.3
7 -9 -10 304.77 16
-8 -9 -10 132.29 17
-8 -9 -10 103.29 15.7
8 9 -10 109.89 6.4
8 9 10 128.89 12.6
8 -9 -10 118.79 13
8 -9 -10 110.89 10.9
8 -9 -10 145.99 12.3
-9 -9 -10 42.9 13.9
-9 -9 -10 33.5 12.5
9 9 -10 51.39 4.3
9 -9 -10 61.99 10.7
9 -9 -10 51.69 8.5
9 9 10 53.29 9.1
9 -9 -10 52.59 9.3
-10 -9 -10 40.9 14.9
-10 -9 -10 25.6 12.6
10 -9 -10 54.59 10.9
10 -9 -10 33.9 7.4
10 9 10 34.4 8.6
10 -9 -10 54.39 10.1
0 -10 -10 415.86 19.4
0 -10 -10 389.06 17.4
0 10 -10 386.56 17.2
1 10 -10 35.2 6
-1 -10 -10 31.4 6.1
-1 -10 -10 52.59 9
1 -10 -10 27.2 7
1 -10 -10 35.7 6.1
-1 10 -10 23.3 5.6
2 10 -10 208.48 11.4
-2 -10 -10 202.68 12.6
-2 -10 -10 194.08 14.8
-2 10 -10 192.38 12.3
2 -10 -10 217.18 12
2 -10 -10 200.78 13.1
2 10 10 209.88 22.2
3 10 -10 177.38 10.4
-3 -10 -10 196.58 13.9
-3 -10 -10 157.88 15.2
3 10 10 168.58 13.3
3 -10 -10 193.98 12.7
3 -10 -10 192.58 11.5
-4 -10 -10 33.8 9.8
-4 -10 -10 14.2 7.8
4 10 -10 13.8 4.1
4 10 10 11.4 6.1
4 -10 -10 18.2 5.6
4 -10 -10 24.4 6.4
5 10 -10 83.09 7.1
-5 -10 -10 84.89 12.4
-5 -10 -10 87.79 13.4
5 -10 -10 90.69 9.9
5 10 10 110.09 11.3
5 -10 -10 105.39 10.9
-6 -10 -10 556.64 29
-6 -10 -10 544.35 27.4
6 10 -10 542.95 19
6 -10 -10 559.84 31.6
6 -10 -10 570.64 23.7
6 -10 -10 519.95 23.7
6 10 10 579.14 24.8
7 10 -10 211.98 9.9
-7 -10 -10 189.78 19.8
7 -10 -10 216.98 14.2
7 10 10 209.58 15.2
7 -10 -10 218.38 14.4
7 -10 -10 208.08 14.9
-8 -10 -10 160.58 19.8
8 10 -10 161.28 8.6
8 -10 -10 160.98 15.8
8 -10 -10 182.68 13.3
8 10 10 192.08 15.2
8 -10 -10 190.68 14.1
-9 -10 -10 41.9 13.2
9 10 -10 47.9 4.8
9 -10 -10 57.59 10.6
9 10 10 56.29 9.5
9 -10 -10 65.39 9.8
9 -10 -10 61.99 10
0 11 -10 94.09 9.4
0 -11 -10 81.39 10.5
-1 -11 -10 183.58 14.1
1 11 -10 168.98 11.2
-1 11 -10 168.58 11.5
1 -11 -10 177.28 13
-2 -11 -10 141.29 14.1
2 11 -10 146.29 10.2
-2 11 -10 151.58 11.1
2 -11 -10 129.39 11.4
3 11 -10 19.5 4.9
-3 -11 -10 35.8 9.8
3 -11 -10 29.1 6.9
3 -11 -10 32.5 5.9
3 11 10 37.9 8.3
4 11 -10 55.59 6.8
-4 -11 -10 64.29 12.1
4 11 10 66.59 9.9
4 -11 -10 72.99 9.6
4 -11 -10 74.69 8.8
-5 -11 -10 49.3 11.6
5 11 -10 29.1 5.3
5 -11 -10 29.1 7.3
5 -11 -10 33.8 6.7
5 11 10 35.5 8.4
-6 -11 -10 46 12.4
6 11 -10 37.8 5.6
6 11 10 45.7 9.2
6 -11 -10 46.3 9
6 -11 -10 29.5 6.8
-7 -11 -10 210.58 22.6
7 11 -10 257.17 12
7 11 10 282.47 17.8
7 -11 -10 266.67 17.2
7 -11 -10 251.57 15.8
8 11 -10 30.4 4.7
-8 -11 -10 43.2 13.7
8 11 10 43 9.3
8 -11 -10 48.3 10.2
8 -11 -10 33.9 8.3
-9 -11 -10 41.9 14.2
9 11 -10 40.4 5.1
9 11 10 59.79 10.3
9 -11 -10 67.49 11.8
9 -11 -10 63.69 10.2
0 12 -10 132.29 10.7
0 -12 -10 125.49 13.2
1 12 -10 315.77 15.9
-1 -12 -10 268.37 17.6
-1 12 -10 317.57 16.6
1 -12 -10 305.77 17.5
-2 -12 -10 58.09 10.9
2 12 -10 70.99 8.2
2 -12 -10 70.39 10
-2 12 -10 84.09 9.9
3 12 -10 92.79 8.9
-3 -12 -10 115.09 14.1
3 -12 -10 117.09 12.3
4 12 -10 79.89 8.4
-4 -12 -10 101.89 14.4
4 -12 -10 71.29 10.4
4 12 10 93.89 11.8
5 12 -10 74.09 7.8
-5 -12 -10 86.89 15.3
5 -12 -10 92.79 11.7
5 12 10 78.59 10.9
6 12 -10 157.38 10.4
-6 -12 -10 148.09 18.4
6 -12 -10 156.38 13.9
6 12 10 176.88 14.6
-7 -12 -10 2.7 10.4
7 12 -10 6 4
7 -12 -10 8.4 6.5
7 12 10 -4.3 6.4
-8 -12 -10 34 14.6
8 12 -10 39.2 5.7
8 -12 -10 46.1 9.8
8 12 10 40.4 9.6
0 13 -10 669.43 26.5
0 -13 -10 656.43 28.7
-1 -13 -10 181.88 15.4
1 13 -10 198.38 13.5
-1 13 -10 178.78 13.7
1 -13 -10 179.78 14.4
-2 -13 -10 365.76 21.5
2 13 -10 354.56 17.8
2 -13 -10 365.46 20
3 13 -10 51.39 7.7
-3 -13 -10 59.79 11.8
3 -13 -10 56.09 9.7
4 13 -10 223.78 13.4
-4 -13 -10 218.08 19
4 -13 -10 226.48 15.9
4 13 10 189.58 17.1
-5 -13 -10 37.4 12.1
5 13 -10 41.6 6.9
5 -13 -10 46.9 9.5
5 13 10 33.6 9.6
6 13 -10 29.1 6
-6 -13 -10 46.5 13.6
6 -13 -10 32.1 8.7
6 13 10 31.5 9.5
-7 -13 -10 62.59 15.1
7 13 -10 51.49 6.8
7 13 10 60.69 10.6
7 -13 -10 66.49 11.1
0 14 -10 60.19 9.2
0 -14 -10 80.69 11.8
1 14 -10 353.26 18.4
-1 -14 -10 312.37 20.2
-1 14 -10 333.57 18.8
1 -14 -10 305.17 19.2
-2 -14 -10 141.99 15.4
2 14 -10 106.59 11.2
2 -14 -10 116.29 13.4
3 14 -10 138.79 12
-3 -14 -10 118.29 15.6
3 -14 -10 151.58 14.9
4 14 -10 37.6 7.4
-4 -14 -10 39.7 11.7
4 -14 -10 38.5 9.3
5 14 -10 77.29 9.2
-5 -14 -10 62.69 13.6
5 -14 -10 70.19 11.5
5 14 10 79.89 12.4
-6 -14 -10 13.7 11.1
6 14 -10 15.4 5.8
6 -14 -10 17.4 8.1
6 14 10 7.6 8.1
0 15 -10 80.49 11.1
0 -15 -10 114.69 14.4
-1 -15 -10 41.2 10.4
1 15 -10 35.6 8.3
1 -15 -10 44.9 9.9
-1 15 -10 35.6 8.4
2 15 -10 75.29 10.3
-2 -15 -10 75.59 12.6
2 -15 -10 101.09 13
3 15 -10 23.8 7.4
-3 -15 -10 33.1 10.6
3 -15 -10 45 9.8
4 15 -10 116.49 11.9
-4 -15 -10 97.99 15.1
4 -15 -10 89.79 12.9
5 15 -10 3.7 5.5
0 -16 -10 16.9 7.9
0 16 -10 -2 6.3
1 16 -10 21 7.9
-1 -16 -10 20.8 8.8
1 -16 -10 41.3 9.5
-2 -16 -10 9.7 8.5
2 16 -10 0.7 5.8
2 -16 -10 4.7 6.2
0 0 -11 4.1 2.5
0 0 -11 -4.4 3.3
0 0 11 -1 3.6
0 0 -11 1.5 3.7
0 0 11 -2.1 3.1
-1 0 11 1308.67 43.9
1 0 -11 1352.06 40.5
-1 0 -11 1363.26 45.8
1 0 11 1395.56 45.7
1 0 -11 1364.36 39.4
-1 0 11 1432.46 44.4
1 0 11 1391.06 45.4
-1 0 -11 1358.26 41.3
-1 0 -11 1399.76 40.2
2 0 -11 91.19 5.8
2 0 11 99.19 10.1
-2 0 11 101.69 8.7
2 0 -11 101.99 7.3
-2 0 -11 99.29 7
2 0 11 87.89 9.6
-2 0 -11 95.79 9.4
-2 0 11 97.39 8.9
-2 0 -11 88.49 10
3 0 11 -0.5 4.2
3 0 11 4.1 3
-3 0 -11 1.5 4.5
3 0 -11 2.8 2.1
-3 0 -11 -0.5 5.2
-3 0 -11 7.3 6.1
-3 0 11 2.7 3.4
3 0 -11 -2.8 2.7
-4 0 -11 350.26 20
-4 0 -11 339.17 17.6
4 0 -11 311.37 14
4 0 11 305.77 13.9
-4 0 11 318.27 14.9
4 0 -11 336.27 12
-5 0 -11 12.2 6.4
-5 0 11 12.1 4.1
-5 0 -11 29.5 7.9
5 0 -11 7.3 4.2
5 0 11 7.1 4
5 0 -11 8 2.7
6 0 11 1429.26 44.7
6 0 -11 1449.65 40.7
-6 0 -11 1450.25 47.5
-6 0 -11 1460.35 52.99
6 0 -11 1471.95 45.2
7 0 -11 294.77 15.3
7 0 11 317.67 15.2
7 0 -11 272.77 19.1
-7 0 -11 289.97 17.7
7 0 -11 305.07 11.3
8 0 -11 181.08 12.5
-8 0 -11 169.18 15
8 0 -11 181.18 8.4
8 0 11 193.48 12.5
-9 0 -11 13.8 8.3
9 0 -11 14.6 6.1
9 0 -11 9.8 3
9 0 11 16.4 5.8
10 0 -11 910.31 35.6
-10 0 -11 912.71 37.8
10 0 -11 873.91 28.2
10 0 11 979.4 34.8
11 0 -11 37.6 9.2
11 0 -11 24.2 4.6
-11 0 -11 26.5 11.3
11 0 11 21.1 7.2
-12 0 -11 173.88 19.1
-12 0 11 174.68 18.5
12 0 -11 198.28 10.9
12 0 11 234.68 16.4
12 0 -11 218.38 17.3
0 1 -11 239.88 10.3
0 -1 11 252.27 14.3
0 -1 11 245.08 13.9
0 1 11 251.27 14.3
0 1 -11 228.98 11.2
0 -1 -11 243.48 14.6
0 1 -11 239.88 13.9
0 -1 -11 237.28 10.4
0 -1 -11 238.18 11.9
0 1 11 252.37 14.5
-1 -1 -11 37.2 7.2
1 -1 11 48 7.4
-1 1 11 46 7.1
-1 -1 -11 44.2 6.6
-1 1 11 49.1 7.3
-1 -1 -11 47.8 5.3
1 1 -11 53.09 5.8
1 1 -11 49.2 4.8
1 -1 11 48.4 7.5
-1 -1 11 52.79 7.1
1 -1 -11 51.49 5.7
1 -1 -11 54.89 5.2
-1 -1 11 46.1 6.9
-1 1 -11 56.39 8.1
-1 1 -11 45.8 5.1
1 1 11 44.3 7.5
-1 1 -11 42.4 6.3
1 1 11 55.69 8.1
1 -1 -11 52.59 9.8
2 1 -11 437.96 15.5
-2 -1 -11 449.36 16.7
-2 -1 -11 466.45 19.5
2 -1 11 481.15 21.9
-2 1 11 453.35 20.8
2 -1 11 461.15 21.6
-2 1 11 459.05 20
-2 -1 -11 467.65 22
2 1 -11 448.96 16.8
2 -1 -11 486.45 17.7
2 1 11 479.85 21.8
-2 -1 11 444.06 19.2
-2 1 -11 468.05 22.2
-2 -1 11 476.25 19.3
2 1 11 478.05 21.8
2 -1 -11 457.65 16
-2 1 -11 487.75 17.2
-2 1 -11 487.55 19.3
3 -1 11 91.59 12.6
-3 -1 -11 96.69 10.4
3 1 -11 87.99 6.9
3 1 -11 92.89 5.5
3 -1 11 94.39 10.2
-3 1 11 104.59 8.9
-3 -1 -11 85.69 10.8
3 -1 -11 78.09 7.4
-3 -1 11 86.89 8.2
3 -1 -11 78.69 5.5
-3 1 -11 83.39 9.5
3 1 11 74.59 9.7
-3 1 -11 93.49 6.7
3 -1 -11 82.39 5.4
3 1 11 81.19 6.9
-3 1 -11 82.09 9.4
-3 -1 11 72.79 7.1
-4 -1 -11 157.68 13.9
4 -1 11 166.78 9.5
-4 -1 -11 154.18 13.2
4 1 -11 153.58 9.3
4 1 -11 171.88 7.5
4 1 11 156.78 9.5
-4 1 -11 165.08 12.7
4 -1 -11 165.48 9.9
-4 1 -11 155.78 13.8
4 -1 -11 159.28 8
4 -1 -11 146.19 7.6
-4 -1 11 148.29 9.4
5 -1 11 1226.08 38.9
5 1 -11 1255.97 35.2
-5 -1 -11 1224.98 42.1
5 1 -11 1306.67 39.2
-5 -1 -11 1233.98 46.7
-5 -1 11 1268.57 37.9
5 -1 -11 1261.97 37.6
5 -1 -11 1264.17 39.4
5 -1 -11 1249.07 36.1
-5 1 -11 1272.57 41.6
-5 1 -11 1222.98 46.5
5 1 11 1259.87 39.2
6 1 -11 297.67 14.6
-6 -1 -11 300.77 17.9
-6 -1 -11 279.27 19.6
6 -1 11 278.77 14.2
6 1 -11 303.07 10.8
6 -1 -11 308.97 11.7
6 1 11 299.27 14.5
-6 1 -11 321.37 17.5
-6 1 -11 274.17 19.6
6 -1 -11 303.57 14.9
-6 -1 11 286.37 12
6 -1 -11 295.17 13.5
7 1 -11 375.86 17.2
-7 -1 -11 355.46 19.9
7 -1 11 365.26 16.8
7 1 -11 367.96 12.4
7 -1 -11 350.96 16.3
7 -1 -11 348.47 17.1
-7 1 -11 363.26 19.4
-7 1 -11 351.26 25.7
7 1 11 365.66 16.8
7 -1 -11 331.17 13.1
8 1 -11 48.7 7.6
8 -1 11 35 6.6
-8 -1 -11 27.1 9
8 1 -11 40.8 4
8 -1 -11 45 7.1
8 -1 -11 42.5 7.3
-8 1 -11 61.09 9.4
8 -1 -11 35.7 4.4
8 1 11 33.2 6.5
-9 -1 -11 373.26 21.9
9 1 -11 362.06 12.7
9 -1 11 349.67 17.7
9 1 -11 343.57 18.4
-9 1 -11 353.36 20.8
9 -1 -11 335.37 17.9
9 -1 -11 341.47 13.7
9 1 11 363.46 17.9
10 -1 11 30.7 7.9
10 1 -11 14.2 3.3
-10 -1 -11 11.4 9.2
10 1 -11 21.9 7.4
10 -1 -11 13.7 3.9
10 1 11 20.4 6.6
10 -1 -11 24.1 7.7
-10 1 -11 16.1 9.1
11 1 -11 486.45 25
11 1 -11 469.75 17.3
11 -1 11 480.15 23.7
-11 -1 -11 521.65 28.7
11 -1 -11 493.85 18.8
11 -1 -11 473.85 25.1
-11 1 -11 503.45 27.8
11 1 11 550.64 24.6
12 1 -11 20.6 4.2
12 1 -11 18.1 8
-12 -1 -11 22.2 11.8
-12 1 11 18.2 9
12 -1 11 13.8 6.9
-12 1 -11 0.5 9.9
12 -1 -11 24.3 5
12 1 11 25.4 7.9
12 -1 -11 21.7 8.3
-12 -1 11 9.2 8.4
0 -2 -11 52.79 8.1
0 2 11 34.2 6.6
0 -2 11 34.6 6.2
0 -2 -11 47.2 5
0 2 -11 62.19 5.2
0 2 -11 46.3 5.6
0 -2 -11 40.4 6.2
0 -2 11 34.2 6.5
0 2 11 40.2 7.3
-1 -2 -11 1420.36 40.9
-1 -2 -11 1344.67 42.4
1 2 -11 1379.66 39.9
1 -2 11 1449.85 46.7
1 -2 11 1445.76 46.6
1 2 -11 1320.97 40.4
-1 -2 -11 1355.16 47
-1 2 11 1395.46 46.3
-1 2 11 1381.26 45.7
1 2 11 1443.86 46.9
-1 2 -11 1430.36 41.8
1 -2 -11 1451.05 40.7
-1 2 -11 1409.76 47.4
1 -2 -11 1422.96 42
-1 -2 11 1384.66 44.7
1 2 11 1393.76 46.9
-1 -2 11 1366.56 44.3
-1 2 -11 1465.05 41
-2 -2 -11 89.59 9.6
2 2 -11 108.49 6
2 -2 11 121.19 11
-2 -2 -11 118.29 8.6
-2 -2 -11 123.09 11.7
2 -2 11 110.89 10.2
-2 -2 -11 105.69 7.1
2 2 -11 95.49 7.3
2 -2 -11 101.59 7.3
-2 2 -11 104.29 7.1
2 -2 -11 99.49 5.9
2 2 11 105.89 10.4
-2 -2 11 97.19 8.2
-2 2 -11 90.69 9
-2 -2 11 103.49 8.7
2 -2 -11 107.39 6.7
2 2 11 100.69 10.4
-2 2 -11 97.19 10.4
-3 -2 -11 46.9 7.6
3 -2 11 40.9 8.5
3 2 -11 40.2 5.3
-3 -2 -11 50.69 6.9
-3 -2 -11 55.79 9
3 -2 11 42 8
3 2 -11 44.8 4.1
-3 2 -11 36.1 7.3
-3 -2 11 39.9 5.7
3 2 11 35.9 7.2
3 -2 -11 41.4 4.6
3 2 11 27.9 5
-3 2 -11 42.6 5.3
-3 -2 11 38.6 5.7
3 -2 -11 34.8 5.7
-3 2 -11 40.7 8
3 -2 -11 35.1 4.2
4 2 -11 803.62 26.7
-4 -2 -11 829.82 34.4
-4 -2 -11 780.62 29.8
4 2 -11 817.62 24.1
-4 -2 11 817.42 26.8
4 -2 -11 803.42 25.4
4 -2 -11 816.62 25.9
-4 2 -11 814.42 34
-4 2 -11 831.12 29.6
4 2 11 849.52 27.7
-4 -2 11 834.42 29.9
4 -2 -11 855.01 28
5 2 -11 69.69 4.6
-5 -2 -11 62.49 10.7
5 2 -11 82.79 7.7
-5 -2 -11 64.99 10.3
5 -2 11 78.59 8
5 -2 -11 69.29 6.7
5 2 11 80.19 8.2
-5 2 -11 72.39 9.6
5 -2 -11 56.99 7.4
5 -2 -11 52.79 5.2
-5 2 -11 58.09 10.3
-5 -2 11 55.19 5.5
6 -2 11 787.82 27.5
6 2 -11 814.72 27.4
-6 -2 -11 721.63 33.7
6 2 -11 775.32 22.5
-6 -2 -11 780.72 30.9
-6 2 -11 802.92 29.6
6 -2 -11 768.62 24.4
6 2 11 773.82 27.3
-6 -2 11 788.02 22.4
6 -2 -11 747.03 26.3
6 -2 -11 792.02 28.1
-6 -2 11 730.53 22.1
-6 2 -11 797.52 34.7
-7 -2 -11 155.38 13.1
7 2 -11 158.58 10.8
7 -2 11 169.08 11.2
7 2 -11 154.88 6.8
7 -2 -11 149.29 8.4
-7 2 -11 166.48 15.8
7 2 11 169.68 11.1
7 -2 -11 181.28 11.3
7 -2 -11 180.38 11.9
-7 2 -11 180.88 13.9
8 2 -11 36.6 3.4
8 -2 11 51.09 7.8
-8 -2 -11 32.9 9.6
8 2 -11 40.6 7.1
8 -2 -11 32.7 6.8
-8 2 -11 42.4 9.3
8 -2 -11 33.5 6.7
8 -2 -11 33.6 4.7
8 2 11 27.3 6.4
9 -2 11 12.3 5.9
-9 -2 -11 15.7 7.4
9 2 -11 7.7 5.4
9 2 -11 12.3 2.4
9 -2 -11 5 5.2
9 -2 -11 7.7 3.2
9 2 11 7.4 5.2
-9 2 -11 0.4 7.5
9 -2 -11 4.1 4.3
10 -2 11 313.57 18.5
10 2 -11 320.77 11.9
10 2 -11 329.17 19
-10 -2 -11 297.17 21.8
10 2 11 360.06 18.9
10 -2 -11 315.77 19.2
10 -2 -11 329.27 14.4
-10 2 -11 354.26 21.7
11 2 -11 5.7 6.5
11 2 -11 9 3.1
11 -2 11 18 7
-11 -2 -11 0.8 9.8
11 -2 -11 13 4.4
11 -2 -11 5.3 6.9
11 2 11 12.2 6.4
-11 -2 11 20.8 9.2
-11 2 -11 -0.5 8.8
12 -2 11 121.49 13.5
12 2 -11 123.89 14.8
-12 -2 -11 94.19 16.7
12 -2 -11 120.19 15
-12 -2 11 101.79 14.5
12 2 11 103.79 12.6
12 -2 -11 112.69 9.3
-12 2 -11 106.29 16.2
0 3 -11 3191.68 88.59
0 -3 -11 3284.57 95.89
0 -3 11 3323.07 94.29
0 -3 -11 3213.18 88.29
0 3 11 3338.27 96.39
0 -3 -11 3378.26 90.99
0 3 -11 3326.37 88.89
0 -3 -11 3354.36 89.29
-1 -3 -11 287.57 17.3
-1 -3 -11 289.07 13
1 3 -11 278.07 11.9
1 3 -11 281.97 11.6
-1 -3 -11 308.37 15
-1 -3 -11 307.67 12.7
1 -3 11 291.77 16.5
-1 -3 11 322.87 15.5
1 -3 -11 304.27 13.5
-1 3 -11 310.87 13.3
1 -3 -11 320.17 12
1 3 11 329.37 18
1 3 11 304.67 17.2
1 -3 -11 321.17 12.7
-1 3 -11 313.87 12.8
2 -3 11 613.44 26.5
2 3 -11 610.14 20.4
2 3 -11 631.44 19.8
-2 -3 -11 597.84 23.4
-2 -3 -11 594.24 21.8
-2 -3 -11 610.74 27.3
2 -3 -11 632.14 20.1
2 -3 -11 653.73 22.5
-2 -3 11 633.24 23.4
2 -3 -11 621.04 20.8
2 3 11 642.44 26.8
2 3 11 624.14 21.8
-2 3 -11 631.54 21.4
-2 3 -11 646.14 22.9
3 3 -11 444.36 14.6
3 -3 11 433.96 21.9
-3 -3 -11 462.45 23.1
3 3 -11 442.46 16.1
-3 -3 -11 456.85 19.8
-3 -3 -11 473.85 18.7
3 -3 -11 423.26 15.8
3 -3 -11 419.46 17.3
-3 3 -11 424.26 16.7
3 3 11 421.86 17.1
-3 3 -11 404.66 18.4
-3 -3 11 437.46 17.3
4 3 -11 714.63 23
-4 -3 -11 705.53 31
4 3 -11 696.53 20.4
-4 -3 -11 698.73 27
4 3 11 661.53 23.9
4 -3 -11 644.94 24
-4 -3 11 667.13 22.5
-4 -3 11 632.54 24.9
4 -3 -11 660.83 22.1
4 -3 -11 670.33 22.5
-4 3 -11 723.43 26
-5 -3 -11 852.31 36.7
5 3 -11 866.41 25.4
5 3 -11 903.31 29.2
-5 -3 -11 871.61 33.6
5 -3 -11 926.71 29.3
-5 3 -11 928.61 31.9
5 -3 -11 861.81 30.3
5 -3 -11 912.31 28
-5 -3 11 942.21 26.5
5 3 11 908.41 30.3
-5 -3 11 851.61 26.4
6 3 -11 342.97 15.4
-6 -3 -11 352.26 21.9
-6 -3 -11 338.07 19.8
6 3 -11 352.06 11.2
6 3 11 308.27 15.5
6 -3 -11 344.07 16.5
6 -3 -11 333.57 15.1
6 -3 -11 346.97 13.8
-6 3 -11 349.47 17.9
-7 -3 -11 36.4 9.5
7 3 -11 40.2 3.1
7 3 -11 36.9 6.3
7 -3 11 34.1 6.3
7 3 11 22.8 6
-7 3 -11 17.6 7.3
7 -3 -11 19.5 4
7 -3 -11 27.8 5.7
7 -3 -11 31 6.4
-8 -3 -11 59.49 10.3
8 3 -11 58.29 3.7
8 -3 11 65.49 8.4
8 3 -11 65.09 8.4
-8 3 -11 57.89 9.9
8 -3 -11 51.89 5.9
8 3 11 56.99 8
8 -3 -11 62.59 8.4
8 -3 -11 53.59 8.4
9 3 -11 91.29 4.8
-9 -3 -11 93.59 13.7
9 -3 11 92.99 10.7
9 3 -11 85.19 10.4
9 -3 -11 86.09 11
9 -3 -11 98.19 7.6
9 -3 -11 102.69 11.6
9 3 11 97.59 10.4
-9 3 -11 96.69 12.6
-10 -3 -11 47.6 10.7
10 3 -11 34.8 8.1
10 3 -11 32.7 3.4
10 -3 11 28.7 7.9
10 -3 -11 39.1 5.9
10 3 11 24.5 7.2
10 -3 -11 33.3 8.8
-10 3 -11 28.1 9.9
10 -3 -11 50.89 9.1
11 3 -11 110.69 6.3
11 3 -11 121.89 14.1
-11 -3 -11 104.19 16.1
11 -3 11 120.39 13.6
-11 3 -11 120.09 15.7
11 3 11 113.99 12.4
11 -3 -11 115.99 14
-11 -3 11 108.19 13.4
11 -3 -11 130.19 9.9
0 -4 11 315.07 16.4
0 -4 -11 312.87 12.9
0 4 -11 291.97 12.3
0 -4 -11 298.27 12.8
0 -4 -11 300.37 13.8
0 4 -11 315.97 12.4
-1 -4 -11 1222.38 42.7
1 4 -11 1162.78 34
1 4 -11 1214.68 34.4
-1 -4 -11 1176.78 35.9
1 -4 11 1172.28 40.7
-1 -4 -11 1133.29 37.3
-1 -4 -11 1172.68 35.4
1 -4 -11 1150.88 36.3
1 4 11 1151.78 42
-1 4 -11 1184.48 35.1
1 -4 -11 1142.39 34.7
-1 4 -11 1122.09 35
-1 -4 11 1194.28 39
1 -4 -11 1174.58 35.2
2 -4 11 95.79 10.5
-2 -4 -11 100.89 10.3
-2 -4 -11 102.19 9.3
2 4 -11 92.19 6.4
2 4 -11 95.29 6
-2 -4 -11 86.49 11.1
2 4 11 73.89 10.2
2 4 11 91.49 7.8
2 -4 -11 92.89 6.6
2 -4 -11 77.09 7.7
2 -4 -11 91.29 6.8
-2 4 -11 90.99 8.8
-2 -4 11 87.59 8.1
-2 4 -11 102.39 7.2
3 -4 11 928.91 35.9
-3 -4 -11 896.61 36.3
-3 -4 -11 939.71 31.3
3 4 -11 902.31 27.8
-3 -4 -11 864.41 32.4
3 4 -11 933.01 26.7
3 -4 -11 859.91 29.7
-3 -4 11 890.81 29.5
3 -4 -11 856.91 28.1
-3 4 -11 926.01 30.9
3 4 11 922.61 30.1
3 -4 -11 881.91 28.2
-3 4 -11 928.01 29.3
4 4 -11 734.63 24.4
4 4 -11 776.02 22.3
-4 -4 -11 761.72 27.8
-4 -4 -11 718.03 32.4
-4 -4 -11 713.73 29.4
-4 -4 11 754.62 24.3
4 4 11 740.03 26.1
4 -4 -11 774.12 25.2
4 -4 -11 763.72 26.6
4 -4 -11 743.23 24.6
-4 4 -11 767.32 27.8
-5 -4 -11 571.04 25.9
5 4 -11 582.04 20.5
5 4 -11 556.84 17
-5 -4 -11 539.85 27.9
5 4 11 578.04 22
-5 4 -11 596.94 23.3
5 -4 -11 570.44 20.8
5 -4 -11 549.15 22
5 -4 -11 571.44 20
-5 -4 11 548.55 17.2
-5 -4 11 557.24 17
6 4 -11 139.99 5.8
6 4 -11 153.78 10.1
-6 -4 -11 148.89 15
6 -4 -11 142.49 10
6 4 11 155.48 10.7
6 -4 -11 139.29 8.7
6 -4 -11 125.89 9.4
-6 4 -11 161.98 12.5
7 4 -11 304.17 9.8
-7 -4 -11 270.57 17.9
7 4 -11 312.47 15.1
7 -4 -11 304.17 13.5
7 4 11 343.87 16.5
7 -4 -11 300.87 16.1
-7 4 -11 305.17 17.2
7 -4 -11 309.17 15.4
8 4 -11 168.38 11.7
-8 -4 -11 150.88 15.2
8 4 -11 174.18 6.1
8 4 11 160.78 12.1
8 -4 -11 155.18 12.3
8 -4 -11 155.88 9.8
-8 4 -11 156.18 13.9
8 -4 -11 162.48 11.8
9 4 -11 -0.9 4.9
-9 -4 -11 0.3 8.8
9 4 -11 4.4 1.7
9 -4 -11 -3.1 4.6
9 -4 -11 7.7 5.8
-9 4 -11 2.9 7.4
9 -4 -11 3.5 3.7
9 4 11 9.8 5.8
10 4 -11 180.98 7
10 4 -11 204.68 15.2
-10 -4 -11 175.88 19
10 4 11 179.58 13.6
10 -4 -11 210.68 15.9
-10 -4 11 205.38 15.3
10 -4 -11 200.28 15
10 -4 -11 182.58 11.5
-10 4 -11 180.28 17.9
-11 -4 -11 63.69 14.8
11 -4 -11 55.09 7.5
-11 -4 11 69.89 11.1
-11 4 -11 41.9 11.6
11 4 11 68.89 9.9
11 -4 -11 59.59 11.3
11 -4 -11 48.4 10.3
0 -5 11 497.85 22.4
0 5 -11 492.35 18
0 -5 -11 521.25 20.3
0 -5 -11 534.65 18.8
0 -5 -11 548.65 19.3
1 5 -11 44.6 5
-1 -5 -11 46.8 8.9
-1 -5 -11 43.6 7.3
-1 -5 -11 34.9 7
1 -5 11 45 8
1 -5 -11 37 5
1 -5 -11 47.7 6
-1 5 -11 35.6 5
-1 -5 11 41.8 6.9
1 -5 -11 33.5 6
2 -5 11 531.55 25.2
2 5 -11 549.74 18.3
-2 -5 -11 531.55 21.9
-2 -5 -11 516.05 25.9
-2 -5 -11 557.14 22.8
2 5 11 548.45 20.8
2 -5 -11 551.54 19.6
2 -5 -11 545.05 20.7
-2 5 -11 620.64 23.2
-2 -5 11 528.15 21.6
2 -5 -11 573.44 19.9
-2 5 -11 583.44 20.2
-3 -5 -11 197.58 13.2
3 5 -11 177.38 8.1
3 -5 11 178.88 14.6
-3 -5 -11 187.68 15.4
-3 -5 -11 190.08 14.1
3 -5 -11 173.78 9.5
3 -5 -11 177.98 9.7
-3 5 -11 171.78 10.3
3 5 11 169.88 11.1
-3 5 -11 162.28 11.4
3 -5 -11 177.48 10.3
-3 -5 11 178.58 10.3
4 5 -11 546.75 17
-4 -5 -11 520.05 24.4
-4 -5 -11 579.34 23.9
-4 -5 -11 537.35 27
-4 5 -11 566.04 21.9
4 -5 -11 535.35 19.9
4 5 11 509.15 20.8
-4 -5 11 541.25 18.8
4 -5 -11 524.25 19.5
4 -5 -11 526.45 21
-5 -5 -11 213.38 14.9
-5 -5 -11 217.78 15.3
-5 -5 -11 218.08 17.9
5 5 -11 218.08 8.4
-5 5 -11 200.88 14.3
5 5 11 213.98 12.7
-5 -5 11 218.28 8
5 -5 -11 237.98 12.3
-5 -5 11 219.38 7.8
5 -5 -11 226.18 11.4
5 -5 -11 239.88 13.3
-6 -5 -11 276.27 19.4
6 5 -11 315.47 10.1
-6 5 -11 307.87 16.6
6 -5 -11 315.47 14
6 5 11 301.97 15.3
6 -5 -11 291.17 14.7
6 -5 -11 303.37 15.3
7 5 -11 188.68 6.8
-7 -5 -11 166.58 16.7
7 -5 -11 210.28 11.3
7 5 11 225.98 13.6
7 -5 -11 181.28 12.1
-7 5 -11 197.98 14.2
7 -5 -11 177.68 11.9
-8 -5 -11 84.39 13.7
8 5 -11 80.39 3.7
8 5 11 77.99 9.5
-8 5 -11 78.99 11.1
8 -5 -11 74.99 9.9
8 -5 -11 95.29 10.4
8 -5 -11 78.19 8
-9 -5 -11 165.78 18.3
9 -5 -11 154.38 11
9 -5 -11 158.18 12.8
9 5 11 171.48 13.1
-9 5 -11 136.79 14.7
9 -5 -11 172.68 13.9
-10 -5 -11 17.8 11.3
10 5 11 17.5 6.9
-10 5 -11 1.6 8
10 -5 -11 6.1 6.3
10 -5 -11 5.9 6.5
10 -5 -11 16.8 5.2
-11 -5 -11 45 14.2
11 5 11 68.09 10.3
11 -5 -11 62.59 10.9
11 -5 -11 66.09 11.3
-11 5 -11 46.7 12.2
11 -5 -11 57.19 8
0 -6 -11 146.19 10.8
0 -6 -11 153.08 10.5
0 -6 -11 146.79 9.9
0 -6 11 142.99 12.1
0 6 -11 151.58 8.5
-1 -6 -11 177.78 11.5
1 6 -11 171.58 8.9
1 -6 11 178.68 13.9
-1 -6 -11 157.48 11.4
-1 -6 11 155.78 11.8
1 -6 -11 159.58 9.3
-1 6 -11 167.48 9.5
1 -6 -11 164.78 9.9
1 -6 -11 170.08 10.6
2 6 -11 14.3 3.3
-2 -6 -11 29.1 7.3
2 -6 11 14.6 6.8
-2 -6 -11 26.4 6.1
-2 -6 -11 20.2 7.4
2 6 11 14.1 5.1
-2 -6 11 9.1 4.4
2 -6 -11 22.9 4.9
2 -6 -11 18 4.4
2 -6 -11 22.8 4.5
-2 6 -11 18 4.4
-3 -6 -11 463.55 21.8
3 6 -11 497.65 16.4
-3 -6 -11 481.85 21.6
3 -6 11 473.55 24.6
-3 -6 -11 495.65 25.6
3 -6 -11 464.95 18.2
-3 -6 11 486.95 19.1
3 6 11 488.85 20
3 -6 -11 464.05 19.2
3 -6 -11 470.35 18.6
-3 6 -11 469.95 18.7
-4 -6 -11 48.9 10.1
-4 -6 -11 39.6 9.3
4 6 -11 68.69 5.1
-4 -6 -11 46.7 9.7
4 -6 -11 76.99 8
4 -6 -11 67.29 6.8
4 6 11 67.89 8
4 -6 -11 64.19 7.9
5 6 -11 136.19 6.5
-5 -6 -11 125.79 17.8
-5 -6 -11 140.89 13.9
-5 -6 -11 131.89 14.4
5 -6 -11 134.49 9
5 -6 -11 126.89 9.5
5 6 11 126.69 10.2
5 -6 -11 148.29 10
-6 -6 -11 77.59 11.7
6 6 -11 62.19 4.3
-6 -6 -11 47.9 11
6 -6 -11 76.49 8.6
6 -6 -11 67.39 7.3
6 -6 -11 77.69 9.2
6 6 11 73.79 8.6
-7 -6 -11 185.48 17.6
7 6 -11 195.58 7.1
7 -6 -11 186.58 12.5
7 -6 -11 203.18 13.4
7 -6 -11 190.48 11.6
7 6 11 197.28 13.4
-7 6 -11 180.38 14.5
8 6 -11 156.88 5.7
-8 -6 -11 118.69 16.1
8 -6 -11 155.18 12.1
8 -6 -11 153.38 12.8
8 6 11 172.38 12.9
-8 6 -11 160.58 13.9
8 -6 -11 152.98 11
-9 -6 -11 24.9 11.6
9 -6 -11 12.4 5.2
-9 6 -11 19.7 8.5
9 -6 -11 16.3 6.7
9 6 11 14.2 6.2
9 -6 -11 16.3 7
-10 -6 -11 -3.4 11
-10 6 -11 13.5 9.6
10 -6 -11 5.3 6.1
10 -6 -11 4 6.1
10 6 11 5.1 6.1
10 -6 -11 -0.9 4.3
-11 -6 -11 -3.8 11.6
11 -6 -11 18.6 6.1
-11 6 -11 -3.3 8.2
11 6 11 10.2 6.5
11 -6 -11 14.7 7.6
11 -6 -11 7.6 7.3
0 -7 11 1350.96 46.1
0 7 -11 1331.07 40.2
0 -7 -11 1344.17 42
0 -7 -11 1354.46 42.1
1 7 -11 276.87 11.9
-1 -7 -11 247.98 13.2
1 -7 11 238.48 16.2
-1 -7 -11 268.97 14.6
-1 -7 11 246.28 15.1
1 -7 -11 229.68 12.8
1 -7 -11 278.97 14.5
-1 7 -11 254.17 12.4
1 -7 -11 225.78 12.9
2 -7 11 1843.52 61.39
-2 -7 -11 1884.01 56.79
-2 -7 -11 1848.72 62.49
2 7 -11 1833.22 52.09
-2 -7 -11 1871.61 56.19
2 -7 -11 1837.82 54.39
2 7 11 1840.82 55.29
2 -7 -11 1789.12 53.59
-2 -7 11 1902.91 61.09
2 -7 -11 1841.12 54.69
-2 7 -11 1798.02 53.99
-3 -7 -11 143.19 12.9
3 7 -11 131.59 7.8
3 -7 11 128.29 13.7
-3 -7 -11 132.99 14.4
-3 -7 -11 131.39 12.9
3 -7 -11 143.69 9.6
3 -7 -11 137.29 9.7
3 -7 -11 127.49 9.9
-3 7 -11 145.69 10.1
3 7 11 145.59 10.7
-4 -7 -11 709.03 29.5
-4 -7 -11 733.83 33.8
4 7 -11 757.52 22.9
-4 -7 -11 744.33 30.5
4 -7 -11 702.63 25.5
4 -7 -11 763.12 27.1
4 -7 -11 723.93 26.2
4 7 11 735.93 27.1
5 7 -11 225.98 9.4
-5 -7 -11 212.38 17.2
-5 -7 -11 229.98 17
5 7 11 238.08 13.8
5 -7 -11 233.68 13.5
5 -7 -11 235.48 12.7
5 -7 -11 257.97 14
-6 -7 -11 259.77 18.2
6 7 -11 260.17 9.8
-6 -7 -11 229.48 18.6
6 -7 -11 267.57 15.1
6 7 11 270.67 15.2
6 -7 -11 272.37 13.9
6 -7 -11 271.77 14.7
-7 -7 -11 68.59 12.3
-7 -7 -11 43 11.7
7 7 -11 57.69 4.2
7 7 11 57.09 8.8
7 -7 -11 58.29 7.7
7 -7 -11 70.59 9.3
7 -7 -11 65.99 9.2
-8 -7 -11 160.88 17.8
8 7 -11 146.79 6.1
8 -7 -11 154.58 13
8 -7 -11 147.19 12.6
8 -7 -11 149.49 11.1
8 7 11 164.88 13.2
-9 -7 -11 5.9 10.7
9 -7 -11 18.3 6.8
9 -7 -11 6 5.9
9 7 11 5.5 5.8
9 -7 -11 6 4.9
-10 -7 -11 -12 10.7
10 -7 -11 -1 4.7
10 -7 -11 7.1 6.6
10 -7 -11 3.7 6.9
10 7 11 2.3 5.9
0 -8 -11 312.67 15.7
0 -8 -11 329.07 16.4
0 8 -11 337.77 14.4
0 -8 11 341.77 22.7
1 8 -11 2090.09 57.59
-1 -8 -11 1967.7 59.49
-1 -8 -11 2010.1 60.49
1 -8 11 2034.4 65.69
1 -8 -11 2063.39 59.69
1 -8 -11 1917.31 58.79
-1 8 -11 1975.9 58.19
2 -8 11 195.88 16.6
-2 -8 -11 208.48 14.5
2 8 -11 187.78 10
-2 -8 -11 167.88 12.6
2 -8 -11 160.88 11.3
-2 8 -11 185.98 11.4
3 8 -11 1591.04 45
-3 -8 -11 1583.54 50.09
3 -8 11 1616.84 57.39
-3 -8 -11 1589.84 56.99
-3 -8 -11 1518.45 50.69
-3 8 -11 1481.35 47.6
3 8 11 1556.04 48.9
3 -8 -11 1531.15 48
3 -8 -11 1614.64 48.4
3 -8 -11 1547.35 47.5
-4 -8 -11 161.18 14.5
-4 -8 -11 156.88 15.2
4 8 -11 163.48 8.8
4 -8 -11 174.08 10.9
4 8 11 190.98 12.5
4 -8 -11 157.08 11.1
4 -8 -11 200.58 12.3
-5 -8 -11 131.39 14.5
-5 -8 -11 135.59 14.9
5 8 -11 131.99 7.4
5 8 11 138.09 11.7
5 -8 -11 146.29 10.8
5 -8 -11 150.48 11.1
5 -8 -11 162.38 10.6
6 8 -11 112.79 6.5
-6 -8 -11 103.79 14.1
-6 -8 -11 132.39 15.2
6 -8 -11 105.29 10.8
6 -8 -11 110.59 9.9
6 8 11 104.69 11
6 -8 -11 111.09 9.6
7 8 -11 58.79 4.8
-7 -8 -11 82.89 13.8
-7 -8 -11 53.99 12.2
7 8 11 68.79 9.5
7 -8 -11 58.19 8.9
7 -8 -11 56.69 8.8
7 -8 -11 82.99 8.9
8 8 -11 3 2.2
-8 -8 -11 -4 9.8
-8 -8 -11 -2.8 8.9
8 8 11 -1.8 5.6
8 -8 -11 -2.9 3.6
8 -8 -11 10.7 6.1
8 -8 -11 0.3 6.1
-9 -8 -11 18.1 12.4
-9 -8 -11 15.7 11.2
9 -8 -11 38 8.5
9 -8 -11 33.5 7
9 8 11 24.2 7.8
9 -8 -11 24.9 8.2
-10 -8 -11 16.6 12.8
-10 -8 -11 41.1 13.4
10 -8 -11 26.3 8.8
10 8 11 35.3 8.7
10 -8 -11 20 6.6
10 -8 -11 24.2 8.2
0 -9 -11 494.35 21.7
0 9 -11 526.85 20
0 -9 -11 505.25 20.7
-1 -9 -11 442.06 20.9
-1 -9 -11 480.15 20
1 9 -11 469.25 18.4
1 -9 -11 432.46 19.9
-1 9 -11 469.95 19.1
1 -9 -11 480.25 19.6
-2 -9 -11 398.16 18.6
-2 -9 -11 377.76 19.8
2 9 -11 400.16 16
2 -9 -11 395.06 17.4
-2 9 -11 353.16 16.8
2 -9 -11 389.86 18
-3 -9 -11 29.3 7.5
3 9 -11 20.2 4.6
-3 -9 -11 4.6 7.2
3 -9 -11 23.1 5.9
3 9 11 28 6.7
3 -9 -11 23.2 6
-4 -9 -11 181.78 14.8
4 9 -11 184.58 9.9
-4 -9 -11 175.98 15.8
4 9 11 242.48 14.8
4 -9 -11 201.28 12.4
4 -9 -11 179.58 12.2
4 -9 -11 186.98 13.2
5 9 -11 91.19 6.7
-5 -9 -11 74.09 13.5
-5 -9 -11 100.79 13.7
5 -9 -11 86.39 9.1
5 9 11 109.39 11.2
5 -9 -11 104.69 10.3
5 -9 -11 87.49 9.8
-6 -9 -11 15.1 10.1
6 9 -11 19.4 3.8
-6 -9 -11 4.3 9.7
6 -9 -11 21.6 5.7
6 -9 -11 35.4 7.1
6 -9 -11 29.3 6.6
6 9 11 32 7.2
7 9 -11 2.9 2.8
-7 -9 -11 4.5 9.3
-7 -9 -11 14 10.3
7 -9 -11 4.6 4.8
7 -9 -11 7.2 6.1
7 -9 -11 5.7 5.2
7 9 11 4.8 6.1
-8 -9 -11 52.09 13.7
8 9 -11 66.89 5.4
-8 -9 -11 74.49 14.9
8 -9 -11 76.19 10.6
8 -9 -11 62.89 8.7
8 -9 -11 71.19 10.7
8 9 11 71.69 10.2
-9 -9 -11 24.7 13
9 9 -11 40.4 4
-9 -9 -11 46.2 13
9 -9 -11 33.6 7.3
9 -9 -11 54.39 10.1
9 -9 -11 48.6 9.1
9 9 11 45.3 9.2
-10 -9 -11 12.7 11.6
-10 -9 -11 10.2 13.9
10 -9 -11 19 6.8
10 -9 -11 14.3 7.6
10 9 11 17.4 7.6
10 -9 -11 13.2 7.5
0 10 -11 164.28 10.7
0 -10 -11 158.28 12.5
0 -10 -11 196.58 11.8
1 10 -11 120.09 9.5
-1 -10 -11 121.39 10.1
-1 -10 -11 121.59 12.5
1 -10 -11 128.39 9.8
1 -10 -11 126.69 12
-1 10 -11 141.79 10.5
-2 -10 -11 56.19 10
2 10 -11 42 6.2
-2 -10 -11 40.6 7.9
2 -10 -11 49.99 7.3
-2 10 -11 49.2 7.5
2 -10 -11 43.6 7.7
3 10 -11 201.28 11.2
-3 -10 -11 217.28 15
-3 -10 -11 204.38 16.2
3 -10 -11 218.78 12.8
3 10 11 239.98 17.1
3 -10 -11 224.18 13.6
-4 -10 -11 145.09 15.7
-4 -10 -11 134.39 13.3
4 10 -11 136.29 9.1
4 -10 -11 140.69 10.7
4 -10 -11 142.39 11.3
4 10 11 130.99 12.5
-5 -10 -11 176.98 15.5
-5 -10 -11 191.98 18.2
5 10 -11 175.88 9.8
5 10 11 177.28 13.7
5 -10 -11 180.98 13
5 -10 -11 187.88 12.6
-6 -10 -11 111.19 14.5
6 10 -11 108.29 7.8
-6 -10 -11 103.49 15.5
6 10 11 116.09 12.2
6 -10 -11 121.99 12.5
6 -10 -11 109.69 11.7
-7 -10 -11 20.4 10.6
-7 -10 -11 47.2 13.8
7 10 -11 24.7 4.2
7 -10 -11 19.2 7.1
7 -10 -11 21.5 6.5
7 10 11 35.6 8.3
7 -10 -11 16.9 6.5
-8 -10 -11 108.79 17.1
8 10 -11 99.99 6.9
-8 -10 -11 86.29 18.2
8 -10 -11 110.49 11.5
8 -10 -11 107.89 12.8
8 10 11 106.99 12.3
8 -10 -11 105.59 12.2
-9 -10 -11 53.89 13.9
9 10 -11 49.5 4.9
9 -10 -11 56.49 9.7
9 10 11 64.29 10.7
9 -10 -11 46.7 9
9 -10 -11 64.29 10.8
0 -11 -11 26.5 7.4
0 11 -11 28.4 6.1
0 -11 -11 36.5 7.5
1 11 -11 41 6.7
-1 -11 -11 45.8 9.2
-1 11 -11 27.8 6.5
1 -11 -11 38.9 7.9
1 -11 -11 53.29 7.3
-2 -11 -11 97.89 12.3
2 11 -11 90.09 8.7
-2 11 -11 91.49 9.7
2 -11 -11 84.29 9.3
2 -11 -11 96.39 11.1
-3 -11 -11 48.3 10.5
3 11 -11 43 6.5
3 -11 -11 60.29 7.6
3 -11 -11 54.39 8.8
-4 -11 -11 307.37 20.5
4 11 -11 281.97 13.9
4 -11 -11 306.27 15.8
4 11 11 296.17 17.9
4 -11 -11 300.17 17
-5 -11 -11 214.98 18.9
5 11 -11 214.98 11.6
5 11 11 215.28 16.1
5 -11 -11 222.58 15
5 -11 -11 222.78 13.9
-6 -11 -11 34.9 11.9
6 11 -11 28.8 5.2
6 11 11 33.1 8.8
6 -11 -11 35.2 7.5
6 -11 -11 37.1 8.4
-7 -11 -11 77.89 15.6
7 11 -11 96.09 7.9
7 -11 -11 97.99 11.5
7 11 11 89.99 11.7
7 -11 -11 89.79 11.9
8 11 -11 26.7 4.7
-8 -11 -11 48.1 14.8
8 -11 -11 35.1 8.1
8 11 11 26.1 8.3
8 -11 -11 16.5 7.5
0 12 -11 86.49 9.9
0 -12 -11 94.99 11.9
1 12 -11 132.09 10.9
-1 -12 -11 118.79 13.2
1 -12 -11 117.09 12.6
-1 12 -11 116.09 11.2
2 12 -11 30 6.3
-2 -12 -11 27.6 9.1
-2 12 -11 30.3 6.7
2 -12 -11 37.2 8.2
3 12 -11 210.68 12.7
-3 -12 -11 212.38 17.4
3 -12 -11 216.38 14.9
4 12 -11 146.39 10.7
-4 -12 -11 150.78 16.7
4 12 11 151.38 21.5
4 -12 -11 133.89 13.7
5 12 -11 271.57 13.8
-5 -12 -11 249.18 22.2
5 12 11 269.97 17.7
5 -12 -11 267.87 17.1
6 12 -11 108.09 9.3
-6 -12 -11 95.89 16.1
6 -12 -11 124.49 13.8
6 12 11 128.29 13.7
7 12 -11 28.4 5.3
-7 -12 -11 19.3 11.8
7 12 11 34.6 9.4
7 -12 -11 36.6 9
8 12 -11 18.5 4.6
-8 -12 -11 28.5 13.1
8 -12 -11 36.5 9.6
8 12 11 30.4 9.5
0 13 -11 54.29 8.5
0 -13 -11 48.3 9.6
1 13 -11 80.69 9.8
-1 -13 -11 94.29 12.6
-1 13 -11 85.59 10.3
1 -13 -11 70.19 10.7
-2 -13 -11 86.49 12.9
2 13 -11 87.29 9.7
2 -13 -11 71.49 10.8
-3 -13 -11 68.59 12.5
3 13 -11 67.29 8.8
3 -13 -11 74.79 11.2
-4 -13 -11 67.79 13.3
4 13 -11 70.39 8.6
4 -13 -11 68.29 11.2
5 13 -11 108.99 9.9
-5 -13 -11 101.29 15.6
5 -13 -11 117.09 13.4
5 13 11 90.19 12.5
6 13 -11 33.4 6.3
-6 -13 -11 19 11.8
6 13 11 28.2 9
6 -13 -11 26.4 8.5
-7 -13 -11 16.8 11.7
7 13 -11 27.7 6
7 -13 -11 54.99 10.8
7 13 11 43.1 9.8
0 -14 -11 -5.8 6.3
0 14 -11 5.1 5.9
-1 -14 -11 30.9 9.3
1 14 -11 28.7 7.5
-1 14 -11 26.1 7.5
1 -14 -11 11.2 7.5
2 14 -11 49.8 8.8
-2 -14 -11 69.29 11.9
2 -14 -11 90.39 11.9
-3 -14 -11 3.5 8.5
3 14 -11 2.6 5.6
3 -14 -11 6.4 6.5
-4 -14 -11 44.8 11.9
4 14 -11 51.09 8.2
4 -14 -11 53.99 10.5
5 14 -11 29.1 6.9
-5 -14 -11 28.8 11.6
5 -14 -11 35.7 9.7
6 14 -11 81.59 9.2
6 14 11 77.59 12.6
0 -15 -11 8.6 7.4
0 15 -11 0.7 6.2
1 15 -11 9.5 6.5
-1 -15 -11 26.9 9.3
1 -15 -11 28.7 8.6
-1 15 -11 10.6 6.9
2 15 -11 -0.6 5.8
-2 -15 -11 -2.5 6.8
2 -15 -11 10.7 6.5
3 15 -11 23.8 7.3
-3 -15 -11 56.79 12
3 -15 -11 44 10.2
-4 -15 -11 61.59 13
4 15 -11 52.19 8.8
4 -15 -11 47.5 10.3
0 16 -11 6.2 6.4
0 -16 -11 10.2 7
-1 -16 -11 5.2 7.1
1 16 -11 0.5 6.4
1 -16 -11 11.6 7.4
0 0 12 1732.23 54.49
0 0 -12 1676.53 50.09
0 0 -12 1745.83 49.1
1 0 -12 767.42 25.1
1 0 12 824.22 31.4
1 0 -12 786.42 26.5
-1 0 12 788.32 29.7
-1 0 -12 823.52 27.4
-1 0 -12 854.31 26.2
-2 0 12 14.4 5
-2 0 -12 20.6 6.7
2 0 -12 18.8 4.5
2 0 12 20.9 6.3
2 0 -12 21.7 3.7
-2 0 -12 21.9 4.3
-2 0 -12 12.2 6.4
3 0 12 15.1 6
-3 0 12 15.9 4.6
-3 0 -12 11 5.9
3 0 -12 13.2 3.1
-3 0 -12 16.5 6.1
3 0 -12 11.5 4.1
4 0 -12 457.75 18.2
4 0 12 470.55 18.2
-4 0 -12 448.36 20.6
4 0 -12 458.95 15.9
-4 0 12 471.75 19.4
-4 0 -12 464.75 24.5
5 0 -12 798.62 24.8
5 0 12 833.92 28.4
-5 0 -12 820.72 35.8
-5 0 -12 826.72 31.6
-5 0 12 803.22 28.2
5 0 -12 807.42 27.8
-6 0 -12 380.76 23.5
6 0 -12 394.56 13.8
6 0 -12 380.36 17.2
-6 0 -12 367.36 20.3
6 0 12 346.97 16.8
7 0 12 177.38 11.6
7 0 -12 175.48 12
7 0 -12 184.48 8.6
-7 0 -12 164.18 13.6
-8 0 -12 -7 6.9
8 0 12 -0.6 4.1
8 0 -12 -2 2.1
8 0 -12 5.2 4.7
9 0 -12 14.3 5.7
-9 0 -12 8.4 7.2
9 0 -12 4 2.9
9 0 12 12.2 5.6
10 0 12 10.5 6.4
-10 0 -12 -5.7 9.1
10 0 -12 4.3 3.6
10 0 -12 9 6.5
11 0 -12 -0.2 3.3
11 0 -12 13.1 7.4
11 0 12 3.9 5.8
-11 0 -12 7 10.8
0 -1 -12 1204.78 37.4
0 1 -12 1134.09 35.5
0 1 -12 1195.58 36.7
0 1 12 1253.97 41.8
0 -1 -12 1231.48 36
0 -1 12 1205.48 41
-1 -1 -12 1207.38 35.6
-1 -1 -12 1134.49 37.1
1 1 -12 1126.99 34.5
1 1 -12 1157.68 35.7
-1 1 12 1200.28 40.2
1 -1 12 1191.18 41
1 -1 -12 1132.19 34.7
-1 1 -12 1210.38 35.5
1 1 12 1208.68 41.5
1 -1 -12 1166.48 36.3
-1 -1 12 1187.28 39.7
-1 1 -12 1175.38 36.8
-2 1 12 396.96 18.5
2 1 -12 379.06 13.7
-2 -1 -12 388.26 18
2 1 -12 404.96 15.3
2 -1 12 392.46 19.9
-2 -1 -12 372.36 14.9
-2 -1 -12 368.16 20.1
2 -1 -12 324.27 14.9
-2 -1 12 355.36 17.2
-2 1 -12 380.86 17.4
2 1 12 418.46 24
2 -1 -12 356.46 13.8
2 1 12 346.87 19.1
-2 1 -12 350.26 14.6
3 1 -12 397.96 13.6
3 -1 12 371.06 20.1
-3 -1 -12 363.26 20.7
-3 -1 -12 364.66 18.6
-3 1 12 372.26 17.8
3 1 -12 374.56 15.2
3 1 12 373.76 20.5
3 -1 -12 362.46 13.7
-3 1 -12 380.76 18.4
-3 1 -12 357.16 15
3 1 12 367.86 17.4
-3 -1 12 341.57 16.4
3 -1 -12 355.46 15.4
4 1 -12 69.19 7.1
4 1 -12 62.29 5.1
-4 -1 -12 54.59 10.1
-4 1 12 49.5 7.1
-4 -1 -12 58.99 10.2
4 1 12 82.79 8
-4 -1 12 70.69 7.4
-4 1 -12 65.19 8.8
-4 1 -12 60.09 12.2
4 -1 -12 71.09 5.7
4 -1 -12 69.79 7.5
-5 -1 -12 933.11 39.5
5 1 -12 976.4 28.7
5 1 -12 951.1 32
-5 -1 -12 983.9 36.1
5 -1 12 973.3 33.5
5 1 12 960.5 32.4
-5 1 -12 961.1 35.2
-5 1 -12 995.1 41.1
-5 -1 12 993.6 31.7
5 -1 -12 1001.3 29.5
5 -1 -12 1007.1 32.8
-6 -1 -12 582.64 29.8
6 1 -12 627.54 23.1
-6 -1 -12 593.04 25.6
6 1 -12 598.74 18.7
6 -1 12 559.14 22.4
-6 1 -12 578.24 30.3
6 1 12 584.54 22.8
-6 1 -12 558.24 25.4
6 -1 -12 597.54 19.7
6 -1 -12 589.74 23.1
-7 -1 -12 39.1 10.1
7 1 -12 31.9 6.4
7 1 -12 36.4 4
7 -1 12 34 6.5
-7 1 -12 47.7 8.7
7 -1 -12 40.8 4.7
7 1 12 47.5 7.4
7 -1 -12 45.8 7.4
8 1 -12 38.4 4
8 -1 12 41.1 7.1
-8 -1 -12 39.5 10.3
8 1 -12 31.5 6.6
8 -1 -12 39.4 4.7
8 1 12 29.7 6.4
8 -1 -12 39.5 7.7
-8 1 -12 29.2 9.1
-9 -1 -12 20.9 9.7
9 1 -12 31.5 7.5
9 1 -12 36.8 4.2
9 -1 12 34.7 7.4
9 -1 -12 32.5 7.5
9 1 12 35.8 7.6
-9 1 -12 31.1 8.6
9 -1 -12 39.2 5.1
10 1 -12 114.99 13.2
-10 -1 -12 111.79 15.7
10 1 -12 89.69 6.8
-10 1 -12 85.59 14.3
10 -1 -12 92.69 7.9
10 -1 -12 91.19 12.2
10 1 12 107.29 12.2
11 -1 12 20.6 7.2
11 1 -12 13.5 3.7
11 1 -12 18.2 7.8
-11 -1 -12 22.8 11.9
-11 1 -12 28.6 11.8
11 -1 -12 16.5 4.5
11 1 12 33.5 8
11 -1 -12 20.2 8
0 -2 -12 4262.67 114.19
0 2 -12 4221.88 114.39
0 -2 12 4240.68 119.59
0 -2 -12 4286.47 115.79
0 2 -12 4262.87 113.89
0 2 12 4350.66 120.79
-1 -2 -12 944.61 28.8
1 2 -12 897.11 28.5
1 -2 12 885.81 33.7
1 2 -12 873.91 27.7
-1 -2 -12 912.61 27.7
-1 2 12 892.31 33.4
-1 -2 -12 914.61 30.8
-1 2 -12 934.91 29.7
1 -2 -12 909.51 28.3
1 2 12 920.51 34.5
-1 -2 12 896.91 32.4
1 -2 -12 904.31 29.8
-1 2 -12 893.31 28.6
-2 -2 -12 1503.75 44.3
2 2 -12 1465.05 42.8
-2 -2 -12 1515.25 47.3
2 2 -12 1465.45 43.9
2 -2 12 1524.15 50.59
-2 -2 -12 1538.85 44.2
-2 -2 -12 1457.95 51.39
2 -2 -12 1549.05 43.4
-2 2 -12 1508.15 44.4
2 2 12 1532.55 50.99
-2 2 -12 1482.85 46
-2 -2 12 1476.35 47.1
2 -2 -12 1543.05 45.4
2 -2 -12 1443.36 43.4
2 2 12 1747.63 65.59
-3 -2 -12 110.09 11.8
3 2 -12 132.49 8.3
-3 -2 -12 135.19 10
-3 -2 -12 127.29 12.7
3 2 -12 127.39 6.9
3 -2 12 127.69 12.4
-3 2 -12 114.99 11.1
-3 -2 12 128.79 9.5
3 -2 -12 129.49 7.3
-3 2 -12 119.09 8.1
3 2 12 117.49 8.9
3 -2 -12 116.09 7.3
3 -2 -12 120.69 9
-4 -2 -12 1099.49 43.3
-4 -2 -12 1131.09 39.2
4 2 -12 1144.59 32.8
4 2 -12 1160.18 35.5
4 2 12 1103.19 36
-4 2 -12 1114.39 38.4
4 -2 -12 1169.18 36.7
-4 -2 12 1142.69 36
4 -2 -12 1206.38 34.4
4 -2 -12 1129.79 34.2
5 2 -12 342.17 12.1
-5 -2 -12 327.97 21.4
5 2 -12 360.46 15.8
-5 -2 -12 338.57 19.9
5 -2 -12 344.47 13.5
5 -2 -12 343.87 14.5
5 -2 -12 321.07 15.7
5 2 12 347.17 15.8
-5 2 -12 344.17 18.6
-5 -2 12 335.97 13.9
-6 -2 -12 530.35 24.9
6 2 -12 503.85 16.1
6 2 -12 507.25 20.2
-6 -2 -12 457.85 26.3
6 -2 -12 513.65 19.6
6 -2 -12 508.95 21.1
-6 2 -12 505.25 23.1
6 -2 -12 511.55 17.9
6 2 12 466.65 20.1
-7 -2 -12 212.98 15.6
7 -2 12 223.58 15.4
7 2 -12 215.28 8.8
7 2 -12 211.68 13.1
7 -2 -12 244.78 14.1
7 -2 -12 225.48 12.8
-7 2 -12 238.68 16.3
7 -2 -12 231.48 10.7
7 2 12 228.48 13.6
8 -2 12 17.4 5.7
8 2 -12 26.7 6.1
8 2 -12 24.8 3.1
-8 -2 -12 18.6 8.1
-8 2 -12 15.5 8.3
8 -2 -12 20.2 6.3
8 -2 -12 20.3 4
8 -2 -12 23.2 6.1
8 2 12 21.1 5.9
9 -2 12 13.4 5.8
9 2 -12 10.9 2.6
-9 -2 -12 5.3 9.2
9 2 -12 6.6 5.3
9 2 12 -1.9 4.7
-9 2 -12 13.3 8.7
9 -2 -12 5.4 5.7
9 -2 -12 -3.9 5.2
9 -2 -12 13.4 3.8
-10 -2 -12 25.9 10.6
10 -2 12 10.2 6.2
10 2 -12 25 7.8
10 2 -12 21.7 3.6
10 -2 -12 24.5 8
10 2 12 30.9 7.6
10 -2 -12 24.7 5
-10 2 -12 12.4 9.7
11 -2 12 40.7 9.5
11 2 -12 51.49 10.1
-11 -2 -12 41.7 13.3
11 2 -12 38.8 4.6
11 -2 -12 41.4 9.8
11 -2 -12 42.4 6.3
-11 2 -12 41.9 12.2
11 2 12 51.39 9.7
0 -3 12 323.27 17.2
0 3 12 344.47 18.6
0 -3 -12 310.27 15.3
0 3 -12 333.67 13.5
0 3 -12 335.27 14
0 -3 -12 351.86 13.3
0 -3 -12 348.57 13.9
1 3 -12 1382.76 40.5
-1 -3 -12 1400.96 40.9
1 3 -12 1401.76 40.3
1 -3 12 1392.06 47.1
-1 -3 -12 1416.16 41.4
-1 -3 -12 1401.66 43.2
1 3 12 1361.46 47.3
1 -3 -12 1353.86 39.6
1 -3 -12 1428.46 42.7
1 -3 -12 1425.16 41.1
-1 3 -12 1369.96 41.5
-1 3 -12 1385.36 41.2
-1 -3 12 1364.96 45
2 3 -12 591.04 19.8
2 3 -12 587.94 19
-2 -3 -12 595.84 27
-2 -3 -12 569.54 21.2
-2 -3 -12 588.34 23.7
2 -3 12 577.84 25.9
-2 3 -12 587.74 22
2 -3 -12 560.44 18.9
2 -3 -12 555.94 19.7
-2 3 -12 568.84 20.4
2 -3 -12 551.84 20.9
-2 -3 12 549.54 22.4
2 3 12 574.74 25.9
3 3 -12 401.96 14.1
-3 -3 -12 412.56 22.7
3 3 -12 410.76 15.8
-3 -3 -12 417.46 17.9
3 -3 12 418.36 22
-3 -3 -12 439.06 20.6
-3 -3 12 376.36 16.8
-3 3 -12 401.86 16.2
-3 3 -12 389.86 18.5
3 -3 -12 398.26 15.4
3 -3 -12 408.56 15.1
3 -3 -12 388.86 16.9
3 3 12 395.06 16.6
-4 -3 -12 13.3 6.7
4 3 -12 4.8 4
-4 -3 -12 7.9 6.4
4 3 -12 6.8 2.6
-4 -3 -12 14.3 8.4
4 -3 -12 20 4.1
4 -3 -12 13.6 4
4 -3 -12 8.9 4.7
4 3 12 16.5 4.9
-4 -3 12 10.9 3.8
-4 3 -12 9.8 6.7
-5 -3 -12 390.76 23.9
5 3 -12 432.16 14.5
-5 -3 -12 429.86 22.7
5 3 -12 425.46 17.5
5 -3 -12 433.96 17.2
5 -3 -12 465.55 19.3
-5 -3 12 463.55 15.9
5 -3 -12 451.85 16.7
-5 3 -12 441.16 20.8
5 3 12 449.46 18.8
6 3 -12 189.78 11.4
-6 -3 -12 207.98 18.4
6 3 -12 207.28 8.1
-6 -3 -12 188.08 16.6
6 -3 -12 191.68 11.4
6 -3 -12 194.28 10.1
6 3 12 212.58 12.8
-6 3 -12 198.48 14.7
6 -3 -12 189.88 11.8
-7 -3 -12 88.29 12.9
7 3 -12 106.69 9.1
7 3 -12 99.79 5.2
7 -3 -12 96.79 7.4
7 -3 -12 82.49 9.2
7 -3 -12 97.09 8.6
7 3 12 87.29 9.4
-7 3 -12 80.79 11
-8 -3 -12 30.3 10.3
8 3 -12 48.2 7.5
8 3 -12 43 3.7
8 3 12 47.7 7.8
8 -3 -12 54.79 8.2
-8 3 -12 45.3 10
8 -3 -12 47.5 8.1
8 -3 -12 31.6 5.2
-9 -3 -12 -6.5 8.6
9 3 -12 6 2.1
9 3 -12 3.8 5.1
9 -3 -12 -1.9 3.3
9 -3 -12 4.4 5.5
9 3 12 1.8 5.2
-9 3 -12 8.9 8.2
9 -3 -12 -6.8 5
-10 -3 -12 56.99 13.7
10 3 -12 66.09 4.7
10 3 -12 55.09 9.9
10 -3 -12 42.5 6.2
10 -3 -12 54.99 9.7
10 -3 -12 68.79 10.7
10 3 12 69.39 10.1
-10 3 -12 46.4 11.5
11 3 -12 48.3 4.5
-11 -3 -12 49.7 14.5
11 3 -12 53.99 9.9
11 -3 -12 52.99 10.7
11 3 12 70.39 10.2
-11 3 -12 38.2 12.5
11 -3 -12 53.49 7.2
-11 -3 12 46.6 10.2
0 -4 -12 84.79 8.8
0 -4 12 84.99 9.3
0 -4 -12 88.59 7.1
0 4 -12 74.99 6.4
0 4 -12 99.79 7.3
0 -4 -12 81.09 7.2
1 4 -12 504.25 17.2
1 4 -12 508.75 17.2
1 -4 12 456.15 22.6
-1 -4 -12 463.85 18.1
-1 -4 -12 478.05 20.2
-1 -4 -12 473.55 17.9
-1 4 -12 499.65 17.9
1 -4 -12 466.25 17
-1 4 -12 477.75 18.2
-1 -4 12 451.85 20.6
1 -4 -12 479.25 19.3
1 -4 -12 487.85 17.8
1 4 12 483.35 23.5
2 -4 12 129.99 12.3
2 4 -12 133.89 7.9
-2 -4 -12 147.69 13.7
2 4 -12 132.69 7.3
-2 -4 -12 153.18 10.5
-2 -4 -12 112.69 10.2
2 -4 -12 135.99 8.1
-2 4 -12 119.09 9.9
-2 4 -12 126.09 8.3
-2 -4 12 116.49 9.6
2 -4 -12 124.59 9.5
2 -4 -12 133.89 8.4
3 4 -12 239.78 10.1
3 -4 12 235.28 16.7
-3 -4 -12 245.78 17.7
3 4 -12 232.88 10.9
-3 -4 -12 233.88 16
-3 -4 -12 252.67 14.2
3 4 12 257.57 13
-3 -4 12 235.48 12.6
3 -4 -12 249.58 13.1
-3 4 -12 249.78 14.3
3 -4 -12 250.67 11.8
3 -4 -12 267.87 11.6
4 4 -12 37.3 4.1
4 4 -12 51.79 6
-4 -4 -12 44.1 10
-4 -4 -12 35.8 9
-4 -4 -12 46.6 8.4
-4 4 -12 58.09 9.7
4 -4 -12 50.09 5.9
-4 -4 12 71.29 6.5
4 -4 -12 43.8 7
4 -4 -12 46.7 5.7
4 4 12 48.7 7
5 4 -12 156.08 9.9
5 4 -12 160.58 7
-5 -4 -12 142.69 14.7
-5 -4 -12 168.08 15.6
-5 4 -12 144.79 12.7
5 -4 -12 141.59 9.6
5 -4 -12 128.19 8.4
5 -4 -12 124.59 10.3
-5 -4 12 147.99 8.4
5 4 12 128.79 10.3
6 4 -12 48.2 6.6
-6 -4 -12 39.9 10.8
6 4 -12 51.19 4
6 -4 -12 48.6 7.6
6 -4 -12 53.09 7
6 -4 -12 45.8 5.7
6 4 12 53.39 7.6
-6 4 -12 89.89 11.4
-7 -4 -12 317.37 21.5
7 4 -12 354.56 16.5
7 4 -12 356.56 11.6
7 -4 -12 350.86 15
7 -4 -12 360.86 18
-7 4 -12 359.66 19.6
7 -4 -12 356.46 16.9
7 4 12 346.07 17.6
-8 -4 -12 49.4 11.8
8 4 -12 46.9 7.6
8 4 -12 57.09 3.9
8 -4 -12 56.19 8.7
8 4 12 60.79 9.1
-8 4 -12 67.79 11
8 -4 -12 51.89 7.9
8 -4 -12 48.9 6.3
-9 -4 -12 116.79 16.3
9 4 -12 129.79 5.8
9 -4 -12 126.39 12.9
-9 4 -12 133.69 15
9 -4 -12 135.09 13.6
9 4 12 143.79 13.3
9 -4 -12 125.89 9.5
10 4 -12 52.89 4
-10 -4 -12 51.49 13.7
10 -4 -12 71.99 11
10 4 12 47.9 8.8
10 -4 -12 69.39 11.2
-10 4 -12 31.5 10.8
10 -4 -12 46.5 6.8
-11 -4 -12 31.6 13.6
11 -4 -12 43.2 9.6
-11 4 -12 33.2 11.5
11 -4 -12 61.19 7.7
11 -4 -12 51.09 10.2
11 4 12 44.6 8.8
0 -5 12 42.7 7.8
0 -5 -12 50.89 7.4
0 -5 -12 56.29 6.3
0 5 -12 53.99 5.7
0 -5 -12 40.2 6
1 -5 12 147.49 13.1
-1 -5 -12 147.69 10.1
-1 -5 -12 146.19 11.3
1 5 -12 151.18 8.3
-1 5 -12 134.69 8.4
1 -5 -12 138.89 8.6
1 -5 -12 132.29 9
1 -5 -12 126.59 9.9
-1 -5 12 135.79 11.2
2 5 -12 531.35 17.8
2 -5 12 497.25 24.7
-2 -5 -12 530.75 21.5
-2 -5 -12 514.15 30.9
-2 -5 -12 512.75 22.2
2 -5 -12 528.55 18.8
-2 -5 12 490.95 21.1
2 -5 -12 512.65 18.9
-2 5 -12 522.25 19.4
2 -5 -12 487.95 20.1
3 -5 12 88.49 12
-3 -5 -12 94.09 12.8
-3 -5 -12 106.29 10.8
-3 -5 -12 78.59 10.9
3 5 -12 87.49 6.1
3 -5 -12 90.19 7.3
3 -5 -12 71.29 8.2
-3 -5 12 86.49 8
-3 5 -12 70.19 7.5
3 5 12 85.39 8.9
3 -5 -12 82.59 6.9
-3 5 -12 68.99 8.9
-4 -5 -12 159.18 14.7
-4 -5 -12 148.09 14.8
-4 -5 -12 141.79 12.7
4 5 12 142.99 10.9
4 -5 -12 140.79 10.6
-4 5 -12 140.59 12.1
4 -5 -12 142.69 9.5
4 -5 -12 142.49 9.4
-5 -5 -12 79.69 12.8
-5 -5 -12 55.89 11.3
-5 -5 -12 89.09 11.2
5 5 -12 71.29 5
5 -5 -12 80.79 9.1
-5 5 -12 87.09 11
5 -5 -12 79.09 8
5 5 12 91.79 9.1
5 -5 -12 80.69 7.6
6 5 -12 505.25 15.7
-6 -5 -12 514.05 26
6 -5 -12 523.45 20.9
6 -5 -12 504.55 19.4
6 -5 -12 502.35 21.6
-6 5 -12 471.45 22.2
6 5 12 476.45 20.8
7 5 -12 167.98 7
-7 -5 -12 181.08 17.7
7 -5 -12 181.68 12.9
7 -5 -12 185.58 12.4
7 5 12 162.88 12.1
-7 5 -12 187.38 14.8
7 -5 -12 185.48 11.1
8 5 -12 419.06 13.1
-8 -5 -12 402.06 25.3
8 -5 -12 413.16 20
8 -5 -12 423.96 18.1
-8 5 -12 455.85 22.7
8 5 12 433.36 20.6
8 -5 -12 437.86 20.8
-9 -5 -12 164.68 19.1
9 5 -12 182.78 6.9
-9 5 -12 189.38 16.7
9 -5 -12 185.68 13.9
9 5 12 234.88 14.9
9 -5 -12 204.08 14.2
9 -5 -12 170.78 11.8
-10 -5 -12 116.19 17.8
10 -5 -12 124.49 10.5
10 5 12 146.19 13.8
10 -5 -12 112.79 13.4
10 -5 -12 165.98 16.2
-10 5 -12 112.19 15.1
-11 -5 -12 46.5 14.5
11 -5 -12 54.69 11.1
-11 5 -12 50.29 12.1
11 -5 -12 44 9.8
11 5 12 52.39 9.9
11 -5 -12 60.79 8.2
0 -6 12 16.8 6.2
0 -6 -12 15.1 5.1
0 6 -12 8.7 3.5
0 -6 -12 22.4 5.2
-1 -6 -12 20.9 6.3
1 6 -12 31 4.7
-1 -6 -12 27.4 6.9
1 -6 12 31.6 7.4
-1 -6 12 30.6 6.8
1 -6 -12 35 5.6
1 -6 -12 27 5.5
1 -6 -12 24.7 5.8
-1 6 -12 26.4 4.7
-2 -6 -12 121.49 11.3
2 6 -12 118.59 7.5
-2 -6 -12 120.79 11.7
2 -6 12 131.19 13
2 -6 -12 93.69 7.9
2 -6 -12 117.09 8.7
2 -6 -12 99.49 9.5
-2 6 -12 110.39 8.8
-2 -6 12 118.69 10.1
-3 -6 -12 454.15 21
-3 -6 -12 442.86 21.8
3 6 -12 451.65 16.1
-3 -6 -12 464.15 25.4
3 -6 12 434.06 24.3
-3 6 -12 460.15 18.6
3 -6 -12 473.05 18.2
3 -6 -12 446.36 18.8
3 6 12 461.45 19.5
3 -6 -12 474.45 18.3
-4 -6 -12 385.96 20.9
-4 -6 -12 337.87 22.2
4 6 -12 379.96 13.5
-4 -6 -12 379.96 19.7
4 -6 -12 371.96 17.3
4 6 12 371.66 17.2
4 -6 -12 369.56 16.1
4 -6 -12 350.76 15.6
-5 -6 -12 79.89 11.3
5 6 -12 70.79 5
-5 -6 -12 70.09 11.8
5 -6 -12 66.29 7.9
5 6 12 57.29 8
5 -6 -12 70.49 7.5
5 -6 -12 71.29 8.7
-6 -6 -12 148.49 15.8
6 6 -12 123.99 6.3
-6 -6 -12 149.39 15.6
6 -6 -12 117.39 8.9
6 -6 -12 128.79 10.1
6 -6 -12 126.89 10
6 6 12 129.99 11.6
-7 -6 -12 398.66 22.5
7 6 -12 382.06 12.4
-7 -6 -12 337.57 23.2
7 -6 -12 367.46 18.9
7 -6 -12 393.06 18.7
7 6 12 358.06 18.3
7 -6 -12 390.16 17.2
-8 -6 -12 189.88 20
8 6 -12 234.48 8.5
8 -6 -12 261.07 14.1
-8 6 -12 244.58 20
8 -6 -12 252.77 15.4
8 -6 -12 264.17 16.3
8 6 12 254.47 15.5
-9 -6 -12 297.97 24.2
9 -6 -12 292.87 16
9 -6 -12 330.57 18.5
-9 6 -12 315.47 20.3
9 -6 -12 354.26 19.7
9 6 12 349.67 19.1
-10 -6 -12 7.3 12.3
10 6 12 43.2 9.1
-10 6 -12 49.1 11.6
10 -6 -12 28.7 8.2
10 -6 -12 46.4 7.5
10 -6 -12 44.2 9.6
-11 -6 -12 85.99 17.8
11 -6 -12 85.39 13.1
-11 6 -12 79.49 15
11 -6 -12 80.29 9.4
11 -6 -12 93.39 13.2
11 6 12 87.19 11.6
0 -7 12 169.48 13.9
0 -7 -12 185.78 12
0 7 -12 181.88 10.3
0 -7 -12 176.58 11.6
1 -7 12 23 7.3
-1 -7 -12 24.9 6.6
1 7 -12 28.2 4.7
-1 -7 -12 34.1 7.4
1 -7 -12 33.1 6.3
-1 7 -12 28.5 5.4
1 -7 -12 35.2 6.5
-2 -7 -12 136.79 12.1
2 -7 12 111.79 13.6
2 7 -12 128.39 8.2
-2 -7 -12 139.99 10.8
2 -7 -12 134.69 9.7
-2 7 -12 134.09 9.3
2 -7 -12 138.19 9.3
2 -7 -12 126.29 9.3
-3 -7 -12 156.08 13.7
-3 -7 -12 160.28 13.6
3 -7 12 155.38 15.3
3 7 -12 172.38 9
3 -7 -12 164.48 11.3
-3 7 -12 158.18 11
3 7 12 164.18 11.8
3 -7 -12 167.38 10.8
3 -7 -12 156.28 10.4
-4 -7 -12 265.17 17.5
4 7 -12 266.57 11.4
-4 -7 -12 267.97 20
-4 -7 -12 285.67 18.3
4 -7 -12 308.57 14.5
4 -7 -12 282.87 14.3
4 7 12 273.77 15.1
4 -7 -12 304.77 15.3
-5 -7 -12 220.88 16.8
5 7 -12 244.48 9.8
-5 -7 -12 267.67 18.5
5 -7 -12 201.18 12.5
5 7 12 200.28 13.4
5 -7 -12 207.48 13.4
5 -7 -12 246.08 13
-6 -7 -12 198.38 16.6
-6 -7 -12 186.78 17.6
6 7 -12 187.38 8.2
6 7 12 179.18 13
6 -7 -12 178.88 12
6 -7 -12 169.98 12.6
6 -7 -12 179.58 11.5
-7 -7 -12 87.29 13.5
-7 -7 -12 86.59 14.1
7 7 -12 95.39 5.5
7 -7 -12 87.19 10.2
7 -7 -12 100.39 9.7
7 -7 -12 95.99 11
7 7 12 95.79 11.1
-8 -7 -12 214.38 21
-8 -7 -12 228.78 19.6
8 7 -12 224.28 8.6
8 -7 -12 245.68 15.4
8 -7 -12 254.77 16.3
8 7 12 254.37 16.2
8 -7 -12 232.18 13.9
-9 -7 -12 85.69 16.3
9 -7 -12 90.49 9.9
9 -7 -12 79.79 11.3
9 7 12 95.49 11.5
9 -7 -12 111.09 12.7
-10 -7 -12 63.99 15.5
10 -7 -12 99.79 13.1
10 7 12 66.29 10.7
10 -7 -12 85.09 10.1
10 -7 -12 84.49 12.2
0 -8 -12 -5.2 4.4
0 -8 -12 -1.4 4.8
0 8 -12 7.2 3.8
1 8 -12 469.85 17.9
-1 -8 -12 450.85 20.5
-1 -8 -12 453.85 20.1
1 -8 -12 438.26 19.3
1 -8 -12 471.55 19.7
-1 8 -12 458.25 18.9
-2 -8 -12 70.99 10.3
-2 -8 -12 81.59 10.1
2 8 -12 92.29 7.7
2 -8 12 95.09 13.2
2 -8 -12 88.49 9.5
-2 8 -12 80.29 8.4
2 -8 -12 87.09 9.3
-3 -8 -12 311.27 18.6
-3 -8 -12 325.37 18.4
3 8 -12 337.97 13.8
3 -8 -12 330.87 15.8
3 8 12 409.36 26.2
3 -8 -12 347.07 16.6
-3 8 -12 301.27 15.8
3 -8 -12 320.87 15.8
-4 -8 -12 146.59 15
4 8 -12 144.29 8.3
-4 -8 -12 133.59 13.9
4 -8 -12 141.39 10.2
4 8 12 156.78 12.4
4 -8 -12 125.49 10.2
4 -8 -12 147.49 11.1
5 8 -12 153.28 8
-5 -8 -12 143.79 15
-5 -8 -12 127.89 14.9
5 8 12 142.49 12.8
5 -8 -12 133.39 10.6
5 -8 -12 116.59 10.6
5 -8 -12 141.59 10.3
-6 -8 -12 31 10.4
-6 -8 -12 40.3 10.6
6 8 -12 28.8 4
6 -8 -12 43.7 7.8
6 8 12 40 7.8
6 -8 -12 36.5 7.3
6 -8 -12 29.2 6.1
7 8 -12 245.48 9.8
-7 -8 -12 250.87 19.7
-7 -8 -12 229.18 20.2
7 8 12 224.18 15.5
7 -8 -12 240.58 15
7 -8 -12 234.08 15.2
7 -8 -12 238.68 13.8
-8 -8 -12 67.09 14.7
8 8 -12 57.69 4.9
-8 -8 -12 73.89 13.7
8 8 12 69.09 10.2
8 -8 -12 70.79 8.9
8 -8 -12 80.99 10.9
8 -8 -12 69.79 10.3
-9 -8 -12 67.09 15.6
9 8 -12 77.39 5.3
-9 -8 -12 68.49 15.3
9 8 12 88.59 11.4
9 -8 -12 91.49 11.9
9 -8 -12 81.49 9.8
9 -8 -12 63.39 10.5
-10 -8 -12 3.4 12.3
-10 -8 -12 26.5 13.1
10 -8 -12 17 5.9
10 -8 -12 22.6 7.7
10 -8 -12 12.5 7.1
10 8 12 18.3 7.7
0 -9 -12 50.59 8.4
0 9 -12 61.09 7.3
0 -9 -12 72.39 8.7
-1 -9 -12 279.27 15.5
-1 -9 -12 252.67 15.5
1 9 -12 275.67 13.3
-1 9 -12 244.68 13.3
1 -9 -12 262.57 14.3
1 -9 -12 250.67 14.5
-2 -9 -12 156.78 14.5
-2 -9 -12 166.48 12.6
2 9 -12 168.48 10.2
-2 9 -12 152.18 11.3
2 -9 -12 154.88 11.4
2 -9 -12 172.38 11.9
-3 -9 -12 353.26 20.3
3 9 -12 376.76 15.4
-3 -9 -12 360.56 19.1
3 -9 -12 368.66 17.4
3 -9 -12 358.96 17.4
-4 -9 -12 63.99 10.6
4 9 -12 54.89 6
-4 -9 -12 69.29 11.7
4 -9 -12 63.49 8.3
4 9 12 64.99 9.3
4 -9 -12 79.29 9.3
4 -9 -12 57.49 11.9
5 9 -12 79.59 6.5
-5 -9 -12 91.49 13.7
-5 -9 -12 66.09 11.4
5 9 12 87.39 10.5
5 -9 -12 84.59 9.7
5 -9 -12 89.19 10.2
5 -9 -12 71.59 8.5
6 9 -12 257.77 11.1
-6 -9 -12 253.87 20.7
-6 -9 -12 294.87 22
6 -9 -12 251.37 14.6
6 -9 -12 235.28 14.8
6 9 12 253.97 16.3
6 -9 -12 245.88 15.3
-7 -9 -12 172.78 19
7 9 -12 157.68 8.5
-7 -9 -12 196.18 19.3
7 9 12 188.18 14.2
7 -9 -12 187.78 13.9
7 -9 -12 186.08 13.7
7 -9 -12 217.38 13.9
8 9 -12 83.49 5.9
-8 -9 -12 99.79 16.7
-8 -9 -12 91.49 15.5
8 -9 -12 79.59 11.1
8 -9 -12 103.29 12.5
8 9 12 91.69 11.6
8 -9 -12 86.39 10.3
-9 -9 -12 23.4 12.3
-9 -9 -12 49.99 14.8
9 9 -12 34 3.8
9 9 12 36.5 8.8
9 -9 -12 30.9 7.1
9 -9 -12 38.2 8.8
9 -9 -12 38.5 8.9
0 10 -12 64.19 7.8
0 -10 -12 66.49 8.5
0 -10 -12 67.79 9.7
-1 -10 -12 94.39 10.5
-1 -10 -12 94.89 11.4
1 10 -12 73.69 8
1 -10 -12 103.39 9.9
-1 10 -12 66.09 8.1
1 -10 -12 102.49 10.9
-2 -10 -12 299.17 16.2
2 10 -12 283.67 14.1
-2 -10 -12 291.47 17.8
-2 10 -12 276.57 15.5
2 -10 -12 277.07 15.7
2 -10 -12 300.77 15.4
-3 -10 -12 8.8 6.9
3 10 -12 14.1 4.5
-3 -10 -12 14.5 8.1
3 -10 -12 21.9 6.2
3 -10 -12 21.4 5.8
4 10 -12 74.69 7.3
-4 -10 -12 99.49 13.6
-4 -10 -12 91.09 11.8
4 10 12 94.29 11.1
4 -10 -12 102.19 10.8
4 -10 -12 101.49 10.3
-5 -10 -12 270.67 19.4
5 10 -12 250.97 12
-5 -10 -12 258.47 19.7
5 10 12 231.68 16.6
5 -10 -12 221.78 14.6
5 -10 -12 249.78 14.9
6 10 -12 99.39 7.6
-6 -10 -12 94.59 13.9
-6 -10 -12 93.29 15.3
6 10 12 112.99 12.5
6 -10 -12 103.39 11.3
6 -10 -12 126.79 12.8
-7 -10 -12 279.57 23
7 10 -12 283.57 12.3
-7 -10 -12 276.27 22.6
7 -10 -12 306.27 18.6
7 -10 -12 270.47 16.2
7 10 12 309.77 18.7
7 -10 -12 297.37 17.6
8 10 -12 84.89 6.6
-8 -10 -12 82.69 15.8
-8 -10 -12 99.89 16.4
8 -10 -12 82.29 10.2
8 -10 -12 89.59 11.7
8 10 12 70.19 11.3
8 -10 -12 95.59 12.1
-9 -10 -12 101.29 17.5
9 10 -12 69.99 6
-9 -10 -12 82.69 19.8
9 10 12 100.99 12.5
9 -10 -12 96.19 11.5
9 -10 -12 83.09 12
9 -10 -12 120.89 13.6
0 -11 -12 129.49 10.5
0 -11 -12 130.59 13.1
0 11 -12 126.89 11.2
-1 -11 -12 29.7 7
-1 -11 -12 39.3 8.8
1 11 -12 33.4 6.5
1 -11 -12 31.9 6.3
1 -11 -12 36.1 7.6
-1 11 -12 20.8 6
-2 -11 -12 52.59 10.2
-2 -11 -12 70.19 11.2
2 11 -12 40.5 6.3
-2 11 -12 38.7 7.3
2 -11 -12 58.89 9
2 -11 -12 62.69 8
3 11 -12 12.8 4.8
-3 -11 -12 8.2 8.4
3 -11 -12 26.4 6.9
3 -11 -12 33 6.4
4 11 -12 29.7 5.7
-4 -11 -12 34.9 10.5
4 -11 -12 33.2 7.8
4 -11 -12 29.9 6.6
5 11 -12 39.5 6.1
-5 -11 -12 46.5 12.3
5 -11 -12 41.3 7.7
5 11 12 59.19 9.9
5 -11 -12 37.2 8.1
6 11 -12 293.67 13.6
-6 -11 -12 291.67 22.5
6 11 12 282.87 18.8
6 -11 -12 271.47 17.3
6 -11 -12 309.57 17.4
-7 -11 -12 76.29 15.5
7 11 -12 81.49 7.3
7 -11 -12 82.19 10.9
7 -11 -12 114.69 12.9
7 11 12 76.99 11.5
8 11 -12 62.39 6.3
-8 -11 -12 59.59 15.3
8 11 12 53.79 10.2
8 -11 -12 51.99 9.9
8 -11 -12 56.89 10.5
0 -12 -12 311.57 18.5
0 12 -12 302.17 16.6
-1 -12 -12 131.79 14
1 12 -12 154.98 11.7
-1 12 -12 152.28 11.9
1 -12 -12 181.88 13.8
-2 -12 -12 77.09 12
2 12 -12 77.09 8.9
-2 12 -12 84.89 9.9
2 -12 -12 87.29 11.4
-3 -12 -12 8.6 8.6
3 12 -12 29.3 6.2
3 -12 -12 15.7 6.8
4 12 -12 67.59 7.9
-4 -12 -12 86.69 13.9
4 -12 -12 87.59 11.6
-5 -12 -12 98.59 15.7
5 12 -12 81.69 8.7
5 -12 -12 88.49 12.2
6 12 -12 62.29 7.4
-6 -12 -12 36.8 14.3
6 12 12 49.6 9.9
6 -12 -12 65.19 10.7
7 12 -12 6.2 4.4
-7 -12 -12 -0.6 10.5
7 -12 -12 19.7 7.9
7 12 12 19 8.3
0 13 -12 414.76 20.2
0 -13 -12 381.36 21.5
1 13 -12 447.76 20.9
-1 -13 -12 422.86 23.7
-1 13 -12 437.26 21.3
1 -13 -12 450.15 22.8
2 13 -12 97.49 10.5
-2 -13 -12 112.19 14.2
2 -13 -12 95.89 12.3
3 13 -12 173.58 12.7
-3 -13 -12 173.68 17.7
3 -13 -12 182.28 14.8
4 13 -12 36.2 6.9
-4 -13 -12 38.2 11.4
4 -13 -12 47.6 9.9
5 13 -12 114.29 10.4
-5 -13 -12 117.09 16.7
5 -13 -12 126.99 14.4
6 13 -12 33.7 6.5
-6 -13 -12 34.5 12.9
6 -13 -12 68.69 11.1
6 13 12 26.3 10.9
0 14 -12 390.86 20.3
0 -14 -12 369.16 21.8
-1 -14 -12 108.09 14.3
1 14 -12 92.29 11.1
1 -14 -12 114.79 13.7
-1 14 -12 91.29 11.1
2 14 -12 117.59 12
-2 -14 -12 120.09 14.9
2 -14 -12 124.29 14.2
-3 -14 -12 66.79 12.7
3 14 -12 36.9 7.6
3 -14 -12 78.29 11.9
4 14 -12 150.08 12.2
-4 -14 -12 145.69 17.3
4 -14 -12 167.18 16.4
-5 -14 -12 59.29 13.6
5 14 -12 52.69 8.2
5 -14 -12 55.29 10.5
0 -15 -12 24 8.4
0 15 -12 10.6 6.6
1 15 -12 84.69 10.7
-1 -15 -12 69.49 12.2
-1 15 -12 80.99 10.9
1 -15 -12 86.69 12.6
-2 -15 -12 44.2 10.4
2 15 -12 27.7 7.9
2 -15 -12 41 9.4
-3 -15 -12 81.69 13.4
3 15 -12 65.99 9.7
3 -15 -12 85.99 12.6
0 0 -13 1.5 4.4
0 0 13 1.6 4.4
0 0 -13 1.5 2.6
1 0 -13 8.6 4.4
-1 0 13 7.6 4.6
1 0 13 13.4 6
-1 0 -13 13.7 3.8
1 0 -13 8.9 3.4
-1 0 -13 16.1 4.9
2 0 -13 85.49 6.3
-2 0 -13 76.19 9.5
-2 0 13 81.19 9.3
2 0 -13 88.69 7.8
-2 0 -13 85.59 7
2 0 13 90.29 11
3 0 -13 121.49 8.8
-3 0 13 141.09 10.9
-3 0 -13 114.69 12
3 0 -13 111.89 7.2
3 0 13 110.89 15.1
-4 0 13 8.1 4.5
-4 0 -13 9 8
4 0 -13 19.2 3.7
4 0 -13 16.8 5
-5 0 -13 1160.08 41.6
5 0 -13 1199.88 34.8
5 0 -13 1177.18 38
6 0 -13 21.3 3.8
-6 0 -13 12.1 8.2
6 0 13 35.7 7.8
6 0 -13 21.5 5.8
7 0 13 392.16 18.8
7 0 -13 411.56 19.2
-7 0 -13 438.96 23.3
7 0 -13 423.76 15.2
8 0 -13 43.8 7.9
8 0 -13 45.7 4.9
-8 0 -13 41.3 10.8
8 0 13 55.39 8.3
-9 0 -13 851.01 36.9
9 0 13 891.81 33
9 0 -13 839.72 33.2
9 0 -13 868.41 27.2
10 0 -13 -2.7 5.9
-10 0 -13 8 10.6
10 0 13 2 5.5
10 0 -13 -0.3 3.2
11 0 -13 322.47 20.5
11 0 -13 348.07 14.5
-11 0 -13 329.07 25.1
0 1 -13 130.79 9.4
0 -1 -13 123.19 8.9
0 1 13 142.79 12
0 1 -13 127.59 7.9
0 -1 -13 142.59 8.5
0 -1 13 132.99 11.4
1 -1 13 162.08 12.9
-1 -1 -13 165.88 11.6
1 1 -13 152.58 9.6
-1 -1 -13 141.59 9
1 1 -13 151.88 8.4
-1 1 13 148.69 11.9
1 -1 -13 149.39 8.6
-1 -1 13 151.28 11.9
1 -1 -13 131.59 9.6
-1 1 -13 163.48 9
-1 1 -13 162.88 11
1 1 13 157.38 12.8
2 -1 13 21.9 6.7
2 1 -13 22.9 3.9
-2 -1 -13 17.3 4.1
-2 1 13 20.8 5.7
2 1 -13 15.2 4.5
-2 -1 -13 15 6.9
2 1 13 18.1 6.4
-2 -1 13 20.6 5.7
-2 1 -13 18.8 4.2
2 -1 -13 17.4 3.8
-2 1 -13 4.4 6.1
2 -1 -13 20.9 5.2
-3 -1 -13 11.5 6.2
3 -1 13 27.2 7.3
3 1 -13 17.4 3.6
-3 1 13 23.5 6
3 1 -13 26 5
3 -1 -13 25.4 4.2
-3 1 -13 36.1 8.4
-3 -1 13 24.5 5.5
3 -1 -13 20 5.1
-4 1 13 788.22 29.3
4 1 -13 771.22 26.6
4 1 -13 781.22 24.3
-4 -1 -13 772.02 30.8
-4 -1 13 761.72 27.7
-4 1 -13 744.83 30
4 -1 -13 811.52 25
4 -1 -13 745.63 27
5 1 -13 33.4 6.2
-5 -1 -13 30 9.4
5 1 -13 42.3 4.6
-5 1 -13 45.8 9.8
5 -1 -13 36 6.6
5 1 13 38 6.5
5 -1 -13 38.1 4.8
-6 -1 -13 374.46 25.5
6 1 -13 403.76 14.1
-6 -1 -13 385.96 20.7
6 1 -13 411.06 17.9
-6 1 -13 405.66 21.4
6 -1 -13 378.66 14.7
6 -1 -13 389.26 18.1
6 1 13 358.16 17.5
7 1 -13 125.89 7
-7 -1 -13 116.29 14.3
7 1 -13 129.69 10.5
7 -1 -13 140.99 11.1
7 -1 -13 121.59 7.7
7 1 13 126.49 10.3
-7 1 -13 134.39 14.4
8 1 -13 263.07 15.5
8 1 -13 274.17 11
-8 -1 -13 268.97 20.1
-8 1 -13 268.07 19.3
8 1 13 244.98 15
8 -1 -13 283.27 15.7
8 -1 -13 289.07 12.1
-9 -1 -13 8.4 7.9
9 1 -13 19 6.9
9 1 -13 18.3 3.7
9 -1 -13 12.9 3.9
9 -1 -13 22.1 7
9 1 13 8.6 5.8
-9 1 -13 10.5 9.1
10 1 -13 506.45 18.1
-10 -1 -13 472.85 28.9
10 1 -13 530.15 25.3
-10 1 -13 521.65 29
10 -1 -13 524.25 19.5
10 -1 -13 579.84 26.3
10 1 13 533.25 24.6
11 1 -13 0.5 6.4
11 1 -13 2.3 3
-11 -1 -13 -1.1 11
11 1 13 0 5.7
11 -1 -13 1.7 3.5
-11 1 -13 5.6 10.1
11 -1 -13 2 6.6
0 2 13 275.57 16.6
0 -2 -13 269.97 12.4
0 -2 13 269.97 16
0 2 -13 283.77 13.1
0 -2 -13 281.07 14.3
0 2 -13 269.47 12.1
-1 -2 -13 162.48 9
1 2 -13 144.59 8.3
1 -2 13 134.39 12
-1 -2 -13 135.99 11.2
1 2 -13 144.69 9.1
-1 2 13 137.09 11.9
1 -2 -13 138.99 9.3
-1 2 -13 137.19 10.2
-1 -2 13 156.08 11.9
1 2 13 144.49 12.7
1 -2 -13 139.99 8.5
-1 2 -13 148.89 8.7
2 -2 13 272.27 17.2
2 2 -13 259.87 12.3
-2 -2 -13 257.37 15.5
-2 -2 -13 250.37 12.2
-2 2 13 254.77 15.9
2 2 -13 264.67 11.4
-2 2 -13 277.37 14.9
2 -2 -13 267.97 13.5
2 -2 -13 270.87 12
2 2 13 284.67 17.6
-2 2 -13 290.77 12.9
-2 -2 13 275.17 15
3 -2 13 275.57 18.2
3 2 -13 293.67 13.3
-3 -2 -13 325.77 21
-3 -2 -13 260.27 17
3 2 -13 287.47 11.7
-3 2 13 277.27 16.1
-3 2 -13 298.37 16.7
3 -2 -13 313.27 14.5
-3 -2 13 295.77 15
-3 2 -13 285.57 13.5
3 -2 -13 282.27 12.4
4 2 -13 203.48 9.1
-4 -2 -13 181.88 15.7
4 2 -13 200.18 11.1
4 -2 -13 182.68 9.7
-4 -2 13 195.28 11.5
4 -2 -13 215.28 12.2
-4 2 -13 167.68 14.4
-5 -2 -13 394.86 23.8
5 2 -13 374.56 13.6
5 2 -13 393.06 16.7
-5 -2 -13 369.86 21.2
5 2 13 365.76 17.2
-5 2 -13 368.66 20
5 -2 -13 374.26 14.8
5 -2 -13 383.16 17.5
6 2 -13 64.59 7.9
6 2 -13 68.19 5.2
-6 -2 -13 62.39 11.4
-6 -2 -13 57.39 11.2
-6 2 -13 67.79 10.9
6 -2 -13 61.69 8.3
6 -2 -13 70.99 6.5
6 2 13 78.29 8.8
-7 -2 -13 35.2 10.4
7 2 -13 27.3 6.4
7 2 -13 30.3 3.7
7 -2 -13 31.3 4.6
7 2 13 34.9 6.5
-7 2 -13 14 8.4
7 -2 -13 28.6 6.6
8 2 -13 11.9 5.1
-8 -2 -13 12.9 9.4
8 2 -13 9.4 2.6
8 2 13 7.7 5.6
-8 2 -13 4.7 8.2
8 -2 -13 9.3 3.4
8 -2 -13 8.6 4.7
9 2 -13 274.77 17.5
-9 -2 -13 287.97 22.3
9 2 -13 288.27 11.4
9 2 13 299.87 17.6
-9 2 -13 281.57 20.7
9 -2 -13 338.67 14.1
9 -2 -13 331.77 18.6
10 2 -13 44.8 8.9
10 2 -13 39.6 4.5
-10 -2 -13 39.5 13.2
10 2 13 43.8 8.7
10 -2 -13 21 7.9
10 -2 -13 29 5.6
-10 2 -13 21.9 11.1
11 2 -13 137.79 7.9
11 2 -13 152.48 15.5
-11 -2 -13 104.39 17.9
-11 2 -13 138.19 18.2
11 -2 -13 136.19 15.3
11 2 13 171.48 14.7
11 -2 -13 137.29 10
0 -3 -13 5.1 3.2
0 -3 -13 1 3.3
0 3 -13 6.1 3.2
0 -3 -13 -10.8 4.2
0 -3 13 2 4.5
0 3 13 0.2 5
0 3 -13 -2 3.9
1 3 -13 1062.09 32.7
-1 -3 -13 1061.39 35.8
1 -3 13 1077.99 39.4
1 3 -13 1056.49 33
-1 3 13 1078.99 39.6
-1 -3 -13 1085.09 33
-1 -3 -13 1068.69 33.6
-1 3 -13 1092.49 33.6
-1 -3 13 1042.2 37.4
1 3 13 1106.29 40.3
-1 3 -13 1099.39 34.2
1 -3 -13 1066.89 33.3
1 -3 -13 1101.39 35.2
-2 -3 -13 164.18 11.1
2 -3 13 160.98 13.8
2 3 -13 164.68 9.7
2 3 -13 164.78 8.7
-2 -3 -13 152.28 13
-2 3 -13 170.08 10
2 -3 -13 172.88 9.5
-2 -3 13 157.38 11.5
2 -3 -13 155.28 10.6
-2 3 -13 180.18 12
-3 -3 -13 859.71 32.9
3 -3 13 887.21 36.1
3 3 -13 886.11 27.2
3 3 -13 916.61 28.7
-3 -3 -13 918.91 30.5
-3 3 -13 865.61 29.3
3 -3 -13 871.61 28.4
3 -3 -13 986.7 34.8
-3 -3 13 834.32 30.5
-3 3 -13 860.21 31.4
3 -3 -13 871.61 30.2
-4 -3 -13 1147.89 46.5
4 3 -13 1158.78 36
4 3 -13 1147.59 33.7
-4 -3 -13 1106.19 40.8
-4 -3 -13 1186.28 38.2
4 -3 -13 1177.68 37.8
4 -3 -13 1157.38 35.4
4 -3 -13 1159.98 37.6
-4 -3 13 1214.38 45.4
4 3 13 1074.89 37
-4 3 -13 1190.08 39.8
-5 -3 -13 448.36 25.5
5 3 -13 454.65 18.2
-5 -3 -13 426.76 22.9
5 3 -13 438.66 14.8
5 -3 -13 404.86 18.8
5 3 13 406.66 18.4
5 -3 -13 410.16 16.4
5 -3 -13 438.96 19.4
-5 3 -13 417.46 21.2
6 3 -13 13.6 4.7
-6 -3 -13 13.2 9.2
6 3 -13 9.7 2.7
6 -3 -13 8.1 5
6 -3 -13 11 4.7
6 -3 -13 12.3 3.8
-6 3 -13 8.6 7.8
6 3 13 13.8 5.3
7 3 -13 49.9 7.2
-7 -3 -13 25.2 10.4
7 3 -13 43.4 4.1
7 -3 -13 31.8 7
-7 3 -13 33.7 9.4
7 3 13 44.1 7.3
7 -3 -13 44.6 5.7
7 -3 -13 58.79 8.7
8 3 -13 180.98 12.7
8 3 -13 192.08 8.1
-8 -3 -13 184.28 18.6
-8 3 -13 190.68 16.5
8 -3 -13 191.38 10.7
8 3 13 218.58 14.3
8 -3 -13 178.88 13.6
9 3 -13 128.29 12.6
9 3 -13 108.69 6.1
-9 -3 -13 78.09 14.3
9 3 13 102.09 11.8
9 -3 -13 117.59 9
-9 3 -13 90.49 13.5
9 -3 -13 104.49 12.2
10 3 -13 214.58 9
-10 -3 -13 181.18 19.7
10 3 -13 214.98 16.5
10 -3 -13 231.58 16.8
10 -3 -13 222.48 12.5
-10 3 -13 219.78 19.7
10 3 13 231.78 15.7
11 3 -13 21.9 3.4
11 3 -13 11.4 6.8
-11 -3 -13 17.9 12.6
11 3 13 16.7 6.8
11 -3 -13 18.8 5.4
-11 3 -13 18.2 11
11 -3 -13 18.1 7.8
-11 -3 13 4.5 7.1
0 4 13 51.39 9
0 -4 13 44.7 7.9
0 -4 -13 49.7 6
0 -4 -13 57.19 6.5
0 -4 -13 45.9 7.5
0 4 -13 63.89 6.3
0 4 -13 63.79 6.7
-1 -4 -13 173.18 11.5
1 4 -13 191.58 9.8
1 4 -13 182.78 9.5
-1 -4 -13 182.48 10.3
1 -4 13 183.68 14
-1 -4 -13 165.08 10.3
1 -4 -13 185.38 9.7
-1 4 -13 183.18 11
1 -4 -13 174.98 11.6
-1 4 -13 189.38 10.3
-1 -4 13 191.28 13.2
1 -4 -13 174.98 9.9
1 4 13 173.68 14.6
-2 -4 -13 985.9 34.1
-2 -4 -13 988.7 32.6
2 4 -13 998.3 30.4
2 4 -13 958.1 29.9
2 -4 13 988.3 38.2
2 -4 -13 1000 31.3
2 -4 -13 960.1 30.2
-2 4 -13 940.11 31.4
-2 -4 13 955.9 34.1
-2 4 -13 1005.9 32.5
2 -4 -13 972.3 32.7
3 4 -13 1036.1 31.3
3 4 -13 1046.6 32.5
-3 -4 -13 1050.59 35.3
-3 -4 -13 1083.09 37.8
3 -4 13 1030 40.8
3 -4 -13 1075.19 33.2
-3 4 -13 1055.89 34
3 -4 -13 1030.7 34.5
3 -4 -13 1066.69 32.5
-3 4 -13 1038.9 35.4
-3 -4 13 1027.6 34.9
4 4 -13 808.32 25.4
-4 -4 -13 852.41 30.5
-4 -4 -13 852.41 33.3
4 4 -13 837.52 27.6
-4 -4 -13 858.71 38.2
4 -4 -13 855.01 27.7
4 4 13 810.22 29.2
-4 4 -13 790.52 30.7
4 -4 -13 862.61 27.7
4 -4 -13 836.82 29.7
-5 -4 -13 419.16 25
5 4 -13 422.96 18.2
-5 -4 -13 446.86 21.4
-5 -4 -13 433.36 23.3
5 4 -13 410.16 14.5
5 -4 -13 435.66 17.2
5 -4 -13 421.26 19.1
-5 4 -13 424.86 21
5 -4 -13 446.26 17.6
5 4 13 427.16 18.8
-6 -4 -13 151.68 16.4
6 4 -13 163.18 7.6
6 -4 -13 153.38 11.8
6 4 13 167.08 11.7
-6 4 -13 170.78 14.6
6 -4 -13 191.18 11.4
6 -4 -13 176.08 10.1
7 4 -13 65.39 4.7
-7 -4 -13 57.19 12.4
7 -4 -13 69.79 9.3
7 4 13 64.69 8.9
7 -4 -13 62.19 6.9
7 -4 -13 65.99 8.3
-7 4 -13 59.99 10.6
-8 -4 -13 109.19 15.7
8 4 -13 125.29 6.1
8 -4 -13 126.89 12.3
-8 4 -13 78.49 12.1
8 -4 -13 116.49 12.2
8 -4 -13 118.29 9.2
8 4 13 117.09 12
9 4 -13 244.78 9.3
-9 -4 -13 249.38 22.2
9 4 13 283.87 17.2
9 -4 -13 246.68 15.9
9 -4 -13 257.77 13.6
-9 4 -13 208.38 18.6
9 -4 -13 245.28 15.8
-10 -4 -13 1.1 11.2
10 4 -13 25.7 3.1
-10 4 -13 13.5 10.4
10 -4 -13 25.4 8
10 4 13 14 6.8
10 -4 -13 18.7 5.3
10 -4 -13 19.1 7.5
11 4 -13 46.3 4.7
-11 -4 -13 37.9 14.9
-11 4 -13 33.4 12.5
11 -4 -13 46.7 7.3
11 -4 -13 59.19 12.8
11 -4 -13 59.89 11.2
11 4 13 50.09 9.6
0 -5 -13 2.5 4.1
0 -5 -13 -3.5 4.3
0 -5 -13 7.5 3.8
0 5 -13 6.4 3.5
0 -5 13 6.7 5.4
-1 -5 -13 204.28 11.9
-1 -5 -13 183.18 13.1
1 5 -13 199.58 10.2
1 -5 13 189.28 14.6
1 -5 -13 230.68 11.1
-1 -5 13 214.88 14.1
1 -5 -13 204.28 10.9
1 -5 -13 228.18 13.1
2 -5 13 5.7 6
-2 -5 -13 4.3 6.7
2 5 -13 5.6 3.3
-2 -5 -13 7.4 5.9
-2 5 -13 4.7 3.7
2 -5 -13 2.6 3.2
2 -5 -13 8.8 4.1
2 -5 -13 4.2 4.9
-2 -5 13 2.8 4.4
-3 -5 -13 1215.48 39.4
3 -5 13 1223.88 45.5
3 5 -13 1156.98 34.9
-3 -5 -13 1234.28 41.5
3 -5 -13 1144.49 36.3
3 -5 -13 1215.58 38.8
-3 5 -13 1136.39 37.3
3 -5 -13 1156.28 36.9
-4 -5 -13 265.77 16
4 5 -13 239.58 10.4
-4 -5 -13 253.27 17.7
-4 -5 -13 239.08 27.8
4 -5 -13 253.77 12.4
4 5 13 261.17 14
4 -5 -13 252.17 14.1
4 -5 -13 241.88 12.2
-4 5 -13 240.18 16
5 5 -13 251.07 10.3
-5 -5 -13 248.38 20
-5 -5 -13 290.57 17.1
-5 -5 -13 260.27 17.3
5 -5 -13 268.17 12.8
5 -5 -13 249.58 13.2
5 5 13 263.67 14.4
-5 5 -13 249.08 16.2
5 -5 -13 257.37 14.7
6 5 -13 125.19 6.4
-6 -5 -13 100.39 14.4
-6 -5 -13 121.79 13.6
6 5 13 109.39 10.9
6 -5 -13 113.99 8.9
6 -5 -13 86.49 10.2
6 -5 -13 110.59 9.2
-6 5 -13 105.89 12.3
-7 -5 -13 150.88 17.2
7 5 -13 149.19 7
7 5 13 166.78 12.3
7 -5 -13 150.08 10.4
7 -5 -13 141.69 12.1
7 -5 -13 156.78 11.3
-7 5 -13 170.68 15.7
-8 -5 -13 211.78 21
8 5 -13 222.78 8.7
-8 5 -13 199.68 17.1
8 5 13 243.68 15.2
8 -5 -13 239.28 13.2
8 -5 -13 224.98 15.6
8 -5 -13 240.18 14.7
-9 -5 -13 8.7 11.9
9 5 -13 29.5 3.1
9 -5 -13 23 5.8
9 -5 -13 18.2 7.3
9 5 13 21.6 7.5
-9 5 -13 15.1 9.7
9 -5 -13 18.1 6.9
-10 -5 -13 45.1 15
-10 5 -13 43.9 11.7
10 5 13 74.19 10.7
10 -5 -13 52.99 7.9
10 -5 -13 66.79 10.7
10 -5 -13 55.89 10.4
-11 -5 -13 37.7 14.5
11 -5 -13 30.7 6.8
11 -5 -13 64.19 11.3
11 5 13 45.8 9.4
11 -5 -13 44.5 9.7
-11 5 -13 17.8 11.3
0 -6 13 161.58 13
0 6 -13 163.98 9.5
0 -6 -13 157.38 10.4
0 -6 -13 150.38 11.6
-1 -6 -13 155.98 11.8
1 -6 13 141.89 13.1
-1 -6 -13 145.19 12
1 6 -13 140.49 8.8
1 -6 -13 149.19 9.7
1 -6 -13 141.69 10
1 -6 -13 134.19 9.3
-1 6 -13 148.69 9.6
-2 -6 -13 1606.04 49.4
2 6 -13 1624.84 46.1
-2 -6 -13 1574.64 50.09
2 -6 13 1525.35 54.79
2 -6 -13 1602.94 49.1
2 -6 -13 1618.54 47.4
-2 6 -13 1533.45 47.6
2 -6 -13 1577.04 47.6
3 6 -13 -1.2 2.7
3 -6 13 7.4 6.4
-3 -6 -13 3 6.6
-3 -6 -13 -4.7 5.2
3 -6 -13 8.1 4.2
3 -6 -13 6.9 5
3 -6 -13 7 4.2
-3 6 -13 6.3 4.4
-4 -6 -13 449.46 21.5
-4 -6 -13 453.45 22.8
4 6 13 388.96 18.9
4 -6 -13 403.76 18.7
4 -6 -13 408.86 17.6
4 -6 -13 411.06 17.6
-5 -6 -13 -1.4 8.4
5 6 -13 5.9 2.5
-5 -6 -13 8.3 7.6
5 -6 -13 10.2 5.5
5 -6 -13 12.8 4.8
5 -6 -13 6.9 3.8
5 6 13 3.8 4.9
-6 -6 -13 57.49 12.5
6 6 -13 77.89 5.4
-6 -6 -13 70.59 12.1
6 -6 -13 84.99 9.3
6 -6 -13 68.59 7.8
6 6 13 67.59 8.9
6 -6 -13 74.29 9.6
-7 -6 -13 55.29 12.9
-7 -6 -13 82.69 13.2
7 6 -13 64.09 4.9
7 -6 -13 53.89 8.4
7 -6 -13 62.19 7.8
7 -6 -13 68.49 9.6
7 6 13 76.99 9.9
-8 -6 -13 117.49 17.2
8 6 -13 127.09 6.2
8 6 13 146.99 13.6
8 -6 -13 142.09 13.8
8 -6 -13 130.89 10.9
8 -6 -13 113.09 11.9
9 6 -13 59.89 4.3
-9 -6 -13 80.89 16.4
9 -6 -13 61.09 8.4
9 6 13 86.49 11.1
9 -6 -13 69.59 10.8
9 -6 -13 80.09 11.2
-10 -6 -13 6.2 12.6
10 -6 -13 22.8 8
10 6 13 24.6 7.7
10 -6 -13 17.8 7.6
10 -6 -13 16.9 5.8
0 -7 -13 45.5 7.3
0 7 -13 42.5 5.8
0 -7 -13 39.8 7.5
1 -7 13 634.04 33.9
-1 -7 -13 635.24 25.3
-1 -7 -13 636.14 24.7
1 7 -13 642.04 22.7
-1 7 -13 627.74 23.1
1 -7 -13 648.14 24.8
1 -7 -13 626.14 23.6
2 -7 13 42 9.4
-2 -7 -13 27.6 7.8
-2 -7 -13 45.6 8.4
2 7 -13 34.7 5.4
-2 7 -13 36.8 6
2 -7 -13 53.29 7.7
2 -7 -13 48.2 6.8
2 -7 -13 53.39 7.1
3 7 -13 1431.46 42.8
-3 -7 -13 1474.75 48.7
-3 -7 -13 1476.45 48.5
3 -7 -13 1459.15 45.2
-3 7 -13 1442.16 45.7
3 -7 -13 1509.55 46.8
3 -7 -13 1492.45 45.6
-4 -7 -13 134.39 14.4
4 7 -13 143.39 8.2
-4 -7 -13 125.99 13.8
4 -7 -13 133.59 9.9
4 7 13 132.89 13.9
4 -7 -13 162.18 11.6
4 -7 -13 153.98 10.6
-5 -7 -13 10.5 9.5
5 7 -13 29 4
-5 -7 -13 29.3 9.8
5 -7 -13 33.3 7.1
5 7 13 37.1 7.3
5 -7 -13 23.6 5.2
5 -7 -13 41.4 6.9
-6 -7 -13 3.6 8.4
-6 -7 -13 15.1 9.6
6 7 -13 7.3 2.8
6 -7 -13 9.1 5.4
6 7 13 6.7 5.7
6 -7 -13 10.2 4.8
6 -7 -13 10.5 4.9
-7 -7 -13 140.19 16.2
-7 -7 -13 124.49 16.8
7 7 -13 155.28 7.4
7 -7 -13 135.69 11.9
7 -7 -13 128.79 10.8
7 -7 -13 138.89 12.2
7 7 13 122.89 12.5
8 7 -13 1.4 2.2
-8 -7 -13 3.9 11
-8 -7 -13 2.6 9.7
8 -7 -13 1.2 5.2
8 -7 -13 10.1 4.7
8 -7 -13 13.3 6.6
8 7 13 11.1 6.4
-9 -7 -13 47 14.6
-9 -7 -13 66.09 14.5
9 7 -13 44.7 3.9
9 -7 -13 44.8 9.1
9 7 13 71.89 10.7
9 -7 -13 45.6 7.7
9 -7 -13 52.69 9.6
-10 -7 -13 3.9 12.1
-10 -7 -13 16.9 11.6
10 -7 -13 43 9.4
10 -7 -13 33.8 7.1
10 7 13 36.5 9
10 -7 -13 14.1 7.5
0 -8 -13 408.16 18.8
0 -8 -13 412.16 19.1
0 8 -13 421.56 17.5
-1 -8 -13 86.89 10.2
1 8 -13 97.49 8.3
-1 -8 -13 79.69 9.9
-1 8 -13 100.99 8.5
1 -8 -13 95.19 9.7
1 -8 -13 68.79 8.8
-2 -8 -13 1458.55 47.8
-2 -8 -13 1481.75 48
2 8 -13 1442.26 43.8
2 -8 -13 1508.45 46.3
2 -8 -13 1529.85 47
-2 8 -13 1407.46 45.5
3 8 -13 63.29 6.6
-3 -8 -13 84.69 11.1
-3 -8 -13 80.29 11.3
-3 8 -13 73.99 10.2
3 -8 -13 70.89 8.8
3 -8 -13 63.39 7.7
3 -8 -13 69.29 8.8
4 8 -13 312.77 13.5
-4 -8 -13 306.67 19.6
-4 -8 -13 321.77 19.6
4 -8 -13 350.46 17.4
4 -8 -13 371.26 17
4 -8 -13 346.47 16.5
-5 -8 -13 131.69 14.9
-5 -8 -13 109.79 15
5 8 -13 141.99 7.9
5 -8 -13 129.69 10.5
5 -8 -13 113.59 11.5
5 -8 -13 115.19 10.1
5 8 13 131.29 12.4
6 8 -13 64.09 5.6
-6 -8 -13 78.49 13.3
-6 -8 -13 66.89 13
6 -8 -13 71.99 8.7
6 8 13 63.29 9.3
6 -8 -13 46.7 7.8
6 -8 -13 55.59 8.7
7 8 -13 1.8 2.6
-7 -8 -13 -0.2 9.2
-7 -8 -13 -9.4 8.8
7 -8 -13 8.3 5.8
7 -8 -13 1.8 4.3
7 -8 -13 -1.8 5.2
7 8 13 9.4 6.6
8 8 -13 169.08 8
-8 -8 -13 177.48 19.1
-8 -8 -13 140.59 19.3
8 -8 -13 199.38 14.9
8 -8 -13 154.08 13.3
8 8 13 175.18 14.8
8 -8 -13 193.78 13.3
9 8 -13 8.1 2.4
-9 -8 -13 9.3 10.8
-9 -8 -13 -9.1 11.3
9 -8 -13 8.2 5.4
9 -8 -13 11.2 6.6
9 8 13 -0.4 6
9 -8 -13 -2.3 5.6
0 9 -13 11.9 5
0 -9 -13 17.9 6.6
0 -9 -13 3.2 5.6
-1 -9 -13 643.34 26.4
-1 -9 -13 653.63 26
1 9 -13 638.14 23.6
1 -9 -13 653.13 25.5
1 -9 -13 644.54 25.8
-1 9 -13 673.23 25.1
-2 -9 -13 66.39 9.6
2 9 -13 49 6.4
-2 -9 -13 49.99 9.5
2 -9 -13 47.5 7.6
2 -9 -13 49.8 8
-2 9 -13 44 7.4
-3 -9 -13 550.74 25.4
3 9 -13 557.24 20.2
-3 -9 -13 546.15 24.4
3 -9 -13 536.35 22.7
3 -9 -13 500.75 22.1
-4 -9 -13 79.19 11.4
4 9 -13 89.29 7.5
-4 -9 -13 90.99 12.7
4 -9 -13 65.29 8.7
4 -9 -13 81.59 9.6
-5 -9 -13 65.89 11.7
5 9 -13 59.99 6.2
-5 -9 -13 65.59 13.5
5 9 13 53.79 9
5 -9 -13 57.59 8.4
5 -9 -13 60.49 8.9
5 -9 -13 79.39 9.8
6 9 -13 35.9 4.9
-6 -9 -13 31.7 11.4
-6 -9 -13 41.2 10.9
6 -9 -13 33.8 7.6
6 -9 -13 24.7 7
6 -9 -13 9.4 5.7
6 9 13 26.2 8
-7 -9 -13 46.6 12.9
7 9 -13 38.1 4.7
-7 -9 -13 13.1 11
7 -9 -13 33.1 7
7 9 13 37.1 8.8
7 -9 -13 42.5 8.7
7 -9 -13 34.7 8.2
-8 -9 -13 73.39 15.3
-8 -9 -13 53.69 14.3
8 9 -13 57.29 5.2
8 -9 -13 54.89 9.8
8 -9 -13 48.8 9.7
8 -9 -13 75.99 10
8 9 13 70.89 11
-9 -9 -13 11.6 11.8
9 9 -13 19.4 3.4
-9 -9 -13 15.9 13
9 -9 -13 20.7 6.8
9 -9 -13 16.2 7.3
9 -9 -13 22.9 8.5
9 9 13 34.4 9.1
0 10 -13 183.48 12.2
0 -10 -13 199.98 13.9
0 -10 -13 167.68 12.3
1 10 -13 66.09 7.9
-1 -10 -13 73.49 9.5
-1 -10 -13 59.19 9.5
1 -10 -13 53.09 8.3
-1 10 -13 56.19 8.2
1 -10 -13 58.69 8.3
-2 -10 -13 215.98 14.4
2 10 -13 240.58 12.7
-2 -10 -13 239.08 16.3
-2 10 -13 198.68 13.4
2 -10 -13 226.48 14.1
2 -10 -13 232.88 13.8
-3 -10 -13 18.4 8.2
3 10 -13 17.8 4.8
-3 -10 -13 9.4 7.8
3 -10 -13 23.8 6.4
3 -10 -13 17.3 5.7
-4 -10 -13 160.78 15.6
4 10 -13 142.89 9.7
-4 -10 -13 150.68 15.9
4 -10 -13 146.49 11.8
4 -10 -13 146.19 11.7
-5 -10 -13 46.1 11.5
5 10 -13 34.1 5.6
-5 -10 -13 41.5 10.5
5 -10 -13 38.4 7.8
5 -10 -13 47.9 8.6
6 10 -13 26.4 4.9
-6 -10 -13 33 11.8
-6 -10 -13 30.9 11.4
6 -10 -13 25.9 7.1
6 -10 -13 19.7 7
6 10 13 20.8 7.5
-7 -10 -13 50.09 12.8
7 10 -13 40.4 5.3
-7 -10 -13 46 13.3
7 -10 -13 49.6 8.7
7 10 13 42.9 9.7
7 -10 -13 42.4 9
7 -10 -13 48.2 9.2
-8 -10 -13 15.2 11.3
8 10 -13 19.1 4
-8 -10 -13 10 12
8 -10 -13 10.7 6.9
8 -10 -13 13.9 6.5
8 10 13 17.6 8
8 -10 -13 15.4 7.1
0 -11 -13 93.19 11.4
0 -11 -13 99.99 10.4
0 11 -13 84.59 9.3
1 11 -13 142.89 11
-1 -11 -13 150.88 11.7
-1 -11 -13 126.59 13.2
1 -11 -13 147.29 12.2
1 -11 -13 131.69 10.8
-1 11 -13 127.99 11
-2 -11 -13 11.2 7.5
2 11 -13 5 4.3
-2 -11 -13 15.3 6.1
2 -11 -13 3.7 4.8
-2 11 -13 3.1 4.8
2 -11 -13 3 5.2
3 11 -13 136.39 10.4
-3 -11 -13 128.29 14.9
-3 -11 -13 146.09 12.8
3 -11 -13 146.39 11.5
3 -11 -13 133.19 13.2
-4 -11 -13 172.38 18.4
4 11 -13 162.48 11.1
-4 -11 -13 176.68 17.6
4 -11 -13 218.58 15.2
4 -11 -13 185.58 13.1
5 11 -13 124.39 9.5
-5 -11 -13 93.49 14.9
5 -11 -13 107.89 12.2
5 -11 -13 116.89 12
-6 -11 -13 80.79 15.3
6 11 -13 102.79 8.7
6 11 13 102.49 12.7
6 -11 -13 89.89 11.7
6 -11 -13 139.99 13.7
-7 -11 -13 70.39 15.2
7 11 -13 55.99 6.4
7 -11 -13 70.99 10.8
7 11 13 67.19 11.4
7 -11 -13 71.09 11
8 11 -13 120.49 8.3
-8 -11 -13 97.29 18
8 -11 -13 114.39 13.3
8 -11 -13 122.39 14.1
8 11 13 124.69 14.3
0 12 -13 177.48 13.2
0 -12 -13 180.58 14.6
1 12 -13 66.29 8.9
-1 -12 -13 79.69 11.6
1 -12 -13 75.69 10.9
-1 12 -13 70.79 9.3
2 12 -13 78.09 9.3
-2 -12 -13 87.29 12.6
2 -12 -13 77.29 11.2
-2 12 -13 85.99 10.3
-3 -12 -13 72.69 12.5
3 12 -13 45.7 7.4
3 -12 -13 57.49 9.8
-4 -12 -13 143.59 16.5
4 12 -13 138.89 11.1
4 -12 -13 163.88 15.9
5 12 -13 156.38 11.1
-5 -12 -13 150.88 18.2
5 -12 -13 141.39 12.8
5 -12 -13 174.48 14.3
-6 -12 -13 53.69 13.9
6 12 -13 56.59 7.1
6 -12 -13 65.29 10.7
6 -12 -13 47 8.8
-7 -12 -13 72.69 15.6
7 12 -13 66.79 7.5
7 -12 -13 63.29 10.2
7 -12 -13 74.89 11.4
7 12 13 51.59 10.6
0 -13 -13 49.9 10.3
0 13 -13 39.2 8.5
-1 -13 -13 45.4 10.5
1 13 -13 47 8.3
-1 13 -13 50.89 9
1 -13 -13 54.19 9.9
-2 -13 -13 27.8 9.4
2 13 -13 22.3 6.5
2 -13 -13 20.3 7.6
3 13 -13 8.5 5.8
-3 -13 -13 8 8.6
3 -13 -13 6.5 7.5
-4 -13 -13 69.09 13.4
4 13 -13 80.09 9.5
4 -13 -13 79.49 11.6
5 13 -13 6.6 5.3
-5 -13 -13 6.2 9.5
5 -13 -13 18.7 7.8
-6 -13 -13 86.59 16.5
6 13 -13 78.79 8.6
6 -13 -13 85.39 12
0 14 -13 2.9 5.7
0 -14 -13 9.4 7.4
1 14 -13 10.1 5.9
-1 -14 -13 10 8.6
1 -14 -13 6.5 7.3
-1 14 -13 13.8 6.4
-2 -14 -13 1.8 7.2
2 14 -13 9 5.9
2 -14 -13 19.3 7.9
-3 -14 -13 61.69 12.5
3 14 -13 47.2 8.5
3 -14 -13 58.79 10.8
-4 -14 -13 15 9.9
4 14 -13 17 6.3
4 -14 -13 26.1 8.7
0 -15 -13 5 6.8
0 15 -13 -6.9 5.2
-1 -15 -13 5.2 7.4
1 15 -13 -6.2 5.3
-1 15 -13 5.5 6.2
1 -15 -13 10.4 7.1
2 15 -13 8.3 6.5
-2 -15 -13 32.8 9.7
2 -15 -13 42.3 9.6
0 0 -14 1140.69 36.1
0 0 14 1118.89 40.5
0 0 -14 1096.49 34.5
-1 0 14 655.23 27.2
1 0 -14 652.53 23.5
1 0 14 653.03 28.3
1 0 -14 637.84 22
-1 0 -14 623.64 24.2
-1 0 -14 626.14 22.4
2 0 -14 364.06 14.4
-2 0 14 320.27 17.8
2 0 -14 342.07 15.4
-2 0 -14 349.07 17.8
-2 0 -14 347.47 15
2 0 14 360.86 20.5
-3 0 -14 635.34 26.7
3 0 -14 655.33 23.7
-3 0 14 627.94 26.1
3 0 -14 672.63 22
-4 0 -14 793.62 31
4 0 -14 801.12 28.2
4 0 -14 817.12 25.9
-5 0 -14 76.69 12
5 0 -14 69.29 6.2
5 0 -14 74.49 8.5
6 0 -14 455.45 19.8
6 0 -14 433.96 16.1
-6 0 -14 424.16 23.3
7 0 -14 7.2 5.1
7 0 -14 11.9 3.4
-7 0 -14 -4.7 8
8 0 -14 14.3 3.7
-8 0 -14 11.4 7.9
8 0 -14 20.2 6.6
9 0 -14 7.2 3.6
-9 0 -14 0.7 10.1
9 0 -14 13.5 6.6
10 0 -14 0.5 3.5
-10 0 -14 -1.3 10.7
10 0 -14 11.6 7.3
11 0 -14 4.4 6.6
11 0 -14 10.2 3.8
-11 0 -14 -0.5 11.5
0 -1 -14 217.18 12.9
0 1 -14 229.68 12.5
0 1 -14 235.58 11.3
0 -1 -14 230.88 11.5
0 -1 14 225.38 15.5
0 1 14 239.58 15.8
1 1 -14 240.88 12.2
1 -1 14 220.68 15.5
-1 -1 -14 227.88 13.7
-1 1 14 214.58 14.7
1 1 -14 239.08 11
-1 -1 -14 225.98 11.2
-1 -1 14 195.48 14.2
-1 1 -14 191.28 12.5
1 1 14 203.38 15.1
-1 1 -14 197.78 11
1 -1 -14 204.28 10.7
1 -1 -14 213.08 12.3
-2 -1 -14 1292.87 42.6
2 1 -14 1340.77 40.6
-2 -1 -14 1318.67 40.3
2 -1 14 1267.27 46.8
2 1 -14 1317.07 39.2
-2 1 14 1297.17 44.9
-2 1 -14 1337.57 42.6
2 1 14 1303.67 47.1
-2 -1 14 1359.86 44.5
2 -1 -14 1351.16 39.6
2 -1 -14 1317.67 41.1
-2 1 -14 1306.37 40.5
3 1 -14 391.36 16.3
-3 1 14 375.96 19.1
3 1 -14 372.86 14.5
-3 -1 -14 383.76 20.1
-3 -1 14 366.36 18.2
-3 1 -14 349.87 18.9
3 -1 -14 361.26 14.7
3 -1 -14 347.47 16.3
4 1 -14 614.54 22.6
-4 -1 -14 574.74 25.5
4 1 -14 587.64 20.1
4 -1 -14 596.24 23
-4 1 -14 610.44 26.4
4 -1 -14 597.04 20.7
5 1 -14 239.38 13.2
5 1 -14 239.28 10.6
-5 -1 -14 233.18 17.8
5 -1 -14 230.98 13.6
5 -1 -14 256.57 11.4
-5 1 -14 216.98 17.1
-6 -1 -14 48.8 10.1
6 1 -14 61.09 8.1
6 1 -14 56.29 5.4
-6 1 -14 43.2 9.1
6 -1 -14 53.49 5.7
6 -1 -14 59.99 8.2
-7 -1 -14 126.39 15.3
7 1 -14 114.89 10.3
7 1 -14 144.49 7.8
7 -1 -14 131.79 8.3
7 -1 -14 138.39 11.4
-7 1 -14 120.69 14.6
8 1 -14 90.49 10.4
8 1 -14 79.99 6.3
-8 -1 -14 61.49 13
8 1 14 70.89 14.2
8 -1 -14 72.49 10
8 -1 -14 81.99 7
-8 1 -14 72.29 13.1
-9 -1 -14 69.99 14.1
9 1 -14 59.09 5.9
9 1 -14 69.29 10.1
-9 1 -14 64.99 13.3
9 -1 -14 69.99 6.7
9 -1 -14 66.59 10.3
9 1 14 57.29 9.6
-10 -1 -14 3.1 11
10 1 -14 -0.3 3
10 1 -14 11.9 7
10 -1 -14 -1.5 3.6
-10 1 -14 3.1 10.6
10 -1 -14 3.9 6.5
10 1 14 10.9 6.7
11 1 -14 6.7 3.6
11 1 -14 16 7.8
-11 -1 -14 4.4 11.9
11 -1 -14 4.4 3.9
11 1 14 15 7.5
-11 1 -14 14.2 12.5
11 -1 -14 3.3 6.9
0 -2 -14 297.07 15.3
0 2 -14 314.87 13.4
0 -2 14 290.07 17.7
0 -2 -14 283.07 13.3
0 2 14 311.77 18.4
0 2 -14 317.77 14.3
1 2 -14 681.13 23.9
-1 -2 -14 656.63 25.4
-1 2 14 629.44 28.2
1 2 -14 678.53 23
-1 -2 -14 670.93 23.7
1 -2 14 632.24 28.6
1 -2 -14 723.03 23.8
1 2 14 674.93 29.8
1 -2 -14 705.13 25.3
-1 2 -14 711.13 23.9
-1 2 -14 763.72 25.6
-1 -2 14 701.03 28.1
-2 2 14 530.35 24.7
-2 -2 -14 537.45 22.6
2 2 -14 528.55 19
2 2 -14 548.95 20.2
2 -2 14 615.64 27.2
-2 -2 14 557.64 23.6
2 -2 -14 506.95 19.3
2 2 14 513.35 29.4
2 -2 -14 516.15 21
-2 2 -14 540.15 20.4
-2 2 -14 548.55 22.3
-3 2 14 788.22 31.8
3 2 -14 825.12 27.7
3 2 -14 831.72 26.1
-3 -2 -14 812.12 31.7
3 -2 -14 807.52 26.9
-3 2 -14 829.22 30.8
-3 -2 14 833.82 30.9
3 -2 -14 851.21 29.1
4 2 -14 163.98 10.4
-4 -2 -14 174.98 15.6
4 2 -14 164.18 8.6
-4 2 -14 163.58 14.4
4 -2 -14 162.38 9.4
4 -2 -14 141.39 10.8
5 2 -14 330.47 15.5
-5 -2 -14 288.97 19.9
5 2 -14 321.27 12.8
5 -2 -14 334.27 16.5
-5 2 -14 341.67 19.7
5 -2 -14 358.46 14.3
6 2 -14 49.8 5
-6 -2 -14 35 10.7
6 2 -14 62.89 7.8
-6 2 -14 49.7 10.9
6 -2 -14 57.19 8.4
6 -2 -14 54.49 6
7 2 -14 114.29 6.7
7 2 -14 119.19 11.3
-7 -2 -14 108.89 14.7
7 2 14 110.09 11.3
7 -2 -14 99.19 7.7
7 -2 -14 93.79 10.5
-7 2 -14 105.99 13.7
-8 -2 -14 224.58 20.4
8 2 -14 266.27 10.8
8 2 -14 236.08 15
-8 2 -14 262.47 19.9
8 -2 -14 278.87 12.8
8 -2 -14 269.67 16.4
8 2 14 267.97 15.9
9 2 -14 27.7 4.1
-9 -2 -14 21.2 10
9 2 -14 39.8 8.1
-9 2 -14 13.9 10.6
9 -2 -14 34 8.3
9 -2 -14 28.9 5.3
9 2 14 33.4 7.8
-10 -2 -14 23.3 10.9
10 2 -14 26.8 4.1
10 2 -14 28.5 8
10 -2 -14 29.2 8.2
-10 2 -14 33.6 12.6
10 2 14 25.2 8
10 -2 -14 34.6 5.8
-11 -2 -14 4.2 12.8
11 2 -14 15.1 8.2
11 2 -14 13.9 3.7
11 2 14 13.3 6.9
11 -2 -14 18.8 7.9
11 -2 -14 19.2 5
-11 2 -14 11.2 11.6
0 -3 -14 863.61 29.1
0 3 -14 915.11 29
0 -3 14 869.01 34.3
0 3 -14 903.71 29.2
0 3 14 897.71 35.7
0 -3 -14 905.61 31.3
-1 -3 -14 991.7 33.4
1 3 -14 809.42 30.1
-1 -3 -14 1011.8 31.6
-1 3 14 935.11 36.9
1 -3 14 1010.8 37.7
1 3 -14 977 30.4
1 -3 -14 993.5 32.7
-1 3 -14 965.7 31.1
-1 -3 14 1002.6 36
1 -3 -14 942.61 30.9
-1 3 -14 978.6 31.8
1 3 14 986.6 38.1
-2 -3 -14 734.33 28.5
2 3 -14 728.33 24
-2 3 14 671.83 29.8
2 3 -14 735.43 24.7
2 -3 14 767.92 32.3
-2 -3 14 738.73 28.5
-2 3 -14 744.23 26.9
2 -3 -14 724.43 24.8
-2 3 -14 708.13 25.2
2 -3 -14 737.63 26.6
3 3 -14 578.94 20.6
-3 -3 -14 583.64 25.4
3 3 -14 552.34 19.2
3 -3 14 540.65 29.8
-3 3 -14 573.44 21.6
3 -3 -14 524.15 21.8
-3 3 -14 549.35 23.4
3 -3 -14 543.25 20.2
4 3 -14 351.36 13.2
4 3 -14 343.07 15
-4 -3 -14 299.47 19.5
-4 -3 -14 358.76 19.4
4 -3 -14 303.47 14
4 -3 -14 311.57 16
-4 3 -14 314.27 18.4
-5 -3 -14 73.69 10.3
5 3 -14 68.49 7.7
5 3 -14 73.79 5.7
-5 -3 -14 62.49 11.9
-5 3 -14 77.59 11.2
5 -3 -14 90.39 9.7
5 -3 -14 70.39 7
-6 -3 -14 267.47 20
6 3 -14 278.57 11.1
6 3 -14 298.17 14.7
-6 3 -14 296.57 18.8
6 -3 -14 259.57 12.8
6 -3 -14 310.17 16.1
6 3 14 264.57 15.2
7 3 -14 171.28 11.7
-7 -3 -14 158.18 17.1
7 3 -14 152.08 7.7
7 3 14 155.28 12.5
7 -3 -14 146.79 12.1
7 -3 -14 152.48 9.6
-7 3 -14 182.88 16.8
8 3 -14 58.99 9
8 3 -14 66.29 5.4
-8 -3 -14 75.39 12.8
8 3 14 70.69 9.8
8 -3 -14 72.39 7.5
-8 3 -14 60.79 12.2
8 -3 -14 61.99 9.6
9 3 -14 115.59 12.5
-9 -3 -14 77.49 15.8
9 3 -14 93.49 6.2
9 3 14 89.19 11.3
9 -3 -14 83.19 8.3
-9 3 -14 80.09 14.1
9 -3 -14 93.89 11.9
10 3 -14 54.39 9.6
-10 -3 -14 61.29 16
10 3 -14 61.19 5.4
10 3 14 73.69 10.7
10 -3 -14 62.89 7.6
10 -3 -14 55.19 10.4
-10 3 -14 81.59 15.4
11 3 -14 7.1 8.4
-11 -3 -14 -8.7 11.9
11 3 -14 12.1 3
11 -3 -14 14.5 5
11 -3 -14 18.7 7.7
-11 3 -14 -4.4 10.9
11 3 14 22.4 7.5
0 -4 -14 3.2 4.5
0 4 -14 6.4 4.4
0 4 14 9.2 6.2
0 -4 -14 9.6 5.8
0 -4 -14 15.1 4.3
0 4 -14 10.9 4
0 -4 14 6.6 5.6
-1 -4 -14 157.58 10.5
-1 -4 -14 169.18 12.8
1 -4 14 156.78 13.5
1 4 -14 158.88 9.2
1 4 -14 172.38 9.5
1 -4 -14 145.99 9.7
-1 4 -14 149.29 10.7
-1 4 -14 152.88 9.8
-1 -4 14 147.89 12.5
1 -4 -14 153.88 11.3
2 4 -14 750.52 24.9
2 4 -14 818.42 27.7
-2 -4 -14 753.92 29.5
-2 -4 -14 792.52 27.3
2 -4 14 765.22 32.9
2 -4 -14 753.12 27.7
-2 -4 14 700.03 37.7
2 -4 -14 752.62 26.1
-2 4 -14 803.42 27.9
-2 4 -14 734.93 26.4
3 -4 14 62.49 11.4
3 4 -14 61.99 6
-3 -4 -14 64.79 8.9
-3 -4 -14 81.69 11.4
-3 4 -14 58.99 9.1
3 -4 -14 68.59 7.3
3 -4 -14 43.5 7.3
-3 4 -14 50.39 6.9
-4 -4 -14 3 8.3
-4 -4 -14 11 7.4
4 4 -14 15.3 3.5
4 -4 -14 20.9 4.7
-4 4 -14 21 9
4 -4 -14 22.5 6.1
5 4 -14 125.69 7.2
-5 -4 -14 118.49 14.4
-5 -4 -14 115.89 12.2
-5 4 -14 120.49 13.5
5 -4 -14 114.59 8.6
5 -4 -14 124.69 10.7
-6 -4 -14 20.2 10
6 4 -14 18.1 3.3
-6 -4 -14 15.9 7.8
6 -4 -14 15.7 6
6 4 14 22 6.1
6 -4 -14 14.3 4.3
-6 4 -14 5.8 9.1
-7 -4 -14 127.19 16.6
7 4 -14 139.19 7.1
7 4 14 126.89 12.2
-7 4 -14 146.79 15.4
7 -4 -14 132.39 11.9
7 -4 -14 131.99 9.5
-8 -4 -14 277.77 22.6
8 4 -14 285.27 10.9
-8 4 -14 265.27 21.2
8 4 14 296.67 17.6
8 -4 -14 289.07 14.5
8 -4 -14 295.57 17.7
-9 -4 -14 115.99 17.9
9 4 -14 118.89 6.6
9 4 14 132.09 13.6
9 -4 -14 157.98 13.9
9 -4 -14 133.89 10.2
-9 4 -14 115.29 15.8
-10 -4 -14 6.2 12.6
10 4 -14 6.3 2.5
10 4 14 11.7 6.6
10 -4 -14 7.4 4.8
-10 4 -14 -1.8 10
10 -4 -14 13.8 6.8
0 5 -14 97.19 7.9
0 -5 -14 88.89 8.4
0 -5 -14 97.39 10.3
0 -5 -14 98.59 7.9
0 -5 14 94.09 11.6
-1 -5 -14 359.16 17.5
1 5 -14 398.36 15.5
1 -5 14 362.46 21.1
-1 -5 -14 374.06 16.3
-1 5 -14 372.46 15.9
1 -5 -14 348.67 15.7
1 -5 -14 353.96 15.2
1 -5 -14 366.76 17
-2 -5 -14 22.1 6.7
2 -5 14 25.2 7.8
2 5 -14 23.7 4.6
-2 -5 -14 26.6 8.1
2 -5 -14 29.4 5.2
2 -5 -14 29.2 6.6
-2 5 -14 18.4 4.9
2 -5 -14 23.6 5.1
-3 -5 -14 392.76 21.5
3 5 -14 435.36 16.1
3 -5 14 447.26 36.1
-3 -5 -14 449.56 20.7
3 -5 -14 421.06 19.1
-3 5 -14 403.76 18.3
3 -5 -14 423.16 17.8
3 -5 -14 453.55 17.3
4 5 -14 55.69 5.6
-4 -5 -14 49.9 10.8
-4 -5 -14 53.69 10
4 -5 -14 77.69 7.8
4 -5 -14 72.69 7.5
4 -5 -14 78.29 8.9
5 5 -14 31 4.1
-5 -5 -14 37.9 9.9
-5 -5 -14 36.3 10.8
5 -5 -14 25 5.4
5 -5 -14 23.8 5.3
5 -5 -14 35.7 7.4
-5 5 -14 31.9 9
-6 -5 -14 109.19 14.9
6 5 -14 118.99 6.8
-6 -5 -14 145.79 15.1
6 -5 -14 107.79 8.7
6 5 14 106.89 11
-6 5 -14 123.89 13.7
6 -5 -14 121.49 10.1
6 -5 -14 116.79 11.6
-7 -5 -14 612.24 32
7 5 -14 656.73 20.8
-7 -5 -14 708.03 31.1
7 -5 -14 698.33 26.7
7 -5 -14 674.43 25
7 5 14 692.93 27.7
7 -5 -14 683.83 28
-7 5 -14 655.83 29.7
8 5 -14 221.38 9.1
-8 -5 -14 196.08 20.8
8 -5 -14 219.98 15.8
-8 5 -14 226.48 18.6
8 5 14 227.68 15.9
8 -5 -14 235.48 13.4
8 -5 -14 227.88 15.1
9 5 -14 173.98 7.7
-9 -5 -14 183.38 20
9 5 14 183.68 15.2
9 -5 -14 176.08 14.9
-9 5 -14 143.39 17.2
9 -5 -14 201.88 12.7
9 -5 -14 195.08 19.7
10 5 -14 67.19 4.7
-10 -5 -14 57.49 16
10 5 14 80.79 11.3
10 -5 -14 75.19 9
-10 5 -14 62.89 13.6
10 -5 -14 84.69 12
0 -6 -14 72.19 9.3
0 6 -14 75.99 7.5
0 -6 -14 70.69 8
-1 -6 -14 379.26 17.2
1 -6 14 368.96 22.1
-1 -6 -14 372.56 18.6
1 6 -14 399.06 15.8
1 -6 -14 365.96 16.1
-1 6 -14 351.66 15.9
1 -6 -14 351.96 16.1
2 6 -14 555.34 20.2
2 -6 14 547.75 27.8
-2 -6 -14 570.24 23.1
-2 -6 -14 599.14 24.9
2 -6 -14 546.65 21.5
-2 6 -14 576.64 22
2 -6 -14 558.94 22.9
2 -6 -14 564.74 21.1
3 6 -14 212.08 10.6
-3 -6 -14 191.08 15.5
-3 -6 -14 212.48 14.5
3 -6 -14 209.68 11.5
3 -6 -14 199.78 11.7
-3 6 -14 183.88 12.3
3 -6 -14 218.18 12.6
-4 -6 -14 92.99 13
-4 -6 -14 70.19 10.7
4 6 -14 88.59 6.7
4 -6 -14 92.19 8.8
4 -6 -14 80.79 9.7
4 -6 -14 95.39 9.1
-5 -6 -14 76.29 12.9
-5 -6 -14 94.29 13.1
5 6 -14 75.49 6
5 -6 -14 74.59 9.4
5 -6 -14 59.99 7.4
5 -6 -14 66.29 8
6 6 -14 286.67 11.5
-6 -6 -14 279.07 21.1
-6 -6 -14 288.37 20.1
6 -6 -14 297.57 16.7
6 -6 -14 279.77 15.4
6 6 14 285.57 16.7
6 -6 -14 300.77 15
7 6 -14 117.79 6.8
-7 -6 -14 102.59 14.6
-7 -6 -14 121.09 15.4
7 6 14 109.39 11.7
7 -6 -14 118.89 10.1
7 -6 -14 130.99 11.5
7 -6 -14 125.89 12.8
-8 -6 -14 527.15 31
-8 -6 -14 511.75 28
8 6 -14 539.55 17.4
8 -6 -14 577.44 23
8 -6 -14 514.35 23.9
8 6 14 584.64 25.2
8 -6 -14 552.14 25.7
-9 -6 -14 214.18 21
-9 -6 -14 198.68 22.3
9 6 -14 208.78 8.6
9 -6 -14 214.68 15.3
9 -6 -14 245.38 17.1
9 6 14 241.88 17.1
9 -6 -14 212.78 13.9
-10 -6 -14 61.69 16.1
10 -6 -14 95.09 10.3
10 -6 -14 125.59 14.5
10 6 14 96.69 12.5
10 -6 -14 96.09 12.8
0 -7 -14 72.19 9.4
0 -7 -14 72.79 8.4
0 7 -14 70.09 7.4
-1 -7 -14 149.49 12.5
1 7 -14 172.38 10.3
-1 -7 -14 171.48 12
1 -7 -14 154.48 10.6
1 -7 -14 172.18 12.2
-1 7 -14 167.58 10.8
-2 -7 -14 78.29 10.5
-2 -7 -14 67.29 9.9
2 7 -14 49.4 6.2
2 -7 -14 74.19 9.1
2 -7 -14 64.19 7.8
-2 7 -14 56.49 7.4
2 -7 -14 60.89 7.6
3 7 -14 65.69 6.6
-3 -7 -14 68.99 10.8
-3 -7 -14 71.89 10.5
3 -7 -14 57.09 7.6
-3 7 -14 64.29 9.1
3 -7 -14 51.39 7.3
3 -7 -14 67.79 8.9
-4 -7 -14 260.57 17.3
-4 -7 -14 230.18 17.4
4 7 -14 197.98 10.7
4 -7 -14 261.67 13.9
4 -7 -14 239.68 13.2
4 -7 -14 241.18 14.5
5 7 -14 35.6 4.6
-5 -7 -14 39.5 10.7
-5 -7 -14 46.7 11.4
5 -7 -14 48 8.3
5 -7 -14 33.3 6.5
5 -7 -14 43.8 7.1
6 7 -14 16 3.6
-6 -7 -14 13.6 8.8
-6 -7 -14 10.8 10
6 -7 -14 18.8 5.3
6 -7 -14 14.4 5.4
6 7 14 14.7 6.3
6 -7 -14 18.4 6.6
7 7 -14 216.28 9.8
-7 -7 -14 225.78 19.1
-7 -7 -14 238.38 22.1
7 -7 -14 228.88 15.7
7 -7 -14 230.98 13.7
7 7 14 257.87 15.9
7 -7 -14 238.28 14.8
-8 -7 -14 115.99 17.6
8 7 -14 128.79 7
-8 -7 -14 148.89 18
8 -7 -14 145.09 14.6
8 7 14 134.99 13.8
8 -7 -14 126.49 11.8
8 -7 -14 140.89 13.7
9 7 -14 57.09 4.7
-9 -7 -14 58.09 15.5
-9 -7 -14 55.79 13.4
9 -7 -14 55.59 10.3
9 -7 -14 73.99 11.2
9 7 14 76.19 11.1
9 -7 -14 48.4 7.9
-10 -7 -14 29.7 13.7
-10 -7 -14 12.6 13.5
10 -7 -14 31 8.5
10 -7 -14 27 6.7
10 -7 -14 28.6 8.7
10 7 14 25.5 8.2
0 -8 -14 21.4 6.7
0 8 -14 7.1 4.2
0 -8 -14 3.5 5.1
-1 -8 -14 55.99 8.9
1 8 -14 32.1 5.9
-1 -8 -14 58.19 9.1
1 -8 -14 48.3 8
1 -8 -14 44.3 7.2
-1 8 -14 39.3 6.5
2 8 -14 24.9 5.3
-2 -8 -14 29.3 7.8
-2 -8 -14 37.4 8.3
2 -8 -14 37.9 6.9
-2 8 -14 25.6 6
2 -8 -14 25.1 6.6
3 8 -14 352.46 15.1
-3 -8 -14 328.97 19.2
-3 -8 -14 376.26 20.1
3 -8 -14 340.27 16.6
3 -8 -14 342.47 18.6
3 -8 -14 353.56 17.9
-4 -8 -14 8.7 7.7
-4 -8 -14 1.6 7.6
4 8 -14 5.3 3.5
4 -8 -14 5.6 4.3
4 -8 -14 6.8 5.1
4 -8 -14 5.5 4.7
-5 -8 -14 126.19 14.9
5 8 -14 115.89 8.1
-5 -8 -14 147.39 16
5 -8 -14 144.99 11
5 -8 -14 145.39 11.2
5 -8 -14 138.49 11.8
-6 -8 -14 35.3 11.5
-6 -8 -14 40.7 11.5
6 8 -14 47.6 5.3
6 8 14 40.8 8.5
6 -8 -14 35.4 6.9
6 -8 -14 47.2 8
6 -8 -14 44.6 8.3
7 8 -14 46.9 5.1
-7 -8 -14 76.59 14.1
-7 -8 -14 92.59 15.3
7 -8 -14 73.99 10.1
7 8 14 67.49 10.5
7 -8 -14 67.09 8.9
7 -8 -14 62.39 10.2
-8 -8 -14 90.69 16.8
8 8 -14 103.59 6.6
-8 -8 -14 150.08 18.9
8 8 14 101.49 12.6
8 -8 -14 88.29 11.8
8 -8 -14 113.79 13
8 -8 -14 101.99 10.9
-9 -8 -14 56.09 15.5
-9 -8 -14 71.69 14.9
9 8 -14 74.09 5.3
9 -8 -14 71.59 9.6
9 8 14 75.59 11
9 -8 -14 80.69 11.9
9 -8 -14 65.29 11.1
0 -9 -14 185.98 13.1
0 -9 -14 209.58 13.8
1 9 -14 2.9 4.2
-1 -9 -14 13.7 6.3
-1 -9 -14 2.9 6.2
1 -9 -14 6.7 5.6
-1 9 -14 -2.3 4.1
1 -9 -14 0.1 4.6
2 9 -14 108.19 9
-2 -9 -14 131.59 12.8
-2 -9 -14 101.59 12
2 -9 -14 126.49 11
2 -9 -14 115.79 10.4
-2 9 -14 124.49 11.2
-3 -9 -14 57.19 9.6
-3 -9 -14 72.39 11.4
3 9 -14 52.89 6.6
3 -9 -14 64.89 9
3 -9 -14 60.69 8.6
4 9 -14 213.28 11.3
-4 -9 -14 203.58 16.9
-4 -9 -14 183.78 16
4 -9 -14 201.38 13.7
4 -9 -14 229.18 13.8
5 9 -14 139.89 8.9
-5 -9 -14 122.59 15.4
-5 -9 -14 140.79 15.7
5 -9 -14 142.49 11.5
5 -9 -14 129.39 11.1
5 -9 -14 146.79 12.2
6 9 -14 119.19 8.1
-6 -9 -14 126.59 16.5
-6 -9 -14 124.69 16.1
6 -9 -14 135.79 13.4
6 -9 -14 133.49 11.6
6 -9 -14 119.49 11.6
-7 -9 -14 133.39 17.5
-7 -9 -14 115.19 16.8
7 9 -14 156.28 8.6
7 -9 -14 130.59 13.8
7 -9 -14 154.68 15
7 9 14 129.89 13.8
7 -9 -14 135.39 12.7
-8 -9 -14 88.39 16.8
8 9 -14 64.59 5.8
-8 -9 -14 62.79 15.2
8 -9 -14 50.69 8.6
8 -9 -14 66.49 10.6
8 -9 -14 61.69 10.5
8 9 14 64.69 10.9
-9 -9 -14 122.39 19.1
9 9 -14 109.49 6.8
-9 -9 -14 133.69 19
9 -9 -14 122.79 14.3
9 9 14 125.09 14.1
9 -9 -14 127.59 14.4
9 -9 -14 116.19 12.1
0 -10 -14 17.7 6.7
0 10 -14 4.2 4.7
0 -10 -14 16.7 6
-1 -10 -14 48.8 9.5
-1 -10 -14 41 7.9
1 10 -14 46.8 7.1
1 -10 -14 42.2 7.6
-1 10 -14 53.49 7.9
1 -10 -14 44.8 8.1
-2 -10 -14 77.39 10
-2 -10 -14 57.29 10.2
2 10 -14 51.59 7.1
-2 10 -14 49.4 8.1
2 -10 -14 43 7.6
2 -10 -14 59.59 8.7
-3 -10 -14 29.5 9.3
-3 -10 -14 24.8 8.4
3 10 -14 29.4 5.7
3 -10 -14 30.7 7
3 -10 -14 29.3 7
-4 -10 -14 285.77 19.9
-4 -10 -14 313.97 19.2
4 10 -14 273.27 13.8
4 -10 -14 289.27 16.5
4 -10 -14 284.47 16.4
5 10 -14 99.19 8.5
-5 -10 -14 115.99 14.2
-5 -10 -14 79.79 14.1
5 -10 -14 102.59 11.7
5 -10 -14 93.79 11
-6 -10 -14 218.68 19.5
-6 -10 -14 207.78 21.3
6 10 -14 201.78 10.9
6 -10 -14 217.08 14.9
6 -10 -14 174.38 14.4
-7 -10 -14 51.99 13.7
-7 -10 -14 56.99 13.5
7 10 -14 38.7 5.4
7 -10 -14 44.9 9.1
7 10 14 40.2 9.3
7 -10 -14 44.6 9.7
7 -10 -14 51.09 9.5
8 10 -14 80.89 6.8
-8 -10 -14 78.99 16.4
-8 -10 -14 80.99 17.1
8 -10 -14 66.29 9.9
8 10 14 93.59 12.3
8 -10 -14 82.49 11.8
8 -10 -14 94.59 12.6
0 -11 -14 116.89 12.5
0 -11 -14 104.49 11
0 11 -14 92.49 10.4
-1 -11 -14 129.69 11.6
-1 -11 -14 108.79 12.6
1 11 -14 109.19 10.4
1 -11 -14 105.19 11.1
-1 11 -14 96.19 10.6
1 -11 -14 120.29 12.4
-2 -11 -14 37.8 8.1
2 11 -14 28.7 6.2
-2 -11 -14 32.4 9.1
2 -11 -14 41.9 8.1
2 -11 -14 34.6 7.8
-2 11 -14 27.3 6.7
-3 -11 -14 100.79 12.6
3 11 -14 81.69 8.9
-3 -11 -14 99.19 13.6
3 -11 -14 101.69 11.5
3 -11 -14 96.19 10.7
-4 -11 -14 12.1 9.5
4 11 -14 3.5 4.4
-4 -11 -14 9.3 7.4
4 -11 -14 8.4 6.1
4 -11 -14 12.2 6
-5 -11 -14 159.78 16.2
5 11 -14 162.88 11
-5 -11 -14 168.58 18.3
5 -11 -14 188.18 14
5 -11 -14 179.88 14
6 11 -14 60.39 7.2
-6 -11 -14 54.29 13.8
6 -11 -14 61.99 10.3
6 -11 -14 73.89 11.1
7 11 -14 38.5 5.7
-7 -11 -14 71.89 16
7 -11 -14 60.49 10.3
7 -11 -14 40.5 8.6
0 12 -14 254.87 15.9
0 -12 -14 259.47 17.4
1 12 -14 228.88 14.2
-1 -12 -14 202.68 15.9
-1 12 -14 203.58 14.3
1 -12 -14 199.48 15.2
2 12 -14 110.89 10.5
-2 -12 -14 88.09 12.5
-2 12 -14 69.39 10.8
2 -12 -14 81.29 11.3
3 12 -14 51.09 7.8
-3 -12 -14 39.1 11.3
3 -12 -14 56.09 9.7
3 -12 -14 53.69 9.2
-4 -12 -14 141.29 17.3
4 12 -14 125.69 10.8
4 -12 -14 139.89 12.2
4 -12 -14 136.19 14.2
5 12 -14 82.39 8.9
-5 -12 -14 84.69 14.8
5 -12 -14 82.69 10.7
5 -12 -14 90.09 11.8
6 12 -14 26.4 5.8
-6 -12 -14 47.2 13.6
6 -12 -14 33.8 8
6 -12 -14 40.1 9
0 13 -14 291.67 17.4
0 -13 -14 290.67 19
-1 -13 -14 156.38 16.1
1 13 -14 155.28 13
-1 13 -14 130.59 13.2
1 -13 -14 143.79 15
2 13 -14 155.68 12.9
-2 -13 -14 201.08 16.7
2 -13 -14 157.38 14.2
-3 -13 -14 58.49 11.9
3 13 -14 35.7 7.5
3 -13 -14 39 9.3
-4 -13 -14 100.79 15.2
4 13 -14 98.29 10.3
4 -13 -14 88.49 12.2
-5 -13 -14 49.3 13.7
5 13 -14 41.2 7.3
5 -13 -14 51.59 10.1
0 -14 -14 134.09 15.2
0 14 -14 117.89 12.7
-1 -14 -14 206.68 17.5
1 14 -14 209.88 15.2
1 -14 -14 219.78 17.1
-1 14 -14 233.38 16.5
-2 -14 -14 29.4 9.8
2 14 -14 21.6 7.1
2 -14 -14 29.5 8.7
3 14 -14 40.5 8.2
-3 -14 -14 54.39 11.6
3 -14 -14 60.09 10.3
4 14 -14 27.7 7.1
0 0 -15 0.5 3.2
0 0 -15 -3.4 4.7
0 0 15 -1.4 4.5
-1 0 15 25.2 7
-1 0 -15 30.1 7.2
1 0 -15 46.8 7.1
-1 0 -15 42 6
1 0 -15 35.1 5.5
1 0 15 30.6 7.7
2 0 -15 77.59 8.2
-2 0 15 60.79 9
2 0 15 80.89 11.4
-2 0 -15 70.09 9.8
-2 0 -15 68.19 7.4
2 0 -15 65.49 6.8
3 0 -15 670.63 24.6
3 0 -15 641.24 22.6
-3 0 -15 685.23 27.8
4 0 -15 384.06 17.2
4 0 -15 367.46 14.9
-4 0 -15 353.96 20.6
5 0 -15 173.28 9.5
5 0 -15 169.18 11.7
-5 0 -15 159.78 15.8
-6 0 -15 123.79 15
6 0 -15 127.49 8.1
6 0 -15 131.39 10.9
7 0 -15 4.5 5.2
7 0 -15 7 3.3
-7 0 -15 1.5 7.1
8 0 -15 658.63 27.3
-8 0 -15 579.74 31.1
8 0 -15 666.33 22.3
9 0 -15 40.6 8.9
9 0 -15 33.8 5.4
-9 0 -15 14.1 12.2
-10 0 -15 237.18 23.8
10 0 -15 263.77 17.7
10 0 -15 246.38 12.3
11 0 -15 4.5 6.6
0 1 -15 0.3 4.7
0 -1 -15 -7.4 4.7
0 1 15 2.1 4.8
0 1 -15 -7.5 2.4
0 -1 -15 4.2 3.6
0 -1 15 -2.1 4.8
-1 1 15 442.16 22.1
1 -1 15 412.16 22.2
-1 -1 -15 430.26 18.8
1 1 -15 443.06 18
-1 -1 -15 421.66 17.2
1 1 -15 422.46 16.8
-1 1 -15 423.86 18.9
1 -1 -15 428.56 18.5
1 -1 -15 399.06 16.7
-1 -1 15 421.46 21.5
-1 1 -15 387.06 16.8
1 1 15 417.46 22.6
2 1 -15 70.39 6.9
-2 -1 -15 73.79 10.4
2 1 -15 66.09 7.5
-2 1 15 62.09 9.5
-2 -1 -15 71.29 9.2
2 -1 15 64.79 10.5
-2 -1 15 56.19 8.8
-2 1 -15 55.59 6.9
2 -1 -15 64.39 6.6
-2 1 -15 65.19 9.1
2 -1 -15 72.19 7.8
2 1 15 59.59 11.4
3 1 -15 373.96 16.3
-3 -1 -15 330.37 18.2
3 1 -15 361.06 14.7
3 -1 -15 346.77 14.8
3 -1 -15 339.07 16.4
-3 1 -15 369.06 19.4
-4 -1 -15 193.18 16.5
4 1 -15 189.08 11.9
4 1 -15 216.68 10.5
4 -1 -15 217.98 11
4 -1 -15 212.98 12.7
-4 1 -15 191.78 15.8
5 1 -15 376.46 17
-5 -1 -15 330.27 21.3
5 1 -15 357.56 14.1
-5 1 -15 342.57 20.8
5 -1 -15 353.76 14.6
5 -1 -15 323.77 16.8
6 1 -15 54.99 5.6
-6 -1 -15 45.9 11.5
6 1 -15 38.2 7.2
6 -1 -15 42.6 7.5
-6 1 -15 59.49 10.6
6 -1 -15 46.4 5.7
7 1 -15 277.47 11.9
7 1 -15 276.37 15.6
-7 -1 -15 224.88 18.2
7 -1 -15 269.77 15.9
-7 1 -15 260.87 20
7 -1 -15 293.17 12.8
-8 -1 -15 20.2 11.2
8 1 -15 20.5 4.3
8 1 -15 20.2 6.8
-8 1 -15 9.2 10.1
8 -1 -15 12.3 6.3
8 -1 -15 16.1 4.2
9 1 -15 577.74 25.7
9 1 -15 558.24 19.4
-9 -1 -15 494.15 30.5
-9 1 -15 538.95 30.5
9 -1 -15 555.64 20.5
9 -1 -15 527.45 25.4
-10 -1 -15 -12.8 11.7
10 1 -15 8.8 3.5
10 1 -15 25.1 7.9
10 -1 -15 18.1 7.6
-10 1 -15 5 11.8
10 -1 -15 6.4 3.9
0 -2 -15 304.17 13.9
0 2 -15 279.27 14.3
0 -2 -15 282.87 15.4
0 -2 15 309.07 18.2
0 2 -15 305.27 13.8
0 2 15 309.27 18.9
1 -2 15 375.36 20.5
1 2 -15 358.56 14.8
-1 -2 -15 349.37 15.3
-1 2 15 365.16 20.4
-1 -2 -15 335.47 17.5
1 2 -15 359.86 15.9
-1 -2 15 334.97 19
1 -2 -15 301.97 14.3
-1 2 -15 324.37 16.7
1 -2 -15 329.47 16.4
-1 2 -15 313.37 14.6
1 2 15 332.87 20.2
2 2 -15 201.38 11.6
2 -2 15 226.28 16.5
-2 2 15 207.68 15.1
-2 -2 -15 210.88 13.8
2 2 -15 199.28 10.7
-2 2 -15 211.08 14.1
2 -2 -15 204.38 12.6
2 -2 -15 213.48 11.2
-2 2 -15 229.28 12.2
-2 -2 15 195.48 16.7
3 2 -15 661.73 22.8
3 2 -15 730.13 24.8
-3 -2 -15 683.83 27.7
3 -2 -15 665.73 25.4
-3 2 -15 678.43 27.5
3 -2 -15 650.53 23.5
-4 -2 -15 328.87 20.1
4 2 -15 330.37 15.5
4 2 -15 332.27 13.7
4 -2 -15 353.86 14.8
-4 2 -15 350.36 19.7
4 -2 -15 314.67 16.3
-5 -2 -15 19.6 10
5 2 -15 19.3 3.9
5 2 -15 15.7 5.2
-5 2 -15 8.3 8.4
5 -2 -15 15.7 5.8
5 -2 -15 11.2 3.8
6 2 -15 159.18 11.3
-6 -2 -15 180.98 15.6
6 2 -15 161.88 8.7
6 -2 -15 162.88 9.7
-6 2 -15 173.78 16.6
6 -2 -15 157.08 12.2
7 2 -15 81.09 6.4
-7 -2 -15 72.99 13.7
7 2 -15 95.29 10.1
-7 2 -15 79.19 13.1
7 -2 -15 83.69 7.7
7 -2 -15 88.99 10.4
8 2 -15 350.26 18.5
-8 -2 -15 321.87 24.2
8 2 -15 337.37 13.4
-8 2 -15 352.36 23.5
8 -2 -15 360.26 15.3
8 -2 -15 330.47 18.9
9 2 -15 55.29 5.7
-9 -2 -15 70.29 15.5
9 2 -15 58.29 9.6
-9 2 -15 34.1 13.6
9 -2 -15 59.59 7.1
9 -2 -15 83.29 11.5
-10 -2 -15 180.38 21.8
10 2 -15 212.28 15.7
10 2 -15 178.88 9.3
10 -2 -15 166.58 11.1
-10 2 -15 186.88 20.9
10 -2 -15 204.98 15.9
0 -3 -15 135.49 11.4
0 -3 15 143.69 13.4
0 3 -15 150.88 9.6
0 3 15 152.48 13.8
0 -3 -15 136.19 9.5
0 3 -15 141.89 9.9
-1 -3 -15 0.5 6.2
1 -3 15 16.3 6.7
1 3 -15 8.8 4.3
-1 3 15 8.4 5.6
-1 -3 -15 11.2 4.1
1 3 -15 8.8 3.7
1 3 15 5.3 5.8
1 -3 -15 6.2 3.8
-1 -3 15 9.3 5.3
-1 3 -15 11.4 5.3
1 -3 -15 3 5.2
-1 3 -15 24.6 5.3
-2 3 15 579.74 27.1
-2 -3 -15 617.34 24.7
2 -3 15 598.94 28.3
2 3 -15 612.64 21.6
2 3 -15 564.04 20.7
2 -3 -15 574.64 22.8
-2 3 -15 576.64 21.9
-2 3 -15 587.14 23.4
2 -3 -15 557.44 21.3
3 3 -15 659.93 23.6
-3 -3 -15 678.53 28.4
3 3 -15 615.44 22.2
-3 3 -15 636.94 26.4
3 -3 -15 689.13 25.7
3 -3 -15 694.03 24
4 3 -15 254.87 11.5
4 3 -15 263.57 13.2
-4 -3 -15 245.18 18.1
4 -3 -15 250.77 14.5
-4 3 -15 244.78 16.8
4 -3 -15 261.17 12.6
5 3 -15 204.08 9.6
5 3 -15 203.08 11.8
-5 -3 -15 165.78 14.8
-5 3 -15 189.18 16.9
5 -3 -15 178.38 10.7
5 -3 -15 179.58 12.6
-6 -3 -15 1.2 9.1
6 3 -15 9.1 4.7
6 3 -15 17.9 3.6
6 -3 -15 15.1 5.9
6 -3 -15 18.3 4.6
-6 3 -15 20.5 9.4
7 3 -15 124.99 7.4
-7 -3 -15 95.19 15.3
7 3 -15 142.69 11.1
7 -3 -15 108.19 11.7
-7 3 -15 133.69 15.6
7 -3 -15 132.39 9.4
-8 -3 -15 77.09 15
8 3 -15 52.89 8.6
8 3 -15 72.59 6
-8 3 -15 57.49 13
8 -3 -15 44.8 8.9
8 -3 -15 64.79 7.4
9 3 -15 282.07 17.1
-9 -3 -15 245.68 23.7
9 3 -15 249.28 10.9
9 -3 -15 280.77 14.1
9 -3 -15 255.57 17.6
-9 3 -15 250.07 22
10 3 -15 -1.7 10.1
10 3 -15 11.3 3.2
-10 -3 -15 31.9 14.1
-10 3 -15 13 11.7
10 -3 -15 16.6 7.7
10 -3 -15 12.9 4.9
0 -4 15 24.7 7.1
0 -4 -15 21.4 5
0 4 -15 26.4 5.4
0 -4 -15 17.4 6.4
0 4 15 25.3 7.7
0 4 -15 24.6 5
-1 -4 -15 276.97 16.2
1 4 -15 308.87 13.5
-1 4 15 290.87 19.3
1 -4 15 295.77 18.7
-1 4 -15 296.17 14.8
-1 4 -15 290.07 13.9
1 -4 -15 271.47 15.4
1 -4 -15 297.67 14
-2 -4 -15 136.89 13.3
2 -4 15 156.28 14.8
2 4 -15 157.18 9.5
-2 4 -15 147.19 11.5
2 -4 -15 187.58 12.4
2 -4 -15 166.98 10.3
-2 4 -15 183.88 10.9
3 4 -15 1412.96 41.5
-3 -4 -15 1370.76 47.2
-3 4 -15 1398.56 45.3
3 -4 -15 1405.06 42.9
3 -4 -15 1393.76 44.9
4 4 -15 279.87 12.3
-4 -4 -15 283.17 19.1
4 -4 -15 290.17 15.7
4 -4 -15 287.07 13.7
-4 4 -15 282.67 17.5
-5 -4 -15 77.89 13
-5 -4 -15 81.19 12.6
5 4 -15 81.19 6.5
5 -4 -15 105.49 10.6
-5 4 -15 90.19 12.6
5 -4 -15 102.59 8.4
-6 -4 -15 139.99 14.5
6 4 -15 138.19 7.6
-6 -4 -15 135.49 16.4
6 -4 -15 118.19 12
6 -4 -15 116.19 9.2
-6 4 -15 114.09 14.1
-7 -4 -15 46.2 12.8
7 4 -15 69.49 5.9
7 -4 -15 71.09 8
-7 4 -15 68.49 12.6
7 -4 -15 64.39 9.7
-8 -4 -15 142.49 18.8
8 4 -15 137.69 7.7
-8 4 -15 146.39 17
8 -4 -15 158.68 13.7
8 -4 -15 146.69 10.8
-9 -4 -15 65.09 16.3
9 4 -15 73.99 5.9
9 4 15 98.99 13.4
-9 4 -15 76.39 14.5
9 -4 -15 68.09 10.3
9 -4 -15 82.59 9
10 4 -15 116.79 6.7
-10 -4 -15 114.19 19.3
10 4 15 134.89 14.3
-10 4 -15 99.79 16.6
10 -4 -15 109.89 13.8
10 -4 -15 119.89 10.5
0 -5 -15 98.59 10.7
0 5 -15 116.19 8.7
-1 -5 -15 -3.2 5.8
1 5 -15 -4.1 3
1 -5 15 -1.3 5.3
-1 -5 -15 4.7 7.6
1 -5 -15 3.3 5.2
-1 5 -15 1.6 3.9
1 -5 -15 -0.1 3.8
2 -5 15 766.72 34.8
2 5 -15 805.72 26.7
-2 -5 -15 825.32 29.1
-2 -5 -15 796.72 30.4
2 -5 -15 847.62 29.9
2 -5 -15 774.72 27.7
-2 5 -15 782.22 28.2
3 5 -15 113.19 8.1
-3 -5 -15 119.29 11.7
-3 -5 -15 108.59 13
3 -5 -15 115.99 9.3
3 -5 -15 102.89 9.2
-4 -5 -15 573.54 24.7
-4 -5 -15 582.84 27.3
4 5 -15 557.84 19.9
4 -5 -15 579.74 24
4 -5 -15 581.44 22.2
-5 -5 -15 134.59 15.8
-5 -5 -15 158.58 14.7
5 5 -15 137.19 8.1
5 -5 -15 123.19 11.1
5 -5 -15 137.19 10.1
-6 -5 -15 53.59 11.4
6 5 -15 51.59 5.3
-6 -5 -15 42.3 10
-6 5 -15 58.99 13.5
6 -5 -15 46.3 7
6 -5 -15 51.69 8.6
7 5 -15 121.39 7.2
-7 -5 -15 115.69 14.9
-7 -5 -15 116.09 16.8
7 -5 -15 105.39 12.1
-7 5 -15 124.59 15.1
7 -5 -15 119.19 10.3
-8 -5 -15 52.59 12.1
-8 -5 -15 82.29 14.6
8 5 -15 70.49 5.7
8 5 15 65.49 11.6
8 -5 -15 57.59 8.2
8 -5 -15 57.79 10
-8 5 -15 57.09 13.1
9 5 -15 95.79 6.2
-9 -5 -15 91.69 17.5
9 -5 -15 101.99 12.8
9 5 15 87.39 11.5
-9 5 -15 71.19 14.5
9 -5 -15 85.19 9.5
-10 -5 -15 31.1 15
10 5 -15 28.6 3.6
10 -5 -15 28.4 6.3
10 -5 -15 26.9 8.4
-10 5 -15 26.9 12.5
10 5 15 40.5 9.4
0 -6 -15 6.4 5.8
0 6 -15 -0.7 3.6
0 -6 -15 15.4 5.1
-1 -6 -15 383.56 19.2
1 6 -15 360.36 15.9
-1 -6 -15 366.26 17.1
1 -6 -15 369.16 16.1
1 -6 -15 396.66 18.7
-1 6 -15 385.16 17
1 -6 -15 395.96 19.1
-2 -6 -15 13.1 7.3
2 6 -15 24 4.9
-2 -6 -15 23.1 7
2 -6 -15 30.8 7.1
2 -6 -15 24.2 5.2
-2 6 -15 25.8 5.9
2 -6 -15 31.7 6
3 6 -15 898.61 28.9
-3 -6 -15 868.81 34.5
-3 -6 -15 887.51 32.8
3 -6 -15 932.81 30.4
3 -6 -15 904.51 32.5
3 -6 -15 859.21 30.6
4 6 -15 117.29 7.9
-4 -6 -15 120.39 13.6
-4 -6 -15 98.09 13.5
4 -6 -15 100.39 8.5
4 -6 -15 88.19 10.3
4 -6 -15 100.29 8.8
-5 -6 -15 116.09 15.2
5 6 -15 131.09 8.2
-5 -6 -15 144.19 14.8
5 -6 -15 153.08 10.5
5 -6 -15 168.38 11.2
5 -6 -15 145.79 12
-6 -6 -15 112.39 15.6
6 6 -15 103.09 7
-6 -6 -15 106.99 14.1
6 -6 -15 93.19 9.9
6 -6 -15 84.09 9.1
6 -6 -15 115.99 11.8
-7 -6 -15 126.49 17.3
7 6 -15 124.79 7.5
-7 -6 -15 137.89 15.8
7 -6 -15 110.19 13.6
7 -6 -15 132.79 10.9
7 -6 -15 94.69 11.8
-8 -6 -15 25.6 10.5
-8 -6 -15 37.5 13.4
8 6 -15 26.4 3.9
8 6 15 20.7 8.6
8 -6 -15 24.3 7.9
8 -6 -15 30.5 6.7
-9 -6 -15 43.9 13
-9 -6 -15 28.5 13.8
9 6 -15 24.2 3.6
9 6 15 23.5 7.6
9 -6 -15 20.8 6.1
9 -6 -15 17.7 7.7
-10 -6 -15 18.5 12.2
-10 -6 -15 -5.1 12.2
10 6 15 22 8.4
10 -6 -15 26.2 8.5
10 -6 -15 15.7 5.7
0 7 -15 438.66 18.2
0 -7 -15 398.76 19.8
0 -7 -15 407.96 18.3
-1 -7 -15 57.09 9.2
-1 -7 -15 54.89 8.4
1 7 -15 50.59 6.8
1 -7 -15 63.99 8.2
-1 7 -15 65.79 8.1
1 -7 -15 51.39 8.4
-2 -7 -15 1029.2 35.8
-2 -7 -15 1031.1 36.9
2 7 -15 987 32.4
-2 7 -15 951.8 33.8
2 -7 -15 1081.79 38.1
2 -7 -15 968.1 33.3
2 -7 -15 984.1 35.3
-3 -7 -15 31.5 9.1
-3 -7 -15 44.6 9.4
3 7 -15 42.3 5.8
3 -7 -15 33.1 6.4
3 -7 -15 31.2 7.2
3 -7 -15 37.9 6.5
-4 -7 -15 471.45 24.7
-4 -7 -15 462.45 23.6
4 7 -15 530.45 18.7
4 -7 -15 486.85 21.6
4 -7 -15 497.25 20.5
4 -7 -15 475.65 20.4
5 7 -15 29.1 4.6
-5 -7 -15 25 10.3
-5 -7 -15 15.4 10.1
5 -7 -15 23.9 5.6
5 -7 -15 25.4 6.1
5 -7 -15 30.9 7
6 7 -15 100.29 7.1
-6 -7 -15 102.09 14.1
-6 -7 -15 97.09 14.9
6 -7 -15 97.29 10.5
6 -7 -15 75.09 8.8
6 -7 -15 106.89 11.9
-7 -7 -15 3.4 11.3
7 7 -15 5.9 3
-7 -7 -15 -3 9.3
7 -7 -15 -3.2 4.6
7 -7 -15 9.4 5.2
7 -7 -15 4.7 5.7
8 7 -15 71.89 5.9
-8 -7 -15 62.09 13.1
-8 -7 -15 95.09 17
8 -7 -15 81.19 11.6
8 -7 -15 73.49 9.3
8 -7 -15 78.09 10.7
8 7 15 60.29 11.6
-9 -7 -15 19.4 12.3
9 7 -15 22.5 3.5
-9 -7 -15 15.8 13.6
9 -7 -15 18.4 7.7
9 -7 -15 23.7 8.2
9 -7 -15 23.3 6.7
9 7 15 28.3 8.5
0 -8 -15 -6.2 4.5
0 -8 -15 -2.9 5.3
0 8 -15 -5.2 3.6
-1 -8 -15 777.02 29.8
1 8 -15 804.82 27.2
-1 -8 -15 742.33 28.6
-1 8 -15 722.83 27.5
1 -8 -15 739.73 27.9
1 -8 -15 738.83 29
2 8 -15 36.4 5.8
-2 -8 -15 34.5 8.6
-2 -8 -15 49.4 9.2
-2 8 -15 31.2 6.5
2 -8 -15 38.3 7.4
2 -8 -15 28.9 6.4
-3 -8 -15 636.84 28
3 8 -15 647.34 23.3
-3 -8 -15 688.63 28.2
3 -8 -15 638.24 25
3 -8 -15 629.94 26.2
-4 -8 -15 104.29 13.3
4 8 -15 93.39 7.9
-4 -8 -15 87.69 13.1
4 -8 -15 97.19 10.2
4 -8 -15 104.79 11.2
4 -8 -15 97.89 10.2
-5 -8 -15 60.59 12.1
-5 -8 -15 57.59 11.8
5 8 -15 76.49 7.1
5 -8 -15 83.39 10.6
5 -8 -15 87.69 9.9
5 -8 -15 91.19 10.2
6 8 -15 21.3 4.3
-6 -8 -15 20.3 11.3
-6 -8 -15 11.2 10.1
6 -8 -15 28.4 7
6 -8 -15 27 7.6
6 -8 -15 21.8 6.5
-7 -8 -15 120.89 17.3
7 8 -15 127.59 7.9
-7 -8 -15 111.09 17.2
7 -8 -15 110.49 11.6
7 -8 -15 137.59 14
7 -8 -15 119.19 12.8
-8 -8 -15 18.9 13.3
8 8 -15 36.2 4.5
-8 -8 -15 20.2 12
8 -8 -15 32.4 7.2
8 -8 -15 37.7 9.3
8 -8 -15 36.5 8.4
-9 -8 -15 20.7 13.6
-9 -8 -15 8 12
9 8 -15 10.9 3.1
9 -8 -15 7.7 5.6
9 -8 -15 24 8
9 -8 -15 9.1 7
9 8 15 2.8 6.8
0 -9 -15 343.17 18.3
0 9 -15 358.96 17
0 -9 -15 326.17 17.8
1 9 -15 23.4 5.7
-1 -9 -15 27.7 8.1
-1 -9 -15 27.5 8
1 -9 -15 26.8 7.1
-1 9 -15 15.1 5.4
1 -9 -15 34.6 7.1
-2 -9 -15 443.46 21.9
-2 -9 -15 446.16 21.9
2 -9 -15 416.56 20.6
-2 9 -15 443.76 20.3
2 -9 -15 470.25 20.5
3 9 -15 19.9 5
-3 -9 -15 25.2 9.4
-3 -9 -15 23 8.2
3 -9 -15 34.2 7.4
3 -9 -15 19.2 6.4
-4 -9 -15 108.49 13.8
4 9 -15 128.39 9.5
-4 -9 -15 121.19 14.2
4 -9 -15 139.29 12.1
4 -9 -15 135.09 11.1
-5 -9 -15 9 8.9
5 9 -15 -2.7 3.4
-5 -9 -15 -4.9 8.3
5 -9 -15 0.3 5.8
5 -9 -15 4.7 4.9
5 -9 -15 -5.1 4.6
-6 -9 -15 93.19 14.9
-6 -9 -15 63.29 12.9
6 9 -15 43.5 5.9
6 -9 -15 75.69 10.5
6 -9 -15 69.39 10.6
6 -9 -15 82.79 10.4
-7 -9 -15 81.59 16.2
-7 -9 -15 99.69 16.2
7 9 -15 69.39 6.6
7 -9 -15 69.99 10.4
7 -9 -15 56.59 9
7 -9 -15 70.19 11.1
-8 -9 -15 74.29 15.3
8 9 -15 73.19 6.4
-8 -9 -15 63.09 14.8
8 -9 -15 75.79 10.4
8 -9 -15 84.19 12.1
8 -9 -15 84.89 11.5
0 10 -15 26.8 6.7
0 -10 -15 49.4 8.7
0 -10 -15 56.09 9
1 10 -15 178.28 12.2
-1 -10 -15 168.58 13.5
-1 -10 -15 218.98 14.7
1 -10 -15 163.98 12.6
1 -10 -15 166.38 12.9
-1 10 -15 138.29 11.6
-2 -10 -15 23.5 8.8
2 10 -15 16.6 5.2
-2 -10 -15 24.4 7.7
-2 10 -15 5.9 5.4
2 -10 -15 5.4 5.4
2 -10 -15 12.6 5.8
-3 -10 -15 137.99 14.2
-3 -10 -15 173.18 16.8
3 10 -15 188.38 11.6
3 -10 -15 154.78 12.4
3 -10 -15 159.78 12.9
-4 -10 -15 50.69 11.4
-4 -10 -15 49.7 10.6
4 10 -15 32.9 6.2
4 -10 -15 44.3 8.1
4 -10 -15 41 8.1
5 10 -15 46.4 6.6
-5 -10 -15 43.8 11.1
-5 -10 -15 55.69 12.3
5 -10 -15 47.5 8.8
5 -10 -15 45.9 8.6
-6 -10 -15 109.29 15.6
-6 -10 -15 131.39 17.2
6 10 -15 113.29 9
6 -10 -15 109.09 12.6
6 -10 -15 134.99 14
-7 -10 -15 59.99 13.9
-7 -10 -15 47.9 13.8
7 10 -15 60.39 6.7
7 -10 -15 66.49 10.1
7 -10 -15 56.09 10.1
0 -11 -15 135.39 13.9
0 11 -15 69.99 9.3
0 -11 -15 123.89 12.2
-1 -11 -15 14 7.2
-1 -11 -15 12.7 6.4
1 11 -15 6.3 5
1 -11 -15 5.9 6
-1 11 -15 0.8 5.2
1 -11 -15 7.2 5.7
2 11 -15 172.68 12.2
-2 -11 -15 193.68 15.6
-2 -11 -15 183.38 15.1
2 -11 -15 194.18 14.7
-2 11 -15 144.19 12.5
2 -11 -15 196.88 13.9
-3 -11 -15 73.59 11.4
-3 -11 -15 47.9 11.1
3 11 -15 64.89 8.2
3 -11 -15 75.09 10.1
3 -11 -15 77.59 10.5
4 11 -15 91.79 9.2
-4 -11 -15 85.39 12.2
-4 -11 -15 97.19 15
4 -11 -15 105.39 12.1
4 -11 -15 88.39 10.9
-5 -11 -15 83.99 13
-5 -11 -15 54.79 12.7
5 11 -15 74.79 8.2
5 -11 -15 84.29 11.6
5 -11 -15 68.89 10.3
6 11 -15 91.19 8.6
-6 -11 -15 82.49 15.2
-6 -11 -15 103.79 14.8
6 -11 -15 85.09 11.6
6 -11 -15 93.39 12.3
-7 -11 -15 91.89 16.6
7 11 -15 75.09 7.7
7 -11 -15 87.09 12.4
7 -11 -15 87.89 12.2
0 -12 -15 22.1 8
0 12 -15 15 6.4
-1 -12 -15 121.09 14.2
1 12 -15 117.09 11.9
1 -12 -15 152.98 13.6
1 -12 -15 121.39 12.3
-1 12 -15 135.49 11.9
-2 -12 -15 56.29 11
2 12 -15 61.49 8.7
2 -12 -15 65.59 10
2 -12 -15 79.69 11.2
-3 -12 -15 50.19 11.3
3 12 -15 56.29 8.1
3 -12 -15 59.39 9.9
3 -12 -15 56.49 9.3
-4 -12 -15 53.59 12.2
4 12 -15 80.69 9
4 -12 -15 57.99 10.3
4 -12 -15 82.59 10.8
-5 -12 -15 66.39 13.5
5 12 -15 65.99 8.3
5 -12 -15 79.69 11.7
5 -12 -15 65.49 10.1
6 12 -15 38.9 6.5
-6 -12 -15 54.99 13.6
6 -12 -15 34.8 8.5
6 -12 -15 28.7 7.7
0 -13 -15 93.49 12.5
0 13 -15 69.19 10.1
-1 -13 -15 23.6 9.1
1 13 -15 21.5 6.8
1 -13 -15 37 9
-1 13 -15 2.9 5.3
2 13 -15 68.39 9.5
-2 -13 -15 61.19 11.2
2 -13 -15 78.59 11.5
3 13 -15 64.59 9.2
-3 -13 -15 61.79 12.1
3 -13 -15 71.49 11.2
-4 -13 -15 8.5 9.4
4 13 -15 11.9 5.6
4 -13 -15 9.4 7
0 -14 -15 14.3 7.8
0 14 -15 3.6 6.4
-1 -14 -15 58.99 11.8
1 14 -15 31.9 8.2
-1 14 -15 40.4 8.5
1 -14 -15 68.59 11.4
2 14 -15 29.6 7.7
-2 -14 -15 51.89 10.8
2 -14 -15 46.2 9.8
0 0 -16 68.89 7.3
0 0 -16 57.69 8.1
0 0 16 59.99 9.9
-1 0 -16 157.78 10.1
-1 0 16 149.29 13.9
-1 0 -16 153.78 12.2
1 0 -16 158.48 11.3
1 0 16 173.88 14.8
1 0 -16 154.48 10
-2 0 -16 386.26 19.7
-2 0 -16 424.06 18
2 0 -16 386.96 17.7
2 0 16 405.86 32.8
2 0 -16 403.66 16.7
3 0 -16 643.24 22.6
-3 0 -16 620.44 27.1
3 0 -16 633.14 24.3
4 0 -16 -0.5 4.4
4 0 -16 -1.7 3
-4 0 -16 -1.1 7.9
-5 0 -16 270.77 19.3
5 0 -16 258.07 14.6
5 0 -16 241.98 11.9
6 0 -16 43.2 7.8
-6 0 -16 31.2 10.8
6 0 -16 40.1 5.4
-7 0 -16 10.8 10.3
7 0 -16 16.5 6.2
7 0 -16 20 4.5
-8 0 -16 63.69 14.6
8 0 -16 47.4 6.2
8 0 -16 66.89 10.1
9 0 -16 55.39 9.9
9 0 -16 54.39 6.6
-9 0 -16 33.3 11.7
10 0 -16 8.4 3.9
10 0 -16 19.8 7.3
-10 0 -16 -6.4 11.2
0 -1 -16 105.19 10.6
0 -1 16 109.69 12.5
0 -1 -16 128.39 9.3
0 1 16 118.89 12.4
0 1 -16 126.69 8.8
0 1 -16 125.89 10.3
-1 1 16 610.54 27.6
1 1 -16 617.64 23.1
-1 -1 -16 541.05 21.8
1 1 -16 588.44 21.8
1 -1 16 613.24 28.7
-1 -1 -16 569.44 24.2
-1 -1 16 590.54 27.5
1 1 16 584.04 28.2
-1 1 -16 641.04 24.3
1 -1 -16 593.04 23.5
1 -1 -16 612.84 22.2
-1 1 -16 573.54 22.1
-2 -1 -16 878.21 33
2 1 -16 873.41 29.3
2 1 -16 873.01 30.5
2 -1 16 898.41 37.4
2 -1 -16 917.41 31.4
2 -1 -16 910.01 29.6
-2 1 -16 905.21 32.6
-2 1 -16 872.01 30.3
-3 -1 -16 567.34 25.8
3 1 -16 588.44 22.6
3 1 -16 570.84 20.9
-3 1 -16 573.94 25.3
3 -1 -16 570.54 21.2
3 -1 -16 570.14 23
4 1 -16 744.53 25
4 1 -16 773.62 27.5
-4 -1 -16 728.93 31.3
4 -1 -16 739.73 27.9
-4 1 -16 757.32 31
4 -1 -16 726.93 25.4
-5 -1 -16 -7.7 6
5 1 -16 2.2 4.6
5 1 -16 3.8 3.1
5 -1 -16 -3.1 4.5
5 -1 -16 1.2 3.2
-5 1 -16 1.4 8.3
-6 -1 -16 9.8 9.8
6 1 -16 24.8 6.2
6 1 -16 21.9 4.3
-6 1 -16 7.2 9
6 -1 -16 23.2 4.6
6 -1 -16 24.1 6.6
7 1 -16 203.18 10.5
7 1 -16 203.28 14.4
-7 -1 -16 165.98 18.6
-7 1 -16 193.88 16.8
7 -1 -16 203.78 14.2
7 -1 -16 205.88 11.2
8 1 -16 159.58 9.5
-8 -1 -16 135.79 18.5
8 1 -16 145.59 13.8
8 -1 -16 160.98 10.1
-8 1 -16 162.38 18.7
8 -1 -16 153.48 13.5
-9 -1 -16 13 12.6
9 1 -16 8.6 3.9
9 1 -16 19.5 7.1
9 -1 -16 13.3 7.3
-9 1 -16 -4.7 11.1
9 -1 -16 7.5 4.2
10 1 -16 15.3 4.1
-10 -1 -16 7.9 12.7
10 1 -16 32.6 8.4
10 -1 -16 21.1 8.4
-10 1 -16 5.7 12.4
10 -1 -16 30.2 5.6
0 -2 16 679.53 29.9
0 2 -16 647.84 23.7
0 -2 -16 680.43 24.3
0 2 -16 668.73 24.7
0 -2 -16 654.93 25.8
0 2 16 645.64 29.9
1 2 -16 241.58 12.3
1 2 -16 248.18 13.1
-1 -2 -16 224.98 12.5
-1 2 16 243.58 16.9
-1 -2 -16 210.18 14.6
1 -2 16 218.38 16.6
1 -2 -16 260.17 13.9
1 2 16 251.77 17.9
1 -2 -16 271.17 13.2
-1 2 -16 269.67 14.6
-1 2 -16 259.77 13.1
-2 -2 -16 895.81 33.3
2 2 -16 866.21 29.1
2 2 -16 883.31 30.1
2 -2 16 897.51 37.3
2 -2 -16 913.71 30.1
-2 2 -16 873.91 32
-2 2 -16 898.01 30.6
2 -2 -16 894.91 31.5
3 2 -16 359.56 16.5
3 2 -16 349.47 15.2
-3 -2 -16 394.86 21
3 -2 -16 370.06 17.8
-3 2 -16 403.56 20.2
3 -2 -16 372.16 15.9
4 2 -16 285.97 14.6
-4 -2 -16 291.67 19.4
4 2 -16 272.47 12.7
4 -2 -16 281.97 13.7
4 -2 -16 292.57 15.2
-4 2 -16 346.97 19.5
5 2 -16 42.2 5.4
-5 -2 -16 42.5 9.9
5 2 -16 54.19 7.6
5 -2 -16 41 7.5
-5 2 -16 45.9 10.7
5 -2 -16 47.7 6.2
-6 -2 -16 152.68 17.3
6 2 -16 161.58 11.8
6 2 -16 190.88 9.6
6 -2 -16 177.78 13
-6 2 -16 176.38 17.5
6 -2 -16 171.48 10.5
-7 -2 -16 54.79 13.3
7 2 -16 72.69 6.6
7 2 -16 60.99 8.9
-7 2 -16 42.6 12.1
7 -2 -16 67.29 9.8
7 -2 -16 55.89 6.8
8 2 -16 34.6 8.1
-8 -2 -16 14.8 12.4
8 2 -16 42.2 5.5
-8 2 -16 21.4 11.8
8 -2 -16 45.7 6.5
8 -2 -16 23.7 7.7
9 2 -16 103.49 7.6
9 2 -16 93.39 11.6
-9 -2 -16 98.29 17.5
-9 2 -16 96.99 16.9
9 -2 -16 103.79 8.9
9 -2 -16 76.19 11.4
10 2 -16 39.9 8.8
-10 -2 -16 25.5 13.9
10 2 -16 30.3 4.7
10 -2 -16 40.6 9.4
-10 2 -16 27.7 13.7
10 -2 -16 33.9 6.1
0 3 16 89.49 12.2
0 3 -16 92.89 7.9
0 -3 -16 100.49 8.3
0 -3 -16 97.99 10.6
0 3 -16 101.19 8.9
1 3 -16 374.66 16.2
-1 3 16 337.87 20.8
1 3 -16 377.76 15.9
-1 -3 -16 357.86 17.8
1 -3 16 348.67 21
1 -3 -16 365.96 16.1
1 -3 -16 385.36 18.2
-1 3 -16 382.86 17.2
-1 3 -16 340.17 15.8
-2 -3 -16 142.79 13.5
2 3 -16 142.89 9.8
2 3 -16 132.69 9.2
2 -3 16 135.19 14.3
-2 3 -16 152.18 12
2 -3 -16 160.68 11.8
2 -3 -16 142.09 9.7
-2 3 -16 135.09 9.9
-3 -3 -16 314.17 19.2
3 3 -16 301.87 13.6
3 3 -16 300.37 14.8
3 -3 -16 312.07 16.3
-3 3 -16 315.97 17.7
3 -3 -16 298.97 14.6
4 3 -16 59.29 7.5
-4 -3 -16 62.99 11.7
4 3 -16 61.19 6.2
4 -3 -16 64.69 7.3
-4 3 -16 48.7 9.8
4 -3 -16 63.79 8.8
-5 -3 -16 280.07 20.3
5 3 -16 274.67 14.4
5 3 -16 276.87 12.3
5 -3 -16 269.07 15.7
5 -3 -16 273.47 13.6
-5 3 -16 293.67 19.2
6 3 -16 23.8 6.4
6 3 -16 21.9 4.2
-6 -3 -16 18.4 8.9
6 -3 -16 16.4 6.4
6 -3 -16 22.5 5.1
-6 3 -16 16.3 9.7
7 3 -16 199.88 10
-7 -3 -16 197.38 20.3
7 3 -16 210.88 14.2
7 -3 -16 181.08 13.3
-7 3 -16 181.38 18.4
7 -3 -16 218.38 12.3
8 3 -16 122.89 12.6
8 3 -16 120.09 8
-8 -3 -16 154.58 18.2
8 -3 -16 139.09 14.4
8 -3 -16 147.69 10.6
-8 3 -16 143.39 17.8
9 3 -16 72.99 6.5
-9 -3 -16 84.99 17.6
9 -3 -16 98.29 12.6
-9 3 -16 55.49 14.3
9 -3 -16 78.49 8.7
10 3 -16 2.8 2.9
-10 -3 -16 -12.2 12.2
10 -3 -16 14 7.1
-10 3 -16 -14.4 11.4
10 -3 -16 2.2 4.5
0 4 -16 84.89 8.3
0 4 16 79.29 12
0 -4 -16 85.89 8.6
0 -4 -16 82.89 10.2
-1 4 16 433.16 24.5
-1 -4 -16 494.05 21.4
1 4 -16 484.55 18.8
-1 4 -16 447.06 18.9
-1 4 -16 471.85 21.9
1 -4 -16 487.35 20.7
1 -4 -16 465.95 19.3
-2 -4 -16 49.99 9.5
2 -4 16 57.49 10.6
2 4 -16 56.49 6.6
2 -4 -16 63.89 8.8
2 -4 -16 70.09 7.8
-2 4 -16 59.69 9
-2 4 -16 68.89 8.2
3 4 -16 404.26 16.1
-3 -4 -16 387.06 21.3
-3 4 -16 349.17 19
3 -4 -16 395.26 17.3
3 -4 -16 418.16 19.3
4 4 -16 134.49 8.6
-4 -4 -16 118.69 13.1
4 -4 -16 120.29 9.6
-4 4 -16 135.09 13.4
4 -4 -16 135.49 11.3
5 4 -16 140.19 8.5
-5 -4 -16 109.29 14.7
-5 4 -16 137.39 14.7
5 -4 -16 130.59 11.5
5 -4 -16 141.79 10.1
-6 -4 -16 119.49 16.3
6 4 -16 145.59 8.5
6 -4 -16 134.99 10.3
6 -4 -16 149.69 11.6
-6 4 -16 125.99 15.3
-7 -4 -16 158.38 19
7 4 -16 198.38 9.8
-7 4 -16 185.38 18.6
7 -4 -16 157.88 13.9
7 -4 -16 186.18 12
-8 -4 -16 186.98 21.2
8 4 -16 187.88 9.5
8 -4 -16 193.78 12.3
-8 4 -16 172.08 18.9
8 -4 -16 178.98 14.9
-9 -4 -16 51.69 15.1
9 4 -16 51.49 5.3
9 -4 -16 51.19 7.4
-9 4 -16 25.8 12.7
9 -4 -16 40 9.2
-10 -4 -16 72.79 17.4
10 4 -16 73.99 5.9
-10 4 -16 50.79 15.3
10 -4 -16 78.09 9.4
10 -4 -16 59.99 10.9
0 -5 -16 303.07 16.8
0 5 -16 294.37 14.3
-1 -5 -16 19.1 7.6
1 5 -16 30.1 5.4
-1 5 16 24.6 8.4
1 -5 -16 32.9 6.5
-1 5 -16 27.2 5.9
1 -5 -16 34.9 6.1
-2 -5 -16 328.97 18.6
2 5 -16 308.27 14.2
2 -5 -16 309.07 15.4
-2 5 -16 314.27 15.5
2 -5 -16 302.57 16.7
-3 -5 -16 23.5 8.7
3 5 -16 21.6 4.6
3 -5 -16 12.5 4.6
3 -5 -16 8.6 5.5
-4 -5 -16 53.69 11.3
4 5 -16 54.39 6.2
4 -5 -16 38.3 7.5
4 -5 -16 51.99 7
-5 -5 -16 48.8 11.8
5 5 -16 37.1 5.2
5 -5 -16 35.8 6.5
5 -5 -16 35.4 7.8
-6 -5 -16 246.98 21.1
6 5 -16 260.17 11.8
6 -5 -16 263.27 14.4
6 -5 -16 262.27 16.3
7 5 -16 128.79 8.1
-7 -5 -16 142.89 18.8
7 -5 -16 144.99 11.2
7 -5 -16 154.18 13.7
-8 -5 -16 110.49 18.2
8 5 -16 116.39 7.4
-8 -5 -16 129.19 26.8
8 -5 -16 103.29 10.3
8 -5 -16 100.99 12.7
-9 -5 -16 40.2 14
-9 -5 -16 81.89 17.7
9 5 -16 59.99 5.4
9 -5 -16 62.39 8.6
9 -5 -16 79.29 11.8
-9 5 -16 47.6 13.9
0 6 -16 82.69 8.6
0 -6 -16 99.19 11.1
-1 -6 -16 95.29 10.6
1 6 -16 91.59 8.8
-1 6 -16 80.49 8.8
1 -6 -16 83.29 10.2
-2 -6 -16 98.59 12
2 6 -16 118.29 8.8
-2 6 -16 105.99 10.1
2 -6 -16 97.49 10.9
2 -6 -16 103.69 9.8
-3 -6 -16 74.99 11.3
-3 -6 -16 67.39 11.3
3 6 -16 69.49 7.1
3 -6 -16 54.69 7.8
3 -6 -16 56.49 8.6
-4 -6 -16 76.19 12.5
-4 -6 -16 81.59 11.9
4 6 -16 68.09 6.9
4 -6 -16 82.09 9.9
4 -6 -16 58.89 7.7
-5 -6 -16 75.49 13.2
5 6 -16 109.69 7.8
-5 -6 -16 90.09 12.9
5 -6 -16 126.69 10.4
5 -6 -16 103.09 11.5
6 6 -16 27.6 4.7
-6 -6 -16 13.3 9.6
-6 -6 -16 23.4 11.5
6 -6 -16 24.6 6.1
6 -6 -16 35 8.2
7 6 -16 196.18 10
-7 -6 -16 181.08 20.6
-7 -6 -16 196.98 18.8
7 -6 -16 200.58 13.3
7 -6 -16 189.88 15.2
8 6 -16 141.49 8
-8 -6 -16 130.09 17.4
-8 -6 -16 152.08 20
8 -6 -16 136.59 11.6
8 -6 -16 144.19 14.9
-9 -6 -16 85.59 15.6
-9 -6 -16 51.19 16.1
9 6 -16 65.49 5.7
9 -6 -16 63.49 10.5
9 -6 -16 66.79 9
0 -7 -16 -5.3 5.2
0 -7 -16 3.1 4.6
0 7 -16 0.8 3.8
-1 -7 -16 33.8 8
-1 -7 -16 40.9 7.2
1 7 -16 39.9 6.5
1 -7 -16 37.8 6.5
1 -7 -16 34.2 7.7
-1 7 -16 45.8 7.2
2 7 -16 125.19 9.3
-2 -7 -16 117.89 11.8
-2 -7 -16 130.29 13.3
2 -7 -16 94.49 10.9
-2 7 -16 110.69 10.5
2 -7 -16 126.99 10.1
-3 -7 -16 122.89 13.5
3 7 -16 100.99 8.5
-3 -7 -16 130.89 13
3 -7 -16 102.69 11.4
3 -7 -16 132.19 10.8
3 -7 -16 121.69 12.5
-4 -7 -16 7 7.9
4 7 -16 4.2 3.6
-4 -7 -16 3.2 8.3
4 -7 -16 11.4 4.8
4 -7 -16 7.7 5.2
4 -7 -16 14.2 5.9
5 7 -16 132.59 8.9
-5 -7 -16 144.19 16.2
-5 -7 -16 117.19 15.4
5 -7 -16 150.18 12.7
5 -7 -16 133.99 10.8
-6 -7 -16 209.58 19.4
6 7 -16 182.88 10.1
-6 -7 -16 172.78 19.2
6 -7 -16 213.18 15.1
6 -7 -16 186.78 13.1
-7 -7 -16 152.88 17.8
-7 -7 -16 114.79 17.7
7 7 -16 134.89 8.6
7 -7 -16 146.89 14.8
7 -7 -16 138.19 12
-8 -7 -16 54.19 15.6
-8 -7 -16 80.39 14.8
8 7 -16 102.39 7.1
8 -7 -16 84.89 12.2
8 -7 -16 99.09 11
-9 -7 -16 53.49 15.1
9 7 -16 58.89 5.4
-9 -7 -16 33.2 15.1
9 -7 -16 52.89 8.5
9 -7 -16 68.69 11.3
0 -8 -16 140.79 11.3
0 -8 -16 138.29 12.4
0 8 -16 150.38 11.2
1 8 -16 16.5 5.2
-1 -8 -16 7.4 5.7
-1 -8 -16 16.1 6.9
1 -8 -16 24.4 7
1 -8 -16 28.6 6.2
-1 8 -16 1.7 4.7
2 8 -16 111.89 9.3
-2 -8 -16 108.09 12.3
-2 -8 -16 108.39 11.8
-2 8 -16 98.59 10.3
2 -8 -16 114.59 11.5
2 -8 -16 109.29 10.7
-3 -8 -16 65.29 11.3
-3 -8 -16 68.69 10.7
3 8 -16 67.39 7.5
3 -8 -16 54.39 8.8
3 -8 -16 56.19 8
4 8 -16 222.58 12
-4 -8 -16 210.38 17.3
-4 -8 -16 210.58 16.8
4 -8 -16 217.08 13.4
4 -8 -16 203.88 14.7
4 -8 -16 229.08 14.4
-5 -8 -16 50.59 11.8
-5 -8 -16 54.49 12
5 8 -16 37.7 5.8
5 -8 -16 37.5 7.4
5 -8 -16 45 8.7
5 -8 -16 47.9 8.1
6 8 -16 109.59 8.5
-6 -8 -16 124.39 16.7
-6 -8 -16 107.29 16.1
6 -8 -16 129.09 11.3
6 -8 -16 131.89 13.6
6 -8 -16 123.79 12.1
-7 -8 -16 118.89 17.6
7 8 -16 107.39 8
-7 -8 -16 103.49 17
7 -8 -16 133.39 12.5
7 -8 -16 118.99 12.5
7 -8 -16 118.99 13.6
8 8 -16 83.19 6.7
-8 -8 -16 76.59 15.1
-8 -8 -16 88.99 17.4
8 -8 -16 61.59 9.3
8 -8 -16 97.49 12.9
0 -9 -16 21.7 6.8
0 9 -16 32.7 6.8
0 -9 -16 42.5 7.9
-1 -9 -16 219.58 15.3
1 9 -16 207.98 13
-1 -9 -16 197.98 14.1
1 -9 -16 199.68 13.4
-1 9 -16 207.68 13.4
1 -9 -16 222.08 14.9
2 9 -16 56.09 7.4
-2 -9 -16 39.8 8.8
-2 -9 -16 40.9 9
2 -9 -16 50.09 8.6
2 -9 -16 42.5 7.6
-2 9 -16 47.3 8.1
-3 -9 -16 82.99 11.8
3 9 -16 76.79 8.3
-3 -9 -16 79.89 11.4
3 -9 -16 82.49 10.2
3 -9 -16 50.89 8.9
-4 -9 -16 116.29 14.3
-4 -9 -16 131.79 15.7
4 9 -16 107.99 9.3
4 -9 -16 112.39 11.8
4 -9 -16 121.49 12.7
-5 -9 -16 150.78 17.7
5 9 -16 176.48 10.8
-5 -9 -16 156.38 17.3
5 -9 -16 154.98 13.1
5 -9 -16 162.78 13.8
-6 -9 -16 53.99 12.9
6 9 -16 43.3 6
-6 -9 -16 42.1 12.1
6 -9 -16 45.5 9.2
6 -9 -16 65.09 9.8
6 -9 -16 49.1 8.7
-7 -9 -16 14 11.2
7 9 -16 15.2 4.2
-7 -9 -16 24.6 12.2
7 -9 -16 1 6.3
7 -9 -16 15.9 7.1
7 -9 -16 13.4 6.5
8 9 -16 138.69 8.6
-8 -9 -16 170.78 20.1
-8 -9 -16 136.49 20.3
8 -9 -16 138.69 13.8
8 -9 -16 155.88 16
8 -9 -16 132.89 14.3
0 -10 -16 309.37 17.6
0 10 -16 317.67 16.7
0 -10 -16 314.27 18
-1 -10 -16 9.4 6.6
-1 -10 -16 12.4 6.7
1 10 -16 8.7 5.3
-1 10 -16 8.1 5.4
1 -10 -16 15.4 6.7
1 -10 -16 2.8 5.3
2 10 -16 20.1 5.7
-2 -10 -16 16.6 7.5
-2 -10 -16 19.4 8.3
2 -10 -16 16.3 6.5
2 -10 -16 19.2 6.3
-2 10 -16 26 6.8
-3 -10 -16 273.07 18.3
-3 -10 -16 247.28 18.2
3 10 -16 258.27 14.4
3 -10 -16 280.57 16.3
3 -10 -16 297.87 17.9
4 10 -16 46.8 7
-4 -10 -16 46.9 11.3
-4 -10 -16 44.3 11.3
4 -10 -16 56.39 9.3
4 -10 -16 56.79 9.6
-5 -10 -16 77.29 13.1
5 10 -16 65.49 7.7
-5 -10 -16 80.89 13.9
5 -10 -16 61.19 9.9
5 -10 -16 70.29 10.6
-6 -10 -16 37.1 11.6
6 10 -16 33.7 5.8
-6 -10 -16 27.1 11.5
6 -10 -16 43 9.1
6 -10 -16 47.9 8.8
-7 -10 -16 20.8 11.6
-7 -10 -16 26.7 13.2
7 10 -16 29 5.3
7 -10 -16 36.5 8.8
7 -10 -16 42.7 9.6
0 -11 -16 22.9 7.3
0 -11 -16 26 7.8
0 11 -16 26.3 7.1
-1 -11 -16 75.89 10.5
1 11 -16 86.29 10.3
-1 -11 -16 126.49 14
1 -11 -16 98.69 11.9
-1 11 -16 92.19 10.9
1 -11 -16 91.39 11.2
-2 -11 -16 194.08 15.2
-2 -11 -16 181.98 16.3
-2 11 -16 183.48 15.9
2 -11 -16 171.38 13.9
2 -11 -16 191.48 14.8
3 11 -16 6.3 4.8
-3 -11 -16 2.2 7.7
-3 -11 -16 7.8 8.3
3 -11 -16 11.6 6.5
3 -11 -16 0.2 5.2
4 11 -16 257.37 14.6
-4 -11 -16 230.18 19.1
-4 -11 -16 240.08 18.3
4 -11 -16 288.57 17.4
4 -11 -16 221.58 16.5
5 11 -16 46.7 7.3
-5 -11 -16 44 12
-5 -11 -16 66.09 12.7
5 -11 -16 51.39 9.5
5 -11 -16 43 9.1
6 11 -16 25.3 5.6
-6 -11 -16 16.2 11
-6 -11 -16 27.7 10.9
6 -11 -16 26.7 8.3
6 -11 -16 25.7 8.2
0 -12 -16 69.89 10.2
0 12 -16 67.79 9.6
0 -12 -16 62.49 10.7
-1 -12 -16 122.99 14.2
-1 -12 -16 123.49 13.4
1 -12 -16 122.89 12.8
1 -12 -16 136.09 14.3
-1 12 -16 104.19 11.8
-2 -12 -16 56.69 10.9
2 12 -16 63.79 9.3
2 -12 -16 51.59 9.2
2 -12 -16 70.59 11
-3 -12 -16 138.49 16.1
3 12 -16 125.79 11.9
3 -12 -16 157.38 14
3 -12 -16 154.68 13.6
-4 -12 -16 40.3 11
4 12 -16 56.39 8.2
4 -12 -16 56.89 10.1
4 -12 -16 54.99 10.4
-5 -12 -16 26.7 10.8
5 12 -16 31.6 6.8
5 -12 -16 34.5 8.7
5 -12 -16 35.5 8.5
0 13 -16 63.19 9.6
0 -13 -16 92.59 12.6
-1 -13 -16 58.49 11.4
1 13 -16 53.59 9.4
-1 13 -16 70.19 10.4
1 -13 -16 72.19 11.4
-2 -13 -16 81.89 12.7
2 13 -16 78.09 10.3
2 -13 -16 78.69 11.5
-3 -13 -16 98.59 14.3
3 13 -16 115.99 12
3 -13 -16 113.59 13.4
0 -14 -16 99.29 13.4
0 14 -16 66.99 10.5
0 0 17 -0.7 5.2
0 0 -17 -5.5 4.5
0 0 -17 1.8 3.8
1 0 -17 19.7 5
-1 0 -17 19.8 5.8
1 0 -17 17.6 6
-1 0 -17 23.3 5.5
1 0 17 15.5 7.1
2 0 -17 327.37 14.8
2 0 -17 280.97 15.3
-2 0 -17 291.27 17.4
3 0 -17 297.87 14.1
-3 0 -17 311.47 18.6
3 0 -17 278.17 15.3
-4 0 -17 372.96 20.7
4 0 -17 383.06 18.4
4 0 -17 423.86 16.9
5 0 -17 109.09 10.9
-5 0 -17 107.19 14.2
5 0 -17 105.99 8.3
6 0 -17 10 5.4
-6 0 -17 9.1 10
6 0 -17 12.3 4.1
7 0 -17 366.96 16.1
7 0 -17 407.86 20.2
-7 0 -17 381.96 25.6
8 0 -17 37.7 5.9
8 0 -17 25.5 7.8
-8 0 -17 35.1 13.7
9 0 -17 252.37 17.1
9 0 -17 206.38 11.7
-9 0 -17 187.78 22.2
10 0 -17 15.2 7.3
-10 0 -17 -6.6 12.7
10 0 -17 16.6 4.7
0 -1 -17 141.09 11.7
0 1 17 150.08 14.1
0 1 -17 170.98 11
0 -1 -17 156.68 10.6
0 1 -17 162.78 11.8
1 -1 17 294.87 19.6
1 1 -17 323.37 14.7
-1 -1 -17 320.17 17.2
-1 -1 -17 316.57 15
1 1 -17 325.57 15.9
1 -1 -17 282.37 15.8
1 -1 -17 295.67 14.6
-1 1 -17 305.97 16.5
1 1 17 301.27 20
-1 1 -17 279.87 14.5
2 1 -17 168.88 11.8
-2 -1 -17 123.79 12.3
2 1 -17 147.89 9.9
2 -1 -17 124.49 9.3
-2 1 -17 142.49 12.8
-2 1 -17 125.49 10.4
2 -1 -17 135.29 11.1
3 1 -17 161.68 11.5
-3 -1 -17 168.98 15.2
3 1 -17 170.58 10.4
3 -1 -17 165.58 12.2
3 -1 -17 166.28 10.6
-3 1 -17 177.18 14.8
4 1 -17 229.38 13.7
-4 -1 -17 233.08 18.1
4 1 -17 222.38 11.8
4 -1 -17 236.28 14.4
-4 1 -17 235.18 17.7
4 -1 -17 252.87 12.7
5 1 -17 78.29 9.4
5 1 -17 87.39 7.3
-5 -1 -17 71.89 13
5 -1 -17 96.79 10.4
5 -1 -17 88.99 8.3
-5 1 -17 60.49 12.1
-6 -1 -17 147.59 16
6 1 -17 143.09 9.2
6 1 -17 137.29 11.5
6 -1 -17 146.59 12
-6 1 -17 109.19 15.3
6 -1 -17 132.69 9.6
7 1 -17 155.98 9.8
-7 -1 -17 131.39 17.9
7 1 -17 164.68 12.9
7 -1 -17 155.08 13.1
7 -1 -17 169.38 10.5
-7 1 -17 136.39 17.6
8 1 -17 462.25 17.8
-8 -1 -17 392.66 28.1
8 1 -17 465.85 22.5
-8 1 -17 435.66 28.4
8 -1 -17 446.96 18.3
8 -1 -17 430.46 22.4
-9 -1 -17 -19.6 11.7
9 1 -17 1.2 6.3
9 1 -17 1.5 3.6
-9 1 -17 -5.9 11
9 -1 -17 -0.7 3.7
9 -1 -17 -2.7 5.9
10 1 -17 87.09 11.8
-10 -1 -17 57.99 16.9
10 1 -17 78.99 7.5
-10 1 -17 55.09 15.8
10 -1 -17 79.59 11.9
10 -1 -17 71.49 7.8
0 -2 -17 8.2 4.4
0 -2 -17 7.2 4.8
0 2 -17 9.7 4.3
0 2 17 6 6.2
0 2 -17 1.4 4.7
-1 -2 -17 175.38 13.4
1 2 -17 163.38 11.2
1 2 -17 166.78 10.4
1 -2 17 152.28 17.3
-1 -2 -17 165.88 11.1
1 -2 -17 169.18 12.5
1 -2 -17 175.38 11.2
-1 2 -17 173.28 12.4
-1 2 -17 174.78 11.3
2 2 -17 572.94 21.7
2 2 -17 515.95 20.3
2 -2 17 542.85 28.9
-2 -2 -17 546.45 24.5
2 -2 -17 512.35 22.4
2 -2 -17 544.75 21
-2 2 -17 516.55 22.9
-2 2 -17 510.45 21.3
3 2 -17 156.68 10
3 2 -17 155.68 10.9
-3 -2 -17 143.29 14.6
3 -2 -17 150.48 11.8
-3 2 -17 156.68 14
3 -2 -17 163.58 10.6
4 2 -17 206.28 13.1
-4 -2 -17 191.08 17.2
4 2 -17 206.68 11.3
4 -2 -17 237.18 12.5
-4 2 -17 247.58 17.5
4 -2 -17 223.78 14
5 2 -17 118.59 10
5 2 -17 106.29 8
-5 -2 -17 93.89 14
5 -2 -17 112.99 11.3
-5 2 -17 98.69 13.7
5 -2 -17 105.69 8.8
-6 -2 -17 38 12.1
6 2 -17 35.5 7
6 2 -17 39.1 5.4
6 -2 -17 44.3 8.2
6 -2 -17 37.2 6
-6 2 -17 24.5 10.7
7 2 -17 417.76 20.7
7 2 -17 396.16 16.3
-7 -2 -17 388.76 26.6
-7 2 -17 442.16 26.4
7 -2 -17 436.66 18
7 -2 -17 393.46 20.9
-8 -2 -17 37.6 14.7
8 2 -17 38.5 5.5
8 2 -17 37.3 8.5
8 -2 -17 43.7 6.6
8 -2 -17 30.9 8.5
-8 2 -17 13.6 12.2
-9 -2 -17 145.29 20.8
9 2 -17 187.08 10.1
9 2 -17 167.78 14.1
-9 2 -17 162.88 20.6
9 -2 -17 192.98 11.7
9 -2 -17 158.08 15.9
10 2 -17 4 3.4
-10 -2 -17 -16.5 12.6
10 2 -17 14.4 6.7
-10 2 -17 -29.5 10.2
10 -2 -17 2.6 4.1
10 -2 -17 14.8 7.1
0 3 -17 -1.7 4.8
0 3 17 4.9 6
0 -3 -17 -4.3 5.4
0 3 -17 6.4 4.4
0 -3 -17 1.2 3.7
1 3 -17 390.26 16.8
1 3 -17 345.97 15.6
-1 -3 -17 357.46 18.7
1 -3 -17 328.37 17.3
-1 3 -17 300.37 15.3
-1 3 -17 320.17 16.4
1 -3 -17 308.97 15.4
-2 -3 -17 216.58 15.8
2 -3 17 204.98 27.8
2 3 -17 214.18 11.8
2 3 -17 228.88 13
-2 3 -17 214.38 13
2 -3 -17 226.38 12.6
2 -3 -17 224.98 14.2
-2 3 -17 221.98 14.3
3 3 -17 240.38 12.3
3 3 -17 267.27 13.6
-3 -3 -17 243.58 17.5
-3 3 -17 258.57 17.2
3 -3 -17 245.28 14.9
3 -3 -17 224.28 13
-4 -3 -17 50.39 11.2
4 3 -17 38.6 5.6
4 3 -17 55.99 7.7
-4 3 -17 44.7 10
4 -3 -17 39.2 7.6
4 -3 -17 48.5 6.7
5 3 -17 57.49 8
5 3 -17 46.3 5.9
-5 -3 -17 59.29 12.4
5 -3 -17 56.59 7.3
-5 3 -17 50.89 12.2
5 -3 -17 61.79 8.9
-6 -3 -17 190.68 19.6
6 3 -17 207.38 13.6
6 3 -17 211.18 11
-6 3 -17 223.08 19
6 -3 -17 218.28 14.9
6 -3 -17 225.08 12.8
7 3 -17 99.29 7.8
-7 -3 -17 112.19 17.1
-7 3 -17 83.69 14.8
7 -3 -17 108.89 12.5
7 -3 -17 80.59 8.7
-8 -3 -17 235.88 23.8
8 3 -17 230.48 11.5
8 -3 -17 267.57 14.2
8 -3 -17 247.18 17.2
-8 3 -17 227.48 22.7
-9 -3 -17 -2.6 12.6
9 3 -17 19.3 4.3
9 -3 -17 19.7 7.8
-9 3 -17 6.7 12.5
9 -3 -17 17 5.6
0 -4 -17 263.17 15.8
0 4 -17 234.88 13.3
0 -4 -17 234.48 18.5
-1 -4 -17 128.49 12.9
1 4 -17 114.99 9.4
1 -4 -17 117.89 11.6
-1 4 -17 141.89 10.7
1 -4 -17 134.99 10.1
2 4 -17 650.33 24
-2 -4 -17 625.54 27.7
-2 4 -17 628.04 32.6
2 -4 -17 724.83 27.4
2 -4 -17 654.03 24.8
-2 4 -17 701.43 25.7
-3 -4 -17 -3.6 7.2
3 4 -17 11.3 4.2
3 -4 -17 7 4.1
-3 4 -17 -1 6.2
3 -4 -17 -3.4 4.9
-4 -4 -17 260.97 19
4 4 -17 265.67 12.6
4 -4 -17 249.58 15.5
-4 4 -17 253.97 18.3
4 -4 -17 268.47 14.1
-5 -4 -17 69.29 12.8
5 4 -17 90.59 7.5
-5 4 -17 59.09 11.7
5 -4 -17 74.49 8.5
5 -4 -17 90.99 10.7
6 4 -17 118.69 8.5
-6 -4 -17 101.29 15.8
6 -4 -17 102.39 9.9
6 -4 -17 119.99 12.5
-6 4 -17 119.19 15.3
-7 -4 -17 166.88 20
7 4 -17 171.08 9.7
7 -4 -17 158.78 11.5
7 -4 -17 148.59 14.6
-7 4 -17 154.68 18
-8 -4 -17 33.9 13.9
8 4 -17 56.39 5.9
-8 4 -17 83.89 16.2
8 -4 -17 36.2 9.3
8 -4 -17 50.59 7.5
9 4 -17 53.39 5.7
-9 -4 -17 62.59 16.8
-9 4 -17 72.99 15.8
9 -4 -17 49.1 10.2
9 -4 -17 55.99 8.1
0 5 -17 4.6 4.2
0 -5 -17 7.1 6.4
1 5 -17 648.84 24.3
-1 -5 -17 674.23 27.6
1 -5 -17 647.94 25.1
-1 5 -17 672.93 25
1 -5 -17 625.64 26.5
2 5 -17 51.79 6.7
-2 -5 -17 40.4 9.3
2 -5 -17 57.99 7.8
2 -5 -17 51.89 8.5
-2 5 -17 46.3 7.3
3 5 -17 263.57 13
-3 -5 -17 247.68 17.6
3 -5 -17 247.08 13.9
3 -5 -17 249.78 14.8
-4 -5 -17 110.09 14
4 5 -17 111.69 8.2
4 -5 -17 99.49 9.9
4 -5 -17 84.99 10.2
-5 -5 -17 235.98 19.6
5 5 -17 210.08 11.3
5 -5 -17 224.18 13.1
5 -5 -17 224.98 14.4
6 5 -17 175.28 10
-6 -5 -17 184.58 19.6
6 -5 -17 173.18 12.2
6 -5 -17 163.38 13.9
-7 -5 -17 9.4 11.9
7 5 -17 1.2 3.3
7 -5 -17 2.5 4.9
7 -5 -17 -12.7 4.7
-8 -5 -17 11 12.9
8 5 -17 22.4 4.3
8 -5 -17 26.8 8.3
8 -5 -17 28 6.6
9 5 -17 17.5 3.9
-9 -5 -17 0.9 12.9
9 -5 -17 20.6 6.3
9 -5 -17 23.6 8.4
0 6 -17 1121.39 37.2
0 -6 -17 1124.39 39.7
-1 -6 -17 37.5 8.5
1 6 -17 27.7 5.7
1 -6 -17 36.8 8.1
-1 6 -17 40.9 7.1
2 6 -17 434.36 18.2
-2 -6 -17 403.16 21.8
-2 6 -17 420.46 19.4
2 -6 -17 457.85 21.4
2 -6 -17 450.85 19.8
-3 -6 -17 8.5 7.6
3 6 -17 4.2 3.8
3 -6 -17 5.6 5.7
3 -6 -17 7.2 4.5
-4 -6 -17 323.67 21.2
4 6 -17 332.27 14.9
4 -6 -17 326.07 16.7
4 -6 -17 323.37 18.2
-5 -6 -17 148.49 17.2
5 6 -17 148.79 9.8
5 -6 -17 167.48 13.4
5 -6 -17 130.39 11.2
-6 -6 -17 194.98 20.2
6 6 -17 202.48 10.9
6 -6 -17 199.68 13.4
6 -6 -17 201.98 15.1
7 6 -17 19.3 4.2
-7 -6 -17 13.3 12.3
7 -6 -17 17.5 7.6
7 -6 -17 17.4 5.9
8 6 -17 25.3 4.5
-8 -6 -17 28.9 14.3
8 -6 -17 16.9 6.1
8 -6 -17 22.8 8.2
9 6 -17 16.8 3.6
-9 -6 -17 10.5 13.8
9 -6 -17 23.3 8.9
9 -6 -17 11.8 5.7
0 -7 -17 13.4 7
0 7 -17 15.3 5.6
1 7 -17 613.94 23.7
-1 -7 -17 604.04 26.6
-1 7 -17 637.04 24.8
1 -7 -17 594.74 25.5
-2 -7 -17 24.9 8.3
2 7 -17 22.5 5.4
2 -7 -17 15.2 6.5
-2 7 -17 8.9 5.3
-3 -7 -17 196.28 16.4
3 7 -17 197.58 11.8
3 -7 -17 232.28 14
3 -7 -17 218.68 14.8
4 7 -17 17.7 4.8
-4 -7 -17 1.4 8.5
4 -7 -17 11.4 6.4
4 -7 -17 30.7 6.3
-5 -7 -17 333.67 35.5
-5 -7 -17 324.17 22.7
5 7 -17 359.06 15.4
5 -7 -17 353.06 17.6
5 -7 -17 320.37 18.2
-6 -7 -17 10.6 10.8
6 7 -17 1 3.5
-6 -7 -17 -4.1 9
6 -7 -17 26.5 7.6
6 -7 -17 -1.1 4.8
-7 -7 -17 26.9 12.7
7 7 -17 36.7 5.3
-7 -7 -17 23.5 11.8
7 -7 -17 27.2 7.1
7 -7 -17 28.6 8.7
-8 -7 -17 5.4 12.3
-8 -7 -17 37.3 14.4
8 7 -17 23.3 4.3
8 -7 -17 17.9 8.2
8 -7 -17 17.9 6.6
0 -8 -17 500.85 23.4
0 -8 -17 479.45 22
0 8 -17 495.15 21.2
-1 -8 -17 35.6 8.5
1 8 -17 31.3 6.4
-1 -8 -17 44.7 8.5
-1 8 -17 30.6 6.9
1 -8 -17 18.8 7.2
-2 -8 -17 264.27 17.8
-2 -8 -17 286.97 17.5
2 8 -17 254.67 14.2
-2 8 -17 292.97 15.9
2 -8 -17 289.07 17.1
-3 -8 -17 175.38 14.7
-3 -8 -17 181.98 15.9
3 8 -17 171.48 11.3
3 -8 -17 191.08 14.1
4 8 -17 174.48 11.1
-4 -8 -17 160.58 15.9
-4 -8 -17 158.38 16.6
4 -8 -17 156.78 15.6
4 -8 -17 167.98 13.8
-5 -8 -17 20.5 9.9
5 8 -17 3.6 4.1
-5 -8 -17 13.2 9.7
5 -8 -17 8.7 5.5
5 -8 -17 19.2 7
6 8 -17 106.39 8.7
-6 -8 -17 103.99 16
-6 -8 -17 91.99 15.5
6 -8 -17 99.19 11.4
6 -8 -17 117.79 13.5
-7 -8 -17 9.8 11.6
-7 -8 -17 17.3 12.5
7 8 -17 11.9 4.1
7 -8 -17 12 6.3
7 -8 -17 17.2 7.9
-8 -8 -17 22.2 12.5
8 8 -17 30.9 5
-8 -8 -17 18.4 13.5
8 -8 -17 38.2 8
8 -8 -17 27.2 8.9
0 9 -17 142.49 12.5
0 -9 -17 147.69 12.8
0 -9 -17 130.59 13.3
1 9 -17 334.17 16.8
-1 -9 -17 336.77 18.7
-1 -9 -17 329.37 19.3
-1 9 -17 327.67 17.6
1 -9 -17 307.97 18.4
1 -9 -17 333.77 17.9
-2 -9 -17 42.2 9.4
-2 -9 -17 63.79 10.2
2 9 -17 50.09 7.5
2 -9 -17 65.79 9.3
-2 9 -17 48.2 8.3
2 -9 -17 38.1 8.4
-3 -9 -17 176.08 15.7
-3 -9 -17 198.58 15.8
3 9 -17 189.68 12.1
3 -9 -17 192.78 13.8
3 -9 -17 169.88 14
4 9 -17 4.8 4.5
-4 -9 -17 3.9 8.3
-4 -9 -17 12.2 8.6
4 -9 -17 10.1 5.7
4 -9 -17 12.1 6.5
-5 -9 -17 229.68 19.6
-5 -9 -17 236.78 19.2
5 9 -17 224.18 12.9
5 -9 -17 245.58 18.5
5 -9 -17 247.98 16.7
-6 -9 -17 69.99 13.9
6 9 -17 67.69 7.5
-6 -9 -17 59.79 13.2
6 -9 -17 50.29 10.1
6 -9 -17 62.39 9.8
-7 -9 -17 99.89 16.5
-7 -9 -17 134.29 18.5
7 9 -17 129.19 9.2
7 -9 -17 167.48 13.8
7 -9 -17 150.88 15.6
0 -10 -17 208.18 14.9
0 -10 -17 220.98 15.8
0 10 -17 219.98 14.6
-1 -10 -17 164.78 14.3
1 10 -17 141.39 11.9
-1 -10 -17 157.08 15.1
1 -10 -17 147.59 13.3
1 -10 -17 149.59 12.7
-1 10 -17 145.79 12.2
-2 -10 -17 278.37 19
-2 -10 -17 288.17 18.7
2 10 -17 280.47 15.3
2 -10 -17 264.97 16.6
2 -10 -17 233.98 16.4
-2 10 -17 222.28 15.7
-3 -10 -17 1.8 7.7
3 10 -17 16.7 5.6
-3 -10 -17 18 8.2
3 -10 -17 12.6 6.7
3 -10 -17 13.8 6.3
-4 -10 -17 159.38 17.3
-4 -10 -17 168.78 17
4 10 -17 147.29 11.4
4 -10 -17 141.49 12.6
4 -10 -17 148.79 14.6
5 10 -17 100.29 9.6
-5 -10 -17 101.79 15.8
-5 -10 -17 130.99 15.7
5 -10 -17 100.09 12.6
5 -10 -17 112.69 12.8
-6 -10 -17 65.79 14.8
6 10 -17 82.59 8.4
-6 -10 -17 84.29 14.8
6 -10 -17 56.89 10.5
6 -10 -17 88.99 11.6
0 -11 -17 19.2 7.5
0 11 -17 6.8 6.1
0 -11 -17 20.4 7.3
-1 -11 -17 151.88 14.2
1 11 -17 218.18 14.2
-1 -11 -17 224.78 16.5
1 -11 -17 237.78 15.9
-1 11 -17 214.28 15.2
1 -11 -17 239.08 16.1
-2 -11 -17 42.6 10
-2 -11 -17 54.49 10.2
2 11 -17 37.7 7.3
2 -11 -17 43.7 9
2 -11 -17 52.79 9.6
-3 -11 -17 132.29 15.1
3 11 -17 133.29 11.7
-3 -11 -17 139.99 15.7
3 -11 -17 118.69 13.2
3 -11 -17 121.79 13.2
-4 -11 -17 32.3 11.7
-4 -11 -17 43.2 11.4
4 11 -17 34.7 7
4 -11 -17 34.9 8.5
4 -11 -17 47 9.4
5 11 -17 44.8 7.4
-5 -11 -17 53.59 12.6
-5 -11 -17 39.1 10.9
5 -11 -17 34.3 8.2
5 -11 -17 63.99 10.5
0 12 -17 43.2 8.4
0 -12 -17 62.79 10.6
0 -12 -17 46.8 9.1
-1 -12 -17 30.1 9.1
1 12 -17 37.9 8.1
-1 -12 -17 37.5 8.7
1 -12 -17 31.7 8.3
-1 12 -17 26.6 7.5
1 -12 -17 32.5 8.2
2 12 -17 37.1 7.9
-2 -12 -17 64.49 11.7
-2 -12 -17 35.5 8.8
2 -12 -17 46.4 9.4
2 -12 -17 46.2 9.1
-3 -12 -17 81.09 13.4
3 12 -17 90.29 10.3
3 -12 -17 72.29 10.7
3 -12 -17 67.79 10.5
4 12 -17 3.3 4.9
-4 -12 -17 -0.2 9.3
4 -12 -17 20.1 7.7
4 -12 -17 4.7 6.1
0 13 -17 6 6.1
0 -13 -17 19.1 8.1
1 13 -17 9 6.8
-1 -13 -17 32.5 10.1
1 -13 -17 33.4 8.7
-1 13 -17 19.5 6.9
2 13 -17 8.2 6.3
-2 -13 -17 23.1 9.1
2 -13 -17 13.6 7.5
0 0 -18 456.95 19.4
0 0 -18 460.95 20.9
1 0 -18 662.73 24.5
1 0 -18 616.44 25.2
-1 0 -18 666.53 26.6
-1 0 -18 630.84 24.4
-2 0 -18 862.01 32.9
2 0 -18 881.51 29.8
2 0 -18 838.32 31
3 0 -18 111.39 9.2
3 0 -18 93.29 10.3
-3 0 -18 120.29 13.4
4 0 -18 540.65 23.1
-4 0 -18 550.34 26.8
4 0 -18 546.85 21.1
5 0 -18 38.3 6
-5 0 -18 30 10.6
5 0 -18 37.4 7.5
-6 0 -18 79.29 14.5
6 0 -18 87.59 10.7
6 0 -18 68.19 7.6
7 0 -18 22.4 7.3
7 0 -18 12.2 4.8
-7 0 -18 11.7 11.6
8 0 -18 28.2 8
-8 0 -18 26 13.2
8 0 -18 33.6 5.9
9 0 -18 10.1 4.4
9 0 -18 16.6 7.2
-9 0 -18 12.8 13.7
0 -1 -18 502.75 21.8
0 1 -18 498.05 20.8
0 -1 -18 497.15 20.9
0 1 -18 529.55 22.1
-1 -1 -18 250.37 16
-1 -1 -18 226.18 13.5
1 1 -18 271.07 13.9
-1 1 -18 278.87 14.8
-1 1 -18 261.87 15.6
1 -1 -18 275.97 15.7
1 -1 -18 268.67 14.2
-2 -1 -18 314.07 17.9
2 1 -18 333.77 15.9
2 1 -18 356.36 17.3
-2 1 -18 376.66 19.3
2 -1 -18 374.76 16.5
2 -1 -18 328.27 17.5
3 1 -18 808.62 29.7
3 1 -18 819.12 28.2
-3 -1 -18 858.31 33.4
-3 1 -18 813.02 32.3
3 -1 -18 791.02 30.2
3 -1 -18 801.22 28.4
4 1 -18 22.9 6.3
4 1 -18 30.1 5.4
-4 -1 -18 26.6 8.3
-4 1 -18 26.5 9.5
4 -1 -18 23.2 5.4
4 -1 -18 16.8 6.2
-5 -1 -18 87.99 13.8
5 1 -18 98.09 10.4
5 1 -18 81.79 7.9
-5 1 -18 110.69 14.6
5 -1 -18 75.79 8.1
5 -1 -18 71.59 9.6
-6 -1 -18 104.29 15.7
6 1 -18 143.59 9.8
6 1 -18 137.79 11.8
6 -1 -18 127.39 10
6 -1 -18 132.99 12.9
-6 1 -18 131.89 16.6
-7 -1 -18 43.5 14.2
7 1 -18 65.39 7.2
7 1 -18 60.59 9.7
-7 1 -18 51.29 14.2
7 -1 -18 66.89 7.7
7 -1 -18 68.49 10.4
8 1 -18 16.2 4.9
8 1 -18 11.1 6.3
-8 -1 -18 -11 11.5
8 -1 -18 4.3 4.4
8 -1 -18 10.3 7
-8 1 -18 -6.7 11.4
9 1 -18 46.8 9.2
9 1 -18 47.8 6.4
-9 -1 -18 36.7 15.2
9 -1 -18 47.9 9.8
-9 1 -18 18.9 13.5
9 -1 -18 56.49 7.2
0 2 -18 54.09 7.4
0 2 -18 67.29 8.7
0 -2 -18 62.99 8
0 -2 -18 48.5 8.7
1 2 -18 288.47 15.1
1 2 -18 290.57 14.7
-1 -2 -18 307.57 17.4
1 -2 -18 249.58 13.9
-1 2 -18 265.07 15.5
1 -2 -18 268.47 15.9
-1 2 -18 266.97 14.7
2 2 -18 109.99 9.7
2 2 -18 104.09 9.6
-2 -2 -18 96.39 12
-2 2 -18 110.49 11.7
-2 2 -18 93.59 9.9
2 -2 -18 105.19 10.7
2 -2 -18 117.59 9.7
-3 -2 -18 173.08 15.5
3 2 -18 167.08 11.6
3 2 -18 190.78 11.2
-3 2 -18 171.08 14.6
3 -2 -18 177.08 11.1
3 -2 -18 168.28 12.8
4 2 -18 135.69 9.7
4 2 -18 142.49 10.9
-4 -2 -18 136.39 15.4
4 -2 -18 150.38 10.5
4 -2 -18 157.18 12.3
-4 2 -18 153.48 15.9
-5 -2 -18 209.88 18.6
5 2 -18 193.78 12.8
5 2 -18 176.48 10.7
5 -2 -18 187.88 11.6
5 -2 -18 191.48 13.6
-5 2 -18 169.68 17.2
-6 -2 -18 11.7 11.2
6 2 -18 25.8 7
6 2 -18 14.3 4.5
6 -2 -18 6.5 4.7
6 -2 -18 9.7 6.1
-6 2 -18 7.8 9.8
7 2 -18 93.19 11.3
7 2 -18 97.39 8.4
-7 -2 -18 68.59 15.3
-7 2 -18 62.59 14.3
7 -2 -18 83.19 11.5
7 -2 -18 84.49 8.9
8 2 -18 79.39 7.6
8 2 -18 85.19 11.1
-8 -2 -18 75.49 16.5
8 -2 -18 89.39 12.1
-8 2 -18 74.99 15.8
8 -2 -18 94.69 9.2
9 2 -18 36 5.5
9 2 -18 41.9 9.2
-9 -2 -18 16.3 14.2
-9 2 -18 24.7 14.1
9 -2 -18 37.2 6.4
9 -2 -18 31.7 8.9
0 -3 -18 66.99 8.5
0 3 -18 79.29 9.1
0 3 -18 75.49 8.4
0 -3 -18 80.69 10.2
1 3 -18 257.97 13.8
1 3 -18 277.57 14.5
-1 -3 -18 296.87 17.4
-1 3 -18 280.07 15
1 -3 -18 295.17 15.2
1 -3 -18 254.77 15.8
-1 3 -18 306.07 15.8
2 3 -18 72.49 7.9
2 3 -18 73.29 8.5
-2 -3 -18 80.09 11.4
2 -3 -18 89.29 10.6
-2 3 -18 99.69 10.9
-2 3 -18 85.69 9.4
2 -3 -18 92.49 9.2
-3 -3 -18 88.09 12.4
3 3 -18 86.49 8.3
3 3 -18 100.39 9.7
3 -3 -18 92.69 10.6
-3 3 -18 83.39 11.3
3 -3 -18 96.99 9.5
4 3 -18 219.48 12
-4 -3 -18 214.08 17.9
4 3 -18 228.28 13.3
4 -3 -18 243.08 13.4
-4 3 -18 221.68 16.9
4 -3 -18 209.28 14.4
5 3 -18 135.09 9.5
-5 -3 -18 153.38 16.1
5 -3 -18 136.89 12.1
-5 3 -18 133.99 15.2
5 -3 -18 128.19 10.4
6 3 -18 160.18 10.1
-6 -3 -18 138.29 17.6
6 -3 -18 158.48 13.5
-6 3 -18 150.08 17.4
6 -3 -18 159.78 11.5
7 3 -18 24.7 5
-7 -3 -18 33.6 11.2
7 -3 -18 16.3 5.6
-7 3 -18 29.2 12.1
7 -3 -18 28.6 8.3
-8 -3 -18 64.19 16.5
8 3 -18 123.79 8.7
8 -3 -18 93.19 9.7
-8 3 -18 127.99 18.1
8 -3 -18 112.59 13.5
9 3 -18 61.09 6.6
-9 -3 -18 54.89 16.2
9 -3 -18 62.49 8.2
9 -3 -18 57.09 10.9
-9 3 -18 45 16.6
0 4 -18 663.63 25.1
0 -4 -18 665.43 27.6
-1 -4 -18 48.4 9.1
1 4 -18 51.69 7
1 -4 -18 33.1 7.9
1 -4 -18 47.1 7.3
-1 4 -18 47.9 7.2
-2 -4 -18 93.39 12.1
2 4 -18 104.49 9.4
2 -4 -18 95.99 9.8
-2 4 -18 96.39 9.9
2 -4 -18 99.79 11.2
-3 -4 -18 55.29 10.9
3 4 -18 66.19 7.4
3 -4 -18 72.19 9.9
3 -4 -18 65.69 8.1
4 4 -18 373.76 16.2
-4 -4 -18 378.76 22.6
-4 4 -18 376.06 21.5
4 -4 -18 339.77 18.8
4 -4 -18 374.36 17.4
-5 -4 -18 172.38 18.3
5 4 -18 195.68 11.2
5 -4 -18 201.18 12.8
-5 4 -18 173.58 16.9
5 -4 -18 207.08 14.7
-6 -4 -18 58.79 12.2
6 4 -18 64.19 7.3
6 -4 -18 81.99 11.2
6 -4 -18 79.79 9.2
-6 4 -18 72.19 13.7
7 4 -18 121.89 8.8
-7 -4 -18 121.49 18.4
7 -4 -18 117.69 10.9
7 -4 -18 121.49 13.5
-7 4 -18 109.09 16.4
8 4 -18 4.6 3.6
-8 -4 -18 4.9 12.6
8 -4 -18 6.3 6.8
8 -4 -18 4.9 4.8
-8 4 -18 12.8 13.3
9 4 -18 64.79 6.5
-9 -4 -18 75.49 17.7
9 -4 -18 63.79 11.2
-9 4 -18 47.9 14.8
9 -4 -18 56.39 8.2
0 -5 -18 92.39 11.4
0 5 -18 99.49 9.8
1 5 -18 194.38 12.3
-1 -5 -18 200.98 13.9
-1 5 -18 198.98 12.7
1 -5 -18 180.88 14.1
2 5 -18 61.39 7.6
-2 -5 -18 65.39 10.5
2 -5 -18 56.79 7.9
-2 5 -18 51.69 8
2 -5 -18 66.79 10
-3 -5 -18 116.09 13.7
3 5 -18 125.39 9.4
3 -5 -18 103.09 10.3
3 -5 -18 112.49 12.1
4 5 -18 77.69 7.8
-4 -5 -18 82.89 13.2
4 -5 -18 60.59 9.1
4 -5 -18 59.99 8.2
5 5 -18 380.16 16.6
-5 -5 -18 389.86 24.7
5 -5 -18 418.06 19.3
5 -5 -18 420.96 21.3
6 5 -18 140.69 9.6
-6 -5 -18 123.99 17.3
6 -5 -18 144.39 11.6
6 -5 -18 130.69 13.7
-7 -5 -18 1.6 11.7
7 5 -18 34.7 5.5
7 -5 -18 24.9 8.5
7 -5 -18 35.7 7.1
-8 -5 -18 12.8 13.2
8 5 -18 23.1 4.7
8 -5 -18 4.1 6.6
8 -5 -18 11.3 5.7
0 -6 -18 82.99 11
0 6 -18 74.49 9
-1 -6 -18 112.29 12.5
1 6 -18 102.09 9.9
1 -6 -18 102.29 11.8
-1 6 -18 95.89 10.2
-2 -6 -18 27.3 8.5
2 6 -18 30.9 5.9
-2 6 -18 21.7 6.4
2 -6 -18 24.7 6.2
2 -6 -18 33.3 8.1
-3 -6 -18 45.3 10.3
3 6 -18 62.39 7.4
3 -6 -18 43.8 7.8
3 -6 -18 67.29 9.7
-4 -6 -18 137.29 16
4 6 -18 119.59 9.7
4 -6 -18 141.29 13.7
4 -6 -18 148.19 11.3
-5 -6 -18 153.28 17.8
5 6 -18 146.09 10.4
5 -6 -18 175.88 14.1
5 -6 -18 172.08 12.3
-6 -6 -18 149.49 18.5
6 6 -18 139.29 9.9
6 -6 -18 160.38 14.3
6 -6 -18 161.48 12.6
7 6 -18 76.19 7.4
-7 -6 -18 79.09 16.3
7 -6 -18 75.29 9.7
7 -6 -18 106.59 13.2
-8 -6 -18 48.9 15.5
8 6 -18 41.3 5.6
8 -6 -18 31.6 7.1
8 -6 -18 28.2 8.7
0 -7 -18 6 6.6
0 7 -18 4.9 5.2
1 7 -18 16.4 5.8
-1 -7 -18 9.9 7
-1 7 -18 8.5 5.7
1 -7 -18 10.8 6.5
-2 -7 -18 84.49 11.9
2 7 -18 58.09 7.7
-2 7 -18 65.99 9.2
2 -7 -18 66.79 10.3
-3 -7 -18 137.59 14.9
3 7 -18 126.49 9.9
3 -7 -18 121.99 13.3
3 -7 -18 127.39 13.2
4 7 -18 42.2 6.6
-4 -7 -18 34.9 10.8
4 -7 -18 34.1 7.2
4 -7 -18 32.7 8.4
5 7 -18 70.59 7.9
-5 -7 -18 74.19 14.2
5 -7 -18 83.49 11.5
5 -7 -18 67.19 9.4
6 7 -18 258.57 13.2
-6 -7 -18 259.37 22.4
6 -7 -18 247.48 15.8
6 -7 -18 262.07 17.7
-7 -7 -18 74.19 15.8
7 7 -18 91.89 8
7 -7 -18 85.09 12.3
7 -7 -18 87.49 10.8
8 7 -18 22.6 4.6
-8 -7 -18 4.9 12.9
8 -7 -18 9 6.1
8 -7 -18 9.9 7.4
0 8 -18 15.9 6
0 -8 -18 12.4 6.6
-1 -8 -18 41.9 9.3
1 8 -18 31.1 6.6
1 -8 -18 33.9 7.5
-1 8 -18 27.8 6.9
-2 -8 -18 -0.6 6.6
2 8 -18 5.7 4.7
-2 8 -18 -3.7 4.8
2 -8 -18 1.8 5.8
3 8 -18 8.3 4.8
-3 -8 -18 12.3 8.4
3 -8 -18 14.7 6.7
-4 -8 -18 15.5 9.5
4 8 -18 18.4 5.5
4 -8 -18 17.6 7.1
-5 -8 -18 131.39 16.6
5 8 -18 120.59 9.9
5 -8 -18 124.69 12.6
5 -8 -18 143.19 14.6
-6 -8 -18 108.49 16.5
6 8 -18 122.29 9.5
6 -8 -18 108.39 13.3
6 -8 -18 98.79 11.3
7 8 -18 75.59 7.6
-7 -8 -18 75.69 15.6
7 -8 -18 65.89 11.2
7 -8 -18 58.19 9.5
0 -9 -18 182.38 14.9
0 9 -18 159.38 12.9
1 9 -18 -1.2 4.5
-1 -9 -18 2.2 6.7
-1 9 -18 2.4 5
1 -9 -18 -3.7 5.7
-2 -9 -18 27.6 8.7
2 9 -18 19.1 5.9
-2 9 -18 10.1 5.7
2 -9 -18 11.9 7
-3 -9 -18 30.2 13.3
3 9 -18 30.5 6.5
-3 -9 -18 36.2 10.2
3 -9 -18 50.89 9.4
4 9 -18 74.59 8.9
-4 -9 -18 89.09 13.4
-4 -9 -18 78.89 13.2
4 -9 -18 99.29 12.5
-5 -9 -18 14.8 10.2
5 9 -18 33.2 6.4
-5 -9 -18 26.8 10.9
5 -9 -18 32 8.5
-6 -9 -18 84.49 15
-6 -9 -18 111.59 16.6
6 9 -18 95.09 9
6 -9 -18 97.79 12.9
0 -10 -18 16.1 7.2
0 -10 -18 22.7 8
0 10 -18 2.2 5.8
-1 -10 -18 90.19 11.7
-1 -10 -18 109.99 13.2
1 10 -18 102.29 11
-1 10 -18 97.29 11
1 -10 -18 110.59 12.9
1 -10 -18 103.39 11.6
-2 -10 -18 75.69 12.2
-2 -10 -18 88.59 12
2 10 -18 51.49 8.4
2 -10 -18 70.29 11.6
2 -10 -18 51.39 9.5
-3 -10 -18 24.7 8.8
3 10 -18 8.8 5.5
-3 -10 -18 10.5 8.8
3 -10 -18 8.3 6.5
-4 -10 -18 92.89 13.6
4 10 -18 84.59 9.5
-4 -10 -18 89.09 13.9
4 -10 -18 91.69 12.2
-5 -10 -18 54.69 12.9
-5 -10 -18 61.79 12.5
5 10 -18 57.39 7.9
5 -10 -18 41.5 10.2
-6 -10 -18 49.2 13.8
6 10 -18 46.6 7.1
-6 -10 -18 45.6 12.3
6 -10 -18 49.8 10.2
0 11 -18 40.8 8.4
0 -11 -18 61.49 10.1
0 -11 -18 58.29 10.3
-1 -11 -18 156.48 15.2
1 11 -18 125.39 12.3
-1 -11 -18 126.19 14.1
-1 11 -18 120.99 12.9
1 -11 -18 161.78 14.3
1 -11 -18 137.29 14.4
2 11 -18 18.2 6.6
-2 -11 -18 28.1 9
-2 -11 -18 8.9 7.2
2 -11 -18 23.2 7.9
2 -11 -18 17.5 6.9
-3 -11 -18 242.28 18.2
3 11 -18 250.77 15.5
-3 -11 -18 217.98 17.6
3 -11 -18 246.08 16.4
3 -11 -18 270.07 17.9
4 11 -18 32.7 7.1
-4 -11 -18 44.9 10.9
-4 -11 -18 34.1 10.5
4 -11 -18 37.6 9
4 -11 -18 29.1 8.4
-5 -11 -18 18.8 10.8
-5 -11 -18 24.4 10.5
5 11 -18 25.3 6.4
5 -11 -18 27.1 8.5
5 -11 -18 29.6 8.3
0 -12 -18 84.89 11.9
0 -12 -18 80.69 11.5
0 12 -18 90.49 11.1
1 12 -18 60.19 9.7
-1 -12 -18 82.59 11.8
-1 -12 -18 80.39 12.6
1 -12 -18 66.09 10.4
-1 12 -18 61.29 9.9
1 -12 -18 56.49 10
-2 -12 -18 211.28 17.4
2 12 -18 232.68 15.8
-2 -12 -18 242.98 18.2
2 -12 -18 221.18 16.4
2 -12 -18 216.58 15.8
-3 -12 -18 66.59 11.3
-3 -12 -18 67.39 12.1
3 12 -18 60.79 9.3
3 -12 -18 66.49 10.5
3 -12 -18 67.09 10.7
0 0 -19 -0.1 3.9
0 0 -19 2.3 5.5
1 0 -19 0.1 5
-1 0 -19 6.4 6.3
-1 0 -19 0.9 4.2
1 0 -19 1.2 3.8
2 0 -19 157.98 12.3
-2 0 -19 170.58 14.3
2 0 -19 137.89 10.8
3 0 -19 25.5 6.7
-3 0 -19 28.6 8.9
3 0 -19 16.2 5.2
-4 0 -19 148.79 15.6
4 0 -19 125.39 9.9
4 0 -19 115.59 11.7
5 0 -19 12 6
5 0 -19 15.4 5
-5 0 -19 10.3 9.8
6 0 -19 264.27 16.6
6 0 -19 279.87 14.3
-6 0 -19 253.57 21.8
7 0 -19 13.3 5
-7 0 -19 19.9 12.7
7 0 -19 5.9 6
-8 0 -19 77.69 17.1
8 0 -19 99.69 12.6
8 0 -19 93.49 9.1
-9 0 -19 9.3 13.1
9 0 -19 3.7 6.5
9 0 -19 1.3 3.8
0 1 -19 59.49 8
0 -1 -19 75.69 9
0 -1 -19 76.89 10.2
0 1 -19 72.49 9.4
-1 -1 -19 67.99 10.1
1 1 -19 98.49 9.6
1 1 -19 86.39 9.8
-1 1 -19 60.09 8.1
1 -1 -19 60.99 9.4
-1 1 -19 92.79 10.9
1 -1 -19 84.69 9.2
2 1 -19 71.19 8.2
-2 -1 -19 64.39 10.3
2 1 -19 73.69 9.3
2 -1 -19 82.79 8.8
-2 1 -19 79.99 10.6
2 -1 -19 74.89 9.8
3 1 -19 162.78 12.2
3 1 -19 169.68 11.1
-3 -1 -19 176.68 15.5
3 -1 -19 158.98 11.2
3 -1 -19 174.28 12.9
-3 1 -19 174.98 15.1
4 1 -19 42.3 7.7
4 1 -19 39.9 6.4
-4 -1 -19 35.4 10.3
-4 1 -19 37.8 10.4
4 -1 -19 34.5 7.8
4 -1 -19 33.1 6.3
5 1 -19 158.88 10.5
-5 -1 -19 151.08 17.2
5 1 -19 156.88 12.4
-5 1 -19 137.79 16
5 -1 -19 141.19 10.6
5 -1 -19 143.79 12.5
6 1 -19 100.39 9.2
-6 -1 -19 94.59 14.3
6 1 -19 93.19 11.2
6 -1 -19 95.29 9.6
-6 1 -19 101.19 15.5
6 -1 -19 96.79 11.7
7 1 -19 313.87 18.5
7 1 -19 346.77 15.7
-7 -1 -19 327.37 25.7
7 -1 -19 326.87 16
7 -1 -19 318.37 19.2
-7 1 -19 294.27 24.2
8 1 -19 13.3 4.8
8 1 -19 8.5 6.9
-8 -1 -19 2.1 12.3
8 -1 -19 17.7 7.8
-8 1 -19 6.7 12.1
8 -1 -19 21.3 5.5
9 1 -19 71.49 7.7
-9 -1 -19 85.49 17.7
9 1 -19 66.09 10.5
9 -1 -19 63.59 7.9
-9 1 -19 47.9 15.9
9 -1 -19 76.99 11.8
0 -2 -19 -0.3 3.9
0 2 -19 4.4 5.2
0 2 -19 4.6 4.5
0 -2 -19 -0.4 5.9
-1 -2 -19 162.68 13.8
1 2 -19 193.58 12.6
1 2 -19 175.98 11.9
-1 2 -19 175.08 12
-1 2 -19 193.88 14
1 -2 -19 183.38 12
1 -2 -19 141.29 12.6
2 2 -19 170.48 11.8
-2 -2 -19 127.19 13.6
2 2 -19 166.38 11.2
-2 2 -19 132.09 12.7
2 -2 -19 139.49 12.2
2 -2 -19 138.09 10.9
-3 -2 -19 27.6 9.2
3 2 -19 25.3 6.3
3 2 -19 26.3 5.5
3 -2 -19 27.1 5.9
-3 2 -19 44.5 9.7
3 -2 -19 21 6.7
4 2 -19 12.5 5.4
-4 -2 -19 14.2 7.7
4 2 -19 18.4 4.9
-4 2 -19 10.8 8.7
4 -2 -19 8.7 4.9
4 -2 -19 12.8 5.9
-5 -2 -19 130.59 16.4
5 2 -19 141.59 12.3
5 2 -19 121.89 9.4
-5 2 -19 139.79 16.2
5 -2 -19 122.49 10.4
5 -2 -19 143.09 12.5
6 2 -19 397.26 17.5
-6 -2 -19 409.26 26.7
6 2 -19 417.66 20.5
6 -2 -19 424.06 18.9
6 -2 -19 438.96 22
-6 2 -19 417.76 25.9
7 2 -19 184.58 14.2
-7 -2 -19 194.48 21.5
7 2 -19 217.98 12
-7 2 -19 180.08 20.3
7 -2 -19 171.88 14.9
7 -2 -19 205.78 12.9
8 2 -19 189.68 14.9
-8 -2 -19 182.48 20.9
8 2 -19 182.88 11.1
8 -2 -19 189.98 15.7
-8 2 -19 161.08 20.2
8 -2 -19 194.58 12.5
9 2 -19 21.5 8.8
9 2 -19 9.6 4.3
-9 -2 -19 5.5 13.6
9 -2 -19 13 7.4
-9 2 -19 -18.9 11
9 -2 -19 13.7 5.2
0 -3 -19 378.56 20.2
0 3 -19 425.56 18.9
0 3 -19 403.56 18.8
1 3 -19 49.5 7.5
-1 -3 -19 42.2 8.9
1 3 -19 54.69 7.9
-1 3 -19 32.9 6.7
-1 3 -19 47 8.5
1 -3 -19 32 7.7
1 -3 -19 48.7 7.5
2 3 -19 124.79 10.3
-2 -3 -19 137.89 13.5
2 3 -19 131.69 10.1
2 -3 -19 90.09 11.1
-2 3 -19 100.29 11.2
2 -3 -19 115.89 10.1
-3 -3 -19 -4.1 7.3
3 3 -19 2.7 3.9
-3 3 -19 0.1 6.7
3 -3 -19 1.6 5.4
3 -3 -19 0.7 4.1
4 3 -19 7.4 4.3
-4 -3 -19 8.3 8.7
-4 3 -19 9.6 8.4
4 -3 -19 12 5
4 -3 -19 11.8 6.3
-5 -3 -19 119.99 16.1
5 3 -19 105.39 9.3
5 -3 -19 133.99 11
-5 3 -19 108.39 14.6
5 -3 -19 145.49 12.8
6 3 -19 178.48 11.2
-6 -3 -19 176.98 19.5
6 -3 -19 170.38 14.4
6 -3 -19 181.48 12.7
-6 3 -19 175.38 18.4
-7 -3 -19 268.17 24.3
7 3 -19 286.57 13.7
7 -3 -19 264.67 18.1
7 -3 -19 260.37 15
-7 3 -19 251.77 22.4
8 3 -19 0.5 3.5
-8 -3 -19 -6.3 11.9
-8 3 -19 -19.9 10.4
8 -3 -19 2.4 6.3
8 -3 -19 7 4.8
0 -4 -19 13.9 7.1
0 4 -19 5.3 4.7
-1 -4 -19 555.24 25.2
1 4 -19 527.15 22.1
1 -4 -19 543.75 23
-1 4 -19 533.15 22.8
1 -4 -19 533.05 24.4
2 4 -19 62.99 7.9
-2 -4 -19 58.59 9.6
2 -4 -19 79.49 10.6
2 -4 -19 75.09 8.9
-2 4 -19 88.09 11
-3 -4 -19 11.4 8.2
3 4 -19 22.1 5.4
3 -4 -19 35.9 6.6
3 -4 -19 34.5 7.2
-4 -4 -19 1.2 8.7
4 4 -19 14.1 4.7
4 -4 -19 9.1 5.1
4 -4 -19 13 6.4
-5 -4 -19 54.99 12.9
5 4 -19 64.39 7.6
5 -4 -19 62.79 8.5
5 -4 -19 79.89 11
6 4 -19 191.28 11.5
-6 -4 -19 167.28 19.8
6 -4 -19 200.68 13.5
6 -4 -19 197.88 15.3
-6 4 -19 153.08 20.4
7 4 -19 73.19 7.5
-7 -4 -19 70.49 15.9
7 -4 -19 55.59 8.4
-7 4 -19 47.5 13.6
7 -4 -19 73.29 11.5
8 4 -19 80.39 7.7
-8 -4 -19 50.99 16
-8 4 -19 49.6 14.1
8 -4 -19 70.69 9.1
8 -4 -19 63.79 11.2
0 -5 -19 1431.66 49
0 5 -19 1451.45 46.5
-1 -5 -19 100.49 12.7
1 5 -19 123.29 10.7
1 -5 -19 113.39 12
-1 5 -19 133.19 11.5
-2 -5 -19 185.08 15.6
2 5 -19 184.58 12.1
2 -5 -19 181.48 12.5
2 -5 -19 148.49 13.4
-2 5 -19 173.38 13
-3 -5 -19 4.9 8
3 5 -19 10.8 4.3
3 -5 -19 4.6 6
3 -5 -19 3.1 4.8
4 5 -19 131.79 10
-4 -5 -19 131.99 16
4 -5 -19 145.99 11.3
4 -5 -19 137.69 13.9
5 5 -19 58.19 7.3
-5 -5 -19 49 12.6
5 -5 -19 53.69 8.1
5 -5 -19 45.1 9.3
-6 -5 -19 227.48 22.1
6 5 -19 250.57 13.2
6 -5 -19 221.28 15.6
6 -5 -19 246.98 15.1
-7 -5 -19 44.3 14.1
7 5 -19 47.3 6.4
7 -5 -19 47.6 8.1
7 -5 -19 48 10.2
8 5 -19 2.7 3.6
-8 -5 -19 -2.8 11.5
8 -5 -19 12.5 7.5
8 -5 -19 14.3 5.9
0 -6 -19 101.69 12.5
0 6 -19 86.99 9.8
-1 -6 -19 878.81 34.4
1 6 -19 859.81 30.9
-1 6 -19 850.91 31.7
1 -6 -19 818.52 32.8
2 6 -19 102.59 10
-2 -6 -19 105.29 13.4
2 -6 -19 104.69 12.4
-2 6 -19 76.89 9.7
3 6 -19 116.09 10.1
-3 -6 -19 114.89 14.3
3 -6 -19 115.59 12.8
3 -6 -19 127.39 11.1
-4 -6 -19 48.6 10.2
4 6 -19 30.2 6.2
4 -6 -19 33 8.3
4 -6 -19 43.3 7.9
5 6 -19 357.16 16.6
-5 -6 -19 383.56 24.9
5 -6 -19 352.46 18.7
5 -6 -19 348.17 19.5
6 6 -19 51.09 6.9
-6 -6 -19 62.09 14.9
6 -6 -19 61.79 9
6 -6 -19 63.89 10.8
-7 -6 -19 25.5 13.3
7 6 -19 37.8 5.9
7 -6 -19 29.4 7.1
7 -6 -19 38.5 9.6
8 6 -19 4.3 3.7
-8 -6 -19 18.9 13.8
8 -6 -19 2.8 6.8
8 -6 -19 12.3 6.1
0 -7 -19 917.61 35.4
0 7 -19 916.11 33.4
1 7 -19 33.9 7.1
-1 -7 -19 29.7 8.4
-1 7 -19 45.2 8.3
1 -7 -19 37.4 9
-2 -7 -19 110.09 13.5
2 7 -19 144.39 11.2
-2 7 -19 130.49 12.5
2 -7 -19 109.69 13
3 7 -19 27.3 6
-3 -7 -19 41.3 10.8
3 -7 -19 30.1 7.5
-4 -7 -19 222.68 19.3
4 7 -19 240.68 13.8
4 -7 -19 238.08 15.1
4 -7 -19 253.27 17.2
5 7 -19 10.4 5.1
-5 -7 -19 22.9 10.8
5 -7 -19 10.5 6.9
5 -7 -19 15.6 6.2
6 7 -19 184.88 11.8
-6 -7 -19 207.18 21.3
6 -7 -19 206.08 14.8
6 -7 -19 201.58 16.1
-7 -7 -19 21.7 12.7
7 7 -19 35.1 5.9
7 -7 -19 41.7 9.7
7 -7 -19 32 7.5
0 8 -19 32.9 7.7
0 -8 -19 27.7 8.4
1 8 -19 188.58 13.2
-1 -8 -19 178.18 15.6
-1 8 -19 174.18 13.7
1 -8 -19 176.68 14.9
-2 -8 -19 4.8 7.3
2 8 -19 3.2 4.6
-2 8 -19 -6.7 6.4
2 -8 -19 -2.6 5.7
-3 -8 -19 76.39 12.5
3 8 -19 67.59 8.6
3 -8 -19 63.09 10.2
4 8 -19 3.7 4.7
-4 -8 -19 5.2 8.9
4 -8 -19 11.7 6.8
5 8 -19 260.07 14.3
-5 -8 -19 256.97 21.2
5 -8 -19 241.68 17.6
5 -8 -19 247.58 16
6 8 -19 24.7 5.8
-6 -8 -19 44.6 13
6 -8 -19 22.6 7
6 -8 -19 40.1 9.7
0 9 -19 377.16 19.6
0 -9 -19 406.56 22
1 9 -19 24.2 6.7
-1 -9 -19 23.2 8.6
-1 9 -19 27.2 7
1 -9 -19 25.1 7.9
2 9 -19 129.19 12
-2 -9 -19 130.89 15.1
2 -9 -19 131.19 14.3
-3 -9 -19 20.9 9.1
3 9 -19 21 6.3
3 -9 -19 19 7.7
4 9 -19 187.78 12.8
-4 -9 -19 154.68 17.4
4 -9 -19 165.98 14.9
-5 -9 -19 79.99 14
5 9 -19 78.09 8.9
5 -9 -19 77.69 11.8
-6 -9 -19 126.09 17.5
6 9 -19 107.79 10
6 -9 -19 123.09 14.8
0 -10 -19 -4.9 5.8
0 10 -19 7.8 5.9
1 10 -19 277.97 16.8
-1 -10 -19 257.07 18.2
1 -10 -19 286.97 18.5
-1 10 -19 279.17 17
-2 -10 -19 44.8 11.1
2 10 -19 28 7.3
2 -10 -19 32.9 8.6
3 10 -19 175.38 13.3
-3 -10 -19 169.88 17.1
3 -10 -19 173.28 15.1
-4 -10 -19 23 10.5
4 10 -19 11.2 5.6
4 -10 -19 21.7 7.8
-5 -10 -19 127.29 16.4
5 10 -19 124.29 11.2
5 -10 -19 105.79 13.5
0 -11 -19 54.99 10.6
0 11 -19 47.6 8.8
1 11 -19 8.5 6.1
-1 -11 -19 6.2 7
-1 11 -19 9.9 6.2
1 -11 -19 16 7.6
2 11 -19 113.39 12
-2 -11 -19 118.69 18.2
-2 -11 -19 138.49 15.2
2 -11 -19 118.79 13.7
3 11 -19 11.5 6.4
-3 -11 -19 45.1 11.9
-3 -11 -19 33.5 9.5
3 -11 -19 15.1 7.4
0 -12 -19 11.4 7
0 12 -19 10 6.8
0 -12 -19 21 8.2
-1 -12 -19 49.2 10.7
1 12 -19 27.3 7.8
-1 -12 -19 57.89 10.7
1 -12 -19 26.9 8.9
-1 12 -19 27.9 7.9
1 -12 -19 44.5 9.7
0 0 -20 681.23 26.6
0 0 -20 662.73 27.6
1 0 -20 631.64 26.5
1 0 -20 621.94 25.3
-1 0 -20 675.33 27.6
-2 0 -20 68.69 10.7
2 0 -20 66.69 8.5
2 0 -20 81.19 10.2
3 0 -20 341.37 18.1
3 0 -20 322.67 16.3
-3 0 -20 321.97 20.2
4 0 -20 101.69 11.5
-4 0 -20 114.79 14.4
4 0 -20 117.39 10.6
-5 0 -20 100.59 15
5 0 -20 117.19 10.2
5 0 -20 130.89 12.9
-6 0 -20 17.6 11.6
6 0 -20 25 6.2
6 0 -20 18 7.8
7 0 -20 94.99 12.2
-7 0 -20 74.39 15.7
7 0 -20 92.79 9.4
8 0 -20 0.2 6
8 0 -20 -1.2 3.9
-8 0 -20 -5.3 11.9
0 1 -20 343.97 17.5
0 -1 -20 349.27 19.2
0 1 -20 335.47 18.2
0 -1 -20 372.76 18.2
1 1 -20 292.07 15.9
1 1 -20 302.17 16.9
-1 -1 -20 317.87 18.3
1 -1 -20 291.77 16.1
1 -1 -20 300.87 17.5
-1 1 -20 332.67 18
-1 1 -20 275.37 16
-2 -1 -20 456.05 23.4
2 1 -20 482.75 21.7
2 1 -20 464.85 20.5
-2 1 -20 477.65 23.2
2 -1 -20 471.35 20.5
2 -1 -20 504.15 22.7
-3 -1 -20 30 9.3
3 1 -20 19.2 6.4
3 1 -20 36.9 6.7
-3 1 -20 14 8.1
3 -1 -20 10 5
3 -1 -20 18 6.7
4 1 -20 101.79 9.9
-4 -1 -20 105.49 14.5
4 1 -20 110.29 11.5
-4 1 -20 115.39 14.1
4 -1 -20 109.79 11.9
4 -1 -20 111.79 10.5
-5 -1 -20 98.09 15.1
5 1 -20 111.89 10.3
5 1 -20 118.99 12.1
5 -1 -20 101.39 12
5 -1 -20 103.99 10.2
-5 1 -20 93.39 14.4
6 1 -20 79.49 8.7
-6 -1 -20 83.79 15.7
6 1 -20 74.69 10.5
-6 1 -20 84.49 15.5
6 -1 -20 93.89 9.7
6 -1 -20 90.79 11.6
7 1 -20 2.5 4.4
-7 -1 -20 6.9 12.4
7 1 -20 0.8 5.8
7 -1 -20 10.6 5.2
-7 1 -20 -12.4 10.2
7 -1 -20 1.4 6.3
8 1 -20 45.4 9.5
-8 -1 -20 41.2 14.9
8 1 -20 45.9 6.7
8 -1 -20 39 9.2
8 -1 -20 63.69 8.1
-8 1 -20 18.9 13.8
0 -2 -20 255.87 16.6
0 -2 -20 237.88 14.9
0 2 -20 260.17 14.9
0 2 -20 271.77 15.7
-1 -2 -20 168.68 14.4
1 2 -20 181.08 12.7
1 2 -20 195.08 13.2
-1 2 -20 191.58 13.8
1 -2 -20 209.38 14.7
1 -2 -20 168.78 12.6
-1 2 -20 172.48 12.6
-2 -2 -20 110.89 12.6
2 2 -20 122.89 10.5
2 2 -20 126.69 10.9
-2 2 -20 104.99 11.9
2 -2 -20 103.79 10.4
2 -2 -20 113.69 12.2
3 2 -20 111.49 10.3
3 2 -20 100.59 10.7
-3 -2 -20 109.09 13.7
3 -2 -20 108.39 11.8
-3 2 -20 105.79 12.7
3 -2 -20 117.79 10.9
4 2 -20 171.08 12.7
4 2 -20 181.88 12.1
-4 -2 -20 158.78 17.1
4 -2 -20 174.98 12.4
-4 2 -20 182.18 16.5
4 -2 -20 186.78 14
-5 -2 -20 91.69 15.1
5 2 -20 90.99 9.3
5 2 -20 117.29 12
-5 2 -20 79.29 13.5
5 -2 -20 86.49 11.2
5 -2 -20 86.49 9.8
6 2 -20 90.39 11
6 2 -20 66.59 8.1
-6 -2 -20 65.79 14.7
6 -2 -20 68.99 8.9
6 -2 -20 74.29 11.2
-6 2 -20 67.39 14.4
7 2 -20 25.1 5.9
7 2 -20 30.6 7.9
-7 -2 -20 19.2 13.4
7 -2 -20 22.2 7.9
-7 2 -20 28.5 13.3
7 -2 -20 21.1 6.1
8 2 -20 33.8 5.9
-8 -2 -20 31.4 14.7
8 -2 -20 28.6 8.8
-8 2 -20 19.4 13.3
8 -2 -20 21.3 6.1
0 3 -20 161.68 12.6
0 3 -20 189.28 14
0 -3 -20 165.68 14.1
-1 -3 -20 110.89 12.7
1 3 -20 109.79 10.6
-1 3 -20 100.29 10.7
1 -3 -20 107.09 12.1
-1 3 -20 102.99 11
1 -3 -20 102.79 10.5
2 3 -20 69.49 8.8
-2 -3 -20 46.6 10.2
2 -3 -20 74.19 9.2
2 -3 -20 88.29 11
-2 3 -20 85.39 10.8
3 3 -20 101.09 10
-3 -3 -20 110.19 13.8
3 -3 -20 117.39 11.4
-3 3 -20 120.09 13.3
3 -3 -20 108.49 12.2
-4 -3 -20 182.38 18
4 3 -20 189.38 12
-4 3 -20 151.58 15.8
4 -3 -20 160.58 12.3
4 -3 -20 178.08 14.1
-5 -3 -20 163.78 18.5
5 3 -20 203.58 12.6
-5 3 -20 206.38 19.6
5 -3 -20 212.88 13.9
5 -3 -20 213.68 15.7
6 3 -20 175.48 11.4
-6 -3 -20 160.88 19.6
6 -3 -20 158.28 13.2
-6 3 -20 127.49 17.1
6 -3 -20 153.98 12.3
-7 -3 -20 30.7 13.8
7 3 -20 32 6
7 -3 -20 36.2 7.1
-7 3 -20 14.7 11.9
7 -3 -20 44.3 9.7
8 3 -20 8 4.2
-8 -3 -20 -11.4 11.6
-8 3 -20 -7.6 11.1
8 -3 -20 15.2 5.6
8 -3 -20 8.3 7.3
0 -4 -20 28.9 8.3
0 4 -20 25.4 6.4
-1 -4 -20 173.78 15.1
1 4 -20 175.28 12.5
1 -4 -20 196.68 14.9
-1 4 -20 184.48 13.2
-2 -4 -20 52.29 10.5
2 4 -20 63.39 8.1
2 -4 -20 53.49 8
2 -4 -20 40.4 8.7
-3 -4 -20 129.79 15
3 4 -20 104.99 10.2
3 -4 -20 122.09 13
3 -4 -20 131.99 12
4 4 -20 257.87 14.6
-4 -4 -20 283.67 19.3
4 -4 -20 309.77 16.6
4 -4 -20 275.27 16.8
-5 -4 -20 331.37 23.9
5 4 -20 341.47 16.2
5 -4 -20 321.07 17.5
5 -4 -20 336.87 19.8
6 4 -20 134.29 10.4
-6 -4 -20 128.99 18.1
6 -4 -20 108.69 11.1
6 -4 -20 144.49 14.7
7 4 -20 25.2 5.7
-7 -4 -20 20.9 13.2
7 -4 -20 21.4 8.2
7 -4 -20 31.2 7.2
8 4 -20 44.9 6.5
-8 -4 -20 28.3 14.1
8 -4 -20 27.5 6.8
8 -4 -20 42.1 9.7
0 -5 -20 170.88 15
0 5 -20 177.98 13
1 5 -20 12 5.3
-1 -5 -20 7.8 7.5
1 -5 -20 23 7.5
-1 5 -20 16.3 6.1
-2 -5 -20 47.7 10.5
2 5 -20 45.2 7.4
2 -5 -20 48.7 9.4
2 -5 -20 38.7 7.6
-3 -5 -20 112.09 14.6
3 5 -20 119.79 10.3
3 -5 -20 139.69 11.9
3 -5 -20 108.79 12.8
-4 -5 -20 184.28 19
4 5 -20 226.18 13.3
4 -5 -20 243.58 14.7
4 -5 -20 232.58 16.7
5 5 -20 218.98 13
-5 -5 -20 241.18 21.2
5 -5 -20 216.38 14.4
5 -5 -20 231.18 16.8
6 5 -20 38.4 6.7
-6 -5 -20 46.4 13.5
6 -5 -20 53.79 8.5
6 -5 -20 45.5 9.9
7 5 -20 18.6 5.1
-7 -5 -20 11.5 12
7 -5 -20 22.4 8.5
7 -5 -20 15.1 6
0 6 -20 13.2 6.2
0 -6 -20 19.7 7.7
1 6 -20 29.9 6.9
-1 -6 -20 29.3 8.6
-1 6 -20 34.5 7.6
1 -6 -20 50.99 9.4
-2 -6 -20 5.8 6.1
2 6 -20 12.5 5.6
2 -6 -20 3.9 6.4
3 6 -20 37.4 7
-3 -6 -20 24.3 9.8
3 -6 -20 39.9 9.3
3 -6 -20 26.4 6.9
-4 -6 -20 49.9 12.2
4 6 -20 53.39 7.6
4 -6 -20 50.39 8.7
4 -6 -20 50.99 10.1
-5 -6 -20 103.59 15.9
5 6 -20 82.49 9.1
5 -6 -20 83.09 11.8
5 -6 -20 95.19 10.9
6 6 -20 66.49 7.9
-6 -6 -20 48.7 13.9
6 -6 -20 92.79 12.9
6 -6 -20 64.39 9.4
-7 -6 -20 15.3 12.4
7 6 -20 18.3 5.1
7 -6 -20 -0.3 6.6
7 -6 -20 15.9 6.3
0 7 -20 11.1 5.9
0 -7 -20 15.2 7.4
-1 -7 -20 24.6 9.1
1 7 -20 24.7 6.6
1 -7 -20 28.1 8.4
-1 7 -20 16.5 6.7
-2 -7 -20 15.5 8.6
2 7 -20 3.6 5.2
2 -7 -20 7.9 6.9
3 7 -20 6 5.1
-3 -7 -20 2.8 8.1
3 -7 -20 1.1 6.4
4 7 -20 43.6 7.4
-4 -7 -20 47.6 12
4 -7 -20 42.8 8.5
4 -7 -20 45.5 9.5
5 7 -20 170.98 12.2
-5 -7 -20 145.19 17.9
5 -7 -20 176.08 14
5 -7 -20 191.68 15.8
-6 -7 -20 46.9 13
6 7 -20 46.2 7.2
6 -7 -20 54.09 10.5
6 -7 -20 51.09 9
0 8 -20 -10.3 4.6
0 -8 -20 10.7 7.5
1 8 -20 -3.1 4.8
-1 -8 -20 5.9 7.6
1 -8 -20 22.2 7.9
-1 8 -20 -0.2 5.6
2 8 -20 27.7 7.2
-2 -8 -20 15.9 8.6
2 -8 -20 21.8 8
-3 -8 -20 6.4 8.3
3 8 -20 -4.7 4.4
3 -8 -20 11 7.6
4 8 -20 98.49 10.4
-4 -8 -20 120.19 16
4 -8 -20 104.59 13.3
5 8 -20 68.89 8.7
-5 -8 -20 88.99 15.1
5 -8 -20 79.99 12.2
6 8 -20 158.88 11.8
-6 -8 -20 180.88 20.2
6 -8 -20 175.78 14.8
6 -8 -20 207.58 16.9
0 9 -20 18.9 6.6
0 -9 -20 12.1 7.1
1 9 -20 9.7 5.8
-1 -9 -20 2.7 7.3
1 -9 -20 4.3 6.7
-1 9 -20 2.7 5.5
2 9 -20 -3.6 4.9
-2 -9 -20 1 7.2
2 -9 -20 15.7 7.8
3 9 -20 35.2 7.4
-3 -9 -20 33.5 10
3 -9 -20 33.9 9.3
-4 -9 -20 11.5 9.3
4 9 -20 -2.1 4.7
4 -9 -20 0.1 5.9
5 9 -20 47.7 7.8
-5 -9 -20 60.59 12.9
5 -9 -20 50.79 10.8
0 10 -20 50.09 9.1
0 -10 -20 37 9.6
-1 -10 -20 79.69 12.1
1 10 -20 145.89 13.5
1 -10 -20 160.28 15.8
-1 10 -20 138.79 13.5
2 10 -20 52.59 8.9
-2 -10 -20 60.59 12.2
2 -10 -20 51.49 10.2
3 10 -20 63.79 9.6
-3 -10 -20 61.39 11.8
3 -10 -20 57.69 10.9
-4 -10 -20 26.7 10.2
4 10 -20 11.8 6
4 -10 -20 11.6 7.1
0 -11 -20 107.59 14.1
0 11 -20 120.29 13
1 11 -20 41.4 8.5
-1 -11 -20 51.39 10.7
1 -11 -20 41.6 9.8
-1 11 -20 37.7 8.5
-2 -11 -20 190.28 17.1
2 11 -20 206.08 15.3
2 -11 -20 202.28 17.4
0 0 -21 10.1 6.1
0 0 -21 8.1 5.1
1 0 -21 57.39 9.4
1 0 -21 65.09 8.6
-1 0 -21 71.89 10.5
2 0 -21 24.5 6.5
2 0 -21 38.4 8.1
-2 0 -21 41.7 9.4
3 0 -21 5.8 5.9
-3 0 -21 14.8 8.5
3 0 -21 7 5.2
4 0 -21 135.89 11.3
4 0 -21 134.99 13.3
-4 0 -21 122.39 15.4
5 0 -21 108.39 12.4
-5 0 -21 92.19 15.1
5 0 -21 111.39 10.9
6 0 -21 -4.8 5.3
-6 0 -21 4.8 10.5
6 0 -21 8 5.2
7 0 -21 109.89 13.2
7 0 -21 99.79 10.2
-7 0 -21 101.69 17.8
8 0 -21 10 7
0 -1 -21 7.3 6.5
0 -1 -21 3.8 4.8
0 1 -21 2.2 4.9
0 1 -21 -1.5 5.9
1 1 -21 113.69 12.2
-1 -1 -21 160.88 14.2
1 1 -21 150.98 11.6
1 -1 -21 152.48 12.2
1 -1 -21 148.99 13.3
-1 1 -21 156.48 13.5
2 1 -21 122.89 12.4
2 1 -21 134.49 11.3
-2 -1 -21 141.29 14.7
2 -1 -21 145.59 13
-2 1 -21 144.79 14.4
2 -1 -21 135.39 11.6
-3 -1 -21 72.69 11.9
3 1 -21 69.59 9.6
3 1 -21 47.8 7.7
3 -1 -21 55.99 8.3
3 -1 -21 57.09 9.5
-3 1 -21 40.2 10
-4 -1 -21 47.4 11.6
4 1 -21 55.89 9.1
4 1 -21 47.1 7.6
4 -1 -21 55.29 8.1
-4 1 -21 58.19 11.8
4 -1 -21 48.4 9
5 1 -21 132.29 13.3
-5 -1 -21 135.49 17.3
5 1 -21 137.09 11.2
5 -1 -21 141.89 11.8
5 -1 -21 152.58 13.5
-5 1 -21 110.29 15.7
6 1 -21 176.38 14.3
-6 -1 -21 163.48 19.4
6 1 -21 201.08 12.8
-6 1 -21 188.78 19.8
6 -1 -21 176.68 12.8
6 -1 -21 185.58 15.9
7 1 -21 5.7 6.4
-7 -1 -21 24.8 13
7 1 -21 7.2 5
7 -1 -21 21.6 5.9
-7 1 -21 13.4 11.8
7 -1 -21 16.5 7.5
0 -2 -21 210.28 15.5
0 2 -21 201.58 14.2
0 2 -21 195.38 13.4
-1 -2 -21 94.19 12.3
1 2 -21 100.89 11
1 2 -21 85.89 9.9
1 -2 -21 70.39 9.4
-1 2 -21 76.09 10.5
1 -2 -21 87.99 11.3
-1 2 -21 71.09 9.3
-2 -2 -21 26.4 8.8
2 2 -21 18.6 6.5
2 2 -21 24.5 6.5
2 -2 -21 27.8 6.4
2 -2 -21 30.2 7.9
-2 2 -21 37.8 8.5
3 2 -21 75.59 9.1
3 2 -21 99.29 10.8
-3 -2 -21 74.79 12.6
3 -2 -21 73.89 9.4
-3 2 -21 88.89 12.3
3 -2 -21 79.69 10.9
-4 -2 -21 81.69 13.8
4 2 -21 81.49 9.1
4 2 -21 78.29 10.3
4 -2 -21 80.19 9.9
4 -2 -21 68.69 10.6
-4 2 -21 48.8 11.3
-5 -2 -21 186.08 19.6
5 2 -21 183.48 12.9
5 2 -21 222.98 15.5
5 -2 -21 207.58 13.9
5 -2 -21 184.88 15.1
-5 2 -21 205.18 19.5
6 2 -21 143.49 11.1
-6 -2 -21 144.19 18.9
6 2 -21 139.09 13.9
6 -2 -21 156.88 12.2
-6 2 -21 146.79 17.7
6 -2 -21 160.88 15.5
7 2 -21 293.67 15.3
-7 -2 -21 302.47 25.3
7 -2 -21 285.47 19.1
7 -2 -21 313.17 16.7
-7 2 -21 264.27 24.9
0 -3 -21 7.8 7
0 3 -21 13.9 6
-1 -3 -21 167.78 14.9
1 3 -21 152.08 11.9
-1 3 -21 136.29 20.2
1 -3 -21 186.58 13.4
-1 3 -21 168.78 12.8
1 -3 -21 176.58 14.4
2 3 -21 23.9 6.2
-2 -3 -21 17.3 8.7
-2 3 -21 13.6 7.3
2 -3 -21 17.3 5.9
2 -3 -21 14.4 6.9
3 3 -21 -5.1 4.3
-3 -3 -21 -0.7 7.7
-3 3 -21 5.5 7.4
3 -3 -21 -8.3 3.8
3 -3 -21 -3.4 5.9
4 3 -21 38.5 7
-4 -3 -21 41.1 11.7
-4 3 -21 24.4 9.8
4 -3 -21 41.1 8.8
4 -3 -21 47.1 8.1
-5 -3 -21 205.08 20.5
5 3 -21 200.58 13.2
5 -3 -21 203.28 14
5 -3 -21 206.38 15.9
-5 3 -21 222.08 19.3
-6 -3 -21 135.19 18.4
6 3 -21 143.29 11.3
-6 3 -21 138.79 18.2
6 -3 -21 151.68 12.3
6 -3 -21 154.98 15.4
-7 -3 -21 23.1 12.9
7 3 -21 3.5 4.3
7 -3 -21 14.6 7.8
7 -3 -21 4.1 5.3
-7 3 -21 18.4 12
0 -4 -21 448.56 23.1
0 4 -21 434.56 20.9
-1 -4 -21 6.6 7.2
1 4 -21 6.1 5.1
-1 4 -21 5 5.1
1 -4 -21 11.5 7
2 4 -21 65.39 8.9
-2 -4 -21 59.19 11.5
2 -4 -21 47.3 9.7
2 -4 -21 62.79 9
-3 -4 -21 33.4 10.5
3 4 -21 20.4 6
3 -4 -21 17.7 7.3
3 -4 -21 16.3 6.2
4 4 -21 54.49 7.9
-4 -4 -21 41.9 11.8
4 -4 -21 29.7 8.6
4 -4 -21 41.1 8.3
-5 -4 -21 14.5 11.2
5 4 -21 13.7 5.7
5 -4 -21 14.3 6.4
5 -4 -21 14 7.6
6 4 -21 83.19 9
-6 -4 -21 90.69 16.2
6 -4 -21 93.79 12.8
6 -4 -21 82.39 10.1
7 4 -21 75.39 8.4
-7 -4 -21 57.89 15.2
7 -4 -21 59.69 9.2
7 -4 -21 63.69 10.9
0 5 -21 36.8 7.6
0 -5 -21 31.9 9.1
1 5 -21 724.33 28.7
-1 -5 -21 746.03 32
1 -5 -21 760.72 31.7
-1 5 -21 715.33 29.2
-2 -5 -21 46.7 10.8
2 5 -21 38.5 7.5
2 -5 -21 47.9 9.3
3 5 -21 113.49 11.1
-3 -5 -21 98.99 13.4
3 -5 -21 106.69 12.9
3 -5 -21 127.59 12.5
4 5 -21 34.2 7.1
-4 -5 -21 29.2 11
4 -5 -21 37.1 9.3
4 -5 -21 45.3 8.2
5 5 -21 216.38 13.6
-5 -5 -21 245.98 21.4
5 -5 -21 212.58 16.8
5 -5 -21 208.88 14.5
-6 -5 -21 53.19 14.1
6 5 -21 42.2 7.1
6 -5 -21 37.3 7.8
6 -5 -21 29.8 9.1
-7 -5 -21 33.1 13.7
7 5 -21 46.9 7
7 -5 -21 45.9 10.2
7 -5 -21 51.19 8.7
0 6 -21 609.84 25.6
0 -6 -21 570.64 27.6
-1 -6 -21 40 10.1
1 6 -21 46.5 8.2
1 -6 -21 38.4 9.5
-1 6 -21 58.09 8.8
-2 -6 -21 263.97 19.4
2 6 -21 276.77 16.1
2 -6 -21 274.37 18.4
3 6 -21 43.4 7.6
-3 -6 -21 24.6 10.1
3 -6 -21 35.6 9.1
-4 -6 -21 118.29 15.9
4 6 -21 116.19 11.1
4 -6 -21 135.99 13.2
4 -6 -21 130.79 14
5 6 -21 15.8 5.6
-5 -6 -21 8.3 10.4
5 -6 -21 16.6 6.5
5 -6 -21 25.5 8.5
-6 -6 -21 108.19 17.1
6 6 -21 127.09 10.7
6 -6 -21 112.99 14.3
6 -6 -21 111.59 12.4
0 -7 -21 13.5 7.3
0 7 -21 7.9 5.9
-1 -7 -21 212.08 17.4
1 7 -21 216.58 14.9
1 -7 -21 226.18 17.1
-1 7 -21 204.98 14.7
-2 -7 -21 39.7 10.3
2 7 -21 25.1 7.1
2 -7 -21 41.8 9.5
3 7 -21 51.29 8.4
-3 -7 -21 61.29 12.1
3 -7 -21 61.19 10.7
-4 -7 -21 35.5 11.2
4 7 -21 15.8 6
4 -7 -21 17.7 8.1
-5 -7 -21 134.49 17.2
5 7 -21 119.19 11
5 -7 -21 103.99 12.1
5 -7 -21 108.59 13.7
0 -8 -21 123.79 14.7
0 8 -21 151.38 13.2
-1 -8 -21 -10.6 6.7
1 8 -21 -2.9 5.2
-1 8 -21 5.8 5.5
1 -8 -21 4.6 7
-2 -8 -21 121.79 15.1
2 8 -21 105.39 11.5
2 -8 -21 125.19 14.2
3 8 -21 -1 5.2
-3 -8 -21 17.7 9.4
3 -8 -21 4.9 6.6
4 8 -21 107.59 11.1
-4 -8 -21 142.59 17.2
4 -8 -21 145.89 15.2
5 8 -21 -1.5 4.9
-5 -8 -21 -10.2 8.4
5 -8 -21 14.3 7.8
0 -9 -21 8 7.9
0 9 -21 -4.9 5.4
-1 -9 -21 154.38 16.3
1 9 -21 140.69 13.7
1 -9 -21 161.78 16.4
-1 9 -21 154.18 14.4
2 9 -21 31.5 7.7
-2 -9 -21 36 10.2
2 -9 -21 56.09 10.7
-3 -9 -21 126.79 15.7
3 9 -21 116.09 12.2
3 -9 -21 112.79 13.9
4 9 -21 73.49 9.8
-4 -9 -21 73.79 13.5
4 -9 -21 82.59 12.4
0 -10 -21 232.88 18.3
0 10 -21 229.28 16.7
-1 -10 -21 35.2 9.9
1 10 -21 26.9 7.8
1 -10 -21 37.2 9.7
-1 10 -21 43.4 9.1
-2 -10 -21 125.09 15.2
2 10 -21 105.29 12.3
2 -10 -21 124.29 14.8
0 0 -22 1007.3 36.5
0 0 -22 996.2 37.6
-1 0 -22 116.79 13.4
1 0 -22 135.69 13.5
1 0 -22 124.99 12.2
-2 0 -22 456.65 24.2
2 0 -22 482.35 22.1
2 0 -22 517.25 23.8
3 0 -22 181.78 13.6
3 0 -22 192.38 14.7
-3 0 -22 164.78 16.8
4 0 -22 242.18 16.6
4 0 -22 264.57 15.8
-4 0 -22 269.47 20.3
-5 0 -22 140.99 17
5 0 -22 137.29 12.5
5 0 -22 122.19 13.1
6 0 -22 149.79 12
-6 0 -22 145.79 18.6
6 0 -22 133.39 14.4
-7 0 -22 -3.4 10.4
7 0 -22 4.2 6.4
7 0 -22 -3.1 4.4
0 -1 -22 82.49 11.9
0 1 -22 80.99 11.3
0 1 -22 91.39 10.6
1 1 -22 338.27 18.2
-1 -1 -22 331.77 20.2
1 1 -22 349.47 19.2
-1 1 -22 357.06 19.9
1 -1 -22 338.97 18.2
1 -1 -22 349.87 19.8
2 1 -22 62.89 9.8
-2 -1 -22 61.39 11.2
2 1 -22 58.49 8.7
2 -1 -22 73.79 9.9
-2 1 -22 56.59 10.5
2 -1 -22 64.29 10.4
3 1 -22 107.29 11.1
3 1 -22 131.29 13
-3 -1 -22 102.79 14.1
-3 1 -22 120.59 14.4
3 -1 -22 129.99 12.2
3 -1 -22 104.69 12.5
4 1 -22 137.19 12.4
-4 -1 -22 138.09 16.3
4 1 -22 162.08 14.1
4 -1 -22 124.29 13.4
-4 1 -22 145.19 16.4
4 -1 -22 118.99 11.8
5 1 -22 59.69 8.6
-5 -1 -22 69.29 14.1
5 1 -22 50.29 9.3
-5 1 -22 49.5 13
5 -1 -22 53.39 8.5
-6 -1 -22 5.2 11.2
6 1 -22 4.4 6.1
6 1 -22 8.8 5.4
6 -1 -22 22.1 7.8
-6 1 -22 11.3 11.2
6 -1 -22 2.1 4.8
7 1 -22 58.89 10.2
-7 -1 -22 47.5 14.8
7 1 -22 58.39 8.3
-7 1 -22 41.6 13.9
7 -1 -22 60.59 11
7 -1 -22 45 7.9
0 2 -22 99.99 11.1
0 -2 -22 100.59 13
0 2 -22 119.59 12.2
1 2 -22 8.3 5.7
-1 -2 -22 15.9 8.1
1 2 -22 18.1 6.8
1 -2 -22 14.9 7.3
1 -2 -22 6.3 5.7
-1 2 -22 14.3 7.9
2 2 -22 108.69 11.8
2 2 -22 89.79 10.7
-2 -2 -22 102.69 13.6
2 -2 -22 89.59 10.6
2 -2 -22 106.89 12.4
-2 2 -22 95.59 12
-3 -2 -22 109.59 14.5
3 2 -22 79.19 9.9
3 2 -22 76.09 10.2
3 -2 -22 90.49 11.9
3 -2 -22 80.99 10.1
-3 2 -22 85.09 12.4
4 2 -22 63.99 9.6
4 2 -22 62.49 9
-4 -2 -22 55.59 12.4
4 -2 -22 63.69 10.5
-4 2 -22 68.59 12.4
4 -2 -22 64.49 9.6
5 2 -22 26.8 6.7
-5 -2 -22 35.5 12.5
-5 2 -22 21.7 10.5
5 -2 -22 27.2 8.1
5 -2 -22 30.6 7.3
-6 -2 -22 70.09 15
6 2 -22 70.29 8.8
6 -2 -22 56.69 8.8
-6 2 -22 46.9 13.4
6 -2 -22 60.09 10.6
-7 -2 -22 37.7 13.5
7 2 -22 43.7 7.2
7 -2 -22 37.2 7.2
7 -2 -22 39.8 9.4
-7 2 -22 7.5 11.9
0 -3 -22 -4.3 6.6
0 3 -22 1.3 5.2
1 3 -22 109.99 11.3
-1 -3 -22 84.89 12.4
-1 3 -22 81.99 11.7
1 -3 -22 87.89 12
2 3 -22 38.5 7.5
-2 -3 -22 51.79 10
2 -3 -22 40.7 9.2
2 -3 -22 41.6 8.2
-3 -3 -22 131.79 15.8
3 3 -22 140.29 12.1
3 -3 -22 123.39 12.4
3 -3 -22 161.18 14.2
-4 -3 -22 138.29 16.7
4 3 -22 127.69 11.9
-4 3 -22 132.19 18.7
4 -3 -22 134.69 14.4
4 -3 -22 118.89 12
-5 -3 -22 92.39 15.6
5 3 -22 70.39 8.9
5 -3 -22 64.39 9.3
-5 3 -22 82.39 15
5 -3 -22 55.19 10.5
-6 -3 -22 72.49 15.4
6 3 -22 59.79 8.4
6 -3 -22 78.69 9.8
6 -3 -22 69.59 11.1
-6 3 -22 68.49 14.1
0 -4 -22 72.29 10.8
0 4 -22 52.89 8.8
1 4 -22 26.1 7
-1 -4 -22 58.79 11.2
1 -4 -22 37.5 9.2
-1 4 -22 32.1 7.5
-2 -4 -22 140.89 15.9
2 4 -22 175.68 13.2
2 -4 -22 180.78 15.2
2 -4 -22 131.09 12.8
3 4 -22 111.09 11.5
-3 -4 -22 126.89 15.7
3 -4 -22 108.39 11.7
3 -4 -22 129.09 14.2
4 4 -22 135.59 12.3
-4 -4 -22 134.59 16.9
4 -4 -22 99.69 13
4 -4 -22 122.99 12.5
-5 -4 -22 70.09 14.6
5 4 -22 63.89 8.6
5 -4 -22 56.39 10.6
5 -4 -22 47.7 8.5
-6 -4 -22 52.19 14.2
6 4 -22 47.5 7.6
6 -4 -22 50.29 10.3
6 -4 -22 45.3 8.5
0 5 -22 29.9 7.4
0 -5 -22 47.8 10.1
-1 -5 -22 41.8 10.6
1 5 -22 47 8.3
-1 5 -22 59.19 9.2
1 -5 -22 58.59 10.7
-2 -5 -22 65.89 12.4
2 5 -22 68.89 9.4
2 -5 -22 75.39 11.7
-3 -5 -22 211.98 19
3 5 -22 238.28 15
3 -5 -22 215.08 16.9
3 -5 -22 199.28 15
4 5 -22 127.79 11.8
-4 -5 -22 113.89 15.9
4 -5 -22 105.19 11.8
4 -5 -22 124.39 14.4
5 5 -22 27.3 6.7
-5 -5 -22 13.4 10.5
5 -5 -22 27.7 7.1
5 -5 -22 31.6 9.1
6 5 -22 52.99 7.7
-6 -5 -22 46 13.5
6 -5 -22 41.6 8.4
6 -5 -22 33 9.2
0 -6 -22 -0.9 7
0 6 -22 -1.1 4.8
-1 -6 -22 21.6 9.2
1 6 -22 20.4 6.8
-1 6 -22 26.8 7.6
1 -6 -22 16.3 8.4
2 6 -22 23.8 7
-2 -6 -22 32.6 10.2
2 -6 -22 12.3 8
3 6 -22 94.89 10.7
-3 -6 -22 84.19 13.7
3 -6 -22 112.29 14.1
-4 -6 -22 44.4 12.3
4 6 -22 45.6 8
4 -6 -22 51.19 10.6
4 -6 -22 49.5 9.2
5 6 -22 136.09 11.8
-5 -6 -22 138.59 17.6
5 -6 -22 138.39 15.7
5 -6 -22 117.89 13
0 -7 -22 40.4 10
0 7 -22 25.6 7.6
1 7 -22 1.1 5.7
-1 -7 -22 -4.8 7.3
-1 7 -22 1.3 5.7
1 -7 -22 8 7.6
2 7 -22 20.4 7
-2 -7 -22 36.4 10.4
2 -7 -22 20.9 8.6
3 7 -22 10 6.2
-3 -7 -22 28.7 10.3
3 -7 -22 14.8 8
4 7 -22 68.09 9.5
-4 -7 -22 87.29 14.5
4 -7 -22 95.29 13.1
0 8 -22 27.8 7.7
0 -8 -22 40 10
-1 -8 -22 3.9 7.5
1 8 -22 0 5.8
-1 8 -22 6.6 6.4
1 -8 -22 10.6 7.6
2 8 -22 -3.5 5.1
-2 -8 -22 1.8 7.7
2 -8 -22 11.9 7.4
3 8 -22 42.1 8.6
-3 -8 -22 47.8 11.6
3 -8 -22 67.89 11.6
0 9 -22 49.5 9.4
0 -9 -22 33.2 9.8
-1 -9 -22 19.9 8
1 9 -22 -0.9 5.7
-1 9 -22 10 7.1
1 -9 -22 18.4 8.1
2 9 -22 25 8
-2 -9 -22 55.09 11.5
2 -9 -22 27.3 9.2
0 0 -23 16.3 7.6
-1 0 -23 77.39 11.8
1 0 -23 64.59 9.6
1 0 -23 93.69 12.6
2 0 -23 143.59 14.4
-2 0 -23 133.69 14.8
2 0 -23 125.89 12.5
3 0 -23 37.5 7.8
3 0 -23 26.2 8.1
-3 0 -23 8.4 8.7
-4 0 -23 100.19 14.8
4 0 -23 76.59 10.4
4 0 -23 102.49 12.4
5 0 -23 103.29 12.6
-5 0 -23 130.49 17.2
5 0 -23 123.99 12
6 0 -23 135.09 14.3
-6 0 -23 156.08 19.1
6 0 -23 167.98 13
0 1 -23 29.1 7.3
0 -1 -23 48.6 9.9
0 1 -23 36 8.6
1 1 -23 40.6 8.4
-1 -1 -23 53.49 10.8
1 1 -23 31.5 8.4
1 -1 -23 44.3 9.7
-1 1 -23 45 10.3
1 -1 -23 32.4 7.5
2 1 -23 49.2 8.8
2 1 -23 51.69 9.4
-2 -1 -23 46.4 10.7
2 -1 -23 49.2 8.9
-2 1 -23 50.99 10.5
2 -1 -23 72.19 10.9
3 1 -23 63.29 9.9
3 1 -23 42.3 8.4
-3 -1 -23 35.5 10.5
3 -1 -23 35.5 8.1
3 -1 -23 49.99 10
-3 1 -23 35.9 10.7
4 1 -23 213.78 15.6
-4 -1 -23 216.58 19.5
4 1 -23 197.98 14.5
4 -1 -23 215.38 16.3
4 -1 -23 211.68 14.7
-4 1 -23 185.98 18.9
-5 -1 -23 74.49 14.4
5 1 -23 76.79 11.6
5 1 -23 90.39 10.1
5 -1 -23 63.99 9.6
5 -1 -23 108.59 13.3
-5 1 -23 96.69 14.8
6 1 -23 16.9 7.5
-6 -1 -23 39.4 13.1
6 1 -23 20 6.4
-6 1 -23 18.8 11.5
6 -1 -23 22.7 6.5
6 -1 -23 16.6 7.8
0 2 -23 -1.3 5
0 -2 -23 6.6 7
0 2 -23 5.8 7
-1 -2 -23 101.99 13.4
1 2 -23 108.79 11.8
1 2 -23 111.79 12.3
1 -2 -23 127.19 14.2
-1 2 -23 126.49 13.4
1 -2 -23 109.49 14.1
2 2 -23 6.7 5.8
-2 -2 -23 22.2 8.9
2 2 -23 18.5 7.1
2 -2 -23 15.2 6.3
-2 2 -23 20.5 8.1
2 -2 -23 16.9 7.6
3 2 -23 41.1 8
-3 -2 -23 41.6 11.3
3 -2 -23 57.69 9.1
-3 2 -23 55.59 11.1
3 -2 -23 55.89 9.9
-4 -2 -23 30.7 11.1
4 2 -23 37.8 8
-4 2 -23 32.6 10.6
4 -2 -23 43.5 8.6
4 -2 -23 40.5 9.5
-5 -2 -23 122.89 17.1
5 2 -23 140.29 12
5 -2 -23 135.89 14.7
5 -2 -23 134.09 12.9
-5 2 -23 120.59 16.9
-6 -2 -23 103.79 16.5
6 2 -23 98.89 10.8
6 -2 -23 98.49 12.8
6 -2 -23 100.69 11.2
-6 2 -23 116.09 16.9
0 -3 -23 60.19 10.7
0 3 -23 61.19 9.5
-1 -3 -23 39.5 9.9
1 3 -23 31.4 7.4
1 -3 -23 30.3 9
-2 -3 -23 66.59 12.2
2 3 -23 32 7.7
2 -3 -23 30.3 7.9
2 -3 -23 48.4 10
-3 -3 -23 51.49 12.4
3 3 -23 48.7 8.6
3 -3 -23 64.09 9.7
3 -3 -23 71.99 11.3
-4 -3 -23 124.79 16.5
4 3 -23 129.49 12.2
4 -3 -23 117.99 13.9
4 -3 -23 113.89 12.2
5 3 -23 86.09 9.8
-5 -3 -23 97.99 15.7
5 -3 -23 90.89 12.5
5 -3 -23 82.99 10.8
0 -4 -23 26.6 8.8
0 4 -23 32.4 7.8
-1 -4 -23 87.69 13
1 4 -23 74.49 10.4
1 -4 -23 76.29 12.2
-2 -4 -23 40.9 10.8
2 4 -23 52.99 9.1
2 -4 -23 44.1 9.1
3 4 -23 72.89 9.9
-3 -4 -23 72.89 13.2
3 -4 -23 50.79 10.3
3 -4 -23 62.09 9.8
-4 -4 -23 50.79 12.7
4 4 -23 47.3 8.4
4 -4 -23 43.9 10
4 -4 -23 37.5 8.3
-5 -4 -23 20.3 11.3
5 4 -23 15.1 6
5 -4 -23 18.9 6.5
5 -4 -23 20.4 8.5
0 5 -23 300.27 18.3
0 -5 -23 301.17 20.3
-1 -5 -23 36.1 10.6
1 5 -23 40.7 8.1
1 -5 -23 33.3 9.9
-2 -5 -23 320.47 21.7
2 5 -23 306.97 18.2
2 -5 -23 316.97 20.7
-3 -5 -23 33.7 10.9
3 5 -23 42.6 8.3
3 -5 -23 41.6 10.3
4 5 -23 151.78 12.9
-4 -5 -23 129.79 17.1
4 -5 -23 124.29 13.4
4 -5 -23 131.69 15.2
5 5 -23 22.7 6.6
-5 -5 -23 22.4 11.6
5 -5 -23 32.3 9.1
5 -5 -23 21.6 7.1
0 -6 -23 2 7.8
0 6 -23 -9.2 4.8
1 6 -23 264.87 17
-1 -6 -23 270.57 20
1 -6 -23 256.57 19.1
-1 6 -23 206.88 25.6
2 6 -23 58.29 9.2
-2 -6 -23 40.1 10.9
2 -6 -23 52.39 10.9
3 6 -23 380.46 19.9
-3 -6 -23 382.26 24.5
3 -6 -23 388.76 22.9
-4 -6 -23 65.59 13.4
4 6 -23 62.89 9.6
4 -6 -23 73.39 12.2
0 7 -23 50.59 9.3
0 -7 -23 67.29 12.1
1 7 -23 8.7 6.4
-1 -7 -23 15.8 9
-1 7 -23 14.6 10
1 -7 -23 23.6 9.2
-2 -7 -23 252.07 19.8
2 7 -23 187.78 15.1
2 -7 -23 207.18 16.2
-3 -7 -23 46.8 11.5
3 7 -23 42.1 8.7
3 -7 -23 33.6 9.6
0 8 -23 -3.3 5.5
0 -8 -23 7.5 7.8
-1 -8 -23 70.99 11.9
1 8 -23 59.69 10.4
1 -8 -23 64.59 11.8
0 0 -24 20.7 8.2
-1 0 -24 254.47 18.5
1 0 -24 256.47 17.8
1 0 -24 275.97 17.4
2 0 -24 148.39 14.9
-2 0 -24 133.59 15.2
2 0 -24 112.89 12.6
-3 0 -24 76.69 13
3 0 -24 79.09 10.8
3 0 -24 77.39 11.3
-4 0 -24 86.29 14.2
4 0 -24 88.99 10.9
4 0 -24 109.69 13.4
5 0 -24 135.49 14.5
5 0 -24 110.39 11.9
-5 0 -24 94.59 16.3
0 1 -24 335.17 20.1
0 -1 -24 347.17 20.8
1 1 -24 18.6 7.1
-1 -1 -24 22.6 8.9
1 1 -24 17.7 7.4
-1 1 -24 17 8.3
1 -1 -24 6.8 6.5
1 -1 -24 15.4 7.8
2 1 -24 220.48 15.7
2 1 -24 203.78 15.6
-2 -1 -24 201.18 17.5
-2 1 -24 208.18 17
2 -1 -24 201.58 15.2
2 -1 -24 196.58 16.2
-3 -1 -24 190.18 18.7
3 1 -24 186.28 14.3
3 1 -24 160.98 14.2
-3 1 -24 170.38 17.3
3 -1 -24 150.98 15.4
3 -1 -24 173.38 14.1
4 1 -24 93.79 11.4
-4 -1 -24 102.49 15.4
4 1 -24 109.59 13.1
4 -1 -24 83.19 11.8
-4 1 -24 96.19 14.6
4 -1 -24 78.29 10.4
-5 -1 -24 12.5 10.1
5 1 -24 6.6 6
5 1 -24 11.2 6.1
-5 1 -24 9.3 11
5 -1 -24 2 6.3
5 -1 -24 1.6 5.4
0 -2 -24 1.2 7
0 2 -24 3.5 5.9
0 2 -24 16.4 8.4
-1 -2 -24 175.18 17.3
1 2 -24 177.98 14.5
1 -2 -24 212.58 16.8
-1 2 -24 190.38 15.7
2 2 -24 9.8 6.4
-2 -2 -24 18.4 8.9
-2 2 -24 36 9.6
2 -2 -24 16.4 7.8
2 -2 -24 14 6.6
-3 -2 -24 128.29 16
3 2 -24 137.49 13.3
3 -2 -24 148.29 15.2
-3 2 -24 136.49 15.9
3 -2 -24 146.19 14.1
4 2 -24 22.7 7
-4 -2 -24 19.1 10.5
-4 2 -24 8.5 8.9
4 -2 -24 14.1 6.6
4 -2 -24 14.7 7.6
5 2 -24 100.79 11.4
-5 -2 -24 94.09 15.4
5 -2 -24 104.59 13.4
-5 2 -24 122.39 16.1
5 -2 -24 98.59 11.6
0 -3 -24 21.1 8.6
0 3 -24 15.2 6.5
1 3 -24 37.7 8.6
-1 -3 -24 52.49 11.4
1 -3 -24 62.09 11.3
2 3 -24 111.49 12.3
-2 -3 -24 122.99 15.5
2 -3 -24 96.09 17.1
2 -3 -24 103.69 13.3
-3 -3 -24 53.19 11.9
3 3 -24 33.2 7.8
3 -3 -24 41.8 10
3 -3 -24 42.6 8.7
-4 -3 -24 57.09 13.2
4 3 -24 55.99 8.9
4 -3 -24 57.79 9.5
4 -3 -24 70.19 11.7
0 4 -24 33.3 7.9
0 -4 -24 39.6 10.5
1 4 -24 67.09 10.5
-1 -4 -24 95.39 13.7
1 -4 -24 89.29 13
-2 -4 -24 166.68 17.7
2 4 -24 168.68 14.4
2 -4 -24 160.78 16.4
-3 -4 -24 122.49 15.3
3 4 -24 119.49 12.5
3 -4 -24 119.29 13.3
3 -4 -24 101.09 13.5
4 4 -24 69.99 9.8
-4 -4 -24 71.49 13.9
4 -4 -24 43.9 10.3
4 -4 -24 74.39 10.7
0 5 -24 8.2 6.2
0 -5 -24 12.5 8.5
-1 -5 -24 34.1 10.5
1 5 -24 37.5 8.5
1 -5 -24 26.2 9.6
-2 -5 -24 121.79 15.6
2 5 -24 111.19 12.4
2 -5 -24 141.39 15.8
3 5 -24 58.29 9.8
-3 -5 -24 65.99 12.8
3 -5 -24 69.99 11.8
0 -6 -24 3 7.4
0 6 -24 1.1 5.8
-1 -6 -24 5.2 8.1
1 6 -24 7.9 6
1 -6 -24 -1.8 7.3
-2 -6 -24 33 10.1
2 6 -24 20.1 7.6
2 -6 -24 15.8 8
0 7 -24 4.7 6
0 -7 -24 4.9 7.5
0 0 -25 14.9 7.7
1 0 -25 7.6 6.8
-1 0 -25 10 7.8
1 0 -25 1.6 5.9
-2 0 -25 47.2 10.7
2 0 -25 19.3 7.1
2 0 -25 29.2 8.9
3 0 -25 23.5 8
3 0 -25 12.3 6.3
-3 0 -25 26.8 9.9
0 1 -25 26.1 8.8
0 -1 -25 12.5 7.8
-1 -1 -25 48.2 10.7
1 1 -25 49.5 10.4
1 -1 -25 27.1 8.7
-1 1 -25 17.9 8.2
2 1 -25 24.5 8.1
2 1 -25 12.2 6.9
-2 -1 -25 15.3 8.6
2 -1 -25 22.3 7.3
-2 1 -25 31.3 9.2
2 -1 -25 20.8 8.2
-3 -1 -25 72.29 12.8
3 1 -25 50.79 9.3
3 1 -25 77.89 11.5
-3 1 -25 73.79 12.5
3 -1 -25 71.69 11.4
3 -1 -25 59.29 9.9
0 -2 -25 10.2 7.7
1 2 -25 -0.5 5.5
-1 -2 -25 1 7.8
1 -2 -25 12.6 8
-2 -2 -25 57.19 12
2 2 -25 47.1 9.1
2 -2 -25 31.4 9.6
2 -2 -25 37 8.7
-3 -2 -25 85.69 13.9
3 2 -25 69.79 10.3
3 -2 -25 82.09 12.3
3 -2 -25 76.99 11
-3 2 -25 91.29 16.3
0 -3 -25 7.6 8
0 3 -25 2.3 11.1
-1 -3 -25 23.8 9.5
1 3 -25 22.4 7.6
1 -3 -25 41.7 10.3
-2 -3 -25 24.7 9.9
2 3 -25 11.5 6.9
2 -3 -25 22.3 8.8
-3 -3 -25 76.99 13.3
3 3 -25 68.89 10.4
3 -3 -25 69.89 10.5
3 -3 -25 83.09 12.5
0 4 -25 24.3 8
0 -4 -25 17 8.8
-1 -4 -25 27.3 9.9
1 4 -25 16 7.2
1 -4 -25 21.4 9
2 4 -25 182.98 15.1
-2 -4 -25 178.48 18.6
2 -4 -25 213.38 17.6
0 -5 -25 20.9 9.8
0 5 -25 20.4 7.6
0 0 -26 287.77 19.6
1 0 -26 23.8 8.3
-1 0 -26 17.2 8.3
0 1 -26 3.1 6.6
0 -1 -26 2.6 7
-1 -1 -26 152.38 16.5
1 1 -26 163.68 17.7
1 1 -26 179.18 15.3
1 -1 -26 176.98 15.9
-1 1 -26 144.09 15.2
loop_
_geom_angle_atom_site_label_1
_geom_angle_atom_site_label_2
_geom_angle_atom_site_label_3
_geom_angle
_geom_angle_site_symmetry_1
_geom_angle_site_symmetry_3
_geom_angle_publ_flag
Cl1 In1 Cl2 85.39(2) . . ?
Cl1 In1 Cl3 92.76(2) . . ?
Cl1 In1 Cl4 174.93(2) . . ?
Cl1 In1 Cl5 91.34(2) . . ?
Cl1 In1 Cl6 91.68(2) . . ?
Cl2 In1 Cl3 87.73(2) . . ?
Cl2 In1 Cl5 93.50(2) . . ?
Cl2 In1 Cl6 175.15(2) . . ?
Cl3 In1 Cl5 175.80(2) . . ?
Cl3 In1 Cl6 88.55(2) . . ?
Cl4 In1 Cl2 89.88(2) . . ?
Cl4 In1 Cl3 88.89(2) . . ?
Cl4 In1 Cl5 87.10(2) . . ?
Cl4 In1 Cl6 93.16(2) . . ?
Cl6 In1 Cl5 90.43(2) . . ?
H29 O1 H27 104.5 . . ?
C1 N1 C2 111.2(2) . . ?
C1 N1 C3 109.8(2) . . ?
C2 N1 C3 112.7(2) . . ?
H13 N2 H14 107.7 . . ?
H13 N2 C5 108.91(12) . . ?
H13 N2 C6 108.91(12) . . ?
H14 N2 C5 108.91(12) . . ?
H14 N2 C6 108.91(12) . . ?
C5 N2 C6 113.30(18) . . ?
C9 N3 C8 112.6(2) . . ?
C10 N3 C8 110.2(2) . . ?
C10 N3 C9 107.7(2) . . ?
H1 C1 N1 109.5 . . ?
H1 C1 H2 109.5 . . ?
H1 C1 H3 109.5 . . ?
H2 C1 N1 109.5 . . ?
H2 C1 H3 109.5 . . ?
H3 C1 N1 109.5 . . ?
H4 C2 N1 109.5 . . ?
H4 C2 H5 109.5 . . ?
H4 C2 H6 109.5 . . ?
H5 C2 N1 109.5 . . ?
H5 C2 H6 109.5 . . ?
H6 C2 N1 109.5 . . ?
H9 C3 N1 109.13(13) . . ?
H9 C3 H10 107.9 . . ?
H9 C3 C4 109.13(14) . . ?
H10 C3 N1 109.13(14) . . ?
H10 C3 C4 109.13(14) . . ?
C4 C3 N1 112.3(2) . . ?
H7 C4 C3 109.06(14) . . ?
H7 C4 C5 109.06(13) . . ?
H8 C4 C3 109.06(15) . . ?
H8 C4 H7 107.8 . . ?
H8 C4 C5 109.06(13) . . ?
C5 C4 C3 112.7(2) . . ?
C4 C5 N2 111.80(19) . . ?
H11 C5 N2 109.26(12) . . ?
H11 C5 C4 109.26(13) . . ?
H11 C5 H12 107.9 . . ?
H12 C5 N2 109.26(12) . . ?
H12 C5 C4 109.26(13) . . ?
H15 C6 N2 109.16(12) . . ?
H15 C6 C7 109.16(12) . . ?
H16 C6 N2 109.16(12) . . ?
H16 C6 H15 107.9 . . ?
H16 C6 C7 109.16(14) . . ?
C7 C6 N2 112.21(19) . . ?
H17 C7 C6 108.89(14) . . ?
H17 C7 C8 108.89(15) . . ?
H18 C7 C6 108.89(12) . . ?
H18 C7 H17 107.7 . . ?
H18 C7 C8 108.89(13) . . ?
C8 C7 C6 113.4(2) . . ?
C7 C8 N3 112.4(2) . . ?
H19 C8 N3 109.12(14) . . ?
H19 C8 C7 109.12(13) . . ?
H20 C8 N3 109.12(14) . . ?
H20 C8 C7 109.12(15) . . ?
H20 C8 H19 107.9 . . ?
H24 C9 N3 109.5 . . ?
H24 C9 H25 109.5 . . ?
H25 C9 N3 109.5 . . ?
H26 C9 N3 109.5 . . ?
H26 C9 H24 109.5 . . ?
H26 C9 H25 109.5 . . ?
H21 C10 N3 109.5 . . ?
H22 C10 N3 109.5 . . ?
H22 C10 H21 109.5 . . ?
H23 C10 N3 109.5 . . ?
H23 C10 H21 109.5 . . ?
H23 C10 H22 109.5 . . ?
loop_
_geom_bond_atom_site_label_1
_geom_bond_atom_site_label_2
_geom_bond_distance
_geom_bond_site_symmetry_2
_geom_bond_publ_flag
In1 Cl1 2.5009(6) . ?
In1 Cl2 2.5452(6) . ?
In1 Cl3 2.5269(6) . ?
In1 Cl4 2.5231(6) . ?
In1 Cl5 2.5026(6) . ?
In1 Cl6 2.5363(6) . ?
O1 H27 0.8500 . ?
O1 H29 0.8500 . ?
N1 C1 1.486(4) . ?
N1 C2 1.479(3) . ?
N1 C3 1.506(3) . ?
N2 H13 0.9000 . ?
N2 H14 0.9000 . ?
N2 C5 1.491(3) . ?
N2 C6 1.501(3) . ?
N3 C8 1.471(3) . ?
N3 C9 1.479(4) . ?
N3 C10 1.505(4) . ?
C1 H1 0.9600 . ?
C1 H2 0.9600 . ?
C1 H3 0.9600 . ?
C2 H4 0.9600 . ?
C2 H5 0.9600 . ?
C2 H6 0.9600 . ?
C3 H9 0.9700 . ?
C3 H10 0.9700 . ?
C3 C4 1.508(4) . ?
C4 H7 0.9700 . ?
C4 H8 0.9700 . ?
C4 C5 1.512(3) . ?
C5 H11 0.9700 . ?
C5 H12 0.9700 . ?
C6 H15 0.9700 . ?
C6 H16 0.9700 . ?
C6 C7 1.519(3) . ?
C7 H17 0.9700 . ?
C7 H18 0.9700 . ?
C7 C8 1.514(3) . ?
C8 H19 0.9700 . ?
C8 H20 0.9700 . ?
C9 H24 0.9600 . ?
C9 H25 0.9600 . ?
C9 H26 0.9600 . ?
C10 H21 0.9600 . ?
C10 H22 0.9600 . ?
C10 H23 0.9600 . ?
