#------------------------------------------------------------------------------
#$Date: 2024-03-04 22:01:14 +0200 (Mon, 04 Mar 2024) $
#$Revision: 290122 $
#$URL: file:///home/coder/svn-repositories/cod/cif/1/57/06/1570628.cif $
#------------------------------------------------------------------------------
#
# This file is available in the Crystallography Open Database (COD),
# http://www.crystallography.net/
#
# All data on this site have been placed in the public domain by the
# contributors.
#
data_1570628
loop_
_publ_author_name
'Kato, Yugo'
'Nishimura, Kazutoshi'
'Nishii, Yuji'
'Hirano, Koji'
_publ_section_title
;
 Direct synthesis of spirobifluorenes by formal dehydrative coupling of
 biaryls and fluorenones.
;
_journal_issue                   6
_journal_name_full               'Chemical science'
_journal_page_first              2112
_journal_page_last               2117
_journal_paper_doi               10.1039/d3sc05977d
_journal_volume                  15
_journal_year                    2024
_chemical_formula_moiety         'C42 H24 S, 2(C H Cl3)'
_chemical_formula_sum            'C44 H26 Cl6 S'
_chemical_formula_weight         799.41
_space_group_crystal_system      monoclinic
_space_group_IT_number           14
_space_group_name_Hall           '-P 2ybc'
_space_group_name_H-M_alt        'P 1 21/c 1'
_atom_sites_solution_hydrogens   geom
_atom_sites_solution_primary     dual
_audit_creation_date             2021-02-12
_audit_creation_method
;
Olex2 1.2
(compiled 2018.05.29 svn.r3508 for OlexSys, GUI svn.r5506)
;
_audit_update_record
;
2023-11-02 deposited with the CCDC.	2024-01-02 downloaded from the CCDC.
;
_cell_angle_alpha                90
_cell_angle_beta                 98.248(3)
_cell_angle_gamma                90
_cell_formula_units_Z            4
_cell_length_a                   12.2354(4)
_cell_length_b                   14.2615(4)
_cell_length_c                   20.8253(6)
_cell_measurement_reflns_used    12940
_cell_measurement_temperature    123(2)
_cell_measurement_theta_max      29.9840
_cell_measurement_theta_min      2.2940
_cell_volume                     3596.33(19)
_computing_cell_refinement       'CrysAlisPro 1.171.39.46e (Rigaku OD, 2018)'
_computing_data_collection       'CrysAlisPro 1.171.39.46e (Rigaku OD, 2018)'
_computing_data_reduction        'CrysAlisPro 1.171.39.46e (Rigaku OD, 2018)'
_computing_molecular_graphics    'Olex2 (Dolomanov et al., 2009)'
_computing_publication_material  'Olex2 (Dolomanov et al., 2009)'
_computing_structure_refinement  'ShelXL (Sheldrick, 2015)'
_computing_structure_solution    'ShelXT (Sheldrick, 2015)'
_diffrn_ambient_temperature      123(2)
_diffrn_detector                 'CCD plate'
_diffrn_detector_type            HyPix
_diffrn_measured_fraction_theta_full 1.000
_diffrn_measured_fraction_theta_max 0.798
_diffrn_measurement_details
;
List of Runs (angles in degrees, time in seconds):

  # Type    Start    End  Width  t~exp~   \w     \q     \k     \f   Frames
#--------------------------------------------------------------------------
  1  \w      7.00  67.00   0.50    6.87    --   -8.74  46.00  74.00  120
  2  \w    -25.00   1.00   0.50    6.87    --   -8.74 -99.00-120.00   52
  3  \w    -26.00  28.00   0.50    6.87    --   -8.74 -99.00   0.00  108
  4  \w    -19.00  31.00   0.50    6.87    --   -8.74 -99.00 150.00  100
  5  \w    -84.00   5.00   0.50    6.87    --   -8.74 -46.00 -75.00  178
;
_diffrn_measurement_device       'four-circle diffractometer'
_diffrn_measurement_device_type
'XtaLAB Synergy, Single source at offset/far, HyPix'
_diffrn_measurement_method       '\w scans'
_diffrn_orient_matrix_type
'CrysAlisPro convention (1999,Acta A55,543-557)'
_diffrn_orient_matrix_UB_11      -0.0477635000
_diffrn_orient_matrix_UB_12      -0.0285101000
_diffrn_orient_matrix_UB_13      -0.0016895000
_diffrn_orient_matrix_UB_21      0.0050558000
_diffrn_orient_matrix_UB_22      -0.0002099000
_diffrn_orient_matrix_UB_23      0.0343793000
_diffrn_orient_matrix_UB_31      -0.0334586000
_diffrn_orient_matrix_UB_32      0.0407564000
_diffrn_orient_matrix_UB_33      -0.0010173000
_diffrn_radiation_monochromator  mirror
_diffrn_radiation_probe          x-ray
_diffrn_radiation_type           MoK\a
_diffrn_radiation_wavelength     0.71073
_diffrn_reflns_av_R_equivalents  0.0519
_diffrn_reflns_av_unetI/netI     0.0529
_diffrn_reflns_Laue_measured_fraction_full 1.000
_diffrn_reflns_Laue_measured_fraction_max 0.798
_diffrn_reflns_limit_h_max       15
_diffrn_reflns_limit_h_min       -12
_diffrn_reflns_limit_k_max       14
_diffrn_reflns_limit_k_min       -19
_diffrn_reflns_limit_l_max       25
_diffrn_reflns_limit_l_min       -26
_diffrn_reflns_number            28944
_diffrn_reflns_point_group_measured_fraction_full 1.000
_diffrn_reflns_point_group_measured_fraction_max 0.798
_diffrn_reflns_theta_full        25.242
_diffrn_reflns_theta_max         30.211
_diffrn_reflns_theta_min         1.976
_diffrn_source                   'micro-focus sealed X-ray tube'
_diffrn_source_type              'PhotonJet (Mo) X-ray Source'
_exptl_absorpt_coefficient_mu    0.570
_exptl_absorpt_correction_T_max  1.00000
_exptl_absorpt_correction_T_min  0.67386
_exptl_absorpt_correction_type   multi-scan
_exptl_absorpt_process_details
;
CrysAlisPro 1.171.39.46e (Rigaku Oxford Diffraction, 2018)
Empirical absorption correction using spherical harmonics,
 implemented in SCALE3 ABSPACK scaling algorithm.
;
_exptl_crystal_colour            colourless
_exptl_crystal_colour_primary    colourless
_exptl_crystal_density_diffrn    1.476
_exptl_crystal_description       block
_exptl_crystal_F_000             1632
_exptl_crystal_size_max          0.234
_exptl_crystal_size_mid          0.199
_exptl_crystal_size_min          0.089
_refine_diff_density_max         0.858
_refine_diff_density_min         -1.014
_refine_diff_density_rms         0.093
_refine_ls_extinction_method     none
_refine_ls_goodness_of_fit_ref   1.054
_refine_ls_hydrogen_treatment    constr
_refine_ls_matrix_type           full
_refine_ls_number_parameters     460
_refine_ls_number_reflns         8538
_refine_ls_number_restraints     0
_refine_ls_restrained_S_all      1.054
_refine_ls_R_factor_all          0.0759
_refine_ls_R_factor_gt           0.0564
_refine_ls_shift/su_max          0.000
_refine_ls_shift/su_mean         0.000
_refine_ls_structure_factor_coef Fsqd
_refine_ls_weighting_details
'w=1/[\s^2^(Fo^2^)+(0.0923P)^2^+3.1146P] where P=(Fo^2^+2Fc^2^)/3'
_refine_ls_weighting_scheme      calc
_refine_ls_wR_factor_gt          0.1565
_refine_ls_wR_factor_ref         0.1728
_reflns_Friedel_coverage         0.000
_reflns_number_gt                6525
_reflns_number_total             8538
_reflns_threshold_expression     'I > 2\s(I)'
_cod_data_source_file            d3sc05977d2.cif
_cod_data_source_block           kato_210212_1
_cod_depositor_comments
'Adding full bibliography for 1570621--1570629.cif.'
_cod_database_code               1570628
_shelx_shelxl_version_number     2017/1
_chemical_oxdiff_formula         'C44 H26 S Cl6'
_shelx_space_group_comment
;
The symmetry employed for this shelxl refinement is uniquely defined
by the following loop, which should always be used as a source of
symmetry information in preference to the above space-group names.
They are only intended as comments.
;
_reflns_odcompleteness_completeness 99.82
_reflns_odcompleteness_iscentric 1
_reflns_odcompleteness_theta     25.97
_olex2_refinement_description
;
1. Fixed Uiso
 At 1.2 times of:
  All C(H) groups
2.a Ternary CH refined with riding coordinates:
 C2EA(H2EA), C3EA(H3EA)
2.b Aromatic/amide H refined with riding coordinates:
 C8AA(H8AA), C6BA(H6BA), C7BA(H7BA), C8BA(H8BA), C1CA(H1CA), C3CA(H3CA),
 C4CA(H4CA), C5CA(H5CA), C6CA(H6CA), C7CA(H7CA), C8CA(H8CA), C9CA(H9CA),
 C0DA(H0DA), C1DA(H1DA), C2DA(H2DA), C3DA(H3DA), C4DA(H4DA), C5DA(H5DA),
 C6DA(H6DA), C7DA(H7DA), C8DA(H8DA), C9DA(H9DA), C0EA(H0EA), C1EA(H1EA)
;
_shelx_res_file
;
TITL kato_210212_1_a.res in P2(1)/c
    kato_210212_1.res
    created by SHELXL-2017/1 at 17:10:14 on 12-Feb-2021
REM Old TITL kato_210212_1 in P2(1)/c
REM SHELXT solution in P2(1)/c
REM R1 0.164, Rweak 0.007, Alpha 0.022, Orientation as input
REM Formula found by SHELXT: C44 S Cl6
CELL 0.71073 12.2354 14.2615 20.8253 90 98.248 90
ZERR 4 0.0004 0.0004 0.0006 0 0.003 0
LATT 1
SYMM -X,0.5+Y,0.5-Z
SFAC C H Cl S
UNIT 176 104 24 4

L.S. 20
PLAN  5
BOND $H
LIST 6
fmap 2
ACTA
REM <olex2.extras>
REM <HklSrc "%.\\kato_210212_1.hkl">
REM </olex2.extras>

WGHT    0.092300    3.114600
FVAR       0.25357
S0AA  4    0.152481    0.557825    0.305228    11.00000    0.01463    0.02076 =
         0.01523    0.00107    0.00355    0.00111
CL0A  3    0.245761    0.350045    0.418090    11.00000    0.03055    0.04529 =
         0.05315    0.00213    0.01460   -0.00121
CL1A  3    0.008966    0.368899    0.403760    11.00000    0.02949    0.06155 =
         0.03965   -0.00850    0.00077   -0.00184
CL2A  3    0.948241    0.280802    0.583773    11.00000    0.03006    0.07516 =
         0.04315   -0.02202   -0.00677    0.01216
CL3A  3    0.786580    0.131915    0.571965    11.00000    0.08401    0.04761 =
         0.02972    0.00244    0.00589   -0.00145
CL4A  3    0.145981    0.464461    0.507567    11.00000    0.05696    0.05223 =
         0.05621   -0.02511   -0.00926    0.01073
CL5A  3    0.758747    0.290522    0.485506    11.00000    0.06590    0.04111 =
         0.08903    0.01818   -0.04341   -0.00471
C0AA  1    0.102541    0.578130    0.180701    11.00000    0.01504    0.01321 =
         0.01686    0.00009    0.00297    0.00073
C1AA  1   -0.179624    0.629988    0.307709    11.00000    0.01465    0.02218 =
         0.01883   -0.00069    0.00089    0.00101
C2AA  1   -0.087439    0.594644    0.153270    11.00000    0.01547    0.01578 =
         0.01859   -0.00055    0.00077   -0.00078
C3AA  1   -0.112706    0.664414    0.263870    11.00000    0.01242    0.02057 =
         0.01898   -0.00178    0.00011    0.00231
C4AA  1    0.315192    0.559441    0.157956    11.00000    0.01540    0.01320 =
         0.02096    0.00019    0.00633   -0.00013
C5AA  1   -0.067481    0.584243    0.226942    11.00000    0.01254    0.01790 =
         0.02057   -0.00065    0.00408    0.00078
C6AA  1    0.012131    0.589802    0.126563    11.00000    0.01460    0.01525 =
         0.02042    0.00002    0.00238    0.00044
C7AA  1    0.219083    0.566024    0.192633    11.00000    0.01437    0.01432 =
         0.01822    0.00043    0.00336   -0.00058
C8AA  1    0.512425    0.532874    0.184871    11.00000    0.01413    0.01701 =
         0.02818   -0.00078    0.00267   -0.00107
AFIX  43
H8AA  2    0.574945    0.523760    0.215317    11.00000   -1.20000
AFIX   0
C9AA  1    0.380202    0.543115    0.272937    11.00000    0.01248    0.01768 =
         0.01873   -0.00006    0.00146    0.00072
C0BA  1   -0.125602    0.500059    0.252505    11.00000    0.01221    0.02015 =
         0.02148    0.00112    0.00135   -0.00020
C1BA  1    0.056876    0.576016    0.237256    11.00000    0.01346    0.01653 =
         0.01811   -0.00117    0.00288   -0.00068
C2BA  1    0.409653    0.546171    0.204109    11.00000    0.01831    0.01371 =
         0.01935    0.00003    0.00426   -0.00023
C3BA  1    0.256096    0.554387    0.257774    11.00000    0.01487    0.01652 =
         0.01718    0.00117    0.00297    0.00159
C4BA  1   -0.188119    0.527757    0.300228    11.00000    0.01361    0.02288 =
         0.01910    0.00065    0.00158   -0.00051
C5BA  1    0.431985    0.618950    0.319652    11.00000    0.01425    0.02007 =
         0.01954   -0.00263    0.00482    0.00023
C6BA  1    0.324028    0.560108    0.092276    11.00000    0.01723    0.02434 =
         0.01933   -0.00008    0.00322    0.00112
AFIX  43
H6BA  2    0.261763    0.568875    0.061582    11.00000   -1.20000
AFIX   0
C7BA  1   -0.186688    0.607974    0.114355    11.00000    0.01670    0.02190 =
         0.02583   -0.00018    0.00164    0.00010
AFIX  43
H7BA  2   -0.251746    0.613057    0.132349    11.00000   -1.20000
AFIX   0
C8BA  1   -0.247531    0.461692    0.330265    11.00000    0.01602    0.02955 =
         0.02313    0.00272    0.00335   -0.00254
AFIX  43
H8BA  2   -0.289586    0.479676    0.362000    11.00000   -1.20000
AFIX   0
C9BA  1    0.484717    0.578588    0.377019    11.00000    0.01363    0.02920 =
         0.02050    0.00076    0.00705   -0.00142
C0CA  1    0.419465    0.454483    0.310066    11.00000    0.01302    0.02085 =
         0.02398    0.00384    0.00454    0.00122
C1CA  1   -0.226899    0.691152    0.347811    11.00000    0.01828    0.02992 =
         0.02390   -0.00133    0.00735    0.00320
AFIX  43
H1CA  2   -0.270773    0.668717    0.377391    11.00000   -1.20000
AFIX   0
C2CA  1    0.477755    0.476263    0.370452    11.00000    0.01389    0.02744 =
         0.01925    0.00535    0.00539    0.00203
C3CA  1   -0.095548    0.759438    0.257692    11.00000    0.01961    0.02118 =
         0.02541    0.00143    0.00296    0.00251
AFIX  43
H3CA  2   -0.053298    0.782272    0.227397    11.00000   -1.20000
AFIX   0
C4CA  1    0.519573    0.533539    0.118102    11.00000    0.01782    0.02176 =
         0.03055   -0.00304    0.01162   -0.00212
AFIX  43
H4CA  2    0.587700    0.524418    0.104194    11.00000   -1.20000
AFIX   0
C5CA  1   -0.188262    0.613798    0.046924    11.00000    0.01972    0.02580 =
         0.02755   -0.00089   -0.00425    0.00082
AFIX  43
H5CA  2   -0.255108    0.621278    0.019904    11.00000   -1.20000
AFIX   0
C6CA  1    0.010370    0.596893    0.059830    11.00000    0.01865    0.02393 =
         0.02140   -0.00006    0.00397    0.00140
AFIX  43
H6CA  2    0.075512    0.593976    0.041749    11.00000   -1.20000
AFIX   0
C7CA  1   -0.091294    0.608497    0.020471    11.00000    0.02528    0.02682 =
         0.01820    0.00061   -0.00248    0.00235
AFIX  43
H7CA  2   -0.093621    0.612713   -0.024268    11.00000   -1.20000
AFIX   0
C8CA  1   -0.121111    0.407174    0.233868    11.00000    0.01995    0.02162 =
         0.02590   -0.00163    0.00406   -0.00118
AFIX  43
H8CA  2   -0.079612    0.389128    0.201879    11.00000   -1.20000
AFIX   0
C9CA  1    0.427083    0.547511    0.072963    11.00000    0.02330    0.02642 =
         0.02157   -0.00207    0.00861   -0.00060
AFIX  43
H9CA  2    0.433739    0.548520    0.029040    11.00000   -1.20000
AFIX   0
C0DA  1   -0.242686    0.368423    0.311857    11.00000    0.02267    0.03041 =
         0.02741    0.00520    0.00302   -0.00974
AFIX  43
H0DA  2   -0.281696    0.323510    0.331672    11.00000   -1.20000
AFIX   0
C1DA  1    0.532646    0.634826    0.427900    11.00000    0.01931    0.04741 =
         0.01803   -0.00563    0.00481   -0.00378
AFIX  43
H1DA  2    0.567729    0.608186    0.466147    11.00000   -1.20000
AFIX   0
C2DA  1   -0.143270    0.820202    0.298095    11.00000    0.02553    0.01846 =
         0.03384   -0.00151   -0.00014    0.00521
AFIX  43
H2DA  2   -0.132019    0.884442    0.295031    11.00000   -1.20000
AFIX   0
C3DA  1   -0.180616    0.341233    0.264412    11.00000    0.02506    0.02118 =
         0.03209   -0.00116    0.00327   -0.00564
AFIX  43
H3DA  2   -0.178529    0.278377    0.252758    11.00000   -1.20000
AFIX   0
C4DA  1    0.404616    0.362263    0.289568    11.00000    0.02103    0.02015 =
         0.03189    0.00067    0.00565    0.00079
AFIX  43
H4DA  2    0.366586    0.348158    0.248786    11.00000   -1.20000
AFIX   0
C5DA  1    0.521580    0.404730    0.411998    11.00000    0.01920    0.04220 =
         0.02489    0.01365    0.00533    0.00447
AFIX  43
H5DA  2    0.561108    0.418641    0.452415    11.00000   -1.20000
AFIX   0
C6DA  1   -0.207116    0.786457    0.342687    11.00000    0.02243    0.02935 =
         0.03146   -0.00775    0.00337    0.00828
AFIX  43
H6DA  2   -0.237222    0.828246    0.369626    11.00000   -1.20000
AFIX   0
C7DA  1    0.427546    0.715480    0.312088    11.00000    0.02239    0.02037 =
         0.03239    0.00008    0.00504   -0.00011
AFIX  43
H7DA  2    0.393170    0.742288    0.273726    11.00000   -1.20000
AFIX   0
C8DA  1    0.448275    0.290988    0.331772    11.00000    0.02692    0.01953 =
         0.05347    0.00846    0.01469    0.00358
AFIX  43
H8DA  2    0.438895    0.228606    0.319170    11.00000   -1.20000
AFIX   0
C9DA  1    0.475898    0.771587    0.363416    11.00000    0.02938    0.02429 =
         0.04550   -0.01321    0.01300   -0.00444
AFIX  43
H9DA  2    0.473761    0.836520    0.359311    11.00000   -1.20000
AFIX   0
C0EA  1    0.505179    0.312737    0.391994    11.00000    0.02293    0.03251 =
         0.04569    0.02202    0.01213    0.00850
AFIX  43
H0EA  2    0.533063    0.264546    0.419687    11.00000   -1.20000
AFIX   0
C1EA  1    0.527172    0.730998    0.420571    11.00000    0.02944    0.04303 =
         0.03393   -0.02165    0.01061   -0.01201
AFIX  43
H1EA  2    0.558341    0.769286    0.454475    11.00000   -1.20000
AFIX   0

C2EA  1    0.131355    0.363646    0.458555    11.00000    0.03027    0.03068 =
         0.03230   -0.00201    0.00523    0.00030
AFIX  13
H2EA  2    0.127361    0.309037    0.486688    11.00000   -1.20000
AFIX   0

C3EA  1    0.807808    0.253725    0.564565    11.00000    0.03540    0.04497 =
         0.04537   -0.01690    0.00037    0.00467
AFIX  13
H3EA  2    0.766880    0.286805    0.594805    11.00000   -1.20000
AFIX   0
HKLF 4




REM  kato_210212_1_a.res in P2(1)/c
REM R1 =  0.0564 for    6525 Fo > 4sig(Fo)  and  0.0759 for all    8538 data
REM    460 parameters refined using      0 restraints

END

WGHT      0.0923      3.1145

REM Highest difference peak  0.858,  deepest hole -1.014,  1-sigma level  0.093
Q1    1   0.7378  0.3169  0.5239  11.00000  0.05    0.86
Q2    1  -0.0901  0.6240  0.2453  11.00000  0.05    0.46
Q3    1  -0.1848  0.6074  0.0825  11.00000  0.05    0.45
Q4    1   0.0857  0.3755  0.4306  11.00000  0.05    0.45
Q5    1   0.1901  0.3949  0.4405  11.00000  0.05    0.44
;
_shelx_res_checksum              19365
_shelx_hkl_file
;
   0   0  -2  624.39   32.32
   0   0  -3   -0.18    0.35
   0   0   3    0.39    0.35
   0   0   4    0.40    0.54
   0   0  -4    1.77    0.70
   0   0  -4    0.64    0.45
   0   0   4    0.65    0.40
   0   0   5   -0.17    0.59
   0   0   5    0.41    0.48
   0   0  -5    0.58    0.71
   0   0   6  739.68   38.70
   0   0  -6  744.62   39.08
   0   0   6  742.40   39.30
   0   0   7   -0.24    0.58
   0   0  -7   -0.20    0.68
   0   0   7   -0.14    0.50
   0   0   8  635.73   37.50
   0   0  -8  649.82   37.22
   0   0  -9    1.00    0.92
   0   0   9    0.32    0.85
   0   0  10  832.25   47.11
   0   0 -10  917.11   46.81
   0   0 -11    0.60    0.98
   0   0  11    0.39    1.15
   0   0 -12  807.53   44.10
   0   0  12  837.98   44.93
   0   0  13    0.28    0.80
   0   0 -13    1.72    1.17
   0   0 -14   29.69    3.42
   0   0  14   30.12    3.08
   0   0  15   -0.33    0.96
   0   0 -15    1.16    1.28
   0   0 -16  236.47   15.00
   0   0  16  245.85   14.67
   0   0  17    3.00    1.62
   0   0 -17   -0.86    1.86
   0   0  18  470.94   26.79
   0   0  19    0.43    1.31
   0   0  20    1.81    1.44
   0   0  21   -0.96    1.63
   0   0  22    0.51    1.72
   0   0  23   -1.06    1.63
   0   0  24    1.67    2.07
   0   0  25    1.18    2.17
   0   1  -2    2.17    0.51
   0  -1  -2    3.42    0.46
   0   1  -3   11.02    1.12
   0  -1  -3    9.87    1.00
   0  -1   3    7.91    0.96
   0  -1  -4  120.95    6.90
   0  -1   4  117.17    7.03
   0  -1   5  488.17   25.68
   0  -1   5  483.28   25.53
   0  -1  -5  468.09   25.45
   0  -1  -6   20.77    2.03
   0  -1   6   23.75    2.11
   0  -1   6   15.98    1.96
   0  -1  -7    3.76    0.99
   0  -1   7    4.56    1.08
   0  -1   7    3.38    1.04
   0  -1   8   50.01    4.14
   0  -1   8   49.20    3.86
   0  -1  -8   48.48    3.84
   0  -1   9  320.73   18.28
   0  -1  -9  322.75   17.81
   0  -1   9  303.49   17.72
   0  -1 -10  280.61   15.25
   0  -1  10  249.51   14.98
   0  -1  10  249.12   15.57
   0  -1  11  529.66   31.02
   0  -1 -11  580.79   30.63
   0  -1  12  370.50   21.33
   0  -1 -12  352.15   20.53
   0  -1 -13   12.75    2.24
   0  -1  13   17.24    2.19
   0  -1 -14   47.96    4.41
   0  -1  14   42.90    3.95
   0  -1  15   13.06    2.06
   0  -1 -15   20.55    2.88
   0  -1 -16  112.21    8.58
   0  -1  16  127.56    8.43
   0  -1  17   12.74    2.30
   0  -1 -17   13.74    2.69
   0  -1  18   70.31    5.92
   0  -1  19   10.67    2.24
   0  -1  20   15.86    2.89
   0  -1  21  135.34    9.88
   0  -1  22   -1.52    1.66
   0  -1  23    6.93    2.50
   0  -1  24   67.70    6.68
   0  -1  25   15.85    3.47
   0   2   0  582.48   31.47
   0  -2   0  619.28   31.40
   0   2   1  657.19   35.61
   0  -2  -1  734.15   35.35
   0  -2  -1  638.82   35.60
   0  -2   1  674.39   35.58
   0   2   2 1374.95   74.13
   0  -2   2 1372.39   73.67
   0  -2  -2 1406.75   74.16
   0  -2  -2 1461.58   73.60
   0  -2   2 1388.51   74.18
   0  -2  -2 1536.65   73.67
   0  -2   3  494.58   26.84
   0   2   3  491.21   27.23
   0  -2  -3  541.71   26.78
   0  -2   4  247.29   13.97
   0  -2  -4  241.03   13.79
   0   2  -4  262.10   13.27
   0  -2  -5  229.63   12.55
   0  -2   5  210.37   12.65
   0   2  -5  229.64   11.85
   0  -2  -6  421.95   22.87
   0   2  -6  433.07   22.05
   0   2  -6  402.17   22.85
   0  -2   6  418.41   23.11
   0  -2   6  432.29   23.27
   0  -2  -7  452.46   23.87
   0   2  -7  422.82   23.81
   0  -2   7  424.27   24.14
   0  -2   7  466.09   24.31
   0   2  -8   16.47    1.86
   0  -2   8    7.36    1.57
   0  -2   8    9.00    1.62
   0  -2  -8   10.63    1.60
   0   2  -9  237.99   13.75
   0  -2  -9  237.33   13.76
   0   2   9  233.46   14.17
   0  -2   9  237.36   14.18
   0  -2   9  233.45   14.08
   0   2  10  143.99    9.98
   0  -2 -10  163.53    9.74
   0   2 -10  156.69    9.70
   0  -2  10  140.31    9.96
   0  -2  10  160.21    9.95
   0  -2  11   89.04    6.20
   0   2 -11   72.63    5.68
   0  -2  11   66.18    5.98
   0  -2 -11   76.04    5.71
   0   2  11   77.84    6.21
   0   2 -12  233.55   13.85
   0  -2  12  198.10   14.11
   0   2  12  222.78   14.43
   0  -2  12  245.43   14.21
   0  -2 -12  237.26   13.85
   0   2 -13   48.89    4.41
   0  -2  13   51.42    4.17
   0   2  13   49.07    4.11
   0  -2 -13   44.05    4.29
   0  -2 -14   50.11    4.46
   0   2 -14   42.93    4.29
   0   2  14   45.59    3.98
   0  -2  14   42.31    3.89
   0   2 -15  193.74   12.59
   0   2  15  195.18   12.24
   0  -2  15  199.27   12.29
   0  -2 -15  202.42   12.68
   0  -2  16  243.05   14.87
   0   2 -16  263.08   15.44
   0  -2 -16  246.18   15.24
   0   2  16  234.00   14.78
   0  -2 -17   55.61    5.33
   0  -2  17   49.98    4.84
   0   2  17   57.13    4.94
   0   2 -17   51.37    5.17
   0  -2  18    2.81    1.33
   0   2  18    1.61    1.49
   0   2  19    4.72    1.81
   0  -2  19    5.58    1.84
   0   2  20   26.38    3.75
   0  -2  20   28.61    3.78
   0  -2  21   15.37    2.83
   0   2  21   13.01    2.87
   0  -2  22   -1.52    2.02
   0   2 -22    0.45    1.10
   0   2  22    1.02    1.73
   0   2  23    8.55    2.58
   0  -2  23    2.13    2.41
   0  -2  24   -1.68    1.84
   0   2  24    0.56    1.84
   0  -2  25   18.18    3.55
   0   2  25   20.60    3.74
   0   3   0   -0.70    0.71
   0  -3   0    5.10    0.94
   0   3   1  921.16   47.36
   0  -3  -1  926.09   47.00
   0  -3   1  859.67   47.21
   0   3   2 4870.72  264.92
   0  -3  -2 5233.86  264.86
   0  -3  -2 5264.15  265.31
   0  -3  -2 4825.58  265.79
   0   3   2 4907.11  265.76
   0   3  -2 5638.52  264.91
   0  -3   2 5131.05  264.97
   0  -3   2 5317.90  265.89
   0   3   3  125.80    7.99
   0  -3  -3  120.40    7.22
   0   3  -3  128.56    7.18
   0  -3  -3  127.55    7.16
   0  -3   3  141.73    7.01
   0   3   3  127.32    7.30
   0  -3  -3  136.19    8.03
   0  -3   3  120.61    7.28
   0  -3   4  307.58   18.38
   0   3   4  312.92   18.41
   0   3   4  301.29   18.92
   0  -3  -4  337.76   18.01
   0   3  -4  338.92   18.29
   0  -3  -4  329.24   18.23
   0   3   5  452.32   26.45
   0  -3  -5  485.58   26.27
   0  -3   5  452.64   26.42
   0   3  -5  463.73   26.24
   0  -3   5  548.83   25.63
   0   3  -5  484.27   25.62
   0   3   6   87.51    6.04
   0   3  -6   99.81    5.92
   0  -3   6   93.50    6.10
   0  -3   6   97.84    6.57
   0   3  -6   91.08    5.09
   0  -3  -6   91.76    5.81
   0   3  -7  437.44   24.56
   0  -3  -7  503.40   25.61
   0  -3   7  474.49   26.26
   0  -3   7  530.09   26.09
   0   3  -7  508.24   25.66
   0   3   7  507.82   26.01
   0  -3   8  101.46    7.57
   0   3  -8  112.40    7.12
   0   3  -8  118.50    6.16
   0   3   8  103.57    7.38
   0  -3  -8  115.17    7.14
   0  -3   8   91.85    7.18
   0   3  -9    4.99    0.71
   0   3   9    4.13    1.23
   0  -3   9    5.74    1.38
   0   3  -9    6.87    1.42
   0  -3  -9    6.33    1.30
   0  -3   9    3.50    1.35
   0  -3  10  185.60   12.19
   0   3 -10  211.08   10.62
   0  -3  10  191.72   12.38
   0   3  10  193.57   12.23
   0  -3 -10  180.17   11.61
   0   3 -10  177.28   11.60
   0  -3  11  345.70   19.49
   0   3 -11  328.94   17.35
   0  -3  11  297.06   19.06
   0   3  11  293.06   19.08
   0  -3 -11  333.67   18.70
   0   3 -11  350.32   18.83
   0  -3 -12   44.06    4.06
   0   3  12   49.01    3.93
   0  -3  12   45.62    3.86
   0   3 -12   46.77    4.23
   0  -3  12   49.77    4.75
   0   3 -12   45.79    3.08
   0   3 -13   26.38    3.05
   0   3  13   24.45    2.68
   0  -3  13   19.63    3.11
   0   3 -13   21.56    1.87
   0  -3 -13   21.21    2.77
   0  -3  13   21.48    2.53
   0  -3  14   79.14    5.72
   0   3  14   71.61    5.57
   0  -3 -14   74.00    5.95
   0   3 -14   70.56    4.63
   0   3 -14   82.46    6.14
   0   3 -15  218.71   12.33
   0   3  15  231.72   13.64
   0  -3 -15  221.65   13.95
   0  -3  15  225.35   13.58
   0   3 -15  221.86   13.90
   0  -3 -16   18.92    3.01
   0   3 -16   18.28    1.90
   0  -3  16   21.51    2.73
   0   3  16   23.94    2.84
   0   3 -16   16.52    2.91
   0   3 -17   57.71    4.04
   0  -3  17   53.57    5.02
   0   3  17   63.72    5.31
   0   3 -18   90.67    5.75
   0   3  18   90.95    7.08
   0  -3  18   88.11    6.97
   0   3  19   20.67    3.14
   0   3 -19   19.79    2.15
   0  -3  19   20.23    3.08
   0   3  20   60.68    5.37
   0  -3  20   56.05    5.24
   0   3 -20   45.23    3.78
   0   3 -21    7.72    1.58
   0  -3  21   11.10    2.70
   0   3  21   12.57    2.76
   0   3 -22   10.91    1.66
   0  -3  22   13.73    2.95
   0   3  22    9.68    2.62
   0  -3  23    7.49    2.50
   0   3  23    4.83    2.06
   0   3  24   15.21    3.23
   0  -3  24   15.71    3.36
   0  -3  25    1.77    2.30
   0   3  25    0.59    2.13
   0   4   0  728.24   38.93
   0  -4   0  733.60   38.72
   0   4   1 4779.01  252.80
   0  -4  -1 5035.95  252.54
   0  -4   1 4948.75  252.81
   0  -4  -2  130.29    8.34
   0   4   2  131.82    8.81
   0   4  -2  136.43    7.63
   0  -4  -2  143.02    7.62
   0  -4   2  138.66    8.88
   0   4   2  154.10    7.58
   0  -4   2  143.63    7.59
   0  -4   3    4.22    1.11
   0   4  -3    2.40    0.53
   0   4   3    1.52    1.00
   0  -4  -3    2.72    0.53
   0   4   3    2.63    0.46
   0  -4  -3    1.31    0.82
   0  -4  -3    4.83    0.92
   0  -4   3    2.72    0.48
   0   4   4  168.94    9.35
   0  -4  -4  162.88    9.09
   0  -4   4  173.97    8.89
   0  -4  -4  164.31    9.25
   0   4   4  168.83   10.27
   0  -4  -4  160.37   10.17
   0  -4   4  156.59    9.29
   0   4  -4  152.22    9.07
   0   4  -5   56.93    3.81
   0  -4   5   58.47    3.33
   0  -4   5   52.87    3.94
   0   4   5   52.80    3.93
   0   4   5   59.75    4.68
   0  -4  -5   63.74    3.71
   0  -4  -5   51.58    3.70
   0  -4   6  753.66   39.79
   0   4   6  751.31   40.87
   0  -4   6  773.76   40.90
   0  -4  -6  735.62   40.50
   0  -4  -6  855.84   40.06
   0   4  -6  740.30   40.54
   0  -4   7  105.60    7.03
   0  -4   7   99.91    7.53
   0  -4  -7  110.41    6.74
   0   4  -7   98.62    6.66
   0   4   7  122.43    7.25
   0  -4   8  443.73   24.15
   0  -4   8  467.25   24.92
   0   4  -8  427.94   22.58
   0   4   8  443.90   24.15
   0   4  -8  390.70   23.51
   0  -4  -8  467.30   23.77
   0   4   9    1.89    0.85
   0  -4  -9    0.47    0.83
   0   4  -9    0.96    0.77
   0  -4   9    0.40    1.08
   0  -4   9    0.32    0.66
   0   4  -9    0.07    0.35
   0   4 -10    4.78    1.11
   0  -4  10    1.72    1.37
   0  -4 -10    3.92    1.07
   0  -4  10    3.46    0.87
   0   4 -10    1.06    0.47
   0   4  10    2.35    0.84
   0  -4 -11  316.52   17.18
   0  -4  11  298.66   16.77
   0   4 -11  267.56   15.68
   0   4 -11  323.77   17.25
   0   4  11  310.33   16.82
   0  -4  11  351.63   18.65
   0  -4  12    8.46    2.40
   0  -4 -12   11.12    2.00
   0  -4  12   11.45    1.74
   0   4  12   14.18    1.89
   0   4 -12   12.15    2.00
   0   4 -12   11.36    1.19
   0   4 -13   10.35    2.17
   0  -4  13    9.87    2.43
   0   4  13   15.14    1.92
   0  -4  13   11.87    1.73
   0  -4 -13    7.95    1.90
   0   4 -13   10.06    1.18
   0  -4 -14    1.06    1.24
   0  -4  14    0.92    0.90
   0   4 -14    2.85    1.35
   0   4 -14    1.20    0.60
   0   4  14    3.34    1.12
   0  -4  14    2.57    1.58
   0   4 -15   -0.26    0.74
   0  -4 -15    0.38    1.35
   0   4  15   -0.33    1.22
   0   4 -15   -1.13    1.47
   0  -4  15    0.33    1.01
   0   4 -16   30.94    2.47
   0  -4  16   33.36    3.46
   0   4  16   30.39    3.40
   0  -4 -16   27.86    3.65
   0   4 -16   30.83    3.70
   0   4 -17  112.99    6.44
   0   4  17   92.82    7.54
   0  -4  17  100.77    7.67
   0   4 -18    0.46    0.77
   0   4  18   -0.41    1.66
   0  -4  18   -1.22    1.51
   0   4  19    2.16    1.51
   0  -4  19    0.43    1.47
   0   4 -19    0.64    0.82
   0   4  20   13.73    2.81
   0   4 -20   18.90    2.06
   0   4  21   75.03    6.56
   0   4 -21   70.82    4.95
   0  -4  21   77.45    6.67
   0  -4  22    1.53    1.89
   0   4  22   -1.53    2.17
   0  -4  23    0.54    2.04
   0   4  23    4.84    2.37
   0  -4  24   27.07    4.18
   0   4  24   27.28    4.18
   0   4  25    5.98    2.70
   0  -4  25    5.96    2.70
   0  -5   0   -0.26    0.76
   0  -5   1 1918.76   98.81
   0   5   1 1888.35   98.92
   0  -5  -1 1891.05   98.54
   0  -5  -2    3.51    1.01
   0  -5   2    5.23    0.49
   0  -5  -2    3.86    0.45
   0   5   2    3.83    1.32
   0  -5   2    3.88    1.21
   0   5  -2    4.35    0.51
   0   5   2    4.75    0.46
   0   5  -3  111.16    6.36
   0  -5   3  119.14    7.92
   0   5   3  140.87    8.30
   0  -5   3  109.99    6.28
   0  -5  -3  107.81    7.15
   0  -5  -3  112.32    6.33
   0   5   3  122.45    6.29
   0  -5   4  314.55   16.30
   0  -5  -4  348.33   18.24
   0   5   4  292.59   16.22
   0  -5  -4  316.75   16.40
   0   5  -4  298.24   16.40
   0  -5   4  312.28   18.05
   0  -5  -4  323.23   17.04
   0   5   4  282.62   17.70
   0  -5  -5  122.90    7.20
   0  -5  -5  114.85    8.17
   0   5   5  117.86    6.75
   0  -5  -5  111.54    6.87
   0   5   5  101.63    7.95
   0  -5   5  123.96    6.80
   0   5  -5  114.53    6.92
   0  -5   5  125.71    6.67
   0  -5  -6    9.43    1.18
   0  -5  -6    7.80    1.19
   0   5   6    8.84    1.08
   0   5   6   10.90    2.07
   0  -5   6   10.30    1.16
   0   5  -6    8.19    1.24
   0  -5   6    7.86    0.86
   0   5   7   23.88    2.07
   0  -5   7   24.19    1.66
   0   5  -7   22.31    2.22
   0  -5   7   22.54    2.03
   0  -5  -7   24.32    2.23
   0  -5  -8  304.24   17.05
   0  -5   8  309.48   16.81
   0   5   8  297.09   16.75
   0  -5   8  330.21   18.72
   0   5  -8  302.87   17.06
   0  -5   9   23.91    3.36
   0   5  -9   24.17    2.53
   0  -5   9   25.11    2.31
   0   5   9   25.52    2.37
   0  -5  -9   22.59    2.48
   0  -5 -10  103.01    6.82
   0   5  10  101.83    6.51
   0  -5  10   97.96    6.51
   0   5 -10  101.54    6.81
   0  -5  10   94.63    7.98
   0  -5  11   12.72    2.64
   0   5 -11   14.24    1.22
   0   5 -11   15.57    2.16
   0  -5 -11   15.34    2.08
   0  -5  11    7.84    1.64
   0   5  11   13.08    1.83
   0   5 -12   60.11    5.07
   0  -5  12   65.86    4.89
   0  -5 -12   62.00    5.08
   0  -5  12   63.30    6.17
   0   5  12   63.35    4.83
   0   5 -12   66.25    3.90
   0   5  13  315.26   18.51
   0   5 -13  316.38   17.28
   0   5  13  343.61   20.61
   0  -5 -13  329.95   18.92
   0   5 -13  362.55   19.13
   0  -5  13  327.81   18.65
   0  -5  13  324.13   20.36
   0   5  14   46.53    5.49
   0  -5  14   44.69    5.25
   0  -5  14   44.05    4.08
   0   5 -14   51.99    4.56
   0   5 -14   45.09    3.02
   0  -5 -14   46.64    4.43
   0   5  14   47.53    4.14
   0  -5  15   -1.18    1.81
   0   5 -15    1.22    0.64
   0   5  15    0.99    1.16
   0  -5 -15    1.85    1.37
   0   5 -15    1.87    1.42
   0  -5  15    0.67    0.98
   0   5 -16    5.14    2.04
   0   5  16   12.79    2.18
   0  -5 -16   12.93    2.42
   0  -5  16   13.97    2.30
   0   5 -16   11.44    1.35
   0   5 -17   64.69    4.22
   0   5  17   65.66    5.57
   0  -5  17   68.05    5.69
   0  -5  18   76.64    6.01
   0   5  18   88.37    6.26
   0   5 -19   21.67    2.05
   0   5  19   19.10    3.04
   0  -5  19   27.06    3.40
   0   5  20   62.86    5.49
   0  -5  20   56.70    5.36
   0   5 -20   47.60    3.59
   0   5 -21    6.63    1.30
   0  -5  21   10.23    2.52
   0   5  21   13.59    2.70
   0   5  22   38.44    4.80
   0  -5  22   47.27    5.10
   0   5  23    7.02    2.28
   0  -5  23    7.04    2.32
   0  -5  24    9.70    3.06
   0   5  24    9.11    2.78
   0   5  25    9.59    2.95
   0  -5  25    6.00    2.62
   0  -6   0  720.73   38.99
   0  -6  -1 1152.21   61.38
   0  -6   1 1151.45   61.64
   0   6   1 1188.41   61.80
   0   6  -2   43.56    2.67
   0  -6   2   50.61    2.71
   0  -6  -2   52.67    4.12
   0  -6   2   56.99    4.67
   0   6   2   49.64    4.39
   0  -6   3  119.35    8.67
   0  -6   3  127.62    6.83
   0   6   3  152.63    9.07
   0   6  -3  131.12    6.87
   0  -6  -3  119.58    7.97
   0   6   3  124.84    6.78
   0  -6  -3  116.14    6.79
   0   6   4   17.02    2.48
   0  -6  -4   11.87    1.82
   0   6   4   18.27    1.34
   0  -6  -4   16.91    1.38
   0  -6   4   15.39    1.29
   0   6  -4   14.02    1.35
   0  -6   4   15.20    2.51
   0  -6  -5  632.33   34.89
   0   6   5  743.01   36.42
   0   6  -5  633.96   34.23
   0  -6  -5  640.91   36.11
   0  -6  -5  663.13   34.23
   0  -6   5  638.63   34.15
   0   6   5  671.65   34.09
   0  -6   5  651.35   34.12
   0  -6   5  664.99   36.33
   0  -6  -6    6.40    1.08
   0   6   6    9.82    2.05
   0  -6   6    8.25    1.04
   0  -6   6    5.98    0.89
   0   6  -6    7.56    1.13
   0   6   6    6.32    0.98
   0  -6  -6    6.48    1.32
   0   6  -7  194.07   11.13
   0   6   7  222.89   13.07
   0  -6  -7  215.05   11.24
   0  -6   7  200.40   10.96
   0   6   7  202.41   10.96
   0  -6   7  167.06   10.43
   0  -6  -7  210.45   11.19
   0   6   8   20.14    2.03
   0   6  -8   23.30    2.30
   0  -6   8   22.34    1.66
   0  -6  -8   25.48    2.35
   0  -6   8   24.29    2.20
   0   6   9 1432.32   75.70
   0  -6   9 1452.06   78.07
   0  -6   9 1453.54   75.76
   0  -6  -9 1434.89   75.97
   0   6  -9 1525.75   76.08
   0  -6  10   15.13    1.79
   0  -6 -10   12.14    1.95
   0   6  10   17.07    1.88
   0  -6  10   13.60    2.68
   0   6 -10   14.64    1.91
   0   6 -11    4.15    1.40
   0  -6 -11    2.45    1.26
   0  -6  11    4.53    1.09
   0  -6  11    2.27    1.75
   0   6  11    5.36    1.25
   0  -6 -12   25.75    2.95
   0  -6  12   22.90    3.78
   0   6 -12   20.73    2.72
   0  -6  12   28.31    2.75
   0   6  12   25.44    2.64
   0  -6 -13    6.37    1.73
   0   6  13   10.40    1.68
   0  -6  13    6.08    2.39
   0   6 -13    6.48    1.67
   0  -6  13    7.16    1.56
   0  -6  14   22.76    4.12
   0  -6 -14   25.84    3.12
   0   6  14   28.93    3.16
   0  -6  14   29.40    3.16
   0   6 -14   32.84    3.42
   0  -6  15  121.66    8.13
   0   6 -15  115.76    8.29
   0  -6 -15  116.74    8.22
   0   6  15  124.83    8.18
   0  -6  16    3.97    1.54
   0  -6 -16    4.23    1.64
   0   6 -16    2.11    0.70
   0   6  16    7.48    1.82
   0   6 -16    6.23    1.91
   0  -6  17  100.29    7.26
   0   6 -17   91.23    5.43
   0   6  17   94.07    7.15
   0   6  18    4.09    1.74
   0  -6  18    2.89    1.61
   0   6 -18    2.15    0.75
   0   6  19  103.17    7.48
   0  -6  19  113.47    7.79
   0   6 -20    1.37    0.77
   0   6  20    1.38    1.66
   0  -6  20    1.39    1.85
   0  -6  21    0.49    1.91
   0   6  21   -0.49    1.80
   0   6  22    1.03    2.15
   0  -6  22    0.52    2.01
   0  -6  23    2.73    2.37
   0   6  23    0.54    2.21
   0  -6  24   27.07    4.25
   0   6  24   26.32    4.15
   0  -7   0   -2.25    1.32
   0   7   1    4.05    1.76
   0  -7   1    1.19    1.12
   0  -7  -1    1.77    1.35
   0   7   2   55.34    5.06
   0  -7  -2   62.17    4.92
   0  -7   2   45.66    4.86
   0  -7   2   60.81    5.25
   0  -7   3  394.25   23.08
   0  -7   3  423.06   23.31
   0   7   3  386.97   22.92
   0  -7  -3  379.34   22.31
   0  -7   3  401.25   20.54
   0   7   3  366.39   20.46
   0  -7  -3  400.55   20.50
   0   7  -3  418.14   20.58
   0  -7  -4    3.83    1.29
   0   7  -4    4.66    0.76
   0  -7   4    6.91    0.80
   0  -7   4    7.37    1.90
   0   7   4    8.07    0.83
   0  -7  -4    6.04    0.76
   0   7   4    4.68    1.61
   0   7   5    8.27    2.09
   0   7   5    6.67    0.88
   0   7  -5    6.54    1.00
   0  -7  -5    8.89    1.04
   0  -7  -5    6.88    1.50
   0  -7   5    7.48    0.93
   0  -7   5    4.35    1.73
   0  -7   6   67.24    4.20
   0  -7  -6   54.31    5.58
   0   7  -6   65.81    4.31
   0   7   6   74.93    4.24
   0  -7   6   63.39    6.08
   0  -7   6   62.38    4.13
   0   7   6   52.16    5.53
   0  -7  -6   66.90    4.92
   0  -7  -6   63.94    4.22
   0   7  -7   36.13    2.92
   0  -7   7   43.81    2.73
   0  -7   7   40.29    2.90
   0  -7  -7   34.91    3.16
   0   7   7   31.70    2.69
   0   7   7   44.63    4.54
   0  -7  -7   36.46    2.93
   0   7   8   26.24    2.24
   0  -7  -8   19.98    2.18
   0   7   8   21.99    3.37
   0   7  -8   26.68    2.45
   0  -7   8   22.82    2.17
   0  -7   8   24.41    1.86
   0   7   9   12.78    1.61
   0  -7   9   13.86    1.25
   0   7  -9   14.61    1.86
   0  -7   9    8.14    2.51
   0  -7  -9   11.61    1.71
   0  -7   9   13.61    1.65
   0  -7 -10  234.05   13.49
   0   7  10  235.00   13.31
   0   7 -10  241.05   13.58
   0  -7  10  220.99   15.55
   0  -7  10  221.19   13.27
   0   7  11   53.49    3.98
   0  -7  11   42.08    5.22
   0  -7  11   43.91    3.79
   0   7 -11   48.05    4.11
   0  -7 -11   48.87    4.04
   0  -7  12    5.17    2.38
   0  -7 -12    8.04    1.82
   0  -7  12    9.26    1.59
   0   7 -12   11.74    1.97
   0  -7  13   26.89    2.99
   0  -7  13   33.35    4.60
   0   7  13   26.53    2.93
   0  -7 -13   23.31    3.09
   0   7 -13   29.13    3.23
   0  -7  14    0.69    2.12
   0  -7 -14    0.33    1.33
   0   7 -14    1.70    1.26
   0   7  14    0.92    1.14
   0  -7  14    2.20    1.03
   0  -7  15  105.98    9.76
   0  -7 -15  119.95    8.24
   0  -7  15  114.18    8.04
   0   7  15  106.52    7.87
   0   7 -15  128.28    8.45
   0   7 -16    0.38    1.76
   0   7  16    2.85    1.42
   0  -7  16    1.82    1.16
   0  -7 -16   -0.38    1.76
   0  -7  17    2.33    1.55
   0   7  17    1.53    1.49
   0   7  18   37.55    4.15
   0  -7  18   37.78    4.27
   0   7  19    5.20    1.87
   0  -7  19    8.81    2.24
   0   7  20    4.61    2.15
   0  -7  20    3.28    2.19
   0   7  21   61.74    5.87
   0  -7  21   56.39    5.81
   0  -7  22   71.24    6.87
   0   7  22   85.25    7.20
   0  -7  23   11.12    3.04
   0   7  23   11.52    3.04
   0   7  24    0.58    2.11
   0  -7  24   -0.59    2.25
   0  -8   0   11.32    2.38
   0  -8   1   88.30    7.39
   0  -8  -1   92.12    7.14
   0  -8   1   88.66    7.23
   0  -8   2  428.65   26.84
   0   8   2  478.39   26.98
   0  -8   2  470.57   27.08
   0  -8  -2  483.77   26.59
   0   8   3  495.46   26.31
   0   8   3  503.68   29.20
   0  -8   3  530.50   29.68
   0  -8  -3  472.21   28.51
   0  -8   3  518.49   26.40
   0  -8  -3  508.53   26.32
   0  -8   3  518.71   29.49
   0   8  -3  531.72   26.40
   0   8  -4   53.83    3.50
   0  -8  -4   62.26    3.53
   0  -8   4   65.15    3.60
   0  -8  -4   54.86    4.98
   0  -8   4   62.95    5.85
   0   8   4   62.10    5.68
   0   8   4   56.36    3.48
   0  -8  -5    1.28    0.54
   0   8   5    1.50    0.54
   0   8  -5    2.01    0.62
   0  -8   5    1.10    1.47
   0  -8  -5    0.33    1.02
   0  -8   5    1.29    0.57
   0   8   6  607.65   30.37
   0   8  -6  589.37   30.45
   0  -8   6  578.87   33.52
   0  -8  -6  586.63   31.65
   0   8   6  498.50   32.48
   0  -8   6  569.74   30.35
   0  -8  -6  576.85   30.37
   0  -8   6  561.05   30.52
   0   8  -7   40.81    2.98
   0   8   7   48.75    5.05
   0  -8   7   36.92    2.80
   0  -8  -7   35.45    2.85
   0  -8   7   38.93    2.78
   0  -8  -7   26.24    3.98
   0  -8  -7   34.70    3.43
   0   8   7   36.51    2.77
   0   8  -8   15.45    1.80
   0  -8   8   13.46    1.41
   0  -8  -8   11.88    1.66
   0  -8   8   13.59    1.60
   0   8   8   13.47    2.80
   0   8   8   15.93    1.64
   0  -8   9  182.82   10.45
   0  -8  -9  194.53   10.66
   0  -8   9  174.26    9.80
   0   8  -9  168.47   10.49
   0   8   9  171.68   10.33
   0   8   9  185.87   12.74
   0  -8  10   33.13    3.03
   0   8 -10   35.37    3.27
   0  -8  10   32.15    4.76
   0  -8  10   36.60    2.46
   0  -8 -10   36.13    3.21
   0   8  10   36.77    3.11
   0   8  11  106.89    6.80
   0  -8  11   95.86    8.86
   0  -8 -11   95.38    6.78
   0   8 -11  104.27    6.98
   0  -8  11  102.16    6.76
   0   8  12   23.12    2.52
   0  -8  12   18.41    3.73
   0  -8 -12   20.39    2.64
   0  -8  12   24.27    2.59
   0   8 -12   20.96    2.63
   0  -8  13   11.27    1.76
   0  -8 -13    5.74    1.63
   0  -8  13    2.92    2.18
   0   8 -13    6.21    1.73
   0   8  13   11.23    1.89
   0  -8 -14    1.95    1.24
   0   8 -14    1.66    1.30
   0  -8  14    1.88    1.33
   0   8  14    2.45    1.14
   0  -8  14    0.75    2.13
   0  -8  15    2.03    1.41
   0   8  15    0.66    1.12
   0   8 -15   -1.78    1.41
   0  -8  15   -1.55    2.37
   0  -8 -15    2.77    1.58
   0   8  16    1.42    1.42
   0  -8  16    4.00    1.64
   0  -8 -16    4.05    1.75
   0   8 -16    1.51    1.76
   0   8  17    0.38    1.41
   0  -8  17    0.78    1.44
   0   8  18    0.41    1.55
   0  -8  18    0.42    1.54
   0  -8  19    4.89    2.08
   0   8  19    4.79    2.04
   0   8  20   23.54    3.47
   0  -8  20   16.04    3.10
   0   8  21   86.30    7.37
   0  -8  21   82.61    7.35
   0   8  22    3.70    2.38
   0  -8  22    1.60    2.13
   0   8  23    6.15    2.47
   0  -8  23    2.28    2.12
   0   8  24    8.97    3.22
   0  -8  24    3.66    2.60
   0  -9   0   -0.50    1.41
   0  -9   0    1.62    1.71
   0  -9   1   -0.54    1.37
   0  -9   1    0.52    1.40
   0  -9  -1   -0.48    1.40
   0  -9  -2    5.49    1.84
   0   9   2    4.17    2.00
   0  -9   2    6.44    2.05
   0  -9   2    4.34    1.97
   0  -9   3    1.09    1.31
   0   9   3    5.73    2.12
   0  -9  -3    3.48    1.70
   0  -9   3    1.70    1.81
   0   9   4   23.16    1.50
   0  -9   4   22.45    1.58
   0   9  -4   22.33    1.55
   0  -9  -4   27.76    3.34
   0  -9  -4   19.93    1.47
   0  -9   4   26.61    3.73
   0   9   4   22.14    3.56
   0  -9   4   23.00    3.61
   0   9  -5   34.74    2.54
   0  -9   5   37.42    2.59
   0   9   5   39.71    2.55
   0   9   5   35.53    4.58
   0  -9  -5   37.74    4.04
   0  -9  -5   42.98    2.59
   0  -9   5   34.39    4.69
   0  -9   6   56.80    5.97
   0  -9  -6   55.44    4.84
   0  -9   6   46.98    3.69
   0   9  -6   60.48    3.57
   0  -9  -6   52.93    3.45
   0   9   6   46.29    3.37
   0   9   6   62.61    5.95
   0  -9   6   52.34    3.50
   0   9  -7    4.19    0.89
   0   9   7    2.31    0.76
   0  -9   7    2.20    0.78
   0  -9  -7    3.27    0.87
   0   9   7    2.27    1.61
   0  -9   7    3.04    0.79
   0  -9   7    3.98    2.33
   0  -9  -7    2.68    1.34
   0   9  -8    9.94    1.52
   0  -9  -8   14.55    1.68
   0  -9   8   16.07    1.71
   0  -9   8   12.38    1.47
   0   9   8   11.76    2.77
   0   9   8   13.51    1.58
   0   9   9    9.90    1.47
   0  -9   9    9.97    1.23
   0   9   9    4.87    2.52
   0  -9   9   12.14    1.59
   0   9  -9    6.96    1.40
   0  -9  -9    6.07    1.31
   0   9 -10    0.93    1.01
   0  -9  10    1.83    0.71
   0  -9 -10    2.44    1.03
   0   9  10    1.25    0.94
   0  -9  10    1.08    1.02
   0   9  10    0.63    1.85
   0  -9  11  178.59   10.44
   0  -9 -11  204.02   11.62
   0   9 -11  186.31   11.54
   0  -9  11  190.14   11.45
   0  -9  11  213.73   14.77
   0   9  11  226.13   11.69
   0  -9 -12   34.94    3.45
   0  -9  12   41.42    3.53
   0   9  12   40.10    3.47
   0  -9  12   32.47    5.23
   0   9 -12   34.96    3.50
   0   9 -13    0.91    1.23
   0   9  13   -2.24    1.12
   0  -9  13   -0.29    1.20
   0  -9  13   -0.80    2.24
   0  -9 -13    0.29    1.25
   0   9  14   19.19    2.43
   0  -9  14   13.50    2.16
   0   9 -14   14.74    2.46
   0  -9  14   15.53    4.01
   0  -9 -14   20.26    2.59
   0  -9 -15    6.77    1.86
   0   9  15    6.29    1.64
   0  -9  15    4.18    2.67
   0   9 -15    3.15    1.65
   0  -9  15    5.76    1.60
   0  -9 -16    0.36    1.62
   0  -9  16    3.66    1.39
   0   9 -16    0.74    1.67
   0   9  16    2.13    1.13
   0   9  17   30.96    3.69
   0  -9  17   33.81    3.97
   0  -9  18   98.36    7.50
   0   9  18   88.30    7.20
   0  -9  19    0.90    1.88
   0   9  19    1.76    1.71
   0  -9  20   22.19    3.64
   0   9  20   17.37    3.27
   0   9  21    7.08    2.45
   0  -9  21    6.16    2.56
   0  -9  22   16.01    3.45
   0   9  22   11.83    3.04
   0   9  23   58.18    6.30
   0  -9  23   51.61    6.02
   0   9  24    2.38    2.15
   0  -9  24    1.22    2.20
   0 -10   0  280.30   17.47
   0 -10   0  254.06   17.30
   0 -10  -1  163.86   12.40
   0 -10   1  181.13   12.68
   0 -10   1  175.41   12.60
   0 -10  -1  173.65   12.30
   0 -10   2  102.99    8.86
   0 -10   2  116.28    9.24
   0 -10  -2  108.64    8.69
   0 -10   3    2.40    1.69
   0 -10  -3    0.50    1.40
   0  10   3    0.58    1.78
   0 -10   3    1.91    1.87
   0 -10   4    9.16    0.75
   0 -10   4   14.65    2.88
   0  10  -4    9.12    0.75
   0 -10  -4   11.78    2.61
   0  10   4    8.16    2.61
   0 -10   4    9.88    2.78
   0 -10   5    8.29    0.91
   0  10   5    7.67    2.39
   0 -10  -5    7.53    2.01
   0 -10   5    8.12    2.47
   0  10   5    9.62    0.90
   0  10  -5   10.08    0.98
   0 -10  -5    8.29    0.86
   0 -10   5   16.39    3.46
   0 -10   6  154.20    9.31
   0 -10  -6  159.76    8.70
   0 -10  -6  167.35   10.91
   0  10  -6  165.77    8.79
   0 -10   6  140.20    8.72
   0  10   6  160.85    8.76
   0  10   6  153.57   11.68
   0 -10   6  167.70   12.47
   0 -10   7    1.46    1.86
   0  10   7   -0.13    0.62
   0 -10   7    0.41    0.56
   0 -10  -7    0.64    0.59
   0  10  -7    0.14    0.59
   0  10   7    0.62    1.97
   0 -10   7    1.08    0.79
   0  10   8  215.11   13.51
   0  10   8  233.56   16.51
   0 -10   8  216.28   16.71
   0 -10   8  246.28   13.71
   0 -10   8  263.69   13.75
   0 -10  -8  240.80   13.62
   0  10  -8  284.91   13.85
   0  10   9   54.43    4.14
   0  10  -9   54.28    4.13
   0 -10   9   56.28    3.92
   0  10   9   48.45    6.08
   0 -10  -9   61.99    4.20
   0 -10   9   70.32    4.42
   0 -10  10  176.99    9.44
   0  10 -10  159.81    9.92
   0 -10  10  170.88   10.04
   0 -10 -10  152.71    9.79
   0  10  10  167.76   10.00
   0 -10  11   18.13    1.73
   0  10  11   24.71    2.56
   0 -10 -11   23.77    2.44
   0  10 -11   21.44    2.48
   0 -10  11   22.97    2.54
   0 -10  12   14.07    2.01
   0 -10  12   18.48    4.33
   0 -10 -12    9.69    1.82
   0  10  12   13.26    1.94
   0  10 -12   12.97    2.13
   0  10  13    1.44    0.95
   0 -10  13    3.46    2.74
   0 -10  13    0.59    1.09
   0 -10 -13    1.39    1.27
   0  10 -13    0.58    1.25
   0  10 -14    5.29    1.70
   0 -10  14    9.29    1.95
   0 -10  14    5.30    2.72
   0  10  14    6.92    1.78
   0 -10 -14    5.40    1.74
   0 -10 -15   -0.32    1.52
   0 -10  15   -0.35    1.32
   0  10 -15    2.00    1.60
   0  10  15   -0.34    1.45
   0 -10  15   -1.80    3.05
   0 -10 -16    6.85    2.06
   0  10 -16    9.25    2.34
   0 -10  16   11.57    2.26
   0  10  16   14.30    2.51
   0 -10  17    3.23    1.61
   0  10  17    1.18    1.57
   0 -10  18  111.24    8.43
   0  10  18  111.48    8.42
   0 -10  19   -1.88    2.40
   0  10  19    0.91    1.90
   0 -10  20    9.43    2.73
   0  10  20    7.23    2.42
   0 -10  21    0.52    2.08
   0  10  21    0.51    2.11
   0  10  22   -0.54    2.13
   0 -10  22    1.65    2.29
   0 -10  23    3.48    2.36
   0  10  23    0.56    2.14
   0  10  24    0.59    2.23
   0 -11   0   -0.66    1.69
   0 -11   0    0.63    1.69
   0 -11   1  208.61   14.58
   0 -11   1  184.94   14.23
   0 -11  -1  209.29   14.40
   0 -11  -1  221.05   14.85
   0 -11   2    1.36    1.73
   0 -11  -2    4.10    2.25
   0 -11   2    1.34    1.61
   0 -11  -2    2.90    1.91
   0 -11  -3   41.62    5.22
   0 -11   3   33.88    4.70
   0 -11  -3   37.06    4.53
   0 -11   3   32.33    4.90
   0 -11   4    1.33    1.70
   0 -11  -4   -0.53    1.48
   0  11   4    0.64    1.80
   0 -11   4    2.18    1.95
   0  11   5  229.76   15.31
   0 -11   5  256.80   16.38
   0 -11   5  230.25   15.46
   0 -11  -5  267.86   14.95
   0  11  -5  203.93   11.34
   0 -11   5  219.94   11.38
   0 -11  -6    9.79    0.92
   0 -11   6    2.33    2.13
   0  11   6    8.66    0.92
   0  11  -6   11.32    1.03
   0 -11   6    5.55    2.47
   0  11   6    1.97    1.98
   0 -11  -6    4.26    1.93
   0 -11   6    8.75    0.97
   0 -11  -7  113.73    6.49
   0 -11   7  117.49    7.14
   0 -11   7  110.53    9.71
   0  11  -7  108.13    6.53
   0  11   7  113.30    6.53
   0 -11   7   98.30    9.79
   0 -11   7  114.02    6.60
   0 -11   8   36.04    2.95
   0 -11   8   31.45    2.70
   0 -11   8   28.69    5.10
   0 -11  -8   38.72    2.75
   0  11  -8   33.13    2.71
   0  11   8   38.57    2.79
   0  11  -9   37.90    3.24
   0  11   9   41.84    3.30
   0 -11  -9   40.12    3.22
   0 -11   9   42.39    3.34
   0 -11   9   35.30    5.64
   0  11 -10  159.33   10.40
   0 -11  10  177.39   10.15
   0 -11 -10  185.79   10.50
   0 -11  10  170.16   10.48
   0 -11  11   69.13    4.27
   0 -11 -11   66.92    4.82
   0  11 -11   68.60    4.95
   0 -11  11   63.76    4.91
   0  11  11   64.46    4.82
   0 -11  12   46.90    3.36
   0 -11 -12   56.06    4.30
   0 -11  12   59.68    4.57
   0  11  12   71.22    4.75
   0 -11  12   51.98    6.98
   0  11 -12   52.35    4.28
   0 -11  13   11.17    3.67
   0 -11  13   14.41    2.25
   0  11 -13    9.05    1.85
   0 -11 -13   10.73    2.02
   0  11  13   12.87    2.10
   0  11  14   45.09    4.29
   0 -11  14   58.19    4.67
   0  11 -14   47.80    4.34
   0 -11 -14   49.13    4.31
   0 -11  14   38.90    6.52
   0  11 -15    2.55    1.46
   0  11  15    4.08    1.78
   0 -11  15    0.70    1.63
   0 -11 -15    1.53    1.50
   0  11 -16   10.91    2.31
   0 -11  16    8.29    2.13
   0  11  16    9.91    2.26
   0  11  17   -0.79    1.64
   0 -11  17   -0.40    1.46
   0 -11  18    0.43    1.94
   0  11  18    2.52    1.79
   0 -11  19   22.49    3.46
   0  11  19   15.18    3.01
   0 -11  20    3.89    2.12
   0  11  20    9.44    2.71
   0 -11  21   46.68    5.46
   0  11  21   53.24    5.58
   0  11  22    4.62    2.29
   0 -11  22   10.57    2.86
   0  11  23    2.13    2.03
   0 -11  23   -3.86    2.39
   0 -12   0  554.82   32.71
   0 -12   0  534.48   32.38
   0 -12   1   15.26    3.51
   0 -12  -1   11.25    3.11
   0 -12  -1   10.33    3.02
   0 -12  -2  102.20    9.06
   0 -12   2  125.16   10.10
   0 -12  -2  100.07    9.39
   0 -12   2  108.94    9.80
   0 -12  -3   81.84    7.83
   0 -12  -3   85.23    8.49
   0 -12   3   91.20    8.78
   0 -12   3  114.00    9.30
   0 -12   4   -0.73    1.86
   0 -12   4   -1.58    2.42
   0 -12  -4    4.57    2.58
   0 -12  -4    1.17    1.93
   0 -12  -5    7.80    2.51
   0 -12   5   10.60    3.21
   0 -12   5   12.50    3.28
   0 -12   6  209.04   14.16
   0 -12   6  197.53   13.36
   0 -12   7   -0.22    0.95
   0 -12   7    2.58    2.64
   0 -12   7    1.52    2.34
   0 -12  -7    1.55    0.60
   0  12  -7    2.42    0.65
   0  12   7    1.17    0.62
   0 -12   7    2.93    0.68
   0  12  -8  166.33    9.27
   0 -12  -8  170.49    9.17
   0 -12   8  166.47    9.79
   0  12   8  152.06    9.15
   0 -12   8  172.96   13.23
   0 -12   8  167.51    9.33
   0 -12   8  151.31   13.11
   0  12   9   75.89    4.64
   0 -12   9   67.12    4.56
   0 -12   9   57.49    4.54
   0 -12  -9   71.24    4.50
   0  12  -9   67.56    4.55
   0  12  10  179.64   10.79
   0 -12 -10  194.89   10.79
   0  12 -10  175.41   10.76
   0 -12  10  201.39   10.80
   0 -12  10  184.71   10.86
   0 -12  11   13.15    1.56
   0 -12  11   11.25    1.80
   0  12 -11   12.29    1.86
   0 -12 -11   12.79    1.78
   0  12  11   14.72    1.98
   0 -12  12    8.02    1.20
   0 -12 -12    9.98    1.71
   0  12 -12   11.04    1.87
   0 -12  12   12.05    1.90
   0  12  12   12.76    1.80
   0  12  13    3.13    1.30
   0 -12  13    1.00    2.69
   0  12 -13    4.64    1.54
   0 -12  13    4.80    1.51
   0  12  14    8.07    1.82
   0 -12  14    7.09    1.76
   0  12 -14    8.13    1.75
   0  12 -15   12.75    2.32
   0  12  15   12.29    2.35
   0 -12  15   10.33    2.15
   0  12  16    2.73    1.54
   0 -12  16    2.45    1.66
   0  12 -16    3.58    1.69
   0 -12  17   12.44    2.54
   0  12  17    6.26    2.07
   0 -12  18    4.44    2.06
   0  12  18    1.97    1.61
   0 -12  19   19.26    3.22
   0  12  19   17.94    3.17
   0  12  20   -0.88    2.16
   0 -12  20   -1.36    2.31
   0  12  21   -0.93    2.01
   0  12  22    4.38    2.27
   0  12  23   -1.02    2.28
   0 -13   0    1.58    2.42
   0 -13   0    0.75    2.20
   0 -13  -1    7.22    2.81
   0 -13   1    3.15    2.23
   0 -13  -1    2.89    1.95
   0 -13   1    2.33    2.55
   0 -13  -2   30.04    4.73
   0 -13   2   32.00    5.08
   0 -13   2   33.75    5.04
   0 -13  -2   24.34    4.61
   0 -13  -3   18.74    3.86
   0 -13   3   27.60    4.63
   0 -13   3   23.96    4.69
   0 -13  -3   21.30    4.33
   0 -13  -4    0.64    2.03
   0 -13   4   -0.79    2.02
   0 -13  -4   -0.82    2.10
   0 -13   4    3.41    2.89
   0 -13   5  159.29   12.77
   0 -13  -5  160.84   13.00
   0 -13   5  153.88   13.07
   0 -13   6    3.61    2.77
   0 -13   6    1.61    2.46
   0 -13   6    2.07    1.13
   0 -13   7  139.48    7.48
   0 -13   7  136.77   11.44
   0 -13   7  131.47   10.76
   0  13  -8   -0.31    0.64
   0 -13   8   -0.83    2.12
   0 -13  -8    0.73    0.55
   0 -13   8   -0.90    1.06
   0  13   8    0.41    0.54
   0 -13   8   -0.96    2.57
   0 -13   8    0.42    0.63
   0 -13   9    2.55    2.79
   0  13  -9    3.30    0.97
   0 -13   9    3.84    1.20
   0 -13   9    2.88    0.89
   0 -13   9   -0.98    3.01
   0  13   9    2.99    0.89
   0  13 -10   20.23    2.16
   0 -13  10   27.16    5.38
   0 -13  10   24.27    4.61
   0  13  10   22.21    2.09
   0 -13  10   20.56    2.20
   0 -13  10   24.03    2.37
   0 -13  11    1.08    0.92
   0  13  11   -0.19    1.01
   0 -13  11   -0.20    1.06
   0  13 -11    0.75    0.97
   0  13  12   13.02    1.91
   0 -13  12    9.25    1.73
   0  13 -12    9.49    1.77
   0  13  13    1.73    1.19
   0 -13  13    1.76    1.25
   0 -13  14   42.50    4.00
   0  13  14   47.70    4.12
   0 -13  15    3.34    1.54
   0  13  15    4.81    1.57
   0  13  16    8.49    2.05
   0  13  17   34.13    3.92
   0  13  18   47.14    4.78
   0  13  19    4.82    2.33
   0 -14   0   34.07    5.48
   0 -14   0   39.54    5.77
   0 -14   1   22.67    4.60
   0 -14  -1   16.47    4.07
   0 -14   1   15.19    3.70
   0 -14  -1   21.12    4.40
   0 -14  -2    3.50    2.78
   0 -14   2    0.85    2.27
   0 -14   2    2.60    2.66
   0 -14  -2    3.76    2.56
   0 -14   3   46.66    6.18
   0 -14   3   37.50    6.05
   0 -14  -3   47.56    6.38
   0 -14  -4   -0.88    2.37
   0 -14   4    0.92    2.59
   0 -14   4    0.86    2.41
   0 -14   5    2.58    2.43
   0 -14   5    1.90    2.91
   0 -14  -5    0.89    2.28
   0 -14   6   28.55    4.90
   0 -14   6   20.45    2.67
   0 -14   6   20.50    4.90
   0 -14  -6   28.01    4.93
   0 -14   7    7.01    3.30
   0 -14   7    0.87    2.35
   0 -14   7    6.30    1.61
   0 -14   8   43.61    3.64
   0 -14   8   39.00    6.67
   0 -14   8   30.99    5.55
   0  14  -9    0.10    0.71
   0 -14   9   -0.90    2.53
   0 -14   9   -0.65    1.01
   0 -14   9    1.05    2.67
   0  14  10    1.06    0.79
   0 -14  10   -1.82    2.79
   0 -14  10   -1.07    3.02
   0  14  11   -0.47    0.95
   0 -14  11    1.86    2.49
   0 -14  12   45.26    6.65
   0  14  12   37.18    3.20
   0  14  13   -0.45    1.36
   0  14  14    0.26    1.23
   0 -15   0    0.92    2.48
   0 -15   0   -0.86    2.75
   0 -15   1   15.21    4.08
   0 -15  -1   10.23    3.77
   0 -15   1   16.48    4.38
   0 -15   2   17.22    4.13
   0 -15   2    9.25    3.75
   0 -15  -2   16.82    4.47
   0 -15  -3   32.86    5.66
   0 -15   3   29.57    5.63
   0 -15   3   26.41    5.11
   0 -15   4   10.81    4.52
   0 -15  -4   10.39    3.71
   0 -15   4    9.12    3.14
   0 -15  -5    2.86    2.94
   0 -15   5   12.92    4.01
   0 -15   5    9.09    4.13
   0 -15   6   50.82    7.48
   0 -15   6   44.59    4.24
   0 -15   6   66.55    7.70
   0 -15  -6   53.94    7.11
   0 -15   7    3.19    3.38
   0 -15   7    0.85    1.20
   0 -15  -7    3.88    2.85
   0 -15   7    0.93    2.51
   0 -15   8    4.35    3.20
   0 -15   8    1.88    2.52
   0 -15   8    0.26    1.07
   0 -15   9    2.85    2.42
   0 -15  10    0.96    2.16
   0 -15  11    6.81    3.52
   0 -15  12   -0.98    2.89
   0 -15  13   67.79    8.53
   0 -15  14    1.01    2.56
   0 -16   0    3.94    3.35
   0 -16  -1   14.88    4.18
   0 -16   1   12.74    4.05
   0 -16   2   25.32    5.40
   0 -16  -2   26.89    5.44
   0 -16  -3   59.93    7.64
   0 -16   3   52.21    7.34
   0 -16  -4    5.03    3.31
   0 -16   4    0.97    2.61
   0 -16   5   33.18    5.74
   0 -16  -5   31.43    5.94
   0 -16   6    4.92    3.01
   0 -16  -6    2.04    2.75
   0 -16   6    2.90    1.55
   0 -16  -7    6.16    3.27
   0 -16   7    3.97    3.05
   0 -16   8   61.01    7.89
   0 -16   9    7.02    3.32
   0 -16  10    1.01    2.57
   0 -16  11    6.13    3.48
   0 -16  12    3.08    2.90
   0 -16  13    3.11    3.17
   0 -17   0   -1.05    2.52
   0 -17   1   44.83    6.78
   0 -17  -1   37.81    6.52
   0 -17  -2    1.05    2.68
   0 -17   2    9.35    3.95
   0 -17   3   36.16    6.45
   0 -17  -3   50.61    7.37
   0 -17   4   20.54    4.99
   0 -17  -4   11.70    3.91
   0 -17   5    2.07    2.78
   0 -17  -5   -1.07    3.28
   0 -17   6   -2.08    3.05
   0 -17  -6    1.08    3.03
   0 -17  -7   11.87    4.11
   0 -17   7    4.17    2.96
   0 -17   8    6.36    3.38
   0 -17   9    1.06    2.84
  -1   0  25   -0.61    2.00
  -1   0  24    0.57    2.27
  -1   0  23    1.62    1.52
  -1   0  22   70.57    6.46
  -1   0  21    1.45    1.79
  -1   0  20  233.58   14.86
  -1   0  19    1.29    1.41
  -1   0  18   71.73    5.99
   1   0 -17   -1.38    1.75
  -1   0  17    0.38    1.24
  -1   0  16   42.86    4.05
   1   0 -16   44.72    4.54
  -1   0  15    0.66    0.88
   1   0 -15   -0.42    1.51
  -1   0  14   38.08    3.62
   1   0 -14   40.23    4.11
  -1   0  13   -0.28    0.72
   1   0 -13    1.88    1.19
   1   0 -12  654.03   35.78
  -1   0  12  638.61   35.08
   1   0 -12  664.51   34.92
   1   0 -11    0.33    1.16
   1   0 -11    2.11    0.93
  -1   0  11   -0.24    0.75
   1   0 -10   78.05    5.60
   1   0 -10   97.72    6.48
  -1   0  10   86.79    5.76
   1   0  -9    0.38    0.70
   1   0  -9   -0.29    0.94
  -1   0   9   -0.19    0.63
   1   0  -8 1527.74   77.47
  -1   0   8 1429.88   76.70
   1   0  -8 1506.36   76.80
  -1   0   7   -0.30    0.46
   1   0  -7   -0.64    0.64
   1   0  -7   -0.94    1.04
  -1   0   6  577.51   30.44
   1   0  -6  580.90   30.98
   1   0  -5    0.10    0.44
  -1   0   5    0.11    0.42
   1   0  -4    5.83    0.79
  -1   0   4    4.90    0.79
  -1   0   3    1.01    0.34
   1   0  -3    0.21    0.33
  -1   0   2   22.63    1.59
   1   0  -2   25.17    1.61
  -1   0  -1    0.25    0.22
  -1   0  -1    0.33    0.20
  -1   0  -2  385.71   19.41
   1   0   2  358.16   19.38
   1   0   3   -0.09    0.34
  -1   0  -3    0.25    0.36
   1   0   4 8947.19  449.83
  -1   0  -4 8682.31  449.75
  -1   0  -5    0.40    0.56
   1   0   5   -0.15    0.50
   1   0   6  325.51   16.51
  -1   0  -6  274.24   16.16
   1   0   7    0.44    0.63
  -1   0  -7    0.18    0.64
  -1   0  -8  242.28   13.05
   1   0   8  207.41   12.50
   1   0   8  240.28   13.37
   1   0   9    0.18    0.63
   1   0   9    0.30    0.77
  -1   0  -9   -0.23    0.73
   1   0  10  158.26   10.70
  -1   0 -10  182.00   10.45
   1   0  10  166.95    9.97
  -1   0 -11    0.56    0.88
   1   0  11    0.22    0.73
   1   0  12    5.11    1.33
  -1   0 -12    4.83    1.42
   1   0  12    2.99    1.33
   1   0  13    0.26    0.93
   1   0  13    0.47    1.13
  -1   0 -13    0.33    1.17
  -1   0 -14  100.97    7.37
   1   0  14  105.08    8.34
   1   0  15   -0.56    1.57
  -1   0 -15   -0.37    1.26
   1   0  16    4.19    1.61
  -1   0 -16    0.79    1.38
   1   0  17    1.27    1.53
   1   0  18    6.96    2.00
   1   0  19   -0.43    1.42
   1   0  20   20.39    3.18
   1   0  21   -0.48    1.68
   1   0  22   25.27    3.76
   1   0  23   -0.54    1.82
   1   0  24   50.42    5.65
   1   0  25   -1.77    2.24
  -1  -1  25   12.75    3.40
  -1  -1  24   94.70    8.18
  -1  -1  23    8.66    2.55
  -1  -1  22    2.05    1.94
  -1  -1  21   65.54    6.04
  -1  -1  20   30.09    3.73
  -1  -1  19  281.77   17.27
  -1  -1  18   16.12    2.53
  -1  -1  17   78.01    6.22
   1  -1 -17   78.08    6.73
  -1  -1  16  196.69   12.75
   1  -1 -16  215.56   13.45
  -1  -1  15   20.14    2.55
   1  -1 -15   18.43    3.07
  -1  -1  14   19.28    2.39
   1  -1 -14   18.71    2.81
   1  -1 -13    2.25    1.47
  -1  -1  13    3.11    1.11
   1  -1 -12   52.40    3.63
   1  -1 -12   46.11    4.35
  -1  -1  12   44.61    3.94
   1   1 -12   48.48    4.06
  -1  -1  11  289.93   15.89
   1   1 -11  279.70   16.06
   1  -1 -11  305.38   16.67
   1  -1 -11  258.58   15.32
   1  -1 -10    7.77    1.19
   1  -1 -10   13.24    2.01
   1   1 -10    8.53    1.58
  -1  -1  10    4.71    1.15
   1  -1  -9  669.07   35.42
   1  -1  -9  606.87   34.35
  -1  -1   9  663.55   34.75
   1   1  -9  716.48   35.18
   1   1  -8  442.05   21.74
   1  -1  -8  356.54   20.86
   1  -1  -8  410.60   21.97
  -1  -1   8  396.18   21.21
   1  -1  -7    7.04    1.33
  -1  -1   7    4.20    0.89
   1   1  -7    6.36    1.32
   1  -1  -6   18.37    2.07
  -1  -1   6   19.64    1.74
   1   1  -6   19.02    2.02
   1  -1  -5   48.07    3.04
  -1  -1   5   47.47    3.07
   1   1  -5   39.33    3.27
  -1  -1   4   41.46    2.70
   1  -1  -4   39.44    2.63
   1  -1  -3  498.05   27.04
  -1  -1   3  546.17   27.12
   1  -1  -2   33.05    1.98
   1  -1  -2   28.44    2.08
  -1  -1   2   30.43    1.96
  -1  -1   1    1.71    0.36
   1  -1  -1   14.34    0.96
   1  -1   0   -0.05    0.12
  -1  -1  -1   71.71    3.25
   1  -1   1   59.87    3.18
  -1  -1  -2  107.03    5.78
   1  -1   2  108.97    5.81
   1  -1   2   99.37    5.68
  -1  -1  -3   61.02    3.73
   1  -1   3   63.23    3.79
   1  -1   4  492.87   27.56
  -1   1  -4  556.26   27.29
  -1  -1  -4  510.21   27.52
   1  -1   5    4.44    0.86
  -1  -1  -5    7.91    1.05
   1  -1   6   86.49    5.45
  -1  -1  -6   78.60    5.23
   1  -1   7    4.02    1.02
  -1  -1  -7    3.44    0.86
   1  -1   8   21.48    2.27
  -1  -1  -8   24.84    2.34
   1  -1   8   25.57    2.57
   1   1   8   22.69    1.82
   1  -1   9  224.21   14.04
  -1  -1  -9  249.96   13.78
   1  -1   9  222.34   13.59
   1   1   9  245.88   13.02
   1  -1  10  224.78   14.34
  -1  -1 -10  259.42   14.03
   1   1  10  234.63   13.16
   1  -1  10  236.94   13.87
  -1  -1 -11  585.69   30.35
   1   1  11  512.57   29.37
   1  -1  11  572.05   31.06
   1  -1  11  591.76   30.36
  -1  -1 -12   37.03    3.42
   1   1  12   31.07    2.67
   1  -1  12   30.48    3.27
   1  -1  12   29.47    3.63
   1  -1  13   17.92    3.14
   1  -1  13   24.19    2.88
  -1  -1 -14    1.04    1.22
   1  -1  14    1.54    1.45
   1  -1  14    4.06    1.50
  -1  -1 -15    2.97    1.64
   1  -1  15    1.42    1.28
   1  -1  15    1.67    1.25
   1  -1  16    5.98    1.87
  -1  -1 -16    9.06    2.09
   1  -1  17   57.80    6.19
   1  -1  18    0.41    1.43
   1  -1  19   18.10    2.96
   1  -1  20   26.26    3.59
   1  -1  21   13.44    2.76
   1  -1  22   -1.01    1.55
   1  -1  23    0.54    2.03
  -1   1 -23    1.39    1.35
   1  -1  24   -0.56    2.13
   1  -1  25    1.18    2.23
  -1  -2  25    7.98    3.09
  -1   2  25    2.46    2.23
  -1  -2  24    1.15    1.83
  -1   2  24    0.58    1.84
  -1   2  23    0.54    2.01
  -1  -2  23    0.54    2.00
  -1  -2  22   38.35    4.77
  -1   2  22   51.73    5.27
  -1   2  21   30.56    4.18
  -1  -2  21   47.51    4.74
  -1   2  20   51.57    5.11
  -1  -2  20   49.26    5.06
  -1  -2  19   19.83    2.88
  -1   2  19   21.12    2.97
  -1  -2  18    6.88    1.77
  -1   2  18    4.85    1.44
  -1   2  17   81.93    6.30
   1  -2 -17   73.98    6.60
   1   2 -17   76.58    6.64
  -1  -2  17   77.13    6.24
  -1  -2  16   66.18    5.52
   1  -2 -16   61.34    5.88
  -1   2  16   70.98    5.61
   1   2 -16   77.05    6.27
   1  -2 -15   57.26    5.06
  -1  -2  15   51.17    4.46
  -1   2  15   48.73    4.42
   1   2 -15   50.26    4.86
  -1   2  14    1.52    0.93
   1   2 -14   -0.40    1.39
   1  -2 -14    1.18    1.54
  -1  -2  14    2.45    1.01
  -1   2  13  464.12   25.94
   1  -2 -13  466.78   26.53
   1   2 -13  468.86   26.57
  -1  -2  13  480.10   25.99
  -1  -2  12    1.82    0.86
  -1   2  12    1.55    0.96
   1  -2 -12    0.35    0.99
   1   2 -12    1.40    1.26
   1  -2 -11   35.57    3.51
   1  -2 -11   36.21    2.56
  -1  -2  11   37.57    3.19
   1   2 -11   32.91    3.51
   1   2 -11   27.70    3.23
  -1   2  11   36.36    3.14
  -1   2  10  403.88   22.42
   1   2 -10  417.93   23.08
   1  -2 -10  402.37   21.73
   1   2 -10  413.59   23.14
   1  -2 -10  406.51   23.10
  -1  -2  10  431.97   22.55
   1   2  -9  428.42   21.71
   1  -2  -9  383.03   21.51
   1  -2  -9  347.13   20.19
  -1   2   9  396.00   20.93
   1   2  -9  380.41   21.50
  -1  -2   9  418.22   21.01
  -1   2   8    2.21    0.74
  -1  -2   8    1.55    0.69
   1   2  -8    1.04    0.94
   1   2  -8    2.60    1.06
   1  -2  -8    2.31    1.07
   1  -2  -7 1043.76   52.30
   1   2  -7  931.63   52.13
   1   2  -7  962.99   52.27
  -1  -2   7 1019.32   51.67
  -1  -2   6  455.66   23.89
   1   2  -6  431.43   24.37
   1  -2  -6  465.86   24.44
   1   2  -6  443.18   24.53
  -1  -2   5  380.61   19.79
   1  -2  -5  366.29   20.18
   1   2  -5  364.21   20.47
   1   2  -4 1049.46   55.29
  -1  -2   4 1046.82   54.59
   1  -2  -4 1069.60   54.51
  -1  -2   3  280.35   14.66
   1  -2  -3  295.58   14.64
   1   2  -3  258.83   15.28
   1  -2  -3  249.43   15.09
  -1  -2   2   69.77    3.98
   1  -2  -2   71.41    3.96
   1   2  -2   71.48    4.62
   1  -2  -2   63.36    4.45
  -1  -2   1   60.97    3.37
   1  -2  -1   60.03    3.35
   1  -2  -1   55.00    3.87
   1  -2   0   41.48    2.43
   1   2   0   43.38    2.87
  -1  -2  -1  738.89   37.26
   1  -2   1  728.55   37.26
   1   2   1  748.27   37.80
   1  -2   1  683.80   37.40
   1   2   2  174.05    9.82
   1  -2   2  170.16    9.29
  -1  -2  -2  177.00    9.28
   1  -2   2  171.70    9.30
   1  -2   3   63.97    3.91
  -1   2  -3   58.00    3.70
  -1  -2  -3   67.07    3.88
   1  -2   3   69.67    3.77
   1  -2   4    6.96    0.96
  -1   2  -4    5.09    0.69
   1  -2   4    6.80    0.73
  -1  -2  -4    6.07    0.88
  -1  -2  -5  732.47   38.29
   1  -2   5  744.92   38.48
  -1   2  -5  726.80   37.90
  -1  -2  -6  576.85   28.71
  -1   2  -6  545.50   28.63
   1  -2   6  544.69   28.86
  -1   2  -6  515.54   28.10
  -1   2  -7  170.32   10.48
   1  -2   7  172.08   10.79
  -1  -2  -7  166.39   10.44
   1  -2   8   72.74    5.31
   1  -2   8   64.09    5.14
  -1   2  -8   70.67    4.98
  -1   2  -8   76.35    4.43
  -1  -2  -8   72.43    5.01
   1   2   9    0.61    0.97
  -1   2  -9    2.36    0.69
   1  -2   9    2.23    1.01
   1  -2   9    0.92    0.87
  -1  -2  -9    2.28    0.94
  -1   2  -9    3.91    1.02
  -1   2 -10  307.92   15.85
  -1   2 -10  253.14   14.74
   1   2  10  280.51   16.29
   1  -2  10  257.10   16.12
   1  -2  10  268.21   15.94
  -1  -2 -10  289.55   15.71
   1  -2  11   86.49    6.70
   1   2  11   76.55    6.52
   1  -2  11   90.12    6.50
  -1  -2 -11   83.73    6.11
  -1   2 -11   93.85    6.30
   1  -2  12    0.86    1.04
   1  -2  12    5.63    1.59
  -1   2 -12    2.41    1.18
  -1  -2 -12    2.40    1.17
   1   2  12    1.29    1.27
  -1  -2 -13  138.22    8.61
   1  -2  13  116.03    8.59
  -1   2 -13  131.99    8.52
   1  -2  13  131.65    9.39
   1   2  14    5.19    1.83
  -1   2 -14    7.65    1.78
   1  -2  14    1.55    1.41
   1  -2  14    2.41    1.50
  -1  -2 -14    6.59    1.73
   1   2  15   34.70    4.37
   1  -2  15   38.50    4.70
   1  -2  15   33.88    4.03
  -1   2 -15   38.20    3.88
  -1  -2 -15   38.09    4.03
   1   2  16    4.20    2.07
  -1  -2 -16    7.84    2.03
   1  -2  16    7.84    2.19
  -1   2 -16    5.89    1.83
   1  -2  16   11.36    2.51
   1  -2  17    5.07    1.88
   1   2  17    5.73    2.11
   1   2  18    9.43    2.35
   1  -2  18   16.76    2.68
  -1   2 -18   13.90    1.88
   1  -2  19   21.52    3.14
   1   2  19   15.97    2.81
  -1   2 -19   13.54    2.08
   1   2  20    3.64    1.92
  -1   2 -20    7.20    1.61
   1  -2  20    6.81    2.24
  -1   2 -21    2.61    1.26
   1  -2  21    3.84    2.08
   1   2  21    0.48    1.69
  -1   2 -22   29.57    3.07
   1   2  22   24.95    3.87
   1  -2  22   37.03    4.44
   1   2  23    8.05    2.49
   1  -2  23    9.08    2.52
   1   2  24   58.61    6.30
   1  -2  24   57.81    6.17
   1  -2  25    1.17    1.93
   1   2  25    2.36    2.29
  -1  -3  25  118.76    9.89
  -1   3  25  118.42    9.89
  -1  -3  24   26.82    4.39
  -1   3  24   23.36    4.14
  -1   3  23   51.46    5.50
  -1  -3  23   48.12    5.47
   1   3 -22    1.37    1.03
  -1   3  22   -1.04    2.02
  -1  -3  22   -1.54    2.05
   1   3 -21   53.38    3.96
  -1   3  21   60.48    5.79
  -1  -3  21   60.48    5.75
   1   3 -20    2.35    0.99
  -1   3  20    1.83    1.41
  -1   3  19    6.48    1.88
  -1  -3  19    5.19    1.73
   1   3 -19    2.27    0.96
  -1   3  18   29.59    3.56
  -1  -3  18   30.88    3.60
   1   3 -18   31.14    2.53
   1  -3 -17    6.31    2.05
  -1  -3  17    4.96    1.83
   1   3 -17    9.03    2.05
  -1   3  17    4.94    1.71
   1   3 -17    6.50    1.14
   1   3 -16  328.76   19.61
  -1  -3  16  327.61   19.05
  -1   3  16  323.02   19.02
   1  -3 -16  320.70   19.48
   1  -3 -15  189.66   12.18
  -1  -3  15  186.64   11.69
   1   3 -15  179.58   12.10
  -1   3  15  185.62   11.64
  -1   3  14  224.40   13.53
   1   3 -14  230.12   14.14
   1  -3 -14  214.99   13.96
  -1  -3  14  229.72   13.59
   1  -3 -13    1.84    1.29
  -1  -3  13    2.56    1.14
  -1   3  13    3.11    1.21
   1   3 -13    2.59    1.45
  -1   3  12  202.98   12.22
   1   3 -12  199.07   12.72
  -1  -3  12  198.95   12.19
   1  -3 -12  223.91   12.99
  -1   3  11   72.48    5.03
   1   3 -11   80.38    5.80
   1  -3 -11   62.78    3.89
   1  -3 -11   69.37    5.39
   1   3 -11   68.79    3.99
  -1  -3  11   73.55    5.07
   1   3 -11   75.82    5.58
   1   3 -10   89.18    6.53
   1  -3 -10   86.15    5.16
  -1  -3  10  100.53    6.21
   1   3 -10   94.55    6.80
   1   3 -10   95.45    5.12
   1  -3 -10   96.68    6.70
  -1   3  10   91.26    6.10
   1   3  -9   87.28    4.42
  -1   3   9   75.91    5.27
  -1  -3   9   73.41    5.28
   1   3  -9   69.97    5.83
   1  -3  -9   74.74    5.75
   1   3  -9   70.82    5.70
   1   3  -8  283.82   16.28
   1   3  -8  298.10   16.75
  -1   3   8  278.81   15.66
  -1  -3   8  269.32   15.63
   1  -3  -8  303.58   16.34
   1  -3  -7   29.03    2.81
  -1  -3   7   31.47    2.52
   1   3  -7   27.86    2.78
  -1   3   7   34.54    2.56
   1   3  -7   29.31    3.11
   1  -3  -6   54.82    3.93
   1   3  -6   47.63    4.21
  -1   3   6   51.83    3.43
  -1  -3   6   49.29    3.42
   1   3  -6   47.96    3.77
  -1   3   5  241.90   13.15
   1  -3  -5  235.54   13.55
   1   3  -5  232.95   13.52
   1   3  -5  231.98   14.06
  -1  -3   5  259.94   13.23
  -1   3   4  797.78   40.35
   1  -3  -4  772.93   41.24
  -1  -3   4  766.00   40.34
   1   3  -4  761.62   40.23
   1   3  -4  718.60   41.24
   1  -3  -4  810.68   40.26
  -1   3   3    3.95    0.65
  -1  -3   3    5.15    0.69
   1  -3  -3    3.62    0.99
   1   3  -3    5.27    0.69
   1   3  -3    7.17    1.50
   1  -3  -3    5.77    0.69
   1  -3  -2 4833.94  228.27
  -1   3   2 4551.63  227.08
  -1  -3   2 4538.32  227.10
   1  -3  -2 4249.32  227.05
   1   3  -2 4363.07  227.11
   1  -3  -1    2.10    0.37
   1   3  -1    2.57    0.41
   1  -3  -1    2.53    0.83
   1   3   0  120.90    7.41
   1   3   0  122.08    6.62
   1  -3   0  127.93    6.62
   1  -3   0  119.04    7.61
   1   3   1  814.20   43.30
   1   3   1  815.50   44.02
   1   3   1  854.35   44.24
   1  -3   1  851.98   43.32
  -1   3  -1  849.37   43.32
  -1  -3  -1  863.85   43.32
  -1  -3  -2 1252.92   63.69
   1   3   2 1355.51   64.30
   1  -3   2 1148.51   63.72
  -1   3  -2 1291.63   63.73
   1   3   2 1237.24   63.75
   1  -3   2 1234.35   63.91
   1   3   2 1201.46   64.65
   1  -3   3  165.60    9.47
   1   3   3  192.79   10.40
   1   3   3  183.35    9.66
   1   3   3  169.97    9.48
  -1   3  -3  163.14    9.40
   1  -3   3  173.93    9.41
  -1  -3  -3  176.06    9.39
   1  -3   4   75.42    4.58
  -1  -3  -4   73.89    4.72
  -1   3  -4   79.70    4.63
  -1   3  -4   81.00    4.80
   1  -3   4   79.96    4.90
   1   3   4   87.15    4.74
   1   3   4   78.09    5.51
   1   3   4   81.05    4.91
   1   3   5  612.22   34.40
  -1  -3  -5  719.11   34.94
   1  -3   5  679.16   35.09
   1   3   5  674.29   35.09
  -1   3  -5  681.93   34.56
  -1   3  -5  678.94   34.92
   1  -3   5  667.28   34.51
  -1   3  -6  212.56   12.57
  -1  -3  -6  230.06   12.63
  -1   3  -6  210.34   12.15
   1   3   6  215.31   12.84
   1  -3   6  203.79   12.77
  -1   3  -7    4.44    0.72
  -1  -3  -7    3.92    1.04
   1  -3   7    3.15    1.13
   1   3   7    3.43    1.05
   1  -3   7    4.40    1.23
  -1   3  -7    4.16    0.97
  -1   3  -8  261.03   15.75
  -1   3  -8  313.92   15.25
   1   3   8  278.70   16.24
  -1  -3  -8  276.64   15.81
   1  -3   8  268.55   16.20
   1  -3   8  265.99   16.44
   1  -3   9    0.33    1.02
   1  -3   9    2.17    1.02
  -1   3  -9    0.92    0.89
  -1  -3  -9    0.68    0.67
  -1   3  -9    0.56    0.50
   1   3   9    0.93    0.87
   1  -3  10   16.53    2.41
   1  -3  10   16.36    2.38
  -1   3 -10   16.72    2.12
  -1   3 -10   18.60    1.64
   1   3  10   20.24    2.62
  -1  -3 -10   12.80    1.95
  -1   3 -11   55.39    4.55
   1   3  11   59.53    5.20
   1  -3  11   56.00    5.03
  -1  -3 -11   59.92    4.64
   1  -3  11   62.97    5.32
  -1   3 -11   55.08    3.77
   1  -3  12    5.24    1.71
  -1   3 -12    4.81    1.37
   1   3  12    4.38    1.72
  -1   3 -12    4.54    0.91
  -1  -3 -12    3.58    1.28
   1  -3  12    2.44    1.44
   1   3  13   58.17    5.65
  -1   3 -13   58.60    5.06
   1  -3  13   62.31    5.63
  -1  -3 -13   61.85    5.15
  -1   3 -13   71.11    4.32
   1  -3  13   54.67    5.69
   1   3  14   36.45    4.62
   1  -3  14   48.20    4.87
  -1   3 -14   43.78    3.33
  -1   3 -14   48.18    4.37
  -1  -3 -14   44.48    4.27
   1  -3  14   56.29    5.38
  -1   3 -15   43.92    3.38
   1   3  15   40.49    4.83
  -1   3 -15   45.73    4.42
   1  -3  15   53.52    5.10
  -1  -3 -15   43.42    4.37
   1  -3  15   40.91    4.96
  -1  -3 -16   56.93    5.42
  -1   3 -16   71.66    5.76
   1   3  16   70.98    6.63
   1  -3  16   72.16    6.35
  -1   3 -16   54.19    4.26
   1  -3  16   74.30    6.75
   1  -3  17   91.43    6.64
  -1   3 -17   73.14    5.27
   1  -3  17   83.29    7.22
   1   3  17   79.59    6.41
   1  -3  18   12.26    2.42
   1   3  18   11.06    2.33
  -1   3 -18   10.97    1.71
   1  -3  19   25.45    3.51
   1   3  19   27.69    3.63
  -1   3 -19   30.88    2.84
   1  -3  20    2.28    1.61
  -1   3 -20    4.74    1.41
   1   3  20    3.20    1.95
  -1   3 -21    8.27    1.65
   1  -3  21    8.69    2.36
   1   3  21    7.24    2.24
   1  -3  22   12.25    2.88
  -1   3 -22   14.04    2.01
   1   3  23    0.54    1.77
   1  -3  23    0.54    1.76
   1   3  24    2.27    2.31
   1  -3  24    1.69    2.03
   1   3  25   42.59    5.38
   1  -3  25   50.02    5.70
  -1  -4  25   -0.63    2.39
  -1   4  25   -0.63    2.45
  -1  -4  24    2.95    2.14
  -1   4  24    4.72    2.25
  -1  -4  23   12.72    3.04
  -1   4  23   20.11    3.67
  -1   4  22   54.31    5.63
  -1  -4  22   46.53    5.51
  -1  -4  21    6.38    2.08
   1   4 -21    7.92    1.26
  -1   4  21    9.31    2.42
  -1   4  20   51.35    5.17
  -1  -4  20   47.81    5.11
   1   4 -20   50.54    3.51
   1   4 -19   37.14    2.93
  -1   4  19   51.86    4.75
  -1  -4  19   57.02    4.98
   1   4 -18    0.35    0.67
  -1   4  18   -0.81    1.55
  -1  -4  18    0.41    1.35
   1  -4 -17   42.95    4.74
  -1  -4  17   55.72    4.72
   1   4 -17   45.09    3.08
  -1   4  17   43.92    4.38
   1   4 -16   62.03    5.63
  -1   4  16   73.14    5.46
   1   4 -16   54.92    3.70
  -1  -4  16   63.29    5.24
   1  -4 -16   66.39    5.67
   1   4 -15   27.86    2.00
  -1  -4  15   23.77    2.97
   1  -4 -15   25.39    3.52
   1   4 -15   27.62    3.49
  -1   4  15   26.53    3.04
   1   4 -14  191.80   12.61
   1   4 -14  200.31   10.73
   1  -4 -14  169.75   12.36
  -1   4  14  215.65   12.36
  -1  -4  14  211.66   12.35
  -1   4  13    4.54    1.09
  -1  -4  13    4.02    1.21
   1   4 -13    1.82    1.08
   1   4 -13    3.78    0.61
   1  -4 -13    5.79    1.66
   1   4 -12   22.49    1.60
  -1   4  12   21.56    2.44
  -1  -4  12   25.03    2.65
   1  -4 -12   34.33    3.35
   1   4 -12   30.72    3.28
  -1   4  11    4.05    1.81
  -1  -4  11    3.61    1.11
   1   4 -11    5.41    1.57
  -1   4  11    3.79    1.09
   1   4 -11    4.80    0.55
   1  -4 -11    6.65    1.65
  -1  -4  10    0.87    0.70
   1   4 -10   -0.37    1.34
   1  -4 -10    1.46    0.86
   1   4 -10    1.47    0.90
  -1   4  10    0.42    1.01
  -1   4  10    1.29    0.84
   1   4  -9   60.13    4.85
  -1   4   9   70.10    4.58
  -1   4   9   66.77    5.59
  -1  -4   9   59.81    4.44
   1   4  -9   58.44    5.23
   1  -4  -9   69.62    5.03
  -1  -4   8   14.85    2.43
  -1   4   8    9.73    1.41
   1   4  -8   13.98    1.84
   1  -4  -8   13.51    1.85
   1   4  -8   11.00    2.13
  -1  -4   8   12.41    1.49
  -1  -4   7   49.62    4.47
   1   4  -7   45.73    4.22
  -1   4   7   40.21    3.19
   1  -4  -7   51.87    3.81
   1   4  -7   52.00    3.84
  -1  -4   7   42.29    3.24
   1   4  -6   24.07    2.80
  -1   4   6   23.66    1.99
  -1  -4   6   25.38    2.05
   1  -4  -6   22.82    2.28
   1   4  -6   23.91    2.30
  -1  -4   5  213.75   11.18
   1   4  -5  190.09   11.42
   1  -4  -5  204.45   12.27
   1   4  -5  186.77   12.16
   1  -4  -5  179.19   11.35
  -1   4   5  224.12   11.22
  -1   4   4 1625.87   86.23
   1   4  -4 1656.00   87.62
   1  -4  -4 1821.50   87.76
   1  -4  -4 1751.93   86.64
   1   4  -4 1661.05   86.59
  -1  -4   4 1653.23   87.75
  -1  -4   4 1669.87   86.29
  -1   4   3  748.49   37.28
  -1  -4   3  686.63   38.65
   1   4  -3  721.70   37.21
   1  -4  -3  723.52   38.73
  -1  -4   3  713.21   37.29
   1  -4  -3  729.57   37.19
   1   4  -3  641.81   38.48
  -1  -4   2  563.09   32.09
   1   4  -2  582.50   30.69
  -1   4   2  561.67   30.70
   1  -4  -2  641.13   30.71
   1  -4  -2  551.64   32.04
  -1  -4   2  597.31   31.91
  -1  -4   2  612.41   30.76
  -1   4   1   62.16    5.06
   1   4  -1   73.92    3.99
   1  -4  -1   71.58    3.95
  -1  -4   1   76.50    5.27
  -1  -4   1   73.25    5.05
   1  -4  -1   68.79    5.21
   1  -4   0 1477.71   76.48
   1   4   0 1411.43   74.89
   1  -4   0 1514.04   74.89
   1   4   0 1494.34   76.18
   1   4   0 1440.28   76.13
   1   4   1  377.05   19.87
   1   4   1  387.76   21.23
   1  -4   1  369.45   19.87
   1   4   1  435.54   21.09
  -1   4  -1  366.52   19.89
  -1  -4  -1  412.42   19.93
  -1  -4  -2  345.44   18.85
   1   4   2  329.04   19.99
   1  -4   2  351.09   18.93
  -1   4  -2  389.53   18.92
   1   4   2  372.24   18.94
   1   4   2  363.57   19.68
   1  -4   3    1.73    0.56
   1   4   3    1.66    0.75
   1   4   3    1.25    0.47
  -1   4  -3    1.58    0.48
   1  -4   3    1.28    0.47
   1   4   3   -0.51    0.90
  -1  -4  -3    1.04    0.41
  -1   4  -4   95.41    5.67
   1  -4   4  100.03    5.67
  -1  -4  -4   93.81    5.63
   1   4   4  101.94    6.78
   1   4   4  102.68    5.89
   1  -4   4   92.26    5.80
   1   4   4   97.82    5.83
  -1   4  -5  483.85   25.33
   1   4   5  493.18   25.59
   1  -4   5  487.99   25.60
  -1  -4  -5  520.25   25.36
   1   4   5  477.39   26.48
   1   4   5  486.29   25.14
   1  -4   5  428.02   25.01
   1   4   6   24.06    2.34
  -1   4  -6   26.46    1.90
   1  -4   6   23.00    2.30
  -1  -4  -6   23.05    2.10
   1   4   6   27.97    3.05
  -1   4  -6   23.48    2.12
   1  -4   6   21.86    1.77
  -1   4  -7  720.52   38.66
  -1  -4  -7  725.96   39.18
   1  -4   7  678.96   39.54
   1   4   7  701.19   39.56
   1   4   7  705.38   40.33
   1  -4   7  713.16   40.27
   1  -4   7  862.84   38.72
  -1   4  -7  733.71   39.21
  -1  -4  -8   14.81    1.80
  -1   4  -8   16.75    1.46
   1  -4   8   15.83    2.11
   1   4   8   15.65    2.12
  -1   4  -8   12.23    1.77
   1  -4   8   20.82    2.64
  -1   4  -9   51.95    3.09
   1  -4   9   43.29    3.95
  -1   4  -9   38.74    3.47
   1   4   9   45.67    4.04
   1  -4   9   33.72    3.95
  -1  -4  -9   39.95    3.46
  -1   4 -10    5.57    0.94
   1   4  10    3.21    1.37
  -1  -4 -10    4.48    1.25
   1  -4  10    3.21    1.30
  -1   4 -10    4.78    1.21
   1  -4  10    1.65    1.12
  -1  -4 -11  224.36   13.32
   1  -4  11  225.02   14.31
   1   4  11  191.83   13.72
  -1   4 -11  211.45   13.20
   1  -4  11  182.32   13.61
  -1  -4 -12  180.68   11.56
   1  -4  12  171.23   12.21
   1   4  12  185.70   12.41
  -1   4 -12  200.02   10.65
  -1   4 -12  191.74   11.62
   1  -4  12  176.74   12.50
   1  -4  13    4.36    1.84
  -1  -4 -13    3.83    1.49
  -1   4 -13    4.18    1.48
  -1   4 -13    2.69    0.84
   1  -4  13    2.44    1.45
   1   4  13    2.42    1.43
   1  -4  14   22.68    3.39
  -1   4 -14   23.77    2.87
  -1   4 -14   18.32    1.90
   1   4  14   18.92    3.18
  -1  -4 -14   16.75    2.55
   1  -4  14   17.32    3.14
   1  -4  15   -0.56    1.72
  -1   4 -15    2.20    1.49
  -1  -4 -15    0.73    1.20
  -1   4 -15    0.99    0.83
   1   4  15    2.25    1.73
   1  -4  15    1.62    1.52
   1   4  16   26.40    4.14
  -1   4 -16   34.97    3.84
   1  -4  16   37.09    4.74
  -1  -4 -16   28.62    3.53
   1  -4  16   27.79    4.10
  -1   4 -16   28.84    2.64
   1   4  17   59.22    5.30
  -1   4 -17   60.12    4.28
   1  -4  17   66.59    5.42
   1  -4  17   51.34    5.97
  -1   4 -18   10.79    1.64
   1   4  18   15.57    2.64
   1  -4  18    8.18    2.16
   1  -4  19    0.43    1.37
   1   4  19    0.87    1.47
  -1   4 -19    0.39    0.99
   1   4  20   20.24    3.15
   1  -4  20   13.78    2.74
  -1   4 -20   15.03    2.04
   1  -4  21    7.28    2.43
  -1   4 -21   12.09    1.80
   1   4  21   11.19    2.67
   1   4  22    2.57    2.00
   1  -4  22    0.51    1.57
   1   4  23   37.33    4.81
   1  -4  23   36.13    4.68
   1   4  24   66.37    6.65
   1  -4  24   64.46    6.48
  -1  -5  25   30.68    4.67
  -1   5  25   19.14    3.91
  -1  -5  24   -0.61    2.12
  -1   5  24   -0.60    2.51
  -1  -5  23    7.36    2.47
  -1   5  23    5.64    2.46
  -1   5  22   19.68    3.86
  -1  -5  22   24.04    3.80
  -1  -5  21   -0.50    1.58
   1   5 -21    1.07    0.73
  -1   5  21   -0.99    1.84
  -1   5  20    1.40    1.63
  -1  -5  20    1.88    1.74
   1   5 -20    1.05    0.67
  -1  -5  19  103.94    7.68
   1   5 -19   90.22    5.33
  -1   5  19  104.03    7.66
  -1  -5  18  127.31    8.44
   1   5 -18  105.99    6.11
  -1   5  18  114.30    8.18
  -1  -5  17   43.37    4.25
   1  -5 -17   36.85    4.45
   1   5 -17   40.29    2.55
  -1   5  17   40.99    4.22
   1  -5 -16    2.49    1.63
  -1   5  16    5.36    1.56
  -1   5  16    3.23    2.21
   1   5 -16    1.26    1.93
  -1  -5  16    6.51    1.72
   1   5 -16    4.79    0.69
   1  -5 -15    8.32    1.87
   1   5 -15    6.23    0.73
  -1  -5  15    9.42    1.79
   1   5 -15    7.60    1.98
  -1   5  15    7.00    1.66
  -1   5  15    3.07    2.12
  -1   5  14   18.07    3.41
   1   5 -14   10.59    2.39
  -1  -5  14   14.08    2.11
   1   5 -14   10.83    0.90
  -1   5  14   15.11    2.23
   1  -5 -14   15.70    2.69
  -1   5  13  250.67   17.01
   1   5 -13  275.74   15.99
   1  -5 -13  253.26   15.79
  -1  -5  13  269.43   15.49
  -1   5  13  265.06   15.42
  -1  -5  12  169.96   11.06
  -1   5  12  210.47   13.18
   1   5 -12  189.75   11.71
  -1   5  12  184.08   11.15
   1  -5 -12  184.22   11.60
  -1  -5  11    8.01    1.56
   1  -5 -11    5.54    1.61
  -1   5  11    8.56    1.52
  -1   5  11    4.90    1.95
   1   5 -11   10.00    1.86
   1  -5 -10   33.99    2.29
  -1  -5  10   38.44    3.19
  -1   5  10   40.12    4.30
  -1   5  10   41.76    3.26
   1   5 -10   38.77    3.54
   1  -5 -10   38.71    3.55
   1  -5  -9  100.36    6.82
  -1  -5   9  109.32    6.56
   1   5  -9   92.08    7.42
   1   5  -9   95.19    6.77
  -1   5   9  103.12    6.48
  -1  -5   9   95.92    7.91
  -1   5   9  106.36    7.90
  -1  -5   8  318.72   20.62
  -1   5   8  344.12   19.08
   1   5  -8  357.57   20.54
   1  -5  -8  361.34   19.60
   1   5  -8  355.38   19.57
  -1  -5   8  354.36   19.12
  -1  -5   7    3.31    0.90
  -1   5   7    3.85    0.89
   1   5  -7    4.44    1.55
   1  -5  -7    5.94    1.27
   1   5  -7    5.82    1.22
   1  -5  -6   10.25    1.49
  -1   5   6   16.05    1.55
  -1  -5   6   12.99    1.43
   1   5  -6   17.01    2.41
   1  -5  -6   13.18    2.17
   1   5  -6   13.57    1.70
  -1  -5   6   13.89    1.00
   1   5  -5    1.69    1.15
   1   5  -5    0.17    0.65
  -1   5   5    1.26    0.51
   1  -5  -5    1.12    0.70
   1  -5  -5    1.06    1.00
  -1  -5   5    0.36    0.45
   1   5  -4   27.70    3.08
  -1  -5   4   21.93    1.84
  -1  -5   4   25.19    3.03
   1  -5  -4   29.66    3.14
   1  -5  -4   26.92    2.13
   1   5  -4   25.46    2.11
  -1   5   4   25.01    1.86
   1  -5  -3  108.93    7.77
   1  -5  -3  111.71    6.48
   1   5  -3  106.19    6.48
  -1  -5   3  111.06    6.31
  -1   5   3  124.60    6.33
  -1  -5   3  104.98    7.80
  -1  -5   2  183.02   10.85
   1  -5  -2  163.02   10.63
  -1   5   2  182.07    9.03
  -1   5   2  138.29   10.33
   1   5  -2  170.52    8.97
  -1  -5   2  172.22    9.03
   1  -5  -2  159.36    8.92
  -1  -5   2  171.23   10.50
   1   5  -1  628.54   38.03
   1   5  -1  756.65   36.61
  -1  -5   1  579.86   37.93
   1  -5  -1  610.76   38.28
  -1  -5   1  594.31   38.10
   1  -5  -1  738.17   36.57
  -1  -5   0 1794.14   90.44
  -1  -5   0 1489.68   90.15
   1  -5   0 1775.72   90.66
   1   5   0 1862.70   90.31
   1   5   0 1779.06   90.41
   1   5   1  701.10   37.39
   1  -5   1  690.78   36.05
  -1  -5  -1  670.53   37.45
   1   5   1  719.09   37.85
   1   5   1  713.19   36.05
   1  -5   2 1531.92   78.76
   1   5   2 1601.08   80.37
  -1  -5  -2 1467.65   78.66
   1   5   2 1525.73   78.73
   1   5   2 1580.31   79.83
  -1   5  -2 1591.41   78.70
   1   5   3  167.31    8.82
  -1  -5  -3  159.36    8.64
   1   5   3  139.65    9.86
  -1   5  -3  149.30    8.62
   1   5   3  152.14    9.34
   1  -5   3  165.39    8.84
   1  -5   3  167.22    9.05
   1  -5   4  229.68   12.54
   1   5   4  236.82   13.95
  -1  -5  -4  235.50   12.41
   1   5   4  218.18   12.57
   1  -5   4  222.65   12.62
  -1   5  -4  239.94   12.43
   1   5   4  216.62   12.80
   1   5   5   32.56    2.66
   1   5   5   31.37    3.38
  -1   5  -5   35.08    2.44
   1  -5   5   31.91    2.65
   1  -5   5   29.00    2.25
  -1  -5  -5   27.13    2.27
   1  -5   6  177.59   10.31
  -1  -5  -6  181.54    9.96
   1  -5   6  160.64    9.57
   1   5   6  190.47   11.49
   1   5   6  169.98   10.23
  -1   5  -6  178.97    9.94
   1  -5   7   78.21    4.42
  -1  -5  -7   72.65    4.80
  -1   5  -7   70.71    4.81
   1  -5   7   65.95    5.13
   1   5   7   62.71    5.03
   1  -5   7   61.27    5.69
   1   5   7   87.31    6.31
   1   5   8   92.03    6.86
  -1  -5  -8   74.53    5.37
   1  -5   8   89.85    6.12
  -1   5  -8   85.98    5.56
   1  -5   8   75.35    6.47
  -1   5  -8   72.81    4.87
   1  -5   8   84.24    4.89
   1   5   8   90.20    6.03
   1   5   9   14.44    2.81
   1   5   9   12.57    2.18
  -1   5  -9   21.88    1.72
  -1  -5  -9   16.86    2.04
   1  -5   9   23.18    3.23
   1  -5   9   21.09    2.60
  -1   5  -9   17.12    2.10
   1   5  10  259.83   16.98
  -1   5 -10  270.07   16.36
  -1  -5 -10  308.47   16.55
  -1   5 -10  296.42   15.60
   1  -5  10  269.00   17.05
   1   5  10  312.92   18.21
   1  -5  10  304.02   18.05
   1   5  11  118.06    9.50
   1  -5  11  121.96    9.01
  -1   5 -11  132.19    7.47
   1   5  11  126.95    9.05
  -1  -5 -11  129.48    8.35
  -1   5 -11  140.48    8.51
   1  -5  11  116.00    9.36
   1  -5  12  258.31   16.80
   1  -5  12  249.47   16.26
  -1   5 -12  248.55   14.34
  -1   5 -12  282.95   15.63
   1   5  12  279.74   16.54
  -1  -5 -12  286.06   15.63
   1  -5  13   15.87    3.08
  -1  -5 -13   13.23    2.24
  -1   5 -13   14.19    1.53
   1   5  13   10.70    2.53
   1  -5  13   10.25    2.36
  -1   5 -13   13.39    2.25
   1   5  14   26.21    3.89
  -1  -5 -14   34.81    3.66
  -1   5 -14   40.63    2.81
  -1   5 -14   37.23    3.84
   1  -5  14   23.69    3.82
   1  -5  14   31.58    4.38
   1  -5  15    7.78    2.45
  -1  -5 -15    6.15    1.79
  -1   5 -15    6.45    1.17
   1   5  15    3.93    2.30
   1  -5  15    3.93    2.10
  -1   5 -15    7.26    1.97
   1   5  16  114.40    8.01
  -1   5 -16  128.35    6.98
   1  -5  16   96.05    8.94
  -1   5 -16  103.39    8.14
   1  -5  16  105.85    7.90
  -1  -5 -16  100.11    7.96
   1  -5  17    5.42    1.75
   1   5  17    3.08    1.54
   1  -5  17    5.09    2.42
  -1   5 -17    2.44    1.03
   1  -5  18   37.35    3.99
   1   5  18   36.40    3.86
  -1   5 -18   24.20    2.56
   1  -5  18   39.22    5.16
  -1   5 -19   19.77    2.24
   1   5  19   21.30    3.27
   1  -5  19   23.97    3.30
   1   5  20   38.85    4.49
  -1   5 -20   38.10    3.33
   1  -5  20   45.88    4.73
   1  -5  21   15.70    3.04
   1   5  21   13.71    2.86
   1  -5  22   12.37    2.73
   1   5  22    6.69    2.27
   1  -5  23    2.72    2.26
   1   5  23    0.54    1.96
   1   5  24    1.71    2.16
   1  -5  24   -1.14    2.69
  -1  -6  25   10.27    3.36
  -1   6  25   11.48    3.83
  -1   6  24   -0.61    2.59
  -1  -6  24   -0.61    2.81
  -1  -6  23   -2.32    2.15
  -1   6  23   -1.17    2.58
  -1  -6  22   53.58    5.77
  -1   6  22   49.30    5.49
  -1  -6  21   30.88    4.20
  -1   6  21   32.10    4.30
  -1  -6  20    0.48    1.62
  -1   6  20   -1.42    1.66
  -1   6  19  172.82   11.80
  -1  -6  19  178.02   11.86
  -1  -6  18    0.42    1.55
  -1   6  18    1.24    1.61
  -1  -6  17    9.42    2.00
  -1   6  17    8.90    1.91
  -1   6  16   33.86    3.78
   1   6 -16   40.14    4.33
   1  -6 -16   42.31    4.42
  -1  -6  16   40.63    4.03
  -1   6  15   28.21    3.25
   1   6 -15   35.85    3.74
  -1   6  15   21.55    4.22
   1  -6 -15   30.64    3.51
  -1  -6  15   20.50    2.81
  -1   6  14   12.70    2.11
   1   6 -14    7.05    1.76
   1  -6 -14   12.01    2.23
  -1  -6  14   13.26    2.12
  -1   6  14   14.28    3.13
  -1  -6  13  207.68   12.53
  -1   6  13  209.46   14.36
   1  -6 -13  205.18   12.92
   1   6 -13  200.75   12.91
  -1   6  13  211.63   12.52
   1  -6 -12    5.74    1.72
  -1  -6  12    5.89    1.28
  -1   6  12    4.47    2.24
   1   6 -12    5.52    1.54
  -1   6  12    7.89    1.53
  -1   6  11    0.96    0.84
   1  -6 -11    1.77    1.01
   1   6 -11    2.73    1.16
  -1  -6  11    3.19    1.18
  -1   6  11    2.12    1.56
   1  -6 -10  170.13    9.82
  -1  -6  10  177.46   10.58
   1   6 -10  165.64   10.82
  -1  -6  10  176.07   12.44
  -1   6  10  200.07   10.72
  -1   6  10  184.56   12.35
   1  -6 -10  182.09   10.95
  -1   6   9  144.89    8.71
   1   6  -9  131.78    8.96
  -1  -6   9  146.14    8.75
  -1  -6   9  120.17   10.18
   1  -6  -9  152.80    9.11
   1  -6  -9  153.26    8.38
   1  -6  -8    1.44    0.77
   1  -6  -8    1.58    1.08
   1   6  -8    1.15    0.96
  -1  -6   8    0.92    0.72
  -1  -6   8    1.23    0.32
  -1   6   8    1.43    0.76
  -1  -6   7  483.93   24.02
   1  -6  -7  449.51   24.16
   1   6  -7  427.24   25.40
  -1   6   7  508.67   24.07
  -1  -6   7  420.91   23.09
   1   6  -7  435.39   24.15
  -1  -6   6   16.21    1.64
  -1  -6   6   18.40    1.39
   1  -6  -6   14.46    2.42
  -1   6   6   19.06    1.73
   1   6  -6   19.63    2.76
   1   6  -6   15.33    1.81
   1  -6  -6   15.29    1.77
  -1  -6   5   14.79    1.44
   1  -6  -5   15.63    2.50
   1   6  -5   16.29    1.66
  -1   6   5   17.40    1.50
   1  -6  -5   13.30    1.55
  -1  -6   5   19.17    2.83
   1   6  -5   16.26    2.47
   1  -6  -4  339.76   19.35
   1   6  -4  318.66   17.41
  -1  -6   4  325.62   17.20
   1  -6  -4  306.09   17.33
  -1   6   4  340.13   17.19
  -1  -6   4  308.25   19.23
  -1  -6   3  324.75   19.09
   1   6  -3  317.57   17.07
  -1  -6   3  314.52   18.67
   1  -6  -3  304.99   16.98
  -1   6   3  332.68   16.87
  -1   6   3  319.43   18.82
   1  -6  -3  343.04   19.20
  -1  -6   3  320.61   16.87
   1   6  -2   77.22    4.48
   1  -6  -2   80.64    4.44
  -1   6   2   82.22    6.23
  -1  -6   2   74.77    6.10
   1  -6  -2   73.17    6.08
  -1  -6   2   68.11    5.79
  -1  -6   1  291.15   16.10
   1  -6  -1  242.16   15.96
  -1  -6   1  262.89   15.93
   1   6  -1  271.74   15.79
  -1  -6   0  190.92   11.39
  -1  -6   0  160.42   11.10
   1   6   0  170.01   11.13
   1   6   0  188.06   11.09
   1   6   1   39.22    2.28
  -1  -6  -1   46.60    4.11
   1  -6   1   40.08    2.31
   1   6   1   35.08    3.48
  -1  -6  -1   38.43    3.66
   1   6   1   28.85    3.44
   1   6   2   45.36    3.84
   1  -6   2   44.51    2.84
  -1  -6  -2   45.45    2.76
  -1   6  -2   47.71    2.79
   1   6   2   47.38    4.29
   1   6   2   46.59    2.84
   1   6   3  241.28   13.04
   1  -6   3  208.88   11.06
   1  -6   3  207.84   12.81
   1   6   3  212.56   11.04
  -1  -6  -3  218.30   10.85
   1   6   4  286.70   16.28
   1  -6   4  271.88   14.67
   1   6   4  250.70   14.57
  -1  -6  -4  286.15   14.36
   1  -6   4  269.14   16.29
  -1   6  -4  255.03   14.30
   1  -6   4  262.17   14.68
   1  -6   5    2.22    0.76
   1  -6   5    2.32    0.85
  -1  -6  -5    2.03    0.62
  -1   6  -5    2.10    0.65
   1   6   5    3.29    0.85
   1   6   5    3.12    1.56
  -1  -6  -6   29.88    2.43
   1   6   6   31.06    3.57
   1  -6   6   32.23    2.38
   1   6   6   29.45    2.72
  -1   6  -6   31.13    2.47
   1  -6   6   27.31    2.69
   1  -6   7  233.09   14.30
   1  -6   7  266.62   13.60
  -1   6  -7  254.67   13.91
  -1  -6  -7  238.86   13.81
   1   6   7  233.89   14.31
   1   6   7  249.90   15.55
  -1  -6  -8    0.58    0.71
   1  -6   8    1.76    1.09
   1  -6   8    2.90    1.64
   1   6   8    0.29    0.81
  -1   6  -8    0.79    0.83
   1  -6   8    1.51    0.63
   1   6   8    0.46    1.18
  -1   6  -9   40.52    3.46
   1  -6   9   41.54    3.98
  -1  -6  -9   42.90    3.47
   1   6   9   48.21    4.16
   1  -6   9   41.29    2.88
   1   6   9   38.77    4.53
   1  -6   9   42.05    4.67
   1  -6  10   53.42    4.99
  -1   6 -10   52.44    4.31
   1   6  10   63.93    5.88
   1  -6  10   53.66    5.57
   1   6  10   51.04    4.83
  -1  -6 -10   66.01    4.59
   1  -6  11   24.67    3.17
  -1   6 -11   22.87    2.65
  -1  -6 -11   20.04    2.55
   1   6  11   22.10    3.60
   1  -6  11   18.92    3.40
   1   6  11   26.45    3.26
   1  -6  12   41.31    4.32
   1   6  12   36.13    4.09
  -1   6 -12   31.89    2.62
  -1  -6 -12   35.50    3.48
   1   6  12   42.16    4.91
  -1   6 -12   39.74    3.67
   1  -6  12   40.73    4.76
  -1   6 -13    1.38    0.84
   1  -6  13    2.92    1.81
  -1  -6 -13    3.46    1.28
   1   6  13    1.93    1.48
   1  -6  13    0.61    1.64
  -1   6 -13    5.39    1.53
   1   6  14   55.92    4.53
   1  -6  14   55.29    6.09
  -1   6 -14   52.21    4.63
  -1  -6 -14   46.85    4.47
   1  -6  14   52.48    4.48
  -1   6 -14   44.17    3.39
   1  -6  15    0.66    2.09
  -1  -6 -15    1.08    1.33
  -1   6 -15   -1.45    1.51
   1   6  15    0.34    1.07
  -1   6 -15   -0.15    0.78
   1  -6  15   -0.68    1.23
   1  -6  16    4.73    2.23
  -1   6 -16    1.54    1.40
   1   6  16    2.88    1.41
  -1   6 -16    4.10    1.07
   1  -6  16    1.82    1.36
  -1  -6 -16    3.04    1.65
   1  -6  17   27.50    3.45
   1   6  17   32.21    3.59
  -1   6 -17   29.21    2.48
   1  -6  17   20.93    4.23
  -1   6 -18    3.72    1.09
   1  -6  18    2.90    1.62
   1   6  18    4.50    1.78
   1  -6  18    1.43    2.20
  -1   6 -19    6.08    1.30
   1  -6  19    5.28    1.93
   1   6  19    8.73    2.34
   1  -6  20    5.61    2.12
   1   6  20    6.49    2.17
  -1   6 -20    4.68    1.26
   1   6  21    0.49    1.61
   1  -6  21    3.94    1.82
   1  -6  22   43.01    4.92
   1   6  22   37.08    4.64
   1  -6  23   33.84    4.65
   1   6  23   38.54    4.83
   1  -6  24   65.14    6.50
   1   6  24   57.98    6.35
  -1   7  24    1.22    2.74
  -1  -7  24   -1.23    2.22
  -1   7  23    0.58    2.41
  -1  -7  23   -1.76    2.82
  -1  -7  22    2.80    2.24
  -1   7  22    6.62    2.57
  -1   7  21   87.82    7.57
  -1  -7  21   85.21    7.52
  -1  -7  20   15.78    3.08
  -1   7  20   13.59    2.89
  -1   7  19   36.74    4.35
  -1  -7  19   43.38    4.65
  -1   7  18   16.91    2.88
  -1  -7  18   15.49    2.81
  -1   7  17  323.07   19.40
  -1  -7  17  330.71   19.42
   1  -7 -16    1.17    1.59
   1   7 -16    0.40    1.66
  -1  -7  16   -0.37    1.49
  -1   7  16    0.37    1.32
   1   7 -15  519.54   29.30
   1  -7 -15  495.16   29.18
  -1  -7  15  531.31   29.10
  -1   7  15  543.52   29.14
   1  -7 -14  257.53   15.44
   1   7 -14  252.27   15.45
  -1   7  14  255.18   15.20
  -1   7  14  250.63   17.24
  -1  -7  14  259.46   15.25
  -1  -7  13    7.11    1.58
  -1   7  13   11.35    2.81
   1   7 -13    8.46    1.97
  -1   7  13    7.89    1.71
   1  -7 -13    6.58    1.85
  -1   7  12   16.30    2.19
  -1  -7  12   20.04    2.38
   1   7 -12   17.76    2.54
   1  -7 -12   23.02    2.77
  -1   7  12   11.42    2.85
  -1   7  11   90.29    8.05
  -1  -7  11  103.51    6.64
   1  -7 -11   89.73    6.68
   1   7 -11   87.86    6.68
  -1   7  11  101.76    6.54
   1   7 -10    3.49    1.26
  -1  -7  10    5.59    1.25
   1  -7 -10    3.92    1.27
  -1   7  10    4.52    1.22
  -1  -7  10    3.62    1.86
   1  -7 -10    3.68    0.95
  -1   7   9   73.67    4.71
   1  -7  -9   65.12    4.76
   1   7  -9   63.47    4.78
  -1  -7   9   79.38    4.85
  -1  -7   9   58.34    3.53
   1  -7  -9   65.91    4.53
  -1  -7   8   15.93    1.76
   1  -7  -8   14.54    1.86
   1  -7  -8   15.20    1.83
   1   7  -8   16.49    1.95
  -1   7   8   14.26    1.67
  -1  -7   8   12.31    1.09
  -1  -7   7   51.56    3.68
  -1  -7   7   53.73    3.22
   1  -7  -7   48.52    3.74
   1   7  -7   52.92    3.89
   1  -7  -7   52.11    4.07
   1  -7  -7   48.04    5.10
  -1   7   7   49.46    3.62
   1  -7  -6    4.85    1.68
   1   7  -6    6.56    1.13
  -1  -7   6    3.10    1.83
  -1   7   6    7.02    0.96
  -1  -7   6    7.17    0.98
   1  -7  -6    6.06    1.39
   1  -7  -6    5.60    1.05
  -1  -7   5    1.48    1.45
  -1   7   5    2.29    0.58
   1  -7  -5    0.53    0.62
   1   7  -5    1.96    0.74
  -1  -7   5    0.69    0.48
   1  -7  -5    0.47    1.13
   1  -7  -5    1.63    1.06
  -1   7   4   20.44    1.59
   1  -7  -4   24.11    3.21
   1   7  -4   21.78    1.79
  -1  -7   4   21.66    1.65
  -1  -7   4   18.88    2.97
   1  -7  -4   18.82    1.67
  -1   7   4   22.29    3.16
  -1  -7   4   25.58    3.18
   1  -7  -4   22.02    2.54
  -1  -7   3  446.22   21.39
  -1   7   3  442.04   23.96
   1  -7  -3  415.61   21.42
   1  -7  -3  422.70   23.09
  -1  -7   3  416.74   23.64
   1   7  -3  423.06   21.49
  -1  -7   3  429.27   24.10
  -1   7   3  365.70   21.26
   1  -7  -3  355.73   23.53
  -1  -7   2  606.59   35.67
   1  -7  -2  580.48   35.87
  -1  -7   2  707.81   36.33
  -1   7   2  611.78   35.91
   1  -7  -2  697.91   35.56
   1   7  -2  654.27   33.45
   1  -7  -1  960.42   50.88
  -1  -7   1  864.56   50.90
  -1  -7   1 1036.66   51.48
  -1  -7   0    3.87    1.48
  -1  -7   0    1.60    1.18
   1  -7   0    3.32    1.44
  -1  -7  -1  597.24   34.05
   1  -7   1  634.96   34.09
   1   7   1  578.05   33.83
  -1  -7  -1  644.08   33.99
   1   7   2 1700.36   85.31
   1   7   2 1613.72   87.55
   1  -7   2 1636.88   85.33
  -1  -7  -2 1643.46   87.26
   1  -7   2 1650.16   87.79
  -1  -7  -2 1688.99   87.89
   1   7   3   11.13    1.14
  -1  -7  -3    8.49    0.89
   1  -7   3   11.49    1.20
   1  -7   3   18.67    2.75
   1   7   3    9.34    2.18
  -1   7  -3    7.94    0.89
   1   7   4   50.46    4.80
  -1   7  -4   53.30    3.21
   1   7   4   45.53    3.38
   1  -7   4   50.58    4.98
   1  -7   4   48.19    3.59
  -1  -7  -4   48.26    3.13
   1  -7   4   48.51    3.49
  -1   7  -5   16.52    1.46
   1  -7   5   12.13    1.50
   1   7   5   16.07    1.75
   1   7   5   14.28    2.64
   1  -7   5   10.52    2.30
   1  -7   5   11.98    1.53
  -1  -7  -5   14.40    1.39
   1  -7   6    3.32    1.07
   1   7   6    1.83    1.40
  -1  -7  -6    3.06    0.81
   1   7   6    3.42    1.01
  -1   7  -6    3.00    0.77
   1  -7   6    2.57    0.80
  -1  -7  -7    1.78    0.77
   1   7   7    1.01    0.83
   1  -7   7    1.44    0.75
  -1   7  -7    2.18    0.80
   1  -7   7    2.08    0.91
   1   7   7    0.96    1.47
  -1  -7  -8    2.79    0.96
   1   7   8    2.53    1.87
   1  -7   8   -0.59    0.83
  -1   7  -8    1.53    0.89
   1   7   8    0.29    0.89
   1  -7   8    0.27    0.52
  -1   7  -9  425.81   22.69
   1   7   9  446.14   23.55
   1  -7   9  406.89   23.38
   1   7   9  372.29   24.39
  -1  -7  -9  408.47   22.58
   1  -7   9  412.59   21.98
   1  -7   9  405.73   24.92
   1  -7  10   38.35    3.95
   1   7  10   44.18    4.92
  -1  -7 -10   42.41    3.50
   1  -7  10   40.54    5.01
  -1   7 -10   40.09    3.48
   1  -7  10   39.20    2.81
   1   7  10   36.22    3.86
   1  -7  11    4.09    1.54
   1  -7  11    5.59    2.19
   1   7  11    4.12    1.82
  -1  -7 -11    5.68    1.43
  -1   7 -11    5.04    1.40
   1   7  12  205.46   14.40
   1  -7  12  216.75   12.39
  -1  -7 -12  211.68   12.48
   1  -7  12  198.55   14.41
  -1   7 -12  188.37   12.36
  -1   7 -13    1.87    1.22
  -1  -7 -13    0.91    1.19
   1   7  13    2.62    2.22
   1  -7  13    2.02    1.81
   1  -7  13    2.36    1.33
   1   7  13    0.87    1.23
  -1  -7 -14   -0.98    1.33
   1   7  14   -0.31    1.12
   1  -7  14    1.40    2.45
  -1   7 -14    0.33    1.39
   1  -7  14   -0.95    1.23
  -1   7 -15   -1.07    1.51
   1  -7  15   -1.02    1.16
   1   7  15   -0.33    1.17
   1  -7  15    0.72    2.21
  -1  -7 -15   -0.35    1.62
   1   7  16   41.90    4.02
   1  -7  16   36.25    3.86
   1  -7  16   31.72    4.92
  -1   7 -16   32.81    3.86
  -1  -7 -16   37.77    4.01
   1  -7  17   -0.76    2.23
   1   7  17    1.54    1.46
   1  -7  17    0.39    1.56
   1  -7  18   14.63    2.70
   1  -7  18   10.88    3.48
   1   7  18    9.46    2.36
   1   7  19   30.64    3.93
   1  -7  19   43.09    4.53
   1  -7  20    0.47    1.78
   1   7  20    1.85    1.93
   1   7  21    5.38    2.09
   1  -7  21    4.46    2.08
   1  -7  22   23.45    3.69
   1   7  22   14.41    3.17
   1  -7  23    0.55    2.08
   1   7  23    1.62    2.05
   1  -7  24    1.72    2.43
   1   7  24    1.14    2.16
  -1  -8  24   -4.30    3.14
  -1   8  24   -1.79    3.09
  -1  -8  23   -4.12    2.55
  -1   8  23   -3.46    2.36
  -1  -8  22   11.79    2.96
  -1   8  22   12.11    2.98
  -1  -8  21   38.32    4.80
  -1   8  21   41.19    4.99
  -1  -8  20    9.06    2.65
  -1   8  20   10.35    2.69
  -1  -8  19    0.95    1.81
  -1   8  19    1.40    1.77
  -1   8  18    5.27    2.16
  -1  -8  18    5.39    2.07
  -1   8  17   77.94    6.50
  -1  -8  17   77.71    6.50
   1   8 -16   60.45    5.94
  -1  -8  16   90.57    6.54
   1  -8 -16   67.58    6.04
  -1   8  16   86.51    6.35
   1  -8 -15  111.61    8.36
  -1   8  15  135.27    8.66
  -1  -8  15  126.69    8.60
   1   8 -15  113.10    8.45
  -1  -8  14  202.98   12.53
   1  -8 -14  204.24   12.58
  -1   8  14  198.79   12.46
   1   8 -14  197.42   12.56
   1   8 -13   57.54    5.31
  -1  -8  13   73.15    5.48
   1  -8 -13   72.24    5.53
  -1   8  13   74.82    5.49
  -1  -8  12  115.82    7.42
  -1   8  12  110.29    7.25
   1   8 -12  101.08    7.32
   1  -8 -12   98.99    7.21
  -1   8  12  102.74    9.11
   1  -8 -11   12.17    1.99
  -1  -8  11   18.24    2.17
  -1   8  11   15.98    2.08
   1   8 -11   14.02    2.11
   1   8 -10   20.50    2.51
  -1   8  10   20.36    2.30
   1  -8 -10   24.28    2.43
   1  -8 -10   25.89    2.61
  -1  -8  10   24.81    2.51
  -1  -8  10   19.88    3.87
  -1   8   9    2.79    0.85
   1  -8  -9    0.22    0.80
   1   8  -9    2.09    1.00
  -1  -8   9    0.55    0.39
  -1  -8   9    2.71    0.95
   1  -8  -9    2.41    1.08
  -1  -8   8    1.25    0.68
   1  -8  -8    1.06    0.96
   1  -8  -8    1.18    0.82
  -1  -8   8    0.81    0.50
   1   8  -8    0.62    0.90
  -1   8   8    1.55    0.81
  -1  -8   7   17.00    1.49
   1  -8  -7   16.70    3.02
   1  -8  -7   15.01    1.74
  -1  -8   7   11.36    2.85
   1  -8  -7   16.95    2.30
  -1  -8   7   17.05    1.68
  -1   8   7   16.30    1.64
   1   8  -7   14.51    1.77
   1   8  -6  110.62    7.07
  -1   8   6  125.50    7.02
   1  -8  -6  111.73    7.04
  -1  -8   6  130.79    9.68
   1  -8  -6  117.70    8.06
   1  -8  -6  136.01    9.62
  -1  -8   6  122.82    7.03
   1   8  -5   14.98    1.50
  -1  -8   5   15.47    2.81
  -1   8   5   13.31    2.66
   1  -8  -5   12.26    2.64
   1  -8  -5   15.42    2.31
  -1   8   5   10.61    1.19
   1  -8  -5   12.46    1.32
  -1  -8   5   14.04    1.35
  -1  -8   4  627.98   36.42
  -1   8   4  646.38   33.35
  -1  -8   4  650.95   36.10
   1   8  -4  629.40   33.47
   1  -8  -4  643.66   33.40
  -1  -8   4  678.34   33.44
   1  -8  -4  621.73   35.23
   1  -8  -4  592.52   36.22
  -1   8   4  594.35   35.88
   1   8  -3  932.41   49.26
   1  -8  -3  951.02   52.43
  -1  -8   3  895.64   51.87
   1  -8  -3  994.64   49.19
  -1   8   3  986.58   52.27
  -1  -8   3  902.05   52.27
   1  -8  -3  922.78   51.40
  -1  -8   2   71.60    6.56
  -1  -8   2   77.15    6.52
   1  -8  -2   78.32    6.26
  -1  -8   1 1564.46   84.45
   1  -8  -1 1575.78   84.10
  -1  -8   1 1634.52   84.45
  -1  -8   0   68.20    6.20
  -1  -8   0   76.80    6.40
   1  -8   0   76.36    6.30
   1  -8   1  247.79   16.16
  -1  -8  -1  248.63   16.31
  -1  -8  -1  254.14   16.01
   1   8   1  288.41   16.49
   1   8   2  851.52   41.81
  -1  -8  -2  746.89   41.12
  -1  -8  -2  726.89   41.62
   1  -8   2  740.02   41.56
   1  -8   2  746.82   38.51
   1   8   3   31.85    1.93
   1  -8   3   27.83    3.66
   1  -8   3   29.76    1.94
  -1   8  -3   28.19    1.98
   1   8   3   35.99    4.03
  -1  -8  -3   29.06    3.77
   1   8   4  122.90    9.01
  -1  -8  -4  122.38    6.63
   1  -8   4  131.77    9.39
  -1   8  -4  117.97    6.66
  -1  -8  -4  121.41    9.06
   1  -8   4  109.46    6.58
  -1  -8  -5   13.74    1.35
   1  -8   5   16.23    2.92
   1   8   5   12.55    2.56
   1  -8   5   13.59    1.66
  -1   8  -5   14.29    1.40
  -1   8  -6  118.65    7.35
  -1  -8  -6  138.17    7.45
   1  -8   6  129.01    7.65
   1   8   6  115.14    9.42
   1  -8   6  118.69    9.61
   1  -8   7   22.68    2.11
  -1  -8  -7   28.30    2.23
  -1   8  -7   23.17    2.11
   1   8   7   15.63    2.98
  -1   8  -8   89.05    6.12
   1  -8   8  103.66    6.21
   1   8   8   91.49    7.98
   1  -8   8  105.33    6.10
  -1  -8  -8   94.33    6.18
   1   8   9  102.44    6.30
  -1   8  -9   92.54    6.32
   1  -8   9  109.55    6.06
  -1  -8  -9   91.29    6.28
   1  -8   9   92.57    6.23
   1   8   9   90.75    8.13
   1   8  10   18.72    3.42
  -1  -8 -10   18.68    2.22
   1  -8  10   21.76    2.30
   1   8  10   17.40    2.07
   1  -8  10   20.54    3.89
  -1   8 -10   18.93    2.26
   1  -8  10   17.87    1.74
  -1  -8 -11  255.46   14.82
   1  -8  11  256.69   14.75
   1  -8  11  236.85   17.21
  -1   8 -11  264.52   14.89
   1   8  11  253.23   14.71
   1   8  11  261.27   17.30
   1   8  12    1.30    1.02
  -1   8 -12    1.68    1.22
   1  -8  12    0.71    2.10
   1  -8  12    3.48    1.27
   1   8  12    1.98    2.10
  -1  -8 -12    3.01    1.28
   1  -8  13   40.94    3.84
   1  -8  13   52.55    6.17
  -1  -8 -13   41.43    3.94
   1   8  13   39.88    3.80
  -1   8 -13   49.07    4.14
   1   8  14   13.23    2.07
  -1  -8 -14    9.87    2.05
  -1   8 -14   12.68    2.28
   1  -8  14    5.69    1.73
   1  -8  14    9.95    3.47
   1   8  15    1.66    1.33
  -1  -8 -15    3.40    1.45
   1  -8  15    1.70    1.24
  -1   8 -15    3.47    1.56
  -1  -8 -16    3.24    1.54
   1   8  16    2.15    1.50
   1  -8  16    7.20    3.40
   1  -8  16    1.47    1.50
  -1   8 -16    3.31    1.54
   1  -8  17    2.47    2.81
   1  -8  17    7.49    1.98
   1   8  17    8.09    2.12
   1  -8  18   10.44    2.35
   1  -8  18    5.04    2.78
   1   8  18    4.08    1.93
   1   8  19   -1.30    1.73
   1  -8  19    0.44    1.51
   1   8  20  108.18    8.76
   1  -8  20  126.03    9.10
   1   8  21    8.74    2.42
   1  -8  21    3.47    2.40
   1  -8  22   22.97    3.72
   1   8  22   28.66    4.05
   1   8  23   -0.54    1.83
   1  -8  23    3.29    2.33
   1  -8  24    7.50    2.75
   1   8  24    7.36    2.79
  -1  -9  24   10.68    3.18
  -1   9  24   17.95    3.55
  -1   9  23    6.12    2.92
  -1  -9  23    5.13    2.62
  -1  -9  22   18.16    3.56
  -1   9  22   14.38    3.36
  -1   9  21   21.97    3.75
  -1  -9  21   22.73    3.97
  -1  -9  20    2.51    2.21
  -1   9  20    0.49    1.90
  -1   9  19   22.19    3.50
  -1  -9  19   23.21    3.47
  -1   9  18  178.44   12.09
  -1  -9  18  179.76   12.09
  -1  -9  17   41.02    4.35
  -1   9  17   28.97    3.83
   1  -9 -16    5.50    1.89
  -1  -9  16    6.64    1.90
   1   9 -16    4.93    1.95
  -1   9  16    4.57    1.64
  -1   9  15   24.81    3.06
   1  -9 -15   23.49    2.99
   1   9 -15   26.44    3.18
  -1  -9  15   21.44    2.90
  -1   9  14   38.00    3.92
  -1  -9  14   46.41    4.15
   1  -9 -14   37.18    3.89
   1   9 -14   44.29    4.15
  -1   9  13    2.11    1.43
   1   9 -13    3.77    1.54
  -1  -9  13    2.48    1.35
   1  -9 -13    2.71    1.50
   1  -9 -12    7.54    1.79
  -1  -9  12    6.16    1.54
   1   9 -12    4.64    1.60
  -1   9  12    8.90    1.62
   1   9 -11   32.23    3.13
  -1  -9  11   28.55    2.90
  -1   9  11   26.15    2.80
   1  -9 -11   33.79    3.07
   1  -9 -10   20.66    2.35
  -1  -9  10   21.80    2.34
   1   9 -10   16.92    2.28
   1  -9 -10   15.80    2.32
  -1  -9  10   20.49    1.49
  -1   9  10   26.20    2.47
  -1  -9   9   19.46    1.71
  -1  -9   9   27.14    2.38
   1   9  -9   21.20    2.35
   1  -9  -9   20.30    2.32
  -1   9   9   24.26    2.27
   1  -9  -9   24.31    2.81
  -1  -9   8    2.10    0.65
   1   9  -8    3.43    1.07
  -1   9   8    3.86    0.95
  -1  -9   8    2.96    0.93
   1  -9  -8    1.92    1.10
  -1  -9   8    0.68    1.83
   1  -9  -8    1.63    0.84
   1  -9  -8    0.63    1.41
  -1   9   7   25.09    2.25
   1   9  -7   24.73    2.34
   1  -9  -7   37.42    3.58
  -1  -9   7   30.30    2.32
   1  -9  -7   23.45    3.79
  -1  -9   7   33.00    4.64
   1  -9  -7   31.25    2.46
  -1  -9   7   26.78    2.31
  -1   9   6   -0.56    1.34
   1   9  -6    0.82    0.49
   1  -9  -6   -0.61    1.54
  -1  -9   6    0.51    0.55
  -1   9   6    0.35    0.55
  -1  -9   6   -0.64    1.95
   1  -9  -6    0.63    0.57
   1  -9  -6    0.36    0.98
   1  -9  -5   16.93    1.38
  -1   9   5   16.38    3.08
   1  -9  -5   15.80    2.50
  -1  -9   5    7.49    2.14
   1   9  -5   17.46    1.45
   1  -9  -5   10.11    2.66
  -1  -9   5   10.57    1.22
  -1   9   5   11.20    1.18
  -1  -9   5   15.98    3.20
  -1  -9   4  542.57   31.55
   1  -9  -4  516.32   27.90
  -1   9   4  521.87   31.17
  -1  -9   4  563.78   31.28
   1   9  -4  568.89   28.02
   1  -9  -4  540.58   30.36
   1  -9  -4  511.05   31.30
   1  -9  -3   39.29    4.32
  -1  -9   3   42.85    4.78
  -1  -9   3   47.90    5.23
  -1   9   3   40.42    4.78
  -1  -9   2    4.15    1.78
  -1  -9   2    3.83    2.04
   1  -9  -2    6.72    1.92
   1  -9  -1  104.25    7.85
  -1  -9   1   83.73    7.68
  -1  -9   1  103.63    8.08
  -1  -9   0  121.85    9.31
  -1  -9   0  130.82    9.61
   1  -9   0  116.49    9.12
   1  -9   1  800.49   42.48
   1   9   1  750.50   42.13
  -1  -9  -1  747.75   42.07
  -1  -9  -1  734.73   42.33
   1  -9   2  142.86   10.19
   1   9   2  125.66    9.66
  -1  -9  -2  123.62    9.78
   1  -9   3    2.82    0.47
   1   9   3    3.07    1.69
  -1  -9  -3    2.21    1.56
   1  -9   3    3.36    2.02
   1   9   3    2.55    0.39
  -1  -9  -4   -0.56    1.17
   1  -9   4   -0.59    1.42
   1  -9   4   -0.08    0.34
   1  -9   4   -0.58    1.31
   1   9   4    1.56    1.77
   1   9   4    0.14    0.34
  -1   9  -4   -0.17    0.39
  -1  -9  -4    0.15    0.40
  -1   9  -5  339.64   18.61
   1  -9   5  319.90   21.54
   1  -9   5  335.81   19.29
   1   9   5  372.17   18.57
   1   9   5  403.02   21.94
  -1  -9  -5  348.04   21.67
  -1  -9  -5  366.27   18.61
   1  -9   5  328.43   18.55
   1  -9   6   64.73    4.65
   1  -9   6   72.96    4.33
   1   9   6   73.60    6.70
  -1   9  -6   72.59    4.38
  -1  -9  -6   68.01    4.28
   1   9   6   59.68    4.16
   1  -9   6   63.18    6.61
   1  -9   7    9.84    1.37
  -1   9  -7   13.67    1.56
  -1  -9  -7   11.18    1.45
   1   9   7   13.66    2.92
   1  -9   7   11.17    2.80
   1   9   7   14.64    1.49
   1  -9   7    9.73    1.51
   1   9   8   95.35    8.29
  -1   9  -8   92.88    6.12
   1   9   8  102.60    6.10
  -1  -9  -8  105.87    6.24
   1  -9   8   90.52    6.06
   1  -9   8   96.49    6.10
  -1  -9  -9  170.49    9.95
   1  -9   9  168.88    9.68
   1  -9   9  160.47    9.84
   1   9   9  171.47   12.42
   1   9   9  169.81    9.86
  -1   9  -9  168.98    9.96
  -1   9 -10  391.55   22.88
   1  -9  10  415.78   22.91
   1   9  10  418.65   22.87
  -1  -9 -10  441.03   22.99
   1   9  10  426.35   25.78
   1  -9  10  387.98   26.00
   1  -9  10  433.19   22.48
   1   9  11   50.66    3.75
   1  -9  11   41.38    3.04
   1  -9  11   48.58    6.05
   1  -9  11   38.53    3.52
  -1  -9 -11   36.60    3.54
  -1   9 -11   43.33    3.73
   1   9  12   -0.26    1.02
  -1   9 -12    0.27    1.06
   1  -9  12    0.78    2.00
  -1  -9 -12    0.53    1.21
   1  -9  12    1.06    1.10
   1  -9  13    1.62    2.28
   1  -9  13    0.87    1.08
   1   9  13    0.56    0.98
  -1   9 -13    1.48    1.40
  -1  -9 -13    0.86    1.15
  -1   9 -14  123.68    7.90
  -1  -9 -14  103.11    7.54
   1   9  14  104.33    7.51
   1  -9  14  118.44   10.51
   1  -9  14  106.76    7.57
   1  -9  15    8.52    2.00
   1   9  15   10.58    2.02
   1  -9  15    6.80    3.33
  -1   9 -15    8.12    1.99
  -1  -9 -15    5.63    1.76
  -1  -9 -16   14.43    2.47
  -1   9 -16   15.11    2.58
   1  -9  16   19.92    4.61
   1   9  16   14.19    2.47
   1  -9  16   20.83    2.91
   1  -9  17  112.98   11.35
   1  -9  17  134.86    9.21
   1   9  17  130.99    9.08
   1   9  18   24.78    3.43
   1  -9  18   19.89    4.78
   1  -9  18   28.84    3.66
   1   9  19   48.20    5.01
   1  -9  19   54.45    5.29
   1   9  20   37.41    4.42
   1  -9  20   33.31    4.26
   1  -9  21    1.99    1.94
   1   9  21    4.83    2.10
   1  -9  22   32.01    4.42
   1   9  22   29.61    4.16
   1  -9  23   50.91    5.74
   1   9  23   53.89    5.89
   1   9  24    1.14    2.06
  -1 -10  24    7.49    3.03
  -1  10  24    5.61    2.67
  -1  10  23    0.54    2.04
  -1 -10  23    0.55    2.20
  -1  10  22    7.73    2.60
  -1 -10  22    4.23    2.17
  -1  10  21    6.89    2.63
  -1 -10  21    5.05    2.29
  -1  10  20   41.49    4.79
  -1 -10  20   38.86    4.75
  -1 -10  19    0.91    1.88
  -1  10  19    0.44    1.80
  -1 -10  18    3.42    1.99
  -1  10  18    0.42    1.62
  -1 -10  17    0.80    1.67
  -1  10  17   -0.39    1.84
  -1 -10  16   45.25    4.34
   1 -10 -16   44.68    4.31
   1  10 -16   32.40    3.98
  -1  10  16   37.08    4.06
  -1  10  15   35.68    3.72
   1  10 -15   34.60    3.87
  -1 -10  15   39.42    3.91
   1 -10 -15   37.13    3.85
   1  10 -14   12.30    2.30
   1 -10 -14   10.89    2.13
  -1 -10  14    8.91    1.88
  -1  10  14   12.07    2.13
   1 -10 -13   45.58    4.39
  -1 -10  13   47.45    4.26
   1  10 -13   49.06    4.39
  -1  10  13   62.51    4.55
  -1  10  12    3.85    1.29
   1  10 -12    5.82    1.65
  -1 -10  12    5.27    1.44
   1 -10 -12    5.58    1.57
   1 -10 -11    0.97    0.94
  -1  10  11    0.93    0.99
  -1 -10  11    1.52    0.52
  -1 -10  11   -0.24    1.06
   1  10 -11    1.26    1.07
   1 -10 -10  134.66    8.69
   1 -10 -10  142.27    8.14
  -1 -10  10  113.46    7.12
   1  10 -10  120.79    7.99
  -1 -10  10  134.89    8.06
  -1  10  10  154.76    8.21
  -1  10   9    8.72    1.42
  -1 -10   9   13.02    1.62
  -1 -10   9    8.03    1.19
   1 -10  -9   15.12    2.43
   1 -10  -9   13.73    1.74
   1  10  -9   15.35    1.82
  -1 -10   8   17.10    3.71
   1 -10  -8   22.73    2.18
   1  10  -8   26.94    2.30
  -1 -10   8   21.61    2.00
  -1  10   8   25.24    2.20
   1 -10  -8   26.10    3.15
  -1 -10   8   22.37    2.15
   1 -10  -8   17.19    3.74
  -1 -10   7   68.78    4.61
   1 -10  -7   74.68    6.13
   1 -10  -7   72.32    4.66
  -1  10   7   78.33    7.31
  -1 -10   7   83.75    7.76
   1  10  -7   72.94    4.70
   1 -10  -7   78.75    7.45
  -1  10   7   70.81    4.58
   1 -10  -6    1.14    0.57
   1 -10  -6    1.27    1.44
  -1 -10   6   -0.70    1.78
  -1  10   6    2.08    0.66
  -1  10   6    0.61    1.64
   1 -10  -6    2.67    1.88
  -1 -10   6    1.21    1.62
   1  10  -6    1.76    0.69
  -1 -10   6    1.95    0.69
  -1  10   5   28.27    4.33
   1 -10  -5   29.59    4.46
   1  10  -5   35.57    2.32
  -1 -10   5   30.67    4.34
   1 -10  -5   36.44    2.25
  -1 -10   5   31.85    4.58
   1 -10  -5   25.84    3.70
  -1 -10   5   35.15    2.34
   1  10  -4   18.20    1.22
  -1 -10   4   14.48    2.97
  -1 -10   4   20.95    3.76
   1 -10  -4   18.68    3.00
  -1  10   4   13.75    3.18
   1 -10  -3    4.40    1.86
  -1 -10   3    1.26    1.70
  -1 -10   3    2.91    1.57
  -1 -10   2    5.79    1.93
   1 -10  -2    6.64    1.97
  -1 -10   2    7.31    2.39
  -1 -10   1  103.05    8.87
  -1 -10   1  106.58    8.97
   1 -10  -1  123.80    9.11
   1 -10   0   80.16    7.10
  -1 -10   0   69.45    6.88
  -1 -10   0   76.38    7.00
   1 -10   1  120.64    9.74
  -1 -10  -1  132.61   10.09
  -1 -10  -1  124.00    9.66
   1 -10   2   26.56    4.08
  -1 -10  -2   34.14    4.49
   1  10   2   39.02    4.60
  -1 -10  -3   21.53    3.57
   1  10   3   24.33    3.71
   1 -10   3   24.61    3.85
   1 -10   3   20.10    3.72
   1  10   4   21.80    3.60
   1 -10   4   23.18    3.80
   1 -10   4   24.46    1.66
   1 -10   4   28.04    4.18
  -1 -10  -4   22.52    3.66
   1  10   4   24.82    1.58
  -1  10  -5   10.57    1.13
   1 -10   5   10.17    2.92
  -1 -10  -5   13.38    2.96
   1 -10   5    7.31    1.54
  -1 -10  -5    9.72    1.07
   1  10   5   10.50    2.76
   1 -10   5   11.92    2.80
   1  10   5   10.73    1.06
   1 -10   5   10.10    1.08
  -1  10  -6   60.84    3.93
   1 -10   6   53.33    4.33
   1  10   6   65.66    3.93
   1 -10   6   60.87    3.90
   1 -10   6   73.78    7.05
   1  10   6   51.07    6.03
  -1 -10  -6   63.90    3.92
  -1 -10  -6   60.22    6.42
   1 -10   7   45.14    5.79
  -1  10  -7   40.20    3.11
   1 -10   7   48.33    3.59
   1  10   7   43.87    3.09
  -1 -10  -7   41.14    3.09
   1 -10   7   43.58    3.12
   1  10   7   51.14    5.63
   1 -10   8   22.49    2.19
   1 -10   8   15.07    3.88
   1 -10   8   28.17    2.43
  -1  10  -8   22.77    2.26
   1  10   8   27.33    2.28
   1  10   8   22.17    3.97
  -1 -10  -8   26.49    2.34
   1 -10   9   78.89    5.36
   1 -10   9   96.50    5.55
  -1 -10  -9   77.97    5.34
   1  10   9   78.92    5.34
  -1  10  -9   76.07    5.35
   1 -10  10    0.43    0.81
  -1  10 -10   -0.22    0.91
  -1 -10 -10    0.85    0.95
   1 -10  10    0.49    0.73
   1  10  10   -0.20    0.92
   1 -10  11   14.99    3.87
   1 -10  11   14.76    1.63
   1  10  11   12.79    1.89
  -1  10 -11   14.01    1.99
   1 -10  11   14.24    1.95
  -1 -10 -11   13.23    1.98
   1 -10  12    3.43    2.63
  -1 -10 -12    2.58    1.29
   1 -10  12    4.18    0.99
   1 -10  12    1.83    1.26
   1  10  12    1.77    1.04
  -1  10 -12    5.26    1.51
   1  10  13   17.17    2.34
  -1 -10 -13   15.04    2.35
   1 -10  13   15.49    2.25
  -1  10 -13   14.26    2.16
   1 -10  13   15.91    4.32
  -1  10 -14   52.89    4.81
   1 -10  14   58.31    4.91
   1 -10  14   52.24    7.08
  -1 -10 -14   67.43    5.18
   1  10  14   63.58    4.98
  -1  10 -15  262.79   16.72
   1 -10  15  282.01   20.35
   1  10  15  319.16   17.09
   1 -10  15  290.89   16.96
  -1 -10 -15  278.26   16.80
   1 -10  16   46.39    4.48
   1 -10  16   50.53    7.02
  -1 -10 -16   51.38    4.60
   1  10  16   43.14    4.37
   1 -10  17    1.94    1.74
   1  10  17    2.25    1.72
   1 -10  17    0.96    2.81
   1 -10  18    3.71    1.83
   1 -10  18    3.87    3.29
   1  10  18    3.21    1.88
   1 -10  19    2.20    1.95
   1  10  19    1.28    1.70
   1 -10  20    2.35    2.00
   1  10  20    2.73    2.01
   1 -10  21    0.50    1.79
   1  10  21   -1.92    1.91
   1 -10  22    7.41    2.56
   1  10  22    5.64    2.41
   1  10  23   19.16    3.85
   1 -10  23   19.77    3.63
  -1  11  24    2.22    2.21
  -1 -11  23    0.54    2.10
  -1  11  23    1.06    2.05
  -1  11  22    9.05    2.64
  -1 -11  22   19.54    3.44
  -1 -11  21   13.67    3.17
  -1  11  21   12.40    2.91
  -1  11  20   66.90    6.35
  -1 -11  20   73.74    6.51
  -1 -11  19   83.05    6.80
  -1  11  19   73.81    6.63
  -1 -11  18   13.48    2.80
  -1  11  18   14.04    2.73
  -1 -11  17    1.53    1.59
  -1  11  17    2.26    1.57
  -1 -11  16   10.36    2.29
   1 -11 -16   10.12    2.38
   1  11 -16   10.35    2.37
  -1  11  16   10.19    2.21
   1 -11 -15    0.63    1.34
  -1  11  15   -0.98    1.30
   1  11 -15   -0.33    1.30
  -1 -11  15   -0.66    1.51
  -1 -11  14    7.06    1.82
  -1  11  14   10.27    2.00
   1 -11 -14    9.41    2.02
   1  11 -14    9.32    2.06
  -1  11  13    8.31    1.70
   1 -11 -13    5.97    1.60
  -1 -11  13   10.45    1.92
   1  11 -13    4.59    1.71
  -1  11  12    4.53    1.41
  -1 -11  12    6.16    1.42
   1  11 -12    4.20    1.40
   1 -11 -12    4.47    1.37
   1 -11 -11   43.14    3.65
  -1 -11  11   39.63    2.77
  -1 -11  11   45.20    3.69
   1  11 -11   44.61    3.74
  -1  11  11   51.70    3.79
  -1  11  10   -0.61    0.97
   1  11 -10    0.85    1.05
   1 -11 -10   -0.36    1.45
   1 -11 -10    0.20    0.84
  -1 -11  10    0.12    0.64
  -1 -11  10    0.83    0.79
   1 -11  -9   49.51    4.56
  -1 -11   9   36.33    2.87
   1 -11  -9   45.07    3.28
   1  11  -9   36.11    3.15
  -1 -11   9   37.08    3.13
  -1  11   9   48.65    3.34
   1 -11  -8    2.25    2.11
  -1  11   8    2.32    0.81
  -1 -11   8    2.42    2.37
   1 -11  -8    3.92    1.81
  -1 -11   8    2.88    0.92
  -1 -11   8    2.45    0.81
  -1 -11   8    4.84    2.20
   1  11  -8    3.84    0.93
   1 -11  -8    2.10    0.80
  -1 -11   7   30.94    4.76
  -1  11   7   35.17    2.58
  -1 -11   7   33.73    5.44
   1  11  -7   39.53    2.74
  -1 -11   7   34.23    2.64
   1 -11  -7   42.24    5.61
   1 -11  -7   39.17    4.55
   1 -11  -7   36.24    2.59
   1 -11  -6  150.39   12.31
  -1 -11   6  161.85   12.21
   1 -11  -6  161.20    8.72
   1  11  -6  177.30    8.88
   1 -11  -6  156.85   11.24
  -1 -11   6  149.28    8.84
  -1  11   6  147.55   12.03
  -1 -11   6  150.11   12.49
   1 -11  -5   30.45    4.06
  -1  11   5   26.36    4.28
   1  11  -5   29.85    1.89
  -1 -11   5   27.13    4.31
   1 -11  -4   -0.53    1.62
  -1 -11   4   -0.64    1.54
  -1  11   4   -0.66    2.01
  -1 -11   4   -0.72    2.11
  -1 -11   3    3.23    2.05
  -1 -11   3    1.38    1.95
   1 -11  -3    0.55    1.33
   1 -11  -2  151.54   10.95
  -1 -11   2  132.26   10.76
  -1 -11   2  135.72   11.13
  -1 -11   1   56.01    6.18
  -1 -11   1   51.45    5.90
   1 -11  -1   62.38    6.19
   1 -11   0   97.34    8.58
  -1 -11   0  101.43    8.82
  -1 -11  -1  826.16   45.65
   1 -11   1  783.03   45.46
  -1 -11  -2   46.38    5.70
   1 -11   2   37.16    5.23
  -1 -11  -3  136.13   11.26
   1 -11   3  138.37   11.28
   1  11   3  145.65   11.24
   1 -11   3  161.91   11.95
  -1 -11  -4    4.81    2.12
   1 -11   4    5.78    2.61
   1  11   4    5.03    2.57
   1 -11   4    4.20    2.16
   1 -11   5   12.20    1.09
   1  11   5   14.10    1.07
   1 -11   5   15.72    3.59
   1 -11   5   10.94    1.82
  -1 -11  -5    9.09    2.79
   1  11   5   10.20    2.93
   1 -11   5    7.85    2.58
   1  11   6    2.23    0.67
   1 -11   6    1.66    0.99
   1 -11   6    1.55    2.08
  -1  11  -6    2.96    0.72
   1  11   6    1.30    1.91
   1 -11   6    1.47    1.87
  -1 -11  -6    0.86    0.55
   1 -11   6    1.78    0.69
  -1 -11  -6   -0.71    1.90
  -1  11  -7   65.96    4.23
   1 -11   7   60.93    7.16
  -1 -11  -7   59.59    4.10
   1  11   7   64.82    4.19
   1 -11   7   68.44    4.81
   1 -11   7   69.86    4.29
   1  11   8   16.75    1.71
   1 -11   8   15.24    1.67
  -1  11  -8   10.78    1.51
   1 -11   8   11.58    3.59
  -1 -11  -8   16.16    1.74
   1 -11   8   16.74    1.96
  -1 -11  -9   53.54    3.79
   1 -11   9   62.43    4.10
  -1  11  -9   45.84    3.74
   1  11   9   47.13    3.68
   1 -11   9   53.57    3.85
  -1 -11 -10   10.08    1.55
  -1  11 -10    7.43    1.51
   1 -11  10    5.64    1.29
   1  11  10    7.94    1.47
   1 -11  10    6.99    1.41
  -1  11 -11    0.92    1.11
  -1 -11 -11    0.67    1.02
   1 -11  11    0.49    0.81
   1  11  11    1.11    0.96
   1 -11  11    0.46    0.98
   1  11  12   64.97    5.05
  -1 -11 -12   72.55    5.15
  -1  11 -12   64.81    5.11
   1 -11  12   48.55    7.37
   1 -11  12   73.70    4.56
   1 -11  12   70.39    5.15
  -1  11 -13    4.46    1.52
   1 -11  13    1.90    2.81
   1 -11  13    5.31    1.59
   1  11  13    3.80    1.39
  -1 -11 -13    7.22    1.66
  -1 -11 -14    5.50    1.65
  -1  11 -14    5.41    1.81
   1 -11  14    4.59    1.45
   1 -11  14    6.77    3.30
   1  11  14    6.81    1.80
  -1 -11 -15    0.31    1.55
  -1  11 -15   -1.29    1.62
   1  11  15    0.97    1.28
   1 -11  15    0.33    1.32
   1 -11  15    4.94    3.25
   1  11  16   13.51    2.36
   1 -11  16   10.09    3.95
   1 -11  16    5.36    2.04
   1 -11  17   59.18    5.39
   1  11  17   61.43    5.37
   1 -11  17   60.40    8.22
   1 -11  18   14.86    2.82
   1  11  18   12.79    2.63
   1 -11  19   50.35    5.25
   1  11  19   51.86    5.14
   1 -11  20   45.27    5.11
   1  11  20   45.68    5.00
   1  11  21   15.21    3.10
   1 -11  21   15.20    3.39
   1 -11  22   36.02    4.77
   1  11  22   35.93    4.68
   1  11  23   -0.55    2.34
   1 -11  23   -0.57    2.27
  -1  12  23    1.55    2.32
  -1  12  22   -0.99    2.51
  -1 -12  21   17.65    3.33
  -1  12  21   23.89    3.68
  -1 -12  20   78.99    6.96
  -1  12  20   79.89    6.93
  -1  12  19    3.35    1.90
  -1 -12  19    5.96    2.24
  -1  12  18   18.51    2.90
  -1 -12  18   11.58    2.62
  -1  12  17   21.37    3.11
  -1 -12  17   16.42    2.78
  -1  12  16    0.69    1.37
   1  12 -16   -1.00    1.63
  -1 -12  16    0.35    1.41
   1  12 -15   -0.62    1.87
  -1  12  15    0.95    1.55
  -1 -12  15   -0.96    1.77
  -1 -12  14   61.58    4.74
   1  12 -14   51.56    4.54
  -1  12  14   46.53    4.33
   1  12 -13    8.48    1.81
  -1 -12  13    6.49    1.65
  -1  12  13    8.30    1.73
  -1 -12  12   31.78    3.10
   1 -12 -12   33.44    3.10
   1  12 -12   29.97    3.06
  -1  12  12   33.08    3.16
  -1 -12  11    4.30    0.87
  -1 -12  11    3.97    1.27
   1 -12 -11    3.37    1.15
  -1  12  11    4.07    1.28
   1  12 -11    4.48    1.36
  -1 -12  10   77.62    5.15
   1 -12 -10   73.35    4.99
  -1  12  10   86.45    5.18
   1  12 -10   80.05    5.14
  -1 -12  10   65.60    4.67
  -1 -12   9    0.16    0.75
  -1 -12   9   -0.16    0.81
   1 -12  -9   -0.90    1.48
  -1  12   9    1.24    0.72
   1 -12  -9    0.43    0.83
  -1 -12   9    2.28    2.50
   1  12  -9    0.48    0.80
   1 -12  -8   59.70    5.95
  -1  12   8   61.76    4.08
   1 -12  -8   72.15    4.12
  -1 -12   8   63.00    4.51
  -1 -12   8   64.37    7.06
   1 -12  -8   68.87    7.43
   1  12  -8   64.36    4.15
  -1 -12   8   61.05    4.17
  -1 -12   7   73.31    7.57
   1 -12  -7   65.54    4.13
   1 -12  -7   56.25    7.17
   1 -12  -7   75.38    6.73
   1  12  -7   81.74    4.38
   1  12  -6    8.62    0.86
   1 -12  -6   11.98    2.81
  -1 -12   6    9.27    2.74
  -1 -12   5   48.84    6.33
   1 -12  -5   49.63    5.56
  -1 -12   5   49.57    5.97
  -1 -12   4   24.07    4.59
  -1 -12   4   20.41    4.02
   1 -12  -4   28.52    4.28
  -1 -12   3  137.41   11.10
   1 -12  -3  129.49   10.40
   1 -12  -2  273.71   17.52
  -1 -12   2  241.53   17.43
  -1 -12   1   42.67    5.63
   1 -12  -1   51.32    6.03
   1 -12   0  109.86    9.54
  -1 -12   0  108.10    9.62
   1 -12   1   58.76    6.52
  -1 -12  -1   45.67    6.07
   1 -12   1   66.45    6.89
   1 -12   2  337.42   23.10
   1 -12   2  396.42   23.81
  -1 -12  -2  355.83   23.21
   1 -12   3   92.27    9.05
   1 -12   3   96.41    9.02
  -1 -12  -3  108.69    9.46
  -1 -12  -4   22.46    4.07
   1 -12   4   20.45    4.06
   1 -12   4   21.46    4.35
   1 -12   5  149.36    9.77
   1 -12   5  155.43   12.48
  -1 -12  -5  148.97   12.37
  -1 -12  -6    3.07    2.26
   1 -12   6   -0.85    2.28
   1 -12   6    1.57    2.00
   1 -12   6    0.47    0.49
   1 -12   6    0.52    1.05
   1  12   6    1.34    0.43
   1 -12   7    0.88    2.11
  -1  12  -7    1.48    0.69
   1 -12   7    1.61    2.16
  -1 -12  -7    1.09    0.63
   1  12   7    1.49    0.72
   1 -12   7    1.11    0.68
  -1 -12  -7    2.33    2.09
   1 -12   7    2.70    1.16
   1  12   8   34.89    2.72
   1 -12   8   39.24    3.35
  -1 -12  -8   37.50    2.72
   1 -12   8   36.61    2.79
  -1  12  -8   35.43    2.78
   1 -12   8   42.62    6.20
   1 -12   9   69.97    7.97
   1 -12   9   57.54    4.37
   1 -12   9   65.85    4.24
   1  12   9   61.67    4.14
  -1 -12  -9   55.19    4.00
  -1  12  -9   53.22    4.06
   1 -12  10   22.05    2.31
  -1 -12 -10   19.14    2.11
   1 -12  10   17.85    2.19
   1  12  10   22.26    2.34
  -1  12 -10   20.86    2.27
  -1  12 -11   33.85    3.19
   1 -12  11   39.62    3.47
   1 -12  11   36.12    3.05
  -1 -12 -11   35.26    3.18
   1  12  11   45.27    3.49
  -1  12 -12   15.82    2.14
   1 -12  12   14.05    2.12
   1 -12  12   11.28    1.61
  -1 -12 -12   15.67    2.07
   1  12  12   18.90    2.36
   1 -12  13    6.24    1.60
  -1  12 -13    4.22    1.51
   1 -12  13    5.10    3.36
   1  12  13    6.16    1.65
   1 -12  14    6.23    3.53
   1  12  14    6.35    1.76
  -1  12 -14    4.87    1.58
   1 -12  14    5.59    1.65
   1 -12  15   26.65    3.25
   1  12  15   23.98    3.13
   1 -12  15   14.85    4.92
  -1  12 -15   24.68    3.08
   1  12  16  114.86    8.14
   1 -12  16  106.79   11.18
   1 -12  16  108.46    8.02
   1 -12  17   -1.09    3.21
   1  12  17    1.16    1.67
   1 -12  17    2.34    1.72
   1 -12  18    0.42    1.64
   1  12  18   -0.82    1.52
   1  12  19    6.55    2.39
   1 -12  19    6.27    2.21
   1  12  20    9.71    2.63
   1 -12  20    5.21    2.44
   1  12  21   33.21    4.57
   1  12  22    1.54    2.30
   1  12  23   33.90    4.82
  -1  13  19   -1.22    2.26
  -1  13  18   26.33    3.58
  -1  13  17   21.41    3.09
  -1  13  16  117.08    8.20
  -1 -13  15   17.86    2.67
  -1  13  15   24.60    2.91
  -1 -13  14   -0.28    1.25
  -1  13  14   -0.28    1.13
  -1  13  13   11.89    1.95
   1  13 -13   11.08    1.88
  -1 -13  13    5.35    1.55
  -1 -13  12    2.02    1.08
  -1  13  12    2.60    1.08
   1  13 -12    1.29    1.17
  -1 -13  11    2.57    1.04
  -1 -13  11    4.22    2.59
  -1  13  11    3.26    1.08
   1  13 -11    3.03    1.09
  -1  13  10   22.57    2.07
  -1 -13  10   19.62    2.11
   1  13 -10   19.24    2.10
  -1 -13  10   22.48    2.12
  -1 -13  10   16.52    3.92
  -1  13   9    2.96    0.88
  -1 -13   9    2.34    0.98
  -1 -13   9    4.84    2.47
  -1 -13   9    1.68    0.87
   1  13  -9    1.18    0.76
   1 -13  -8    0.87    2.09
   1  13  -8    1.15    0.63
  -1 -13   8   -0.79    2.02
  -1 -13   8    0.82    0.98
   1 -13  -8    0.35    0.55
   1 -13  -8    0.53    1.81
   1 -13  -7    7.35    2.45
  -1 -13   7    8.59    2.93
   1  13  -7    9.47    0.87
   1 -13  -6   44.72    5.26
  -1 -13   6   38.72    5.56
   1 -13  -5    1.26    1.93
  -1 -13   5    4.61    2.44
   1 -13  -4   -0.66    2.08
  -1 -13   4    0.77    2.16
   1 -13  -3  101.00    8.93
  -1 -13   3   91.44    8.88
   1 -13  -2    5.67    2.57
  -1 -13   2    4.59    2.53
   1 -13  -1   35.25    4.97
  -1 -13   1   19.23    4.29
   1 -13   0  307.08   21.99
   1 -13   0  349.37   22.42
  -1 -13   0  357.42   22.55
   1 -13   1    4.86    2.49
  -1 -13  -1    5.53    2.86
   1 -13   1    5.50    2.77
   1 -13   2   36.59    5.45
   1 -13   2   31.65    5.03
  -1 -13  -2   27.08    4.86
  -1 -13  -3  109.77   10.21
   1 -13   3  129.64   10.85
   1 -13   3  114.59   10.66
   1 -13   4   74.61    8.19
  -1 -13  -4   84.33    8.41
   1 -13   4   81.72    8.72
  -1 -13  -5   22.18    4.21
   1 -13   5   17.97    4.33
   1 -13   5   14.05    3.68
   1 -13   5   16.27    2.34
   1 -13   6    4.63    3.15
   1 -13   6   -0.28    1.08
  -1 -13  -6    0.83    2.11
   1 -13   6    0.84    2.25
   1  13   7   17.13    1.30
  -1 -13  -7   22.58    4.54
   1 -13   7   19.03    2.40
   1 -13   7   31.50    5.40
   1 -13   7   21.00    1.55
   1 -13   7   19.62    4.21
   1  13   8   31.69    2.21
   1 -13   8   19.62    4.93
   1 -13   8   24.38    4.84
  -1  13  -8   26.33    2.21
   1 -13   8   32.54    2.31
   1 -13   8   24.16    2.80
   1 -13   9   41.01    3.01
   1 -13   9   44.40    6.39
   1 -13   9   38.68    3.42
  -1  13  -9   40.33    3.00
   1  13   9   34.43    2.86
   1 -13   9   39.35    6.43
   1 -13  10  105.52    6.36
   1 -13  10  109.19   10.92
   1  13  10   88.45    6.15
  -1  13 -10  109.11    6.38
   1 -13  10   97.45    6.53
  -1  13 -11   -0.39    0.93
   1 -13  11    1.82    1.12
   1  13  11    1.95    1.12
   1 -13  11    0.95    1.10
   1 -13  12    7.67    1.56
  -1  13 -12    7.28    1.58
   1  13  12   10.34    1.80
   1  13  13    3.05    1.32
   1 -13  13    3.91    1.49
   1 -13  14   20.05    5.18
   1 -13  14   19.33    2.63
   1  13  14   16.64    2.48
   1  13  15    0.62    1.46
   1 -13  15   -1.13    2.72
   1 -13  15    1.59    1.48
   1  13  16    0.34    1.48
   1 -13  16    2.29    3.23
   1  13  17   -0.36    1.76
   1  13  18   27.07    3.55
   1  13  19    1.23    1.84
  -1  14  14   12.51    2.00
  -1 -14  13    9.19    3.43
  -1  14  13    8.71    1.77
  -1 -14  12   13.55    3.71
  -1  14  12    9.88    1.68
  -1 -14  11   43.43    6.37
  -1  14  11   49.21    3.55
  -1 -14  10   43.66    6.29
  -1 -14   9   12.28    1.78
   1  14  -9   10.67    1.21
  -1 -14   9   12.06    3.48
  -1 -14   8    8.34    1.69
  -1 -14   8   10.16    3.32
  -1 -14   7   13.10    1.98
  -1 -14   7   15.14    3.77
   1 -14  -7   11.71    3.03
   1 -14  -6   45.43    5.67
  -1 -14   6   52.55    6.57
  -1 -14   5   32.49    5.32
   1 -14  -5   33.18    4.93
   1 -14  -4    8.51    3.00
  -1 -14   4   14.03    3.61
   1 -14  -3   57.01    6.80
  -1 -14   3   58.50    6.98
  -1 -14   2   27.99    4.86
   1 -14  -2   28.58    4.77
   1 -14  -2   20.49    4.34
  -1 -14   1   19.21    4.10
   1 -14  -1   16.02    3.94
   1 -14  -1   15.03    3.70
   1 -14   0   17.38    4.03
  -1 -14   0   19.38    4.10
   1 -14   0   21.79    4.55
  -1 -14  -1   12.76    3.48
   1 -14   1   18.83    4.19
   1 -14   1   17.41    4.06
  -1 -14  -2    8.57    2.84
   1 -14   2   11.48    3.38
   1 -14   2    4.37    2.60
   1 -14   3   52.01    6.77
   1 -14   3   43.84    6.62
  -1 -14  -3   63.69    7.28
  -1 -14  -4    4.36    2.97
   1 -14   4    9.41    3.84
   1 -14   4    4.41    2.72
   1 -14   5   38.85    3.96
   1 -14   5   63.16    7.60
   1 -14   5   41.80    6.20
  -1 -14  -5   66.11    7.39
   1 -14   6   16.33    2.35
   1 -14   6   13.99    4.23
   1 -14   6    8.93    3.56
  -1 -14  -7   12.53    3.62
   1 -14   7   21.79    2.63
   1 -14   7   19.08    4.67
   1 -14   7   24.59    5.38
   1 -14   8   74.53    8.83
   1 -14   8   55.55    4.60
   1 -14   8   58.03    7.44
   1  14   9   21.38    1.74
   1 -14   9   19.86    2.44
   1 -14   9   22.42    4.68
   1 -14   9   27.90    5.72
   1  14  10    5.22    1.06
   1 -14  10    6.57    3.61
   1 -14  10    1.90    2.30
   1 -14  10    5.05    1.52
   1 -14  11    0.96    2.32
   1 -14  11    1.12    3.56
   1  14  11    1.19    0.95
   1  14  12    0.20    1.02
   1  14  13   19.44    2.44
   1 -14  14   24.91    5.92
   1 -14  15   20.41    5.59
  -1 -15  16    1.98    2.66
  -1 -15  15   -1.97    2.77
  -1 -15  14   -0.97    2.98
  -1 -15  13    2.87    3.05
  -1 -15  12   13.26    4.31
  -1 -15  11   11.21    3.50
  -1 -15  10    8.30    3.25
  -1 -15   9    2.74    2.57
  -1 -15   8   47.51    3.98
  -1 -15   8   46.33    6.62
  -1 -15   7   31.56    5.42
  -1 -15   7   25.25    2.86
   1 -15  -6   -0.70    2.13
  -1 -15   6    0.89    2.52
   1 -15  -5    0.73    2.15
  -1 -15   5    0.89    2.38
   1 -15  -4   55.67    6.88
  -1 -15   4   71.49    8.00
   1 -15  -3   12.48    3.84
   1 -15  -3    3.96    2.54
  -1 -15   3   11.42    3.75
   1 -15  -2    1.91    3.04
   1 -15  -2    0.82    2.31
  -1 -15   2    1.78    2.51
   1 -15  -1   18.73    4.38
   1 -15  -1   11.39    3.65
  -1 -15   1    8.09    3.20
  -1 -15   0   12.68    3.79
   1 -15   0   17.89    4.39
   1 -15   0   23.85    4.99
   1 -15   1   62.07    7.48
   1 -15   1   52.18    6.94
   1 -15   2   73.49    8.84
  -1 -15  -2   72.30    8.72
  -1 -15  -3   10.13    3.87
   1 -15   3   10.69    3.91
   1 -15   3   10.31    3.69
  -1 -15  -4    2.79    2.85
   1 -15   4    3.79    2.91
   1 -15   4    3.00    2.82
  -1 -15  -5   30.10    5.51
   1 -15   5   28.10    3.33
   1 -15   5   35.13    5.85
   1 -15   5   32.96    6.13
   1 -15   6   55.61    7.31
   1 -15   6   49.36    4.53
   1 -15   6   50.71    7.55
  -1 -15  -6   60.56    7.58
   1 -15   7    0.90    1.22
   1 -15   7    0.96    2.59
   1 -15   7   -2.17    3.32
   1 -15   8   14.06    2.29
   1 -15   8   15.55    4.59
   1 -15   9    2.27    3.34
   1 -15   9   -0.98    2.51
   1 -15  10    1.17    3.44
   1 -15  10   -2.99    2.93
   1 -15  11    8.36    4.21
   1 -15  11   10.08    3.86
   1 -15  12    2.04    2.74
   1 -15  13    5.15    3.16
  -1 -16  14    1.01    2.97
  -1 -16  13    6.00    3.41
  -1 -16  12   15.88    4.21
  -1 -16  11    8.84    3.37
  -1 -16  10    0.98    2.75
  -1 -16   9    3.89    2.87
  -1 -16   8   32.03    5.76
  -1 -16   7   26.71    5.30
  -1 -16   6   13.29    4.24
  -1 -16   5    2.83    3.11
   1 -16  -4    8.11    3.17
  -1 -16   4    6.59    3.22
   1 -16  -4    6.14    3.70
   1 -16  -3    1.02    2.46
   1 -16  -3    5.92    3.05
  -1 -16   3    0.95    2.42
   1 -16  -2    7.03    3.00
  -1 -16   2    6.68    3.05
   1 -16  -2    7.13    3.26
  -1 -16   1    0.96    2.45
   1 -16  -1    3.63    2.89
   1 -16  -1    2.02    2.72
   1 -16   0    5.03    3.09
   1 -16   0    5.63    3.29
  -1 -16   0    1.93    2.60
   1 -16   1   43.05    6.65
   1 -16   1   54.21    7.24
  -1 -16  -1   38.82    6.41
   1 -16   2   31.90    5.85
  -1 -16  -2   27.24    5.53
   1 -16   2   24.82    5.25
   1 -16   3  136.82   12.26
  -1 -16  -3  123.64   11.96
   1 -16   3  126.36   12.32
   1 -16   4    0.37    1.42
  -1 -16  -4    0.99    2.52
   1 -16   4   -1.00    2.41
   1 -16   4   -1.06    3.25
   1 -16   5    1.09    3.20
  -1 -16  -5    1.00    3.05
   1 -16   5    4.04    2.97
   1 -16   5   -0.35    1.44
  -1 -16  -6   33.07    5.93
   1 -16   6   30.68    3.45
   1 -16   6   29.14    6.00
   1 -16   6   33.61    5.89
   1 -16   7   41.07    6.58
   1 -16   7   50.68    8.03
   1 -16   7   45.20    4.32
   1 -16   8    8.28    4.60
   1 -16   8    1.03    2.47
   1 -16   9    6.20    3.41
   1 -16   9    4.84    3.99
   1 -16  10   18.50    5.50
   1 -16  10   14.65    4.25
   1 -16  11    6.32    3.36
   1 -16  12   -1.06    2.99
  -1 -17  10   10.28    3.74
  -1 -17   9   -1.03    2.76
  -1 -17   8    2.03    2.86
  -1 -17   7   13.14    4.08
   1 -17  -6   -1.09    2.94
  -1 -17   6    5.02    3.07
   1 -17  -5    1.09    2.77
  -1 -17   5    2.00    2.82
   1 -17  -4    8.64    3.68
  -1 -17   4    5.03    3.43
   1 -17  -3    1.08    2.74
  -1 -17   3   -3.04    3.33
  -1 -17   2    8.12    3.76
   1 -17  -2   -1.08    3.30
  -1 -17   1   16.36    4.87
   1 -17  -1   22.00    4.99
   1 -17  -1   25.82    5.36
   1 -17   0    0.99    2.91
  -1 -17   0   -1.02    2.75
   1 -17   0   -2.14    3.27
   1 -17   1   37.30    6.65
   1 -17   1   56.32    7.85
  -1 -17  -1   41.00    6.77
   1 -17   2   25.45    5.44
   1 -17   2   40.14    6.62
  -1 -17  -2   37.03    6.28
  -1 -17  -3  153.44   13.51
   1 -17   3  132.79   13.10
   1 -17   3  146.87   13.80
   1 -17   4    7.76    2.18
   1 -17   4   13.80    4.15
   1 -17   4    7.84    4.06
  -1 -17  -4    6.27    3.79
   1 -17   5   -1.15    3.65
   1 -17   5    2.13    2.86
   1 -17   5    1.11    1.61
  -1 -17  -5   -1.05    2.82
   1 -17   6    1.18    3.88
   1 -17   6    1.07    2.57
  -1 -17  -6    1.05    2.68
   1 -17   7    8.47    4.40
   1 -17   7   16.31    4.56
   1 -17   8   18.47    4.97
  -1 -18   4   35.22    6.27
  -1 -18   3    6.42    3.65
  -1 -18   2   -1.08    3.03
  -1 -18   1   -1.07    3.16
  -1 -18   0    1.08    3.03
  -1 -18  -1    5.39    3.31
   1 -18   3   15.23    2.82
  -2   0  25   -0.64    2.30
  -2   0  24   57.64    6.36
  -2   0  23   -0.58    1.77
  -2   0  22  193.16   13.32
  -2   0  21   -2.05    1.95
  -2   0  20   37.08    4.29
  -2   0  19   -0.45    1.43
  -2   0  18  139.49    9.77
  -2   0  17    0.39    1.33
   2   0 -17    0.49    1.83
   2   0 -16  183.60   12.84
  -2   0  16  197.56   12.37
   2   0 -16  200.03   12.03
   2   0 -15    0.46    1.40
  -2   0  15    0.69    1.01
   2   0 -15   -0.59    1.15
   2   0 -14   62.83    5.29
  -2   0  14   73.73    5.62
   2   0 -13   -0.57    0.97
   2   0 -13    1.25    1.37
  -2   0  13    1.19    0.62
   2   0 -12    9.40    1.75
   2   0 -12   13.93    2.28
  -2   0  12   15.91    2.04
   2   0 -11    0.52    0.97
   2   0 -11   -0.37    1.23
  -2   0  11    0.51    0.78
  -2   0  10  605.54   31.56
   2   0 -10  556.94   32.19
  -2   0   9    0.66    0.70
   2   0  -9    0.31    0.96
   2   0  -8  500.90   24.90
  -2   0   8  425.43   24.87
  -2   0   7    0.89    0.60
   2   0  -7    0.62    0.51
   2   0  -6  570.11   30.23
  -2   0   6  577.36   30.35
  -2   0   5    0.27    0.50
   2   0  -5    0.13    0.58
  -2   0   4 9580.36  500.49
   2   0  -4 9999.00  500.39
   2   0  -3    0.20    0.44
  -2   0   3    0.31    0.44
  -2   0   2  490.70   27.65
   2   0  -2  536.57   27.69
  -2   0   2  559.52   27.57
  -2   0   1    0.20    0.35
  -2   0   0  123.36    6.80
   2   0   1    0.08    0.31
   2   0   1    0.18    0.33
  -2   0  -1    0.09    0.39
  -2   0  -1    0.08    0.38
   2   0   2   84.69    5.23
  -2   0  -2   95.69    5.28
   2   0   3    0.11    0.47
  -2   0  -3   -0.11    0.44
  -2   0  -4  335.34   17.54
   2   0   4  317.10   17.56
   2   0   5    0.32    0.51
  -2   0  -5   -0.14    0.58
   2   0   6 1286.19   65.80
  -2   0  -6 1244.54   65.58
   2   0   7   -0.22    0.59
  -2   0  -7    0.18    0.59
   2   0   8   22.83    2.48
  -2   0  -8   23.99    2.34
   2   0   9    0.59    0.61
  -2   0  -9   -0.23    0.91
  -2   0 -10   89.08    6.17
   2   0  10   90.76    6.61
  -2   0 -11    0.83    0.67
   2   0  11    2.24    1.00
   2   0  12  180.83   11.90
   2   0  12  175.94   10.87
  -2   0 -12  189.71   11.34
   2   0  13   -0.52    0.94
  -2   0 -13    0.97    0.91
   2   0  13    0.92    0.95
   2   0  14   67.15    6.21
  -2   0 -14   71.45    5.62
   2   0  14   66.50    5.21
   2   0  15    0.61    1.13
  -2   0 -15    1.83    1.12
   2   0  16   16.19    3.35
   2   0  16   18.72    2.72
   2   0  17    0.33    1.30
   2   0  17    5.21    2.41
   2   0  18   48.77    5.90
   2   0  19   -0.74    2.35
   2   0  20   19.45    4.39
   2   0  21    2.48    1.69
   2   0  22   23.23    3.67
   2   0  23   -1.08    2.20
   2   0  24   19.73    3.59
  -2  -1  25   -0.64    2.60
  -2  -1  24    9.71    2.86
  -2  -1  23   15.65    3.50
  -2  -1  22   51.01    5.70
  -2  -1  21    1.03    1.74
  -2  -1  20  134.44    9.85
  -2  -1  19  122.26    8.97
  -2  -1  18   12.65    2.30
   2  -1 -17   23.70    3.64
  -2  -1  17   21.85    3.01
  -2  -1  16   98.12    7.40
   2  -1 -16  105.66    6.90
   2  -1 -16  107.17    8.21
   2   1 -16   97.14    7.28
   2   1 -15   44.01    4.09
   2  -1 -15   36.02    4.41
  -2  -1  15   41.05    3.85
   2  -1 -15   34.54    3.34
   2  -1 -14   89.71    7.35
  -2  -1  14   92.87    6.74
   2  -1 -14   96.39    6.42
   2   1 -14   91.95    6.87
   2  -1 -13   16.66    2.61
   2   1 -13   15.62    2.36
   2  -1 -13   15.26    2.04
  -2  -1  13   17.28    2.20
   2  -1 -12   95.46    7.26
   2  -1 -12  102.04    6.50
   2   1 -12   94.34    6.85
  -2  -1  12   89.86    6.50
   2   1 -11    1.84    1.25
  -2  -1  11    2.80    1.11
   2  -1 -11    3.36    1.39
   2  -1 -10    8.98    1.75
   2   1 -10    6.36    1.63
  -2  -1  10    3.56    1.02
   2  -1  -9  161.02    9.68
  -2  -1   9  147.33    8.91
   2   1  -9  132.51    9.12
  -2  -1   8  159.99    9.25
   2  -1  -8  149.06    9.02
  -2  -1   7  161.06    9.05
   2  -1  -7  145.88    8.80
  -2  -1   6   83.42    5.28
   2  -1  -6   84.06    5.22
   2  -1  -5  587.57   30.00
  -2  -1   5  551.63   29.96
   2   1  -4   26.29    1.81
  -2  -1   4   33.47    2.35
  -2   1   4   32.09    2.36
   2  -1  -4   29.09    2.20
  -2   1   3   25.73    2.06
   2  -1  -3   27.22    2.04
  -2  -1   3   26.59    2.05
  -2  -1   3   29.70    1.78
   2   1  -3   25.53    1.71
   2  -1  -3   27.16    2.05
  -2  -1   2    6.68    0.67
  -2  -1   2    6.19    0.79
   2  -1  -2    4.42    0.74
   2  -1  -2    6.27    0.85
   2   1  -2    5.95    0.62
  -2   1   2    4.31    0.79
  -2   1   1 1376.48   68.29
  -2  -1   1 1296.25   68.04
  -2  -1   0  190.28   10.16
   2  -1   0  204.72   10.33
  -2   1   0  176.45   10.23
   2  -1   1  793.40   41.88
  -2  -1  -1  812.71   41.91
   2  -1   1  822.70   41.88
   2  -1   2  134.54    7.05
   2  -1   2  118.81    7.08
  -2  -1  -2  122.48    7.06
  -2  -1  -3  211.82   11.88
   2  -1   3  200.34   11.88
  -2  -1  -4  310.41   16.74
   2  -1   4  291.82   16.74
  -2   1  -4  327.71   16.61
   2  -1   5 2801.78  134.51
  -2   1  -5 2531.73  134.04
  -2  -1  -5 2569.32  134.28
   2  -1   6  476.80   26.06
  -2  -1  -6  490.99   25.90
  -2   1  -6  485.98   25.60
   2  -1   7   17.03    1.99
  -2  -1  -7   16.17    1.75
  -2   1  -7   15.50    1.55
   2  -1   8  187.33   11.32
  -2  -1  -8  188.57   11.00
  -2  -1  -9  228.97   12.63
   2  -1   9  199.83   12.81
   2  -1  10   23.73    2.73
  -2  -1 -10   16.66    2.13
  -2  -1 -11   81.42    5.72
   2  -1  11   71.53    5.99
   2  -1  12    0.83    1.00
  -2  -1 -12    0.90    1.05
   2   1  12    0.19    0.62
   2  -1  12   -0.29    0.86
   2  -1  13   18.47    3.01
  -2  -1 -13   20.30    2.66
   2  -1  13   18.26    2.58
   2   1  13   19.06    2.11
   2   1  14   -0.22    0.79
   2  -1  14    1.52    1.43
   2  -1  14    0.68    1.04
  -2  -1 -14   -1.03    1.46
   2  -1  15  117.18    9.30
  -2  -1 -15  105.10    8.28
   2   1  15  128.55    7.81
   2  -1  15  128.96    8.61
   2  -1  16    8.46    2.56
   2  -1  16   16.95    2.69
  -2  -1 -16   17.46    2.71
   2  -1  17   11.69    3.10
   2  -1  17   15.87    2.75
   2  -1  18   78.56    7.78
   2  -1  18   81.18    6.62
   2  -1  19   22.12    4.16
  -2   1 -20    2.79    1.45
   2  -1  20    3.10    2.56
  -2   1 -21   28.52    3.10
   2  -1  21   21.74    3.60
   2  -1  22   20.61    3.61
  -2   1 -22   21.23    2.78
   2  -1  23   13.45    2.97
   2  -1  24   -0.56    2.20
  -2   2  25    1.92    2.31
  -2  -2  25    5.10    2.37
  -2  -2  24    7.31    2.82
  -2   2  24   10.37    3.01
  -2  -2  23  127.18   10.54
  -2   2  23  155.70   11.12
  -2  -2  22   41.60    4.93
  -2   2  22   36.07    4.72
  -2   2  21  111.77    9.14
  -2  -2  21  125.37    9.35
  -2   2  20   16.57    3.15
  -2  -2  20   12.20    2.78
  -2   2  19  470.14   27.55
  -2  -2  19  489.83   27.76
  -2   2  18   92.32    7.30
  -2  -2  18   94.28    7.38
  -2   2  17   30.11    3.36
  -2  -2  17   25.05    3.27
   2   2 -17   24.03    3.54
   2  -2 -17   26.44    3.78
   2   2 -16   12.75    2.57
  -2  -2  16   11.95    2.21
  -2   2  16   14.50    2.34
   2  -2 -16   15.93    2.84
   2   2 -15  114.29    8.31
   2   2 -15  102.75    7.74
   2  -2 -15  100.19    6.64
  -2   2  15  100.35    7.44
   2  -2 -15  117.27    8.39
  -2  -2  15  107.88    7.56
  -2  -2  14   45.51    4.05
   2   2 -14   44.33    4.57
   2  -2 -14   44.27    4.57
  -2   2  14   45.87    4.04
   2  -2 -14   41.16    3.44
   2   2 -14   44.40    4.31
   2  -2 -13  130.38    7.95
  -2  -2  13  117.60    8.36
   2   2 -13  136.11    9.25
   2   2 -13  128.79    8.91
  -2   2  13  136.20    8.60
   2  -2 -13  122.30    8.99
   2  -2 -12   49.29    4.79
   2  -2 -12   57.40    3.99
  -2   2  12   53.23    4.33
   2   2 -12   46.24    4.77
  -2  -2  12   56.73    4.40
   2   2 -12   50.20    4.70
  -2   2  11  454.83   24.87
   2   2 -11  425.63   25.58
  -2  -2  11  478.49   24.96
   2   2 -11  458.12   25.58
   2  -2 -11  432.58   25.50
  -2  -2  10   53.40    3.91
  -2   2  10   43.78    3.68
   2   2 -10   40.81    4.17
   2  -2 -10   43.79    4.14
   2   2 -10   45.38    4.25
   2   2  -9   20.03    2.76
   2  -2  -9   22.27    2.80
   2   2  -9   24.24    2.86
  -2  -2   9   31.95    2.68
  -2   2   9   24.29    2.47
   2   2  -8   75.47    5.82
   2  -2  -8   80.58    5.07
  -2  -2   8   79.29    5.24
   2   2  -8   79.04    5.05
  -2   2   8   67.69    5.04
  -2   2   7   30.27    2.75
   2   2  -7   34.84    2.76
  -2  -2   7   37.57    2.94
   2  -2  -7   40.61    2.87
  -2   2   7   41.39    3.40
   2   2  -6    9.92    1.19
  -2   2   6    7.74    1.35
  -2  -2   6    9.38    1.20
   2  -2  -6    8.44    1.16
  -2  -2   5  522.17   27.69
  -2   2   5  487.99   28.01
   2  -2  -5  552.35   27.68
   2   2  -4  742.56   40.14
  -2   2   4  815.59   41.24
  -2  -2   4  816.44   40.19
   2  -2  -4  769.99   41.14
   2  -2  -4  815.44   40.76
  -2  -2   4  785.42   40.82
   2  -2  -3    6.02    0.82
  -2  -2   3    5.80    0.82
  -2   2   3    3.97    1.01
  -2  -2   3    4.40    0.50
   2  -2  -3    5.51    1.00
  -2  -2   2   47.45    2.99
   2  -2  -2   53.69    3.48
  -2  -2   2   42.44    2.86
   2  -2  -2   44.53    2.92
   2  -2  -1  326.80   16.11
   2  -2  -1  284.46   16.26
  -2  -2   1  296.26   15.83
   2   2  -1  287.88   15.85
   2  -2   0   29.59    2.16
   2   2   0   27.44    2.13
  -2  -2  -1   67.97    4.05
   2   2   1   63.78    4.22
   2  -2   1   65.21    4.10
   2  -2   1   70.57    4.05
   2  -2   2  385.11   20.67
  -2  -2  -2  390.41   20.67
   2  -2   2  402.05   20.75
   2  -2   3  535.98   31.52
   2  -2   3  668.48   31.78
  -2   2  -3  607.00   31.66
  -2   2  -3  625.46   31.65
  -2  -2  -3  615.43   31.65
   2  -2   4  365.29   18.90
  -2   2  -4  325.35   18.68
   2  -2   4  348.95   18.63
  -2   2  -4  368.73   18.84
  -2  -2  -4  354.28   18.79
  -2   2  -5  358.66   19.23
  -2  -2  -5  352.40   19.20
   2  -2   5  328.33   19.26
   2  -2   5  383.42   19.06
  -2   2  -5  356.14   19.01
  -2   2  -6  169.08   10.69
  -2   2  -6  210.36   10.58
  -2  -2  -6  186.33   10.75
   2  -2   6  186.33   10.93
  -2   2  -7   73.46    4.73
   2  -2   7   81.57    5.38
  -2   2  -7   75.89    5.07
  -2  -2  -7   75.79    5.06
   2  -2   8  181.80   11.86
  -2   2  -8  212.48   11.30
  -2   2  -8  205.13   11.72
  -2  -2  -8  199.70   11.69
  -2   2  -9   24.12    2.47
  -2  -2  -9   24.59    2.46
   2  -2   9   23.51    2.66
  -2   2  -9   23.12    2.07
   2   2   9   21.07    2.57
   2  -2  10   20.53    2.69
  -2   2 -10   25.25    2.58
  -2  -2 -10   23.06    2.45
   2   2  10   19.15    2.61
  -2   2 -10   22.67    2.05
   2   2  11  263.73   15.38
   2   2  11  273.94   17.05
  -2  -2 -11  324.38   16.73
  -2   2 -11  281.94   15.78
   2  -2  11  303.43   17.25
   2  -2  11  304.70   16.98
  -2   2 -11  301.22   16.63
   2   2  12   81.21    6.60
   2  -2  12   78.72    6.56
  -2   2 -12   70.33    5.84
  -2  -2 -12   84.58    6.11
  -2   2 -12   79.24    5.34
   2   2  12   89.18    5.14
   2  -2  12   87.02    6.40
  -2   2 -13    1.14    0.90
   2   2  13    1.40    1.54
  -2  -2 -13    0.32    1.09
  -2   2 -13    3.22    1.34
   2  -2  13    0.93    1.37
   2   2  13    0.86    0.66
   2  -2  13    1.11    1.21
   2   2  14    0.51    1.30
  -2   2 -14    1.03    1.01
   2  -2  14    0.51    1.37
   2  -2  14    0.39    1.21
  -2   2 -14    0.60    0.78
   2   2  14    0.15    0.64
  -2  -2 -14    2.74    1.01
   2   2  15    2.24    1.66
   2  -2  15    1.26    1.34
  -2  -2 -15    3.64    1.52
  -2   2 -15    4.63    1.17
  -2   2 -15    5.12    1.56
   2  -2  15    4.45    1.90
   2  -2  16    3.56    1.87
  -2   2 -16    5.41    1.93
  -2   2 -16   10.79    1.71
  -2  -2 -16    3.08    1.84
   2   2  16    3.64    2.14
   2  -2  16    2.41    1.93
   2  -2  17  653.70   37.37
   2   2  17  658.43   37.37
   2  -2  17  632.86   35.97
  -2   2 -17  639.36   34.42
   2  -2  18    0.48    1.67
   2  -2  18    0.70    1.96
  -2   2 -18    1.93    1.30
   2   2  18    0.70    2.06
   2  -2  19  101.96    9.17
   2   2  19   78.04    8.40
  -2   2 -19   95.88    6.47
   2   2  20   30.42    5.07
  -2   2 -20   37.19    3.50
   2  -2  20   38.76    5.65
   2   2  21   30.77    4.07
   2  -2  21   26.18    3.87
  -2   2 -21   26.92    3.03
   2  -2  22    0.52    1.91
  -2   2 -22    2.46    1.49
   2  -2  23   17.19    3.26
   2   2  23    9.72    2.71
   2  -2  24   82.30    7.64
   2   2  24   88.97    7.93
  -2   3  25   12.80    3.33
  -2  -3  25   13.42    3.45
  -2   3  24    6.74    2.93
  -2  -3  24   12.25    3.52
  -2   3  23    0.58    2.22
  -2  -3  23   -1.17    2.04
  -2  -3  22   23.85    3.86
  -2   3  22   29.37    4.05
   2   3 -22   19.18    2.00
  -2  -3  21   16.40    3.02
  -2   3  21   19.01    3.36
   2   3 -21   10.95    1.48
  -2  -3  20  103.88    8.24
  -2   3  20  103.12    8.25
  -2  -3  19   18.52    2.93
  -2   3  19   17.52    2.92
  -2  -3  18  164.27   11.12
  -2   3  18  163.94   11.14
  -2   3  17   14.57    2.62
   2   3 -17   10.71    2.62
  -2  -3  17   12.22    2.50
   2  -3 -17   10.68    2.68
   2   3 -16    8.39    2.26
  -2   3  16    4.13    1.43
   2  -3 -16    7.43    2.11
  -2  -3  16    8.68    1.70
   2   3 -15   70.29    5.85
  -2   3  15   65.50    5.23
  -2  -3  15   68.54    5.34
   2  -3 -15   53.74    4.00
   2   3 -15   68.77    5.90
   2  -3 -15   62.89    5.62
   2  -3 -14  134.39    9.12
  -2   3  14  134.25    8.45
   2  -3 -14  112.02    7.16
   2   3 -14  118.57    8.89
   2   3 -14  125.37    8.89
  -2  -3  14  121.72    8.29
   2   3 -13    2.04    1.39
   2   3 -13    4.87    1.59
  -2   3  13    2.75    1.11
   2  -3 -13    1.63    1.39
   2  -3 -13    2.35    0.89
  -2  -3  13    5.49    1.30
   2  -3 -12   91.48    6.94
   2   3 -12   98.92    7.05
  -2  -3  12   80.86    6.18
   2   3 -12   94.46    7.14
  -2   3  12   84.62    6.21
   2  -3 -11  132.28    9.46
   2   3 -11  148.14    9.69
  -2  -3  11  145.59    9.02
   2   3 -11  139.57    9.69
  -2   3  11  141.37    8.97
  -2   3  10   24.38    2.42
  -2   3  10   21.88    2.81
   2   3 -10   21.24    2.90
   2   3 -10   19.57    2.59
  -2  -3  10   23.03    2.44
   2  -3 -10   17.42    2.55
  -2   3   9    3.77    1.40
   2   3  -9    2.52    1.29
   2   3  -9    3.24    1.47
   2  -3  -9    4.39    1.42
  -2   3   9    3.31    1.06
  -2  -3   9    2.25    0.85
   2   3  -8  167.51    9.99
   2  -3  -8  170.96   10.02
  -2   3   8  191.52   10.34
  -2  -3   8  177.27   10.24
  -2   3   8  160.91   10.81
   2   3  -8  168.72   11.14
   2   3  -7  287.14   16.47
  -2  -3   7  262.11   15.32
  -2   3   7  278.04   16.17
   2   3  -7  278.19   15.23
   2  -3  -7  282.14   15.23
  -2   3   7  282.65   15.39
  -2   3   6   90.21    5.44
   2   3  -6   83.03    6.33
   2   3  -6   93.05    5.39
   2  -3  -6   79.98    5.23
  -2  -3   6   82.17    5.37
  -2   3   6   85.89    6.08
  -2   3   5  377.91   20.54
  -2   3   5  383.54   19.78
   2  -3  -5  366.03   19.61
  -2  -3   5  375.60   19.75
   2  -3  -5  335.73   20.33
   2   3  -5  367.98   19.62
   2   3  -5  351.55   20.67
   2   3  -4  120.54    6.65
  -2   3   4  100.92    6.55
  -2  -3   4  111.17    6.06
   2  -3  -4  102.19    7.17
  -2   3   4  146.62    7.71
   2  -3  -4  131.97    6.69
  -2  -3   4  109.93    6.64
  -2   3   3  541.41   31.45
  -2  -3   3  590.82   30.76
   2   3  -3  609.80   30.72
   2  -3  -3  595.28   31.58
   2  -3  -3  559.00   30.66
  -2   3   3  617.99   30.76
   2  -3  -2 3088.66  179.28
   2  -3  -2 3428.60  178.44
  -2  -3   2 3536.92  178.84
   2   3  -2 3706.07  178.49
   2   3  -1  362.81   19.06
   2   3  -1  348.04   18.62
   2  -3  -1  365.22   19.56
  -2  -3   1  346.18   19.02
   2  -3   0  325.36   16.88
  -2  -3   0  315.50   17.01
   2   3   0  313.41   16.99
   2  -3   0  301.84   16.48
   2   3   0  309.34   16.50
   2  -3   1  172.73    9.23
   2   3   1  159.50    8.91
  -2  -3  -1  152.75    9.43
   2  -3   1  162.38    8.90
   2   3   1  174.57    9.58
  -2   3  -1  160.04    8.95
   2  -3   2  351.98   17.55
   2  -3   2  304.31   17.32
   2   3   2  301.01   17.32
  -2  -3  -2  338.18   17.35
  -2   3  -2  319.72   17.52
  -2   3  -2  342.57   17.39
   2   3   2  345.52   18.08
   2   3   3    0.43    0.68
  -2  -3  -3    0.43    0.46
   2  -3   3    0.34    0.44
  -2   3  -3    0.12    0.51
   2   3   3    0.46    0.45
  -2   3  -3   -0.22    0.41
   2  -3   3    1.54    0.54
   2  -3   4  484.39   24.85
  -2   3  -4  480.80   24.92
   2   3   4  450.57   24.98
  -2   3  -4  467.03   24.84
   2  -3   4  476.02   25.03
  -2  -3  -4  465.28   24.87
  -2   3  -5   50.11    3.32
   2   3   5   43.50    3.31
  -2   3  -5   50.23    3.18
   2  -3   5   45.24    3.35
   2  -3   5   39.31    3.00
  -2  -3  -5   48.46    3.27
  -2   3  -6  198.52   11.26
   2   3   6  194.47   11.44
   2  -3   6  175.07   11.32
   2  -3   6  214.95   11.05
  -2   3  -6  214.39   11.12
  -2  -3  -6  186.21   11.17
  -2   3  -7  562.43   29.81
  -2  -3  -7  603.23   29.86
   2  -3   7  568.12   30.10
   2   3   7  568.72   30.13
  -2   3  -7  515.51   29.37
  -2   3  -8  683.65   34.70
   2   3   8  687.78   35.15
   2  -3   8  668.73   35.10
  -2  -3  -8  643.81   34.61
  -2   3  -8  606.89   34.12
   2  -3   9    3.02    1.00
  -2  -3  -9    1.58    0.84
   2   3   9    0.91    0.77
  -2   3  -9   -0.15    0.55
  -2   3  -9    1.60    0.78
  -2  -3 -10   21.90    2.29
  -2   3 -10   18.91    1.86
   2   3  10   14.30    2.28
   2  -3  10   18.43    2.48
  -2   3 -10   21.15    2.34
  -2   3 -11   87.65    5.58
   2   3  11   90.19    6.88
   2  -3  11   86.86    6.76
  -2  -3 -11   83.58    6.09
   2  -3  11   85.26    6.69
  -2   3 -11   91.40    6.26
  -2  -3 -12   10.30    1.88
  -2   3 -12   13.25    1.68
   2  -3  12   17.83    2.70
   2  -3  12   12.46    2.38
   2   3  12    9.39    2.12
  -2   3 -12   15.73    2.22
   2  -3  13    2.97    1.65
   2  -3  13    1.41    1.19
  -2   3 -13    1.28    0.98
  -2  -3 -13    1.27    1.17
  -2   3 -13    0.56    0.79
   2   3  13   -0.47    1.44
   2  -3  14   -2.58    1.70
  -2  -3 -14    3.05    1.22
  -2   3 -14    1.03    1.01
  -2   3 -14    2.55    0.97
   2   3  14    1.55    1.46
   2  -3  14    0.90    1.43
   2   3  15   21.45    3.53
  -2   3 -15   19.91    2.28
   2  -3  15   29.03    3.72
   2  -3  15   21.50    3.73
  -2  -3 -15   22.01    3.06
  -2   3 -15   34.44    3.60
  -2   3 -16  532.19   29.83
   2  -3  16  531.56   31.33
   2   3  16  548.60   31.43
  -2   3 -16  521.56   28.62
  -2  -3 -16  543.91   29.88
   2  -3  16  528.57   30.61
  -2   3 -17    0.89    1.09
   2  -3  17   -0.66    2.23
   2   3  17    0.66    2.03
   2  -3  17    3.16    2.00
   2  -3  18    0.54    1.66
   2  -3  18   -0.70    2.30
   2   3  18    0.70    1.98
  -2   3 -18   -0.46    1.06
   2   3  19   -2.98    2.53
  -2   3 -19   -0.72    1.04
   2  -3  19    0.56    1.77
   2  -3  19   -0.74    2.08
  -2   3 -20   14.11    2.15
   2  -3  20   11.62    3.42
   2   3  20   11.70    3.44
   2   3  21    0.99    1.79
   2  -3  21    0.49    1.87
  -2   3 -21    0.25    1.24
   2  -3  22    5.67    2.25
   2   3  22    5.18    2.42
  -2   3 -22    4.92    1.45
   2   3  23   10.31    2.75
   2  -3  23    3.78    2.22
   2  -3  24    8.49    2.68
   2   3  24   13.09    3.18
  -2  -4  25    4.43    2.66
  -2   4  25   12.67    3.34
  -2   4  24    7.36    2.90
  -2  -4  24    1.84    2.16
  -2   4  23   13.47    3.62
  -2  -4  23   28.16    4.23
  -2   4  22    1.67    2.22
  -2  -4  22   -1.12    2.51
  -2   4  21    7.91    2.55
  -2  -4  21    8.47    2.44
   2   4 -21    6.15    0.99
  -2  -4  20   39.18    4.53
   2   4 -20   30.38    2.29
  -2   4  20   39.49    4.55
  -2   4  19   92.37    7.06
   2   4 -19   70.62    4.39
  -2  -4  19   87.74    6.95
   2   4 -18   41.41    2.70
  -2  -4  18   39.46    4.43
  -2   4  18   48.85    4.72
   2  -4 -17  348.35   20.09
  -2  -4  17  358.77   19.73
  -2   4  17  317.31   20.71
  -2   4  17  374.47   19.89
   2   4 -17  313.77   17.16
   2  -4 -16   42.52    4.63
   2   4 -16   34.25    2.30
  -2   4  16   39.78    4.97
  -2  -4  16   54.95    4.59
   2   4 -16   37.88    4.48
  -2   4  16   42.51    4.06
   2   4 -15   24.21    3.47
  -2   4  15   25.29    3.89
  -2   4  15   28.97    3.24
   2   4 -15   26.16    1.67
   2  -4 -15   20.04    3.32
   2   4 -15   28.66    3.73
  -2  -4  15   23.88    3.04
  -2   4  14  114.60    8.75
   2   4 -14  103.11    8.18
   2   4 -14  103.74    7.96
  -2  -4  14  114.23    7.64
   2   4 -14  102.46    5.64
   2  -4 -14  120.28    8.34
  -2   4  14  121.98    7.76
   2  -4 -14  103.79    6.09
  -2   4  13  341.04   21.11
   2   4 -13  359.27   20.98
   2   4 -13  365.77   20.64
  -2   4  13  356.83   19.97
   2  -4 -13  320.92   20.29
  -2  -4  13  346.07   19.98
  -2   4  12    4.37    1.35
  -2   4  12    4.71    1.71
   2  -4 -12    4.55    1.56
   2   4 -12    2.29    1.43
  -2  -4  12    4.45    1.32
   2   4 -12    5.21    1.89
   2   4 -11   12.68    2.49
   2   4 -11   16.65    2.50
   2  -4 -11   19.60    2.78
  -2   4  11   17.21    2.87
  -2   4  11   21.03    2.39
  -2  -4  11   17.63    2.27
   2   4 -10   84.44    6.44
  -2   4  10   80.29    6.37
  -2  -4  10   69.79    5.32
   2  -4 -10   80.47    6.04
  -2   4  10   72.26    5.35
   2   4 -10   73.42    5.87
  -2   4   9   74.05    6.09
  -2  -4   9   77.21    5.34
   2   4  -9   69.55    5.62
   2  -4  -9   68.64    5.62
  -2   4   9   82.60    5.39
   2   4  -9   84.21    6.45
   2   4  -8   28.17    3.11
   2  -4  -8   36.75    3.37
  -2  -4   8   37.56    2.97
  -2   4   8   28.50    2.74
   2   4  -8   34.55    3.71
  -2   4   8   44.80    3.99
  -2  -4   7  124.81    7.46
  -2   4   7  117.55    7.37
   2   4  -7  123.43    7.30
  -2   4   7  115.61    8.30
   2   4  -7  115.69    8.49
   2  -4  -7  132.17    7.36
  -2  -4   6  202.37   10.90
   2  -4  -6  170.40   11.62
  -2   4   6  194.19   10.84
   2   4  -6  185.72   10.68
  -2   4   6  195.78   11.89
   2   4  -6  205.08   12.28
   2  -4  -6  188.09   10.67
   2   4  -5  484.40   26.90
  -2  -4   5  479.83   25.51
   2   4  -5  480.04   25.38
   2  -4  -5  453.87   26.58
  -2   4   5  403.86   26.35
   2  -4  -5  516.19   25.41
  -2   4   5  496.06   25.55
   2  -4  -4   12.79    1.91
   2   4  -4   10.78    2.01
  -2   4   4   10.39    1.92
   2  -4  -4   15.51    1.41
  -2  -4   4   15.48    1.41
  -2   4   4   13.07    1.33
   2   4  -4   14.69    1.38
   2   4  -3  257.89   13.75
  -2  -4   3  258.28   13.82
  -2   4   3  267.28   13.83
  -2  -4   3  259.30   14.50
   2  -4  -3  265.78   15.06
   2  -4  -3  239.70   13.69
   2  -4  -2   24.23    2.67
  -2  -4   2   25.63    2.45
   2  -4  -2   26.85    1.88
   2   4  -2   26.96    1.91
   2  -4  -1   44.64    2.75
   2  -4  -1   44.72    3.79
  -2  -4   1   36.78    3.26
   2   4  -1   45.06    3.44
   2   4  -1   42.66    2.73
   2  -4   0  111.00    6.31
   2   4   0  110.00    6.33
  -2  -4   0  114.41    7.20
   2   4   0  123.02    7.20
   2  -4   1    5.63    0.98
   2  -4   1    5.56    0.68
   2   4   1    3.89    1.12
   2   4   1    6.00    0.74
  -2  -4  -1    6.05    1.29
  -2  -4  -2  129.20    8.87
   2  -4   2  144.93    8.10
  -2  -4  -2  146.29    8.08
   2  -4   2  154.47    8.48
  -2   4  -2  149.59    8.12
   2   4   2  154.07    9.08
   2   4   2  137.70    8.07
   2   4   3  102.20    5.96
  -2  -4  -3  101.31    5.89
   2  -4   3  104.13    6.09
  -2   4  -3   95.34    5.86
   2  -4   3  103.31    5.95
   2   4   3   96.23    6.73
   2  -4   4  443.77   21.88
  -2   4  -4  417.41   21.69
  -2   4  -4  391.59   21.71
   2   4   4  413.06   21.81
   2   4   4  414.12   22.78
  -2  -4  -4  414.15   21.68
   2  -4   4  369.33   21.65
  -2   4  -5  346.75   18.41
   2   4   5  349.34   18.61
   2  -4   5  330.19   18.27
  -2  -4  -5  354.42   18.41
   2   4   5  317.32   19.38
  -2   4  -5  334.89   18.31
   2  -4   5  344.30   18.57
   2   4   6  186.68   10.92
   2  -4   6  191.17   10.94
  -2  -4  -6  182.12   10.64
  -2   4  -6  201.75   10.57
  -2   4  -6  187.29   10.69
   2  -4   6  175.98   10.40
  -2   4  -7    1.66    0.74
  -2  -4  -7    0.54    0.70
  -2   4  -7    0.84    0.62
   2   4   7    2.33    0.99
   2  -4   7    1.87    0.89
   2  -4   7    1.05    0.63
  -2  -4  -8  511.70   26.42
  -2   4  -8  477.15   25.93
   2  -4   8  490.99   26.84
  -2   4  -8  488.30   26.38
   2   4   8  478.57   26.80
  -2   4  -9  590.39   30.45
   2  -4   9  525.96   31.30
  -2  -4  -9  582.54   30.90
  -2   4  -9  597.73   30.97
   2   4   9  554.78   31.45
   2  -4  10   94.08    7.27
   2  -4  10  103.16    7.77
  -2  -4 -10  102.43    6.87
  -2   4 -10  107.83    6.45
   2   4  10   98.65    7.34
  -2   4 -10  109.95    6.98
  -2   4 -11    2.73    1.18
  -2  -4 -11    0.54    0.97
  -2   4 -11    1.54    0.77
   2  -4  11    1.95    1.15
   2   4  11    1.55    1.10
   2  -4  11    1.75    1.39
   2  -4  12   14.25    2.61
   2   4  12   17.30    2.65
  -2  -4 -12   16.93    2.36
  -2   4 -12   13.88    2.23
   2  -4  12   13.46    2.53
  -2   4 -12   14.52    1.75
  -2  -4 -13    3.77    1.38
   2  -4  13    6.27    1.98
  -2   4 -13    3.92    1.08
  -2   4 -13    6.34    1.68
   2   4  13    3.82    1.69
   2  -4  14    0.51    1.43
  -2   4 -14    0.97    0.86
  -2   4 -14    1.02    1.25
   2  -4  14   -1.05    1.66
  -2  -4 -14    1.34    1.43
   2   4  14   -0.53    1.48
   2   4  15  189.54   12.55
   2  -4  15  166.92   12.09
  -2  -4 -15  169.96   10.99
  -2   4 -15  161.67    9.90
  -2   4 -15  164.27   10.92
   2  -4  15  165.31   11.82
  -2  -4 -16   99.39    7.76
   2   4  16  107.51    8.99
  -2   4 -16  112.27    6.95
  -2   4 -16  111.85    8.02
   2  -4  16  100.92    8.87
   2  -4  16  104.02    8.73
  -2   4 -17   19.33    2.21
   2  -4  17   11.25    3.04
   2   4  17   14.59    3.39
   2  -4  17   19.91    3.62
   2   4  18  111.87    9.52
  -2   4 -18  101.47    6.77
   2  -4  18  110.98    8.99
   2  -4  18   90.75    8.94
  -2   4 -19   37.63    3.43
   2   4  19   43.21    5.81
   2  -4  19   42.04    5.24
   2  -4  19   30.34    5.20
   2  -4  20  101.59    7.68
   2  -4  20   92.99    8.41
   2   4  20   87.75    7.35
  -2   4 -20   88.33    6.26
  -2   4 -21    8.10    1.69
   2  -4  21   11.35    2.68
   2   4  21    6.44    2.34
   2   4  22    3.11    2.02
   2  -4  22    1.55    1.81
   2   4  23   46.37    5.44
   2  -4  23   53.21    5.63
   2  -4  24   26.11    4.11
   2   4  24   29.69    4.27
  -2  -5  25   10.07    3.24
  -2   5  25    7.53    2.85
  -2  -5  24    1.22    2.19
  -2   5  24    1.21    2.12
  -2  -5  23    2.35    2.06
  -2   5  23    4.09    2.49
  -2   5  22    1.12    2.27
  -2  -5  22    2.24    2.02
  -2   5  21    2.65    1.80
  -2  -5  21    1.06    1.92
  -2  -5  20   63.16    5.90
  -2   5  20   53.11    5.68
  -2  -5  19   51.98    5.35
  -2   5  19   52.91    5.24
  -2   5  18  306.09   18.33
  -2  -5  18  292.81   18.23
  -2   5  17   24.67    3.44
  -2  -5  17   25.83    3.50
   2  -5 -16   49.10    4.98
   2   5 -16   42.53    4.84
  -2   5  16   36.08    5.21
  -2   5  16   41.53    4.30
  -2  -5  16   48.46    4.56
   2  -5 -15   53.56    5.66
   2   5 -15   66.15    5.99
  -2  -5  15   69.45    5.64
  -2   5  15   73.87    5.79
  -2   5  15   78.22    7.09
  -2   5  14   37.69    4.89
   2   5 -14   35.49    4.15
   2   5 -14   36.11    4.56
  -2   5  14   45.89    4.05
   2  -5 -14   31.70    4.04
  -2  -5  14   39.41    3.85
   2  -5 -13   19.06    2.74
  -2   5  13   26.74    2.80
  -2   5  13   15.11    3.04
   2   5 -13   10.71    2.61
   2   5 -13   17.28    2.64
  -2  -5  13   19.88    2.53
  -2   5  12   33.64    4.26
  -2   5  12   34.87    3.38
   2   5 -12   36.95    3.85
   2   5 -12   36.03    4.18
   2  -5 -12   32.91    3.67
  -2  -5  12   40.65    3.61
   2   5 -11   28.62    3.61
   2   5 -11   31.99    3.36
  -2   5  11   24.97    3.51
  -2  -5  11   20.75    2.60
   2  -5 -11   21.22    2.92
  -2   5  11   28.31    2.85
  -2   5  10   22.70    3.16
   2   5 -10   16.14    2.95
  -2  -5  10   15.28    2.03
  -2   5  10   18.29    2.12
   2  -5 -10   16.90    2.42
   2   5 -10   16.59    2.43
  -2   5   9   12.03    2.32
   2  -5  -9   14.21    2.22
   2   5  -9    9.56    2.23
  -2   5   9   12.38    1.66
   2   5  -9   14.81    2.22
  -2  -5   9   17.35    1.92
  -2  -5   8  294.59   15.90
   2  -5  -8  302.26   16.51
   2   5  -8  300.89   17.50
  -2   5   8  256.42   15.68
  -2   5   8  290.68   17.29
   2   5  -8  279.23   16.38
   2   5  -7   17.11    2.74
  -2   5   7   20.58    1.91
  -2  -5   7   15.68    1.78
   2  -5  -7   13.05    2.22
  -2   5   7   12.56    2.29
  -2   5   6   43.96    4.40
   2   5  -6   50.51    3.40
   2   5  -6   44.40    4.48
  -2   5   6   52.87    3.53
  -2  -5   6   46.60    3.50
   2  -5  -6   49.37    3.37
   2  -5  -6   54.72    4.72
   2  -5  -5    0.72    0.97
  -2  -5   5    2.08    0.71
   2  -5  -5    1.25    0.57
  -2   5   5    1.60    0.60
  -2   5   5    1.38    1.13
   2   5  -5    1.54    0.62
   2   5  -5    0.38    1.28
  -2  -5   4    2.16    0.61
   2  -5  -4    1.05    0.94
   2  -5  -4    1.01    0.51
  -2   5   4    1.05    0.54
   2   5  -4    1.80    0.63
   2  -5  -3  553.28   29.77
   2  -5  -3  521.12   28.00
  -2  -5   3  544.48   29.25
   2   5  -3  577.95   28.11
  -2  -5   3  556.62   28.16
  -2   5   3  491.91   28.04
   2  -5  -2   63.84    3.62
  -2  -5   2   60.33    4.63
   2  -5  -2   54.36    4.79
   2   5  -2   56.13    3.58
   2   5  -1  416.42   23.25
   2   5  -1  408.15   22.85
   2  -5  -1  413.11   21.60
   2  -5  -1  374.67   23.12
  -2  -5   1  445.26   23.01
   2   5  -1  413.93   21.62
   2   5   0    0.24    0.31
   2   5   0    0.26    0.76
   2  -5   0    0.68    0.91
  -2  -5   0   -0.27    0.76
   2   5   0    0.87    1.18
   2  -5   0    0.39    0.34
   2   5   1  128.64    8.15
   2  -5   1  126.16    6.93
   2   5   1  122.80    6.94
   2   5   1  129.93    8.16
  -2  -5  -1  113.27    8.01
   2   5   2   66.73    4.22
  -2   5  -2   69.85    4.26
   2   5   2   73.67    5.38
   2  -5   2   87.17    4.90
  -2  -5  -2   76.50    4.33
   2  -5   2   60.61    4.16
   2   5   2   68.59    5.13
  -2  -5  -2   74.14    5.44
   2   5   3    1.99    0.63
   2  -5   3    2.73    0.71
  -2   5  -3    0.67    0.42
   2  -5   3    1.62    0.69
   2   5   3    1.85    1.00
  -2  -5  -3    2.06    0.62
   2   5   3    3.66    1.32
   2   5   4  465.24   25.39
   2  -5   4  515.42   25.56
  -2  -5  -4  469.69   25.26
   2   5   4  477.05   26.66
  -2   5  -4  493.34   25.31
   2   5   4  469.94   25.87
   2  -5   4  458.59   25.37
   2   5   5    3.14    1.39
   2   5   5    1.36    0.73
   2  -5   5    3.16    0.80
   2  -5   5    1.38    0.74
  -2  -5  -5    1.68    0.66
  -2   5  -5    1.73    0.72
   2   5   5    2.30    0.96
   2  -5   6  370.27   19.82
  -2  -5  -6  349.33   19.43
   2   5   6  362.34   19.78
   2  -5   6  337.97   19.28
  -2   5  -6  387.33   19.56
  -2   5  -6  363.87   19.40
   2   5   6  365.58   19.55
   2   5   6  328.87   20.70
   2   5   7  105.48    8.13
   2  -5   7  116.55    7.40
   2   5   7  111.02    7.32
   2   5   7  131.40    6.90
   2  -5   7  106.77    6.70
  -2  -5  -7  120.98    7.08
  -2   5  -7  109.07    6.98
  -2   5  -7  102.36    6.73
   2   5   8  300.47   19.40
  -2  -5  -8  328.75   18.08
   2   5   8  352.75   18.76
   2  -5   8  322.77   17.67
   2  -5   8  335.55   18.67
  -2   5  -8  294.87   17.95
  -2   5  -8  355.58   17.84
   2   5   8  322.08   17.45
   2  -5   9   70.39    5.30
   2   5   9   71.86    6.09
  -2   5  -9   68.07    4.79
   2   5   9   72.65    5.35
  -2  -5  -9   60.65    4.62
  -2   5  -9   61.17    4.31
   2  -5   9   57.55    5.61
  -2   5 -10   62.63    4.28
  -2   5 -10   63.11    4.81
  -2  -5 -10   62.03    4.71
   2   5  10   65.74    5.34
   2  -5  10   59.13    5.72
   2  -5  10   64.63    5.34
  -2  -5 -11   52.61    4.22
  -2   5 -11   47.88    3.60
   2   5  11   53.95    4.87
   2  -5  11   53.55    5.19
  -2   5 -11   50.18    4.18
   2  -5  11   47.54    4.66
  -2  -5 -12  145.66    9.62
  -2   5 -12  172.02    9.11
   2   5  12  146.26   10.44
  -2   5 -12  144.41    9.65
   2  -5  12  152.08   10.58
   2  -5  12  136.22   10.77
   2  -5  13    1.63    1.67
   2  -5  13    1.95    1.61
  -2  -5 -13    4.04    1.33
   2   5  13    3.41    1.81
  -2   5 -13    3.49    1.05
  -2   5 -13    4.09    1.37
   2   5  14  467.05   26.12
  -2   5 -14  448.06   24.68
  -2   5 -14  399.25   23.53
   2  -5  14  443.02   26.00
  -2  -5 -14  458.26   24.74
   2  -5  14  473.87   26.39
  -2   5 -15   61.19    4.31
   2  -5  15   60.31    6.17
  -2  -5 -15   63.41    5.20
   2  -5  15   52.27    5.97
   2   5  15   48.22    5.64
  -2   5 -15   52.22    4.92
  -2   5 -16    9.82    1.62
   2   5  16    6.26    2.82
  -2  -5 -16   12.76    2.52
   2  -5  16   14.99    3.36
   2   5  17    3.34    2.27
  -2   5 -17    4.53    1.29
   2  -5  17    3.33    2.20
   2  -5  17    0.65    1.83
   2   5  18    3.54    2.25
  -2   5 -18    1.55    1.13
   2  -5  18    1.41    2.24
   2  -5  18    1.33    2.12
  -2   5 -19    1.82    1.11
   2   5  19    0.90    1.44
   2  -5  19    1.36    2.00
   2  -5  19    0.90    1.58
   2  -5  20    2.79    2.37
   2   5  20   -0.47    1.50
   2  -5  20   -0.47    1.55
  -2   5 -20   -0.93    1.32
   2  -5  21    0.49    1.87
   2   5  21   -1.48    2.10
   2  -5  22   26.54    3.90
   2   5  22   19.80    3.48
   2  -5  23    1.09    1.96
   2   5  23    1.09    1.85
   2  -5  24   48.74    5.73
   2   5  24   49.44    5.63
  -2   6  25   79.85    8.03
  -2  -6  25   90.04    8.31
  -2  -6  24   45.16    5.67
  -2   6  24   48.95    5.67
  -2   6  23    0.57    2.12
  -2  -6  23    0.58    2.14
  -2  -6  22    2.78    2.27
  -2   6  22    1.10    1.99
  -2  -6  21   -1.07    2.22
  -2   6  21   -1.59    2.33
  -2   6  20   18.05    3.31
  -2  -6  20   20.81    3.45
  -2   6  19   43.62    4.81
  -2  -6  19   56.18    5.28
  -2  -6  18   -2.72    1.77
  -2   6  18   -1.79    1.78
  -2  -6  17  298.53   17.68
  -2   6  17  277.87   17.42
   2   6 -16   14.15    2.84
  -2   6  16   11.40    2.24
  -2  -6  16   13.95    2.51
   2  -6 -16   15.16    2.93
   2  -6 -15   48.56    4.83
   2   6 -15   43.57    4.71
  -2   6  15   49.14    4.53
  -2  -6  15   50.07    4.56
  -2   6  15   40.21    5.51
   2   6 -14   24.56    3.35
   2  -6 -14   24.21    3.17
  -2   6  14   23.86    2.96
  -2   6  14   20.08    3.81
  -2  -6  14   23.30    2.94
   2   6 -13   40.13    4.09
  -2   6  13   35.35    4.78
   2  -6 -13   39.71    4.09
  -2   6  13   38.76    3.76
  -2  -6  13   45.41    3.97
   2   6 -13   39.14    4.80
  -2  -6  12   91.68    6.49
   2  -6 -12   82.33    6.69
   2   6 -12   81.10    6.65
  -2   6  12   90.05    7.83
  -2   6  12  109.40    6.71
   2   6 -12   80.90    7.32
   2  -6 -11  463.31   25.58
  -2   6  11  502.35   27.10
  -2   6  11  431.05   24.95
  -2  -6  11  449.68   25.07
   2   6 -11  435.57   26.53
   2   6 -11  467.31   25.64
  -2  -6  10   40.47    3.46
  -2   6  10   41.13    3.40
   2   6 -10   42.86    3.93
   2  -6 -10   29.65    3.41
  -2   6  10   49.37    4.94
   2   6 -10   37.99    4.40
   2   6  -9  204.32   12.73
  -2  -6   9  222.86   12.35
  -2   6   9  187.08   12.12
   2  -6  -9  224.64   12.87
  -2   6   9  220.32   14.01
   2   6  -9  229.41   14.09
  -2  -6   8  115.50    7.31
  -2   6   8  121.58    7.36
   2   6  -8  127.26    7.97
   2   6  -8  119.24    8.84
  -2   6   8  105.12    8.49
   2  -6  -8  115.71    7.74
   2  -6  -7  580.93   30.76
  -2  -6   7  547.78   28.77
  -2   6   7  530.39   28.71
   2   6  -7  499.70   30.37
   2  -6  -7  535.53   29.24
   2   6  -7  498.43   29.19
   2  -6  -6  339.93   22.33
   2   6  -6  402.55   20.72
   2   6  -6  396.22   22.73
  -2  -6   6  384.91   20.86
  -2   6   6  377.50   20.80
  -2   6   6  415.08   22.77
   2   6  -5   68.94    4.31
  -2   6   5   78.08    4.51
   2  -6  -5   56.04    5.54
  -2  -6   5   65.66    4.39
   2   6  -5   73.32    6.05
   2  -6  -5   68.58    4.27
   2  -6  -4    5.76    1.63
  -2   6   4    4.74    0.85
  -2  -6   4    6.54    0.90
   2  -6  -4    7.88    0.90
  -2  -6   4    5.87    1.60
   2   6  -4    6.54    0.90
   2  -6  -3  185.18    9.79
   2   6  -3  181.16    9.81
  -2  -6   3  158.82   11.05
   2  -6  -3  171.58   11.66
   2  -6  -2  153.47    8.05
  -2  -6   2  167.11    9.82
   2   6  -2  156.62   10.05
   2  -6  -2  136.89    9.86
   2   6  -2  136.28    8.03
   2   6  -1    2.93    0.50
   2  -6  -1    0.79    1.11
   2  -6  -1    1.43    0.47
   2   6  -1    2.43    1.51
   2  -6  -1    2.10    0.49
  -2  -6   1    1.28    0.91
   2   6   0  671.06   35.64
   2   6   0  653.64   33.90
   2   6   0  673.63   33.93
   2   6   0  641.13   35.66
   2  -6   0  638.35   36.14
   2  -6   0  642.43   33.86
  -2  -6   0  642.31   35.65
   2  -6   1  147.76    8.53
   2   6   1  163.57    8.59
   2   6   1  167.60   10.25
  -2  -6  -1  142.12   10.09
   2   6   1  176.01   10.31
  -2   6  -2  247.59   13.58
  -2  -6  -2  231.85   15.09
   2  -6   2  256.28   13.57
   2   6   2  259.01   13.57
   2   6   2  220.35   14.90
  -2  -6  -3  634.87   32.74
   2   6   3  674.90   34.61
   2  -6   3  611.90   32.80
  -2  -6  -3  679.95   34.73
   2  -6   3  688.04   33.42
   2   6   3  586.17   32.76
   2   6   3  593.62   33.77
  -2   6  -3  624.20   32.75
   2  -6   4   90.60    5.35
   2   6   4   83.35    6.51
  -2  -6  -4   75.37    5.03
   2   6   4   81.69    5.23
   2  -6   4   93.68    5.58
   2   6   4   85.34    5.88
  -2   6  -4   82.49    5.13
  -2   6  -5   59.75    3.86
  -2  -6  -5   58.02    3.82
   2  -6   5   51.36    3.88
   2  -6   5   56.36    4.03
   2   6   5   51.77    4.98
   2   6   5   59.13    4.04
   2   6   5   57.95    4.32
   2   6   6    1.67    1.42
   2   6   6    2.79    0.94
   2  -6   6    3.20    0.93
  -2  -6  -6    1.58    0.75
   2  -6   6    1.65    0.67
   2   6   6    3.96    0.98
  -2   6  -6    3.43    0.86
   2   6   7  193.52   11.85
   2   6   7  181.99   11.30
   2  -6   7  219.84   11.41
  -2   6  -7  220.15   11.62
   2  -6   7  183.21   11.77
  -2  -6  -7  202.30   11.48
   2   6   7  198.19   13.09
  -2  -6  -8   75.93    5.18
  -2   6  -8   77.85    5.24
   2   6   8   87.72    6.87
   2  -6   8   73.74    6.61
   2  -6   8   74.29    5.66
   2  -6   8   76.29    4.92
   2   6   8   73.14    5.59
   2  -6   9  227.07   13.91
   2  -6   9  197.03   11.28
   2   6   9  189.52   12.30
  -2  -6  -9  203.74   11.76
  -2   6  -9  207.59   11.81
   2   6   9  196.34   13.39
   2  -6   9  192.08   12.31
   2  -6  10    3.22    1.58
  -2   6 -10    1.23    1.01
   2  -6  10    3.67    1.50
  -2   6 -10    3.93    1.00
   2   6  10    0.73    1.03
   2   6  10    3.21    1.98
  -2  -6 -10    2.91    1.06
   2  -6  11   17.61    2.65
   2   6  11   19.82    3.26
   2   6  11   14.16    2.36
  -2   6 -11   12.61    1.64
  -2   6 -11   13.98    2.04
  -2  -6 -11   15.30    2.08
   2  -6  11    6.71    2.23
   2  -6  12   29.06    4.08
  -2   6 -12   25.64    2.32
   2   6  12   22.50    3.32
  -2  -6 -12   22.31    2.79
   2  -6  12   19.88    3.15
   2   6  12   30.57    4.35
  -2   6 -12   24.45    2.81
   2   6  13  230.01   15.16
  -2   6 -13  208.91   12.05
  -2   6 -13  214.61   12.90
   2   6  13  199.02   13.81
  -2  -6 -13  209.21   12.89
   2  -6  13  206.41   14.55
   2  -6  13  217.62   14.11
  -2  -6 -14   84.47    6.41
   2  -6  14   80.82    7.66
   2  -6  14   82.10    7.31
   2   6  14   97.01    7.70
  -2   6 -14   77.90    5.51
  -2   6 -14   93.42    6.55
  -2   6 -15   -1.06    1.54
  -2   6 -15    0.58    0.95
   2  -6  15    1.18    1.93
   2  -6  15    0.66    2.01
  -2  -6 -15    0.35    1.55
   2   6  15    0.59    2.05
   2  -6  16    3.42    2.61
  -2   6 -16    5.77    1.31
   2   6  16    7.53    2.51
   2  -6  16    3.15    2.28
   2  -6  17    0.71    1.91
   2  -6  17   -0.67    2.05
   2   6  17    3.33    2.04
  -2   6 -17    2.24    1.12
   2   6  18   28.02    4.74
  -2   6 -18   34.75    3.02
   2  -6  18   28.40    4.87
   2  -6  19   28.80    3.76
   2   6  19   25.97    3.70
  -2   6 -19   21.38    2.48
   2  -6  19   28.20    4.63
   2   6  20   31.47    4.02
  -2   6 -20   26.21    2.75
   2  -6  20   29.26    3.91
   2  -6  20   25.10    4.73
   2  -6  21   12.41    2.86
   2   6  21   11.86    2.82
   2   6  22   48.91    5.48
   2  -6  22   52.24    5.59
   2   6  23   20.78    3.77
   2  -6  23   20.42    3.78
   2   6  24   -3.44    3.04
   2  -6  24   -2.30    2.93
  -2   7  25   48.26    5.97
  -2   7  24   -1.76    2.39
  -2  -7  24    2.38    2.31
  -2  -7  23   36.68    4.92
  -2   7  23   32.69    4.80
  -2  -7  22    3.84    1.98
  -2   7  22    0.54    2.20
  -2   7  21    0.51    2.09
  -2  -7  21   -0.52    2.22
  -2   7  20   13.21    2.84
  -2  -7  20   13.43    3.00
  -2   7  19   14.35    2.91
  -2  -7  19   11.39    2.78
  -2  -7  18   44.77    4.72
  -2   7  18   36.95    4.38
  -2  -7  17  248.06   16.12
  -2   7  17  280.88   16.43
  -2  -7  16    4.74    1.82
   2   7 -16    3.88    1.95
   2  -7 -16    5.47    2.13
  -2   7  16    6.14    1.80
  -2   7  15   21.10    2.79
   2  -7 -15   21.57    3.12
   2   7 -15   19.70    3.04
  -2  -7  15   24.32    2.89
  -2   7  14    3.26    2.00
   2  -7 -14    1.90    1.53
   2   7 -14    1.96    1.46
  -2  -7  14    6.11    1.43
  -2   7  14    6.95    1.55
   2   7 -13    1.11    1.33
   2  -7 -13    1.43    0.66
  -2  -7  13    0.94    1.19
  -2   7  13   -1.87    2.25
  -2   7  13    0.61    1.21
   2  -7 -13   -0.36    1.18
   2   7 -12  244.44   14.25
   2  -7 -12  228.13   14.12
  -2  -7  12  213.16   13.58
  -2   7  12  239.62   13.73
  -2   7  12  231.26   15.63
   2   7 -11  128.39    8.41
   2  -7 -11  112.44    8.14
  -2   7  11  112.21    9.38
   2   7 -11  125.95    9.61
  -2   7  11  112.36    7.77
  -2  -7  11  137.09    8.11
  -2   7  10  145.92    8.49
   2   7 -10  111.78    9.57
   2   7 -10  119.65    8.64
   2  -7 -10  124.79    8.66
  -2  -7  10  138.82    8.41
  -2   7  10  162.94   10.68
  -2  -7   9   12.79    1.79
  -2   7   9   20.52    3.17
   2  -7  -9   10.97    1.94
   2   7  -9   13.15    2.10
  -2   7   9   20.25    2.10
   2   7  -9   19.93    3.10
  -2  -7   8   21.91    2.33
  -2  -7   8   27.75    1.60
   2  -7  -8   27.51    2.80
  -2   7   8   30.76    3.86
   2   7  -8   23.86    2.69
  -2   7   8   25.90    2.41
   2   7  -8   21.35    3.45
   2  -7  -8   21.02    3.38
  -2   7   7   21.44    1.97
   2  -7  -7   17.24    2.17
  -2   7   7   20.01    3.10
   2   7  -7   20.75    3.09
   2  -7  -7   18.13    3.00
  -2  -7   7   19.40    1.95
   2   7  -7   17.72    2.19
   2  -7  -6   46.75    3.77
  -2  -7   6   48.31    3.50
   2  -7  -6   54.44    5.22
  -2   7   6   53.40    3.56
   2   7  -6   52.97    3.95
   2   7  -6   43.79    4.82
  -2  -7   5  102.12    6.20
   2  -7  -5  114.28    6.61
  -2  -7   5   95.27    7.56
   2  -7  -5  120.33    8.52
  -2   7   5   98.35    6.15
  -2  -7   4   13.30    1.29
   2  -7  -4    9.94    2.29
   2   7  -4   12.29    1.19
   2  -7  -4   12.14    1.16
  -2  -7   4    9.90    2.14
   2   7  -3   13.40    2.53
   2  -7  -3   14.74    1.24
   2   7  -3   14.57    1.27
  -2  -7   3   15.00    2.44
   2  -7  -3   20.70    2.89
   2   7  -2  189.86    9.58
   2  -7  -2  164.63    9.46
  -2  -7   2  170.55   11.36
   2   7  -2  184.24   11.73
   2  -7  -2  176.34   11.89
   2   7  -1  456.17   24.69
   2  -7  -1  425.70   22.34
   2   7  -1  445.33   22.41
   2  -7  -1  402.90   22.30
   2   7  -1  455.96   22.38
   2  -7  -1  412.79   24.91
  -2  -7   1  377.75   24.25
   2   7   0   36.32    2.35
  -2  -7   0   45.00    4.15
   2   7   0   39.62    2.36
   2  -7   0   36.24    2.31
   2  -7   0   36.19    4.14
   2  -7   0   34.75    2.32
   2   7   0   36.62    3.82
   2   7   0   34.35    3.78
   2   7   1  101.03    6.99
   2   7   1   84.89    5.14
   2   7   1  108.75    7.27
   2  -7   1   90.32    5.17
   2  -7   1   95.63    7.43
  -2  -7  -1   94.18    7.08
  -2  -7  -2    4.93    1.55
   2   7   2    5.72    0.84
   2   7   2    8.15    1.84
   2   7   2    3.11    1.40
   2  -7   2    7.81    0.92
   2   7   3  450.33   26.70
   2  -7   3  483.45   25.56
   2  -7   3  487.30   24.94
   2   7   3  470.50   24.88
  -2  -7  -3  455.70   24.77
  -2   7  -3  453.38   24.78
   2   7   3  499.06   26.34
  -2  -7  -3  515.01   27.21
  -2  -7  -4  444.28   26.64
   2   7   4  492.70   24.89
   2  -7   4  457.08   25.19
  -2  -7  -4  470.47   24.66
  -2   7  -4  489.28   24.74
   2   7   4  409.63   26.31
   2  -7   4  433.69   24.79
   2   7   4  498.94   25.91
   2   7   5   -0.26    0.85
  -2  -7  -5    0.14    0.52
   2  -7   5    0.19    0.61
  -2   7  -5   -0.14    0.55
   2   7   5    0.18    0.57
   2  -7   5    0.57    0.66
   2   7   5    0.44    1.12
   2   7   6   12.49    2.60
  -2   7  -6   11.21    1.43
   2  -7   6   15.71    1.86
  -2  -7  -6   14.94    1.57
   2  -7   6   10.36    1.48
   2   7   6   10.51    1.60
   2   7   6   16.50    2.04
   2  -7   7   42.10    3.04
  -2   7  -7   32.34    2.85
   2  -7   7   38.18    3.34
  -2  -7  -7   37.67    2.94
   2   7   7   29.99    3.07
   2   7   7   33.09    4.16
   2  -7   8    2.08    1.11
  -2   7  -8    2.84    1.08
  -2  -7  -8    1.78    0.78
   2  -7   8    3.18    0.85
   2   7   8    3.19    1.21
   2   7   8    2.57    1.58
  -2  -7  -9  288.55   16.56
   2  -7   9  279.62   17.21
   2   7   9  311.78   18.79
   2  -7   9  287.94   16.17
  -2   7  -9  306.82   16.69
   2  -7   9  301.99   18.88
   2   7   9  302.06   17.34
   2   7  10    7.40    2.23
   2  -7  10    7.81    2.56
  -2   7 -10   12.01    1.80
  -2  -7 -10   14.52    1.92
   2   7  10   11.88    2.38
   2  -7  10   10.31    1.42
   2  -7  10    9.87    2.09
  -2  -7 -11   59.21    4.42
   2  -7  11   63.48    6.37
   2  -7  11   53.14    5.04
   2   7  11   47.52    4.83
  -2   7 -11   54.17    4.32
   2   7  11   41.60    5.44
   2  -7  12    0.93    1.48
   2   7  12   -0.64    2.02
   2   7  12    0.46    1.50
  -2  -7 -12    0.85    1.17
   2  -7  12   -0.65    1.74
  -2   7 -12    2.01    1.24
   2  -7  13    5.37    2.37
  -2  -7 -13    6.38    1.62
   2  -7  13   10.68    2.58
  -2   7 -13    7.40    1.63
   2   7  13    4.00    1.83
  -2  -7 -14  392.08   22.69
   2  -7  14  386.98   24.96
   2   7  14  386.32   24.02
   2  -7  14  406.38   24.26
  -2   7 -14  426.61   22.93
  -2   7 -15   59.39    4.88
   2  -7  15   45.50    6.05
   2  -7  15   49.71    5.73
  -2  -7 -15   49.48    4.51
  -2   7 -15   37.27    3.47
   2   7  15   46.70    5.45
   2  -7  16    4.50    2.63
  -2   7 -16    2.33    1.06
   2  -7  16    6.91    2.61
   2   7  16    0.62    1.98
   2   7  17   39.16    4.08
  -2   7 -17   32.48    3.06
   2  -7  17   41.75    5.57
   2  -7  17   30.40    3.83
  -2   7 -18   12.56    1.85
   2  -7  18   11.09    3.54
   2   7  18    9.25    2.42
   2  -7  18   12.79    2.52
   2  -7  19   39.46    4.38
   2   7  19   40.27    4.43
   2  -7  19   33.01    5.47
  -2   7 -19   32.59    3.11
   2  -7  20    2.85    1.85
   2  -7  20    3.30    2.71
   2   7  20    1.40    1.86
   2  -7  21    0.50    1.94
   2   7  21    1.97    2.01
   2   7  22   -1.04    2.07
   2  -7  22    0.53    2.06
   2   7  23    8.19    2.74
   2  -7  23    8.83    2.64
   2   7  24   20.64    3.91
  -2   8  24    2.31    2.60
  -2  -8  24    2.95    2.55
  -2   8  23   14.38    3.37
  -2  -8  23   15.82    3.38
  -2  -8  22   22.63    3.95
  -2   8  22   26.44    4.06
  -2  -8  21   -0.51    2.35
  -2   8  21    1.01    2.23
  -2  -8  20   25.96    3.78
  -2   8  20   22.49    3.52
  -2   8  19    1.81    1.81
  -2  -8  19    3.71    1.85
  -2  -8  18   46.73    4.77
  -2   8  18   42.79    4.70
  -2   8  17    4.42    1.69
  -2  -8  17    4.52    1.72
  -2   8  16   16.48    2.66
   2  -8 -16   13.29    2.68
  -2  -8  16   15.38    2.57
   2   8 -16   10.83    2.67
   2   8 -15    0.80    1.51
   2  -8 -15    1.16    1.39
  -2   8  15    2.43    1.32
  -2  -8  15    1.07    1.21
   2  -8 -14  124.56    8.56
   2   8 -14  108.11    8.42
  -2  -8  14  115.07    8.22
  -2   8  14  132.04    8.41
   2   8 -13  116.99    8.16
   2  -8 -13  114.21    8.02
  -2   8  13  102.27    7.60
  -2  -8  13  114.28    7.79
   2  -8 -13  117.10    6.85
  -2   8  13  120.60    9.80
   2  -8 -12   74.80    5.63
  -2   8  12   81.63    7.33
   2   8 -12   74.23    5.69
   2  -8 -12   62.77    4.65
  -2  -8  12   62.31    5.17
  -2   8  12   76.69    5.40
  -2  -8  11   60.25    4.45
   2   8 -11   46.51    4.47
  -2   8  11   47.71    4.19
   2  -8 -11   52.02    4.53
  -2   8  11   66.20    6.45
   2  -8 -11   55.93    4.12
  -2   8  10    2.33    1.99
  -2  -8  10    1.89    1.02
   2   8 -10    3.48    1.36
  -2   8  10    5.32    1.17
   2  -8 -10    3.36    1.27
  -2   8   9  170.93   10.00
   2  -8  -9  144.62   10.04
   2   8  -9  167.04   10.35
  -2  -8   9  170.43   10.05
   2   8  -9  168.00   11.98
  -2   8   8    0.95    0.82
   2  -8  -8    3.45    2.01
   2   8  -8    0.25    0.89
  -2   8   8    0.54    1.60
  -2  -8   8    1.61    0.48
   2   8  -8    0.53    1.50
  -2  -8   8    1.75    0.88
   2  -8  -8    1.42    0.90
   2  -8  -7  134.60    8.22
   2  -8  -7  121.90    9.88
   2   8  -7  125.05    8.18
   2   8  -7  125.73    9.82
  -2  -8   7  137.23    7.96
  -2   8   7  137.06    7.92
   2  -8  -6   79.58    7.29
  -2   8   6   88.78    5.41
  -2  -8   6   84.63    5.40
   2   8  -6   85.21    5.73
   2  -8  -6   88.49    5.70
   2  -8  -5    0.98    0.68
  -2  -8   5    1.02    0.55
  -2  -8   5    1.78    1.31
   2  -8  -5    2.18    1.60
  -2   8   5    1.34    0.63
   2   8  -5    1.57    0.79
   2   8  -4  217.20   13.93
   2  -8  -4  215.66   11.84
   2   8  -4  205.00   11.83
  -2  -8   4  197.88   13.55
   2  -8  -4  238.09   14.56
   2   8  -3   69.30    6.57
   2  -8  -3   85.88    7.23
   2  -8  -3   81.11    4.66
   2   8  -3   85.43    4.73
  -2  -8   3   81.90    6.73
   2   8  -2   21.66    1.46
   2  -8  -2   20.43    1.45
  -2  -8   2   17.07    2.82
   2   8  -2   20.61    3.15
   2  -8  -2   18.67    3.12
   2  -8  -2   18.68    1.37
   2   8  -1  257.34   13.29
   2   8  -1  241.45   15.52
   2  -8  -1  240.24   13.19
   2  -8  -1  254.56   16.29
  -2  -8   1  212.66   15.35
   2   8  -1  234.46   13.23
   2  -8  -1  285.66   13.26
   2  -8   0   43.56    2.34
   2   8   0   36.16    3.98
   2   8   0   34.47    2.29
  -2  -8   0   33.50    3.94
   2  -8   0   34.92    2.25
   2   8   0   39.49    4.27
   2  -8   0   41.92    4.58
   2   8   0   36.79    2.29
   2  -8   1  134.24   10.45
   2   8   1  143.03   10.12
   2  -8   1  148.18    8.00
   2   8   1  145.98    7.96
   2   8   1  145.57    7.94
   2   8   1  141.41    9.87
  -2  -8  -1  167.18   10.72
   2   8   2    8.87    0.98
  -2  -8  -2    6.14    1.88
   2  -8   2    8.21    0.96
   2  -8   2    5.38    1.98
   2   8   2    6.52    1.86
   2   8   2    4.83    1.71
   2  -8   3  180.92   10.93
   2  -8   3  183.53   10.25
   2   8   3  180.20   10.19
   2   8   3  179.39   11.62
   2   8   3  195.94   12.47
  -2  -8  -3  197.64   12.64
  -2  -8  -4  266.04   15.40
   2   8   4  231.63   12.80
   2  -8   4  222.12   12.80
   2   8   4  222.94   14.69
   2   8   4  237.78   13.97
  -2  -8  -4  239.07   12.60
  -2   8  -4  208.32   12.49
   2  -8   4  247.16   13.38
  -2   8  -5    8.23    1.14
   2   8   5    8.97    1.31
  -2  -8  -5    7.43    1.08
   2  -8   5    9.35    1.51
   2   8   5    9.66    2.32
   2  -8   5    9.04    1.35
   2  -8   5    7.11    2.22
   2  -8   6   49.72    5.11
   2  -8   6   43.21    3.32
   2   8   6   40.86    3.36
   2   8   6   39.73    4.62
  -2  -8  -6   38.01    2.97
  -2   8  -6   38.82    3.00
   2  -8   6   39.80    3.39
   2  -8   7   31.44    2.74
  -2  -8  -7   30.15    2.58
   2   8   7   30.72    2.99
   2  -8   7   27.14    2.90
  -2   8  -7   29.77    2.56
   2   8   7   32.25    4.15
  -2   8  -8  178.86   10.34
   2   8   8  178.54   10.99
   2  -8   8  183.68   11.07
  -2  -8  -8  157.72   10.17
   2   8   8  171.58   12.39
   2  -8   8  186.13   10.35
   2   8   9   12.24    2.88
  -2  -8  -9   10.62    1.69
  -2   8  -9   10.59    1.63
   2   8   9    6.69    1.71
   2  -8   9    8.51    1.33
   2  -8   9    6.25    1.70
   2  -8   9    7.73    2.66
   2   8  10   88.54    7.52
   2  -8  10   68.14    5.91
  -2  -8 -10   75.02    5.25
   2  -8  10   65.43    4.69
   2   8  10   68.91    5.89
   2  -8  10   74.62    7.39
  -2   8 -10   75.45    5.29
   2  -8  11   31.10    5.05
   2  -8  11   53.11    4.80
   2  -8  11   40.00    3.29
  -2  -8 -11   44.83    3.84
  -2   8 -11   52.11    4.03
   2   8  11   44.17    5.53
   2   8  11   50.38    4.68
   2  -8  12    4.29    2.28
  -2  -8 -12    3.10    1.32
   2   8  12    3.70    1.62
   2  -8  12    0.94    1.39
  -2   8 -12    2.85    1.42
  -2   8 -13   78.37    5.69
  -2  -8 -13   65.53    5.37
   2   8  13   69.43    6.41
   2  -8  13   67.49    6.41
   2  -8  13   71.11    7.56
  -2   8 -14    4.88    1.72
  -2  -8 -14    3.86    1.54
   2  -8  14    7.66    3.19
   2  -8  14    2.74    2.04
   2   8  14    3.77    2.20
  -2  -8 -15   38.19    3.94
   2   8  15   39.10    4.91
   2  -8  15   43.59    5.81
   2  -8  15   30.97    4.57
  -2   8 -15   33.60    3.78
   2  -8  16  113.30    8.14
   2   8  16  115.21    8.16
   2  -8  16  103.12   10.01
   2  -8  17   13.46    3.81
   2  -8  17    9.63    2.36
   2   8  17    7.83    2.26
   2  -8  18    0.42    1.65
   2   8  18    0.83    1.58
   2  -8  18    1.71    2.72
   2  -8  19    3.47    2.88
   2  -8  19    7.18    2.25
   2   8  19    9.67    2.47
   2  -8  20  112.26    8.90
   2  -8  20  101.22   10.66
   2   8  20  133.82    9.28
   2  -8  21   10.05    2.77
   2   8  21   14.28    2.93
   2   8  22    0.52    1.87
   2  -8  22    1.06    1.96
   2   8  23    1.63    2.44
   2  -8  23    2.77    2.25
  -2  -9  24    1.77    2.40
  -2   9  24   -0.58    2.29
  -2   9  23    2.20    2.43
  -2  -9  23   -0.56    2.38
  -2   9  22   27.25    4.04
  -2  -9  22   18.16    3.55
  -2   9  21    5.96    2.40
  -2  -9  21    4.06    2.49
  -2   9  20   16.96    3.22
  -2  -9  20   20.63    3.37
  -2  -9  19   61.21    5.78
  -2   9  19   59.23    5.67
  -2  -9  18    8.55    2.07
  -2   9  18    3.78    1.66
  -2  -9  17   24.87    3.46
  -2   9  17   22.07    3.31
  -2  -9  16  106.22    7.89
   2  -9 -16  106.14    8.04
   2   9 -16  114.00    8.29
  -2   9  16  109.83    7.91
   2  -9 -15  157.53   11.20
  -2   9  15  194.04   11.44
   2   9 -15  168.95   11.45
  -2  -9  15  179.90   11.32
   2  -9 -14  117.14    8.47
  -2  -9  14  124.46    8.46
   2   9 -14  132.16    8.83
  -2   9  14  119.71    8.34
  -2   9  13   17.57    2.33
   2  -9 -13   15.03    2.34
   2   9 -13   14.04    2.42
  -2  -9  13   16.12    2.43
   2  -9 -13   12.42    1.79
   2  -9 -12  106.30    7.40
  -2  -9  12  108.23    7.27
   2   9 -12  101.22    7.37
  -2   9  12  106.92    7.22
   2  -9 -12  107.10    6.95
   2   9 -11  234.74   13.54
  -2  -9  11  240.12   13.29
   2  -9 -11  213.86   13.28
  -2   9  11  212.49   13.07
   2  -9 -11  221.46   13.16
  -2   9  11  212.65   15.37
  -2   9  10   22.04    3.87
  -2  -9  10   17.34    2.21
   2  -9 -10   19.54    2.43
  -2   9  10   18.43    2.19
   2   9 -10   25.58    2.73
   2  -9 -10   16.06    2.37
   2  -9  -9   40.62    5.26
  -2  -9   9   47.18    3.71
   2   9  -9   40.86    3.78
   2  -9  -9   52.36    4.34
  -2   9   9   55.31    3.83
   2  -9  -9   40.35    3.76
  -2  -9   9   49.18    2.88
  -2   9   9   45.56    5.44
  -2   9   8    0.36    0.68
   2   9  -8    1.59    0.98
   2  -9  -8   -1.27    1.53
   2  -9  -8    1.32    1.16
  -2  -9   8    0.18    0.68
  -2  -9   8    0.39    0.52
  -2   9   8    0.60    1.82
   2  -9  -8    1.28    0.92
   2   9  -7   12.21    1.75
   2  -9  -7   14.39    3.06
   2  -9  -7   16.57    1.86
  -2   9   7   17.67    1.76
  -2  -9   7   16.97    1.77
  -2   9   6   46.53    3.32
   2   9  -6   52.50    3.68
  -2  -9   6   47.95    3.37
   2  -9  -6   49.17    3.53
  -2  -9   6   42.70    4.91
   2  -9  -6   45.58    5.28
   2   9  -5  279.58   14.93
   2  -9  -5  266.18   14.78
  -2  -9   5  290.39   17.38
   2   9  -5  266.66   17.28
   2  -9  -5  246.13   17.41
  -2  -9   4  267.66   16.57
   2  -9  -4  259.72   13.98
   2   9  -4  247.67   14.04
   2   9  -4  289.69   16.87
   2  -9  -4  260.81   17.03
   2  -9  -3  212.61   10.98
   2   9  -3  198.68   11.21
  -2  -9   3  196.02   13.61
   2  -9  -3  176.48   13.75
   2  -9  -3  207.21   11.10
   2   9  -3  219.96   13.88
   2   9  -2    2.29    0.62
   2  -9  -2    3.30    0.58
   2  -9  -2    3.32    0.44
   2  -9  -2    1.75    1.65
   2   9  -2    2.91    0.52
  -2  -9   2    1.49    1.53
   2   9  -2    2.84    1.66
   2   9  -1  160.37    8.67
   2   9  -1  168.10    8.65
   2   9  -1  162.52   11.26
  -2  -9   1  191.83   12.01
   2  -9  -1  150.48   11.67
   2   9   0   51.55    2.72
   2   9   0   56.21    5.11
   2  -9   0   46.61    5.27
  -2  -9   0   65.36    5.74
   2   9   0   43.62    2.71
  -2  -9  -1   15.78    2.96
   2   9   1   17.43    1.28
   2   9   1   18.52    1.23
   2  -9   1   18.02    1.31
   2  -9   1   16.87    1.21
   2   9   1   17.72    3.03
   2  -9   1   22.19    3.52
   2   9   1   16.63    2.68
  -2  -9  -2   -0.53    1.28
   2  -9   2    0.54    1.30
   2   9   2    1.48    1.51
   2  -9   2    1.00    0.47
   2   9   2    0.25    0.44
  -2  -9  -3    1.09    1.39
   2  -9   3   -0.57    1.36
   2   9   3    0.50    1.21
   2   9   3    0.69    0.47
   2  -9   3   -0.12    0.51
   2  -9   4   65.59    4.40
   2   9   4   68.60    4.41
   2  -9   4   65.58    6.44
  -2   9  -4   69.85    4.18
  -2  -9  -4   61.78    6.21
   2   9   4   63.62    6.12
   2  -9   4   54.89    4.67
   2  -9   5   16.52    2.11
  -2  -9  -5   14.72    3.00
  -2   9  -5   19.35    1.79
  -2  -9  -5   22.03    1.79
   2   9   5   23.93    3.42
   2   9   5   19.59    2.02
   2  -9   5   14.38    1.90
   2  -9   5   18.46    3.48
   2   9   6    7.99    1.50
   2   9   6    2.76    2.02
  -2  -9  -6    6.26    1.14
   2  -9   6    6.23    1.30
   2  -9   6    9.28    1.63
  -2   9  -6    7.35    1.24
   2  -9   6    7.04    2.85
  -2  -9  -7  654.63   35.82
   2   9   7  651.60   36.44
   2  -9   7  609.35   36.39
   2   9   7  600.55   38.15
  -2   9  -7  709.37   35.96
  -2   9  -8   55.06    4.12
   2  -9   8   63.75    4.36
  -2  -9  -8   58.28    4.13
   2   9   8   50.99    4.57
   2   9   8   54.07    5.97
   2  -9   8   56.74    4.73
   2  -9   9    8.73    1.88
   2  -9   9    6.98    1.34
  -2  -9  -9    5.67    1.36
  -2   9  -9    6.02    1.47
   2   9   9    7.42    1.93
   2   9   9    3.11    2.14
  -2  -9 -10    3.72    1.40
   2  -9  10    3.68    2.43
   2   9  10    0.75    1.21
   2  -9  10    3.35    0.96
  -2   9 -10    5.47    1.36
   2  -9  10    1.55    1.40
   2   9  10    2.60    2.28
  -2   9 -11   -2.07    1.42
  -2  -9 -11   -0.25    1.22
   2   9  11    1.66    1.50
   2  -9  11   -0.43    1.70
   2  -9  11   -0.76    2.24
   2  -9  11    0.54    0.76
  -2  -9 -12   20.95    2.62
   2  -9  12   15.32    3.01
  -2   9 -12   25.29    2.82
   2   9  12   20.87    3.26
   2  -9  12   23.66    4.42
   2  -9  13   38.19    5.72
  -2  -9 -13   50.55    4.14
   2   9  13   39.07    4.56
  -2   9 -13   38.95    3.89
  -2  -9 -14    5.10    1.70
  -2   9 -14    4.22    1.67
   2   9  14    3.82    1.47
   2  -9  14    1.31    1.43
   2  -9  15   50.10    7.04
   2   9  15   54.27    4.98
   2  -9  15   65.52    5.24
  -2   9 -15   62.41    5.27
  -2  -9 -15   62.27    5.30
   2   9  16   -1.09    1.51
   2  -9  16   -0.89    2.26
   2  -9  16    0.37    1.49
   2   9  17   25.14    3.26
   2  -9  17   23.65    4.91
   2  -9  17   23.10    3.12
   2  -9  18   10.12    3.50
   2  -9  18    3.38    1.99
   2   9  18    6.98    2.28
   2  -9  19   -0.94    2.76
   2   9  19    0.44    1.74
   2  -9  19    4.04    2.02
   2  -9  20    0.95    1.90
   2  -9  20   -0.95    3.03
   2   9  20   -1.39    1.84
   2  -9  21    7.52    2.55
   2   9  21    7.80    2.55
   2   9  22    6.14    2.57
   2  -9  22   11.57    3.02
   2   9  23    3.23    2.33
   2  -9  23    3.30    2.39
  -2 -10  24    5.84    2.77
  -2  10  24    2.85    2.57
  -2  10  23    1.64    2.27
  -2 -10  23    0.56    2.22
  -2  10  22    1.04    1.98
  -2 -10  22    1.06    1.97
  -2 -10  21    0.51    2.06
  -2  10  21    2.48    2.06
  -2  10  20   13.15    2.97
  -2 -10  20   11.50    3.03
  -2 -10  19   -0.45    1.96
  -2  10  19    1.77    1.81
  -2 -10  18   78.83    6.53
  -2  10  18   72.30    6.28
  -2 -10  17   42.00    4.40
  -2  10  17   37.67    4.20
  -2 -10  16   54.59    5.05
  -2  10  16   67.21    5.37
   2  10 -16   54.55    5.20
   2 -10 -16   50.16    4.99
  -2 -10  15    3.83    1.58
   2 -10 -15    5.53    2.02
  -2  10  15    3.08    1.66
   2  10 -15    5.83    2.09
  -2 -10  14   59.22    4.96
  -2  10  14   54.45    4.83
   2  10 -14   60.41    5.13
   2 -10 -14   53.96    4.81
  -2  10  13   68.86    5.30
   2 -10 -13   65.17    4.93
   2 -10 -13   72.59    5.49
  -2 -10  13   60.73    5.18
   2  10 -13   73.12    5.61
  -2  10  12  101.63    6.69
   2 -10 -12   96.68    6.67
   2  10 -12   88.40    6.65
  -2 -10  12   97.13    6.64
   2 -10 -12   85.76    6.48
  -2  10  11  153.15    9.33
  -2 -10  11  146.85    9.32
   2  10 -11  151.56    9.52
   2 -10 -11  153.20    9.43
   2 -10 -11  140.92    9.58
  -2  10  10  234.28   12.56
  -2 -10  10  208.24   11.27
   2 -10 -10  215.16   12.56
   2 -10 -10  213.23   13.15
  -2 -10  10  215.92   12.49
   2  10 -10  211.79   12.64
   2 -10  -9  184.26   12.82
   2 -10  -9  164.29    9.66
   2  10  -9  161.49    9.76
   2 -10  -9  163.59   10.58
  -2  10   9  152.16    9.44
  -2  10   9  141.59   11.80
  -2 -10   9  154.18    9.48
  -2 -10   9  163.18    8.83
   2 -10  -8   74.83    7.56
  -2  10   8   82.58    5.17
  -2 -10   8   75.68    7.23
  -2 -10   8   76.10    5.12
   2 -10  -8   75.23    5.22
   2  10  -8   83.10    5.38
   2 -10  -8   68.94    6.04
   2 -10  -7  122.09    7.47
  -2 -10   7  126.95    9.88
   2 -10  -7  126.04    8.96
   2  10  -7  136.99    7.66
  -2 -10   7  126.69    7.42
  -2  10   7  113.82    7.29
   2 -10  -7  125.36   10.27
   2 -10  -6   68.53    6.05
  -2 -10   6   65.95    6.46
   2 -10  -6   72.09    4.44
   2  10  -6   67.97    4.45
   2 -10  -6   52.97    6.39
   2 -10  -5   33.60    4.94
   2 -10  -5   40.04    2.70
   2  10  -5   38.35    2.76
  -2 -10   5   31.90    4.41
   2 -10  -5   44.08    4.49
   2 -10  -4   37.42    2.42
   2  10  -4   39.58    2.54
  -2 -10   4   37.52    4.69
   2 -10  -4   33.94    4.14
   2 -10  -4   29.90    4.60
   2  10  -3   53.85    3.22
   2  10  -3   61.08    3.32
   2 -10  -3   46.86    5.18
  -2 -10   3   59.02    5.93
   2 -10  -3   57.54    6.18
  -2 -10   2    3.92    1.79
   2 -10  -2    3.87    2.13
   2 -10  -2    2.57    1.58
   2 -10  -1    1.61    1.65
   2 -10  -1   -1.93    1.89
  -2 -10   1   -0.57    1.52
   2 -10   0  176.49   12.72
   2 -10   0  172.52   12.20
  -2 -10   0  159.96   11.99
   2 -10   1   43.30    4.92
   2  10   1   35.33    4.46
  -2 -10  -1   35.25    4.65
   2 -10   2   85.49    4.56
   2 -10   2   81.18    4.59
   2  10   2   86.57    7.53
   2 -10   2  102.31    8.16
  -2 -10  -2   91.56    7.84
   2 -10   3   27.91    4.23
   2  10   3   27.35    3.93
   2  10   3   29.40    2.14
  -2 -10  -3   32.07    4.28
  -2 -10  -4   12.94    2.92
   2 -10   4   11.21    1.83
   2  10   4   12.02    1.42
   2  10   4    7.94    2.52
   2 -10   4   12.20    1.49
   2 -10   4    9.87    2.96
   2 -10   5  137.13    8.19
  -2 -10  -5  156.26   11.06
   2 -10   5  149.71   11.17
   2  10   5  129.73    8.11
   2  10   5  133.70   10.41
  -2  10  -5  126.30    7.78
   2 -10   5  158.22    8.87
  -2  10  -6   92.21    5.54
   2 -10   6   94.05    6.18
   2  10   6   82.16    5.88
   2 -10   6   83.19    5.89
  -2 -10  -6   88.72    5.47
   2  10   6  102.75    8.36
   2 -10   6   83.51    8.16
  -2  10  -7   87.65    5.68
  -2 -10  -7   93.26    5.70
   2  10   7   91.71    8.20
   2 -10   7   84.69    6.16
   2 -10   7   85.69    8.44
   2  10   7   78.22    6.01
   2 -10   7  107.98    6.33
  -2 -10  -8   85.12    5.43
   2  10   8   79.76    5.98
  -2  10  -8   82.33    5.39
   2 -10   8   79.77    5.57
   2 -10   8   71.68    5.81
   2  10   8   94.54    8.06
  -2  10  -9   75.33    5.19
   2  10   9   75.75    5.89
   2 -10   9   81.23    5.28
  -2 -10  -9   67.44    5.01
   2 -10  10  114.04    7.06
  -2  10 -10  103.30    6.94
  -2 -10 -10  112.96    7.02
   2 -10  10   98.97    6.68
   2 -10  11   -0.84    2.13
  -2  10 -11    0.25    1.05
  -2 -10 -11   -0.49    1.04
   2  10  11   -0.24    0.98
   2 -10  11    0.19    0.80
   2 -10  11   -0.75    1.14
   2 -10  12   -0.18    0.86
   2 -10  12    0.86    2.19
   2  10  12    0.79    1.14
   2 -10  12    0.82    0.95
  -2 -10 -12    0.27    1.25
  -2  10 -12    0.55    1.21
   2 -10  13    3.55    2.96
  -2  10 -13   13.29    2.22
   2  10  13    9.38    1.98
  -2 -10 -13   11.01    2.06
   2 -10  13   10.32    2.04
   2 -10  14  100.97    7.13
  -2  10 -14  107.56    7.26
  -2 -10 -14   88.37    6.89
   2  10  14   92.17    6.88
   2 -10  14  110.73   10.22
  -2 -10 -15  119.60    8.70
   2 -10  15  136.04   12.01
  -2  10 -15  118.22    8.75
   2 -10  15  141.68    8.99
   2  10  15  133.81    8.85
   2 -10  16    1.11    1.40
   2  10  16    1.07    1.52
   2 -10  16    0.96    2.71
   2 -10  17   27.38    5.48
   2 -10  17   43.16    4.35
   2  10  17   32.15    3.87
   2 -10  18    1.98    2.53
   2 -10  18    7.57    2.21
   2  10  18    3.66    1.71
   2 -10  19   23.14    5.24
   2  10  19   22.85    3.32
   2 -10  19   20.07    3.42
   2 -10  20    1.02    3.12
   2 -10  20    2.83    1.92
   2  10  20    1.37    1.82
   2  10  21    5.28    2.05
   2 -10  21    3.47    1.99
   2  10  22   -0.50    1.96
   2 -10  22   -0.52    2.02
   2 -10  23   17.45    3.57
   2  10  23   21.64    3.90
  -2  11  24   10.66    3.06
  -2 -11  23    1.64    2.18
  -2  11  23    3.22    2.37
  -2 -11  22   -1.04    2.30
  -2  11  22    1.02    1.99
  -2 -11  21   -0.50    2.53
  -2  11  21   -0.49    2.23
  -2  11  20   15.72    3.46
  -2 -11  20   10.81    2.95
  -2 -11  19   42.16    4.70
  -2  11  19   41.96    4.71
  -2 -11  18   15.04    3.00
  -2  11  18   15.25    2.80
  -2  11  17    1.16    1.65
  -2 -11  17    5.48    2.03
  -2  11  16   62.93    5.21
  -2 -11  16   53.83    4.97
   2 -11 -16   47.74    4.70
   2  11 -16   51.09    4.95
   2  11 -15    4.17    1.81
  -2  11  15    5.74    1.73
   2 -11 -15    3.26    1.55
  -2 -11  15    4.09    1.70
   2 -11 -14    0.30    1.75
  -2  11  14    2.20    1.36
   2  11 -14   -0.33    1.75
  -2 -11  14    1.90    1.45
  -2  11  13   66.53    5.05
  -2 -11  13   62.06    4.97
   2 -11 -13   63.34    4.98
   2  11 -13   53.81    4.85
   2  11 -12    8.10    1.96
  -2 -11  12   16.86    2.23
  -2  11  12   14.38    2.11
   2 -11 -12   14.26    2.33
   2 -11 -12   16.44    2.20
   2 -11 -11   16.63    2.71
   2  11 -11   21.91    2.47
   2 -11 -11   18.34    2.27
  -2  11  11   18.32    2.19
  -2 -11  11   12.87    1.99
   2 -11 -10   28.12    3.55
   2 -11 -10   34.22    2.90
  -2  11  10   25.13    2.62
   2  11 -10   30.13    2.83
  -2 -11  10   30.55    2.76
  -2 -11  10   26.13    1.99
   2 -11  -9  104.51    9.75
   2  11  -9  115.90    7.19
  -2 -11   9  121.20    9.94
   2 -11  -9  109.55    7.02
  -2  11   9  110.00    7.02
  -2 -11   9  123.74    6.66
   2 -11  -9  105.13    8.24
  -2 -11   9  106.61    7.03
   2 -11  -8   88.31    8.49
  -2 -11   8   87.04    7.90
   2  11  -8   85.23    5.40
  -2 -11   8   80.52    5.28
   2 -11  -8   80.88    5.25
  -2  11   8   79.95    5.20
   2 -11  -8   77.70    6.72
   2 -11  -7    4.88    1.01
   2  11  -7    6.99    1.20
   2 -11  -7    5.56    2.06
  -2 -11   7    3.81    2.11
   2 -11  -7    3.01    2.13
   2 -11  -6    6.64    1.00
  -2 -11   6    3.74    2.27
   2  11  -6    7.02    1.14
   2 -11  -6   11.14    2.39
   2 -11  -6   10.40    2.84
   2 -11  -5   69.07    4.05
   2 -11  -5   64.55    6.28
  -2 -11   5   75.96    7.10
   2  11  -5   69.32    4.16
   2 -11  -5   87.73    7.95
   2 -11  -4   21.15    3.94
   2  11  -4   23.10    1.46
   2 -11  -4   23.93    3.73
  -2 -11   4   18.72    3.50
   2  11  -4   22.04    1.46
   2 -11  -3    0.55    1.56
   2 -11  -3    0.72    2.03
  -2 -11   3    0.62    1.57
   2 -11  -2   51.38    5.72
  -2 -11   2   52.21    5.78
   2 -11  -2   58.70    6.43
   2 -11  -1   22.24    3.68
  -2 -11   1   13.23    3.01
   2 -11  -1   19.10    3.71
  -2 -11   0  119.77    9.23
   2 -11   0   87.61    8.41
  -2 -11  -1    8.44    2.72
   2 -11   1    3.90    2.36
   2 -11   2  162.87   11.97
  -2 -11  -2  141.82   11.42
   2  11   2  145.87   11.30
   2  11   3    0.61    1.88
  -2 -11  -3    0.67    1.88
  -2 -11  -4   22.36    4.12
   2  11   4   23.95    1.60
   2 -11   4   22.37    1.61
   2  11   4   22.99    3.95
   2 -11   4   23.24    2.74
   2 -11   4   22.49    4.30
   2 -11   5   59.93    4.63
   2  11   5   48.64    5.95
   2  11   5   56.34    3.54
   2 -11   5   60.25    3.62
   2 -11   5   52.62    6.39
  -2 -11  -5   60.44    6.58
  -2  11  -6  264.11   16.46
   2 -11   6  321.46   17.54
   2  11   6  344.30   16.52
   2 -11   6  312.71   16.50
   2 -11   6  277.85   20.22
   2  11   6  299.47   19.91
  -2 -11  -7  140.04    7.89
   2 -11   7  131.05    7.81
   2 -11   7  123.32    8.39
   2  11   7  133.63    7.76
  -2  11  -7  134.12    7.92
   2 -11   7  153.75   11.94
   2 -11   8   -0.83    2.55
   2  11   8    0.48    0.68
  -2  11  -8   -0.18    0.92
  -2 -11  -8    0.17    0.85
   2 -11   8    0.67    0.86
   2 -11   8    0.24    0.96
  -2  11  -9    3.98    1.24
  -2 -11  -9    4.24    1.10
   2  11   9    4.76    1.15
   2 -11   9    2.87    0.92
   2 -11   9    2.77    1.12
  -2 -11 -10  117.39    7.72
  -2  11 -10  119.26    7.78
   2  11  10  131.97    7.81
   2 -11  10  134.73    7.87
   2 -11  10  117.88    7.76
   2 -11  11   22.90    2.63
  -2  11 -11   23.61    2.74
  -2 -11 -11   24.87    2.73
   2 -11  11   29.22    5.42
   2 -11  11   25.17    2.54
   2  11  11   30.75    2.81
   2 -11  12    4.47    1.46
   2 -11  12    7.51    3.66
  -2 -11 -12    7.67    1.61
   2 -11  12    2.49    1.09
   2  11  12    2.79    1.32
  -2  11 -12    2.63    1.39
  -2  11 -13  110.31    7.26
   2 -11  13   99.82    7.13
   2  11  13   97.62    7.04
  -2 -11 -13   99.41    7.09
  -2  11 -14    3.07    1.53
  -2 -11 -14    3.58    1.61
   2 -11  14    1.98    2.80
   2  11  14    4.23    1.57
   2 -11  14    3.76    1.47
   2 -11  15   13.15    2.38
  -2  11 -15   17.42    2.54
  -2 -11 -15   12.79    2.30
   2 -11  15    6.10    3.72
   2  11  15   12.04    2.26
   2 -11  16   26.48    3.32
   2 -11  16   26.90    5.44
   2  11  16   26.61    3.29
   2 -11  17   16.71    4.68
   2 -11  17   17.47    2.82
   2  11  17   14.24    2.73
   2 -11  18   -1.06    3.48
   2  11  18    2.39    2.00
   2 -11  18    1.65    1.82
   2 -11  19    6.46    3.92
   2  11  19   14.78    3.02
   2 -11  19   11.80    2.87
   2  11  20   15.18    3.01
   2 -11  20   24.93    5.60
   2 -11  20   20.80    3.44
   2  11  21   -2.83    2.00
   2 -11  21    1.96    1.99
   2  11  22    2.99    2.24
   2 -11  22    4.64    2.40
   2  11  23    1.05    2.28
  -2  12  23   19.51    3.58
  -2  12  22    4.53    2.50
  -2 -12  21   -0.48    2.21
  -2  12  21   -1.44    2.08
  -2 -12  20   10.06    2.69
  -2  12  20    6.82    2.42
  -2 -12  19    3.46    2.14
  -2  12  19   -0.86    2.13
  -2 -12  18   -1.22    1.73
  -2  12  18    0.41    1.98
  -2 -12  17    0.38    1.69
  -2  12  17    0.38    1.62
  -2  12  16    6.03    1.95
   2  12 -16    5.59    1.96
  -2 -12  16    5.02    1.77
   2  12 -15  100.72    7.50
  -2  12  15  103.33    7.48
  -2 -12  15  109.92    7.57
  -2  12  14    1.79    1.17
   2  12 -14    0.92    1.49
  -2 -12  14    4.56    1.70
  -2  12  13    4.31    1.44
  -2 -12  13    5.49    1.39
   2  12 -13    9.02    1.80
  -2 -12  12    7.20    1.56
   2 -12 -12    5.12    1.93
   2 -12 -12    6.86    1.66
  -2  12  12   10.61    1.77
   2  12 -12    9.53    1.85
  -2 -12  11    4.32    0.70
   2  12 -11    9.76    1.70
   2 -12 -11    8.07    1.55
  -2 -12  11    8.30    2.81
  -2 -12  11    7.74    1.44
   2 -12 -11    7.40    2.20
  -2  12  11    6.44    1.40
   2  12 -10   49.45    3.88
  -2 -12  10   46.98    3.20
  -2  12  10   50.51    3.77
  -2 -12  10   53.76    3.91
  -2 -12  10   46.33    5.96
   2 -12 -10   50.59    5.14
   2 -12 -10   48.18    3.75
  -2 -12   9    0.35    0.78
   2 -12  -9   -0.83    2.34
   2 -12  -9    0.16    0.75
   2  12  -9   -0.18    0.83
   2 -12  -9   -0.94    1.60
  -2 -12   9   -0.72    1.72
  -2  12   9   -0.17    0.88
  -2 -12   9   -0.14    0.71
  -2 -12   8    1.40    2.15
   2 -12  -8    1.65    1.85
   2 -12  -8    3.97    2.07
   2 -12  -8    1.44    0.76
   2  12  -8    2.39    0.86
   2 -12  -7  106.77    8.53
   2 -12  -7  107.52    6.00
   2  12  -7  103.31    6.12
  -2 -12   7   88.93    8.74
   2 -12  -7   97.07    9.59
   2 -12  -6   37.01    2.32
   2  12  -6   41.22    2.53
  -2 -12   6   39.87    5.25
   2 -12  -6   49.93    6.23
  -2 -12   5  102.46    8.96
   2 -12  -5   88.28    9.09
   2 -12  -5  100.41    8.35
   2 -12  -4  162.10   12.73
  -2 -12   4  148.18   11.97
   2 -12  -4  160.25   11.76
   2 -12  -3   20.31    3.73
   2 -12  -3   18.06    3.85
  -2 -12   3   23.05    3.96
   2 -12  -2   11.54    3.01
  -2 -12   2    6.13    2.42
   2 -12  -1    7.32    2.62
  -2 -12   1    9.02    2.86
  -2 -12   0   44.31    5.68
   2 -12   0   54.54    6.18
  -2 -12  -1    9.96    3.13
   2 -12   1   12.19    3.21
  -2 -12  -2    4.31    2.60
   2 -12   2    5.94    2.83
   2 -12   3  249.95   17.02
  -2 -12  -3  220.50   16.33
   2 -12   4    5.57    2.95
  -2 -12  -4    3.69    2.43
   2 -12   4    3.89    1.50
   2 -12   5    0.37    0.48
  -2 -12  -5   -1.49    2.01
   2 -12   5   -0.29    1.21
   2  12   5   -0.06    0.42
   2 -12   5    0.80    2.05
   2 -12   5    2.47    2.32
   2 -12   6   18.10    3.97
   2 -12   6   11.30    2.06
   2 -12   6   17.51    1.52
   2 -12   6   10.22    3.33
   2  12   6   17.01    1.46
  -2  12  -7    1.01    0.85
   2 -12   7    2.69    1.31
   2 -12   7    2.64    3.26
   2  12   7    0.72    0.68
   2 -12   7    1.40    0.73
   2  12   8  124.29    6.96
   2 -12   8   96.27   10.46
  -2  12  -8  101.78    6.89
   2 -12   8  119.51    6.97
  -2 -12  -8  100.94    6.81
   2  12   9   33.51    2.87
  -2  12  -9   36.69    3.03
   2 -12   9   32.74    5.79
   2 -12   9   37.14    3.34
  -2 -12  -9   34.86    2.91
   2 -12   9   36.82    2.95
   2 -12  10    1.39    1.10
  -2 -12 -10    1.99    1.03
  -2  12 -10    0.83    1.14
   2 -12  10    1.62    1.05
   2  12  10    1.76    1.07
   2  12  11   71.69    4.87
  -2 -12 -11   60.92    4.74
   2 -12  11   63.13    4.80
  -2  12 -11   66.53    4.90
   2 -12  11   67.77    4.84
  -2  12 -12   12.34    2.10
   2 -12  12   11.32    1.99
   2 -12  12   14.27    4.28
   2 -12  12   10.60    1.67
   2  12  12   12.16    1.93
   2 -12  13   -0.28    1.33
   2  12  13   -0.27    1.32
   2 -12  13    2.09    2.94
  -2  12 -13   -0.27    1.38
   2 -12  13    0.19    0.97
  -2  12 -14   26.50    3.11
   2 -12  14   30.74    3.30
   2  12  14   25.99    3.10
  -2  12 -15    3.16    1.59
   2 -12  15    2.93    1.69
   2  12  15    2.21    1.40
   2 -12  15    3.27    3.47
   2  12  16    2.72    1.70
   2 -12  16    6.31    1.80
   2 -12  17    3.38    1.57
   2  12  17    3.64    1.64
   2 -12  18    0.40    1.67
   2 -12  18    2.27    3.05
   2  12  18    3.12    1.93
   2 -12  19    2.29    3.37
   2 -12  19   -1.71    2.21
   2  12  19   -1.24    2.11
   2  12  20    2.65    2.07
   2 -12  20    6.33    2.31
   2  12  21   49.20    5.41
   2  12  22    1.00    2.17
  -2  13  19   -0.41    1.72
  -2  13  18    0.77    1.61
  -2  13  17   21.48    3.10
  -2  13  16   58.83    5.08
  -2 -13  15    3.67    1.54
  -2  13  15    1.53    1.47
  -2 -13  14    3.39    1.51
  -2  13  14    4.52    1.47
  -2  13  13   13.60    2.14
  -2 -13  13   13.04    2.10
   2  13 -12    0.70    1.08
  -2  13  12    1.13    1.12
  -2 -13  12    0.82    2.20
  -2 -13  12    0.24    1.09
  -2 -13  11    0.80    2.25
   2 -13 -11    1.35    1.54
   2  13 -11    2.64    1.19
  -2  13  11    1.58    1.15
  -2 -13  11    2.90    1.07
  -2 -13  10   71.04    4.35
  -2 -13  10   61.76    4.59
   2  13 -10   75.61    4.75
  -2 -13  10   54.04    6.99
   2 -13 -10   59.01    6.04
   2 -13  -9    4.73    1.96
   2  13  -9    4.30    1.09
   2 -13  -9    3.57    2.16
  -2 -13   9    4.62    2.27
  -2 -13   9    4.18    1.10
   2 -13  -8   -1.77    2.13
  -2 -13   8    0.76    1.82
   2 -13  -8   -0.09    0.56
   2  13  -8    0.11    0.63
   2 -13  -8    1.11    1.88
   2 -13  -7    5.27    2.99
   2 -13  -7    8.11    2.61
   2  13  -7    3.98    0.72
  -2 -13   7    2.26    2.03
   2 -13  -6   12.16    3.63
   2 -13  -6    3.02    1.95
  -2 -13   6   10.47    3.06
   2 -13  -5   26.83    5.06
   2 -13  -5   28.31    4.35
  -2 -13   5   36.33    5.26
   2 -13  -4   22.27    3.97
  -2 -13   4   17.80    3.78
   2 -13  -4   26.70    4.81
   2 -13  -3   17.00    3.58
  -2 -13   3   11.12    3.22
   2 -13  -2   -0.70    2.16
  -2 -13   2   -0.75    2.11
  -2 -13   1   26.50    4.56
   2 -13  -1   32.87    5.07
   2 -13   0   62.84    7.19
  -2 -13   0   66.00    7.29
   2 -13   1   22.74    4.38
  -2 -13  -1   17.03    3.85
   2 -13   2   67.37    7.43
  -2 -13  -2   58.36    7.03
  -2 -13  -3   13.41    3.51
   2 -13   3   19.33    4.12
  -2 -13  -4    0.80    2.03
   2 -13   4    3.48    2.76
   2 -13   4    1.92    1.21
   2 -13   4   -0.85    2.16
  -2 -13  -5   39.48    5.59
   2 -13   5   30.52    5.43
   2 -13   5   27.04    3.14
   2 -13   5   27.60    5.19
   2 -13   6    3.70    2.72
   2 -13   6    2.70    1.47
   2  13   6    1.27    0.36
   2 -13   6   -1.75    2.35
   2 -13   6    2.16    0.56
   2 -13   7   84.81    6.02
   2 -13   7   73.11    8.48
   2 -13   7   91.03    4.94
   2  13   7   73.89    4.72
   2 -13   7   72.66    8.92
   2 -13   8   53.14    7.83
   2  13   8   78.12    4.51
   2 -13   8   72.95    4.51
   2 -13   8   53.59    7.43
   2 -13   8   57.16    5.03
   2  13   9   12.26    1.65
   2 -13   9   14.79    2.20
  -2  13  -9    8.46    1.46
   2 -13   9   15.21    4.42
   2 -13   9   10.40    1.52
   2 -13  10   22.35    2.49
   2 -13  10   15.56    1.99
  -2  13 -10   15.87    2.05
   2  13  10   17.56    1.99
   2  13  11   47.29    3.73
   2 -13  11   47.44    3.70
   2 -13  11   42.23    3.63
  -2  13 -11   38.89    3.65
   2 -13  12    4.59    1.20
   2 -13  12    1.67    1.15
   2  13  12    2.81    1.22
   2 -13  13    4.50    3.57
   2  13  13    1.30    1.37
   2 -13  13    2.64    1.31
   2 -13  14    9.82    1.92
   2 -13  14   17.18    4.89
   2  13  14   11.98    2.12
   2  13  15   14.25    2.47
   2 -13  15   24.29    5.78
   2 -13  16   -2.35    4.23
   2  13  16   -0.34    1.77
   2  13  17    0.37    1.96
   2 -13  17    9.53    4.41
   2  13  18   34.62    4.21
  -2 -14  15   13.59    3.91
  -2 -14  14   -0.89    2.63
  -2  14  14   -0.51    1.34
  -2  14  13   64.58    4.80
  -2 -14  13   66.58    7.79
  -2 -14  12   -0.86    2.53
  -2  14  12   -1.19    1.35
  -2 -14  11    8.47    3.08
   2 -14 -10   10.12    2.80
  -2 -14  10    1.67    2.47
   2 -14  -9    1.91    2.69
   2 -14  -9    1.71    2.06
  -2 -14   9    0.82    1.98
   2  14  -8   14.14    1.16
   2 -14  -8   15.83    3.28
  -2 -14   8   15.59    2.01
  -2 -14   8   20.48    4.24
   2 -14  -7    1.88    2.53
  -2 -14   7    2.44    2.49
   2 -14  -7    2.55    2.17
   2 -14  -6   10.24    3.55
   2 -14  -6    5.99    2.55
  -2 -14   6    4.82    2.66
   2 -14  -5   38.88    6.01
   2 -14  -5   41.49    5.58
  -2 -14   5   46.48    6.05
  -2 -14   4    3.21    2.36
   2 -14  -4    1.43    2.36
   2 -14  -3   31.24    4.95
  -2 -14   3   26.52    4.81
   2 -14  -2    3.85    2.37
  -2 -14   2    8.94    3.10
  -2 -14   1   46.73    6.45
   2 -14  -1   47.10    6.41
  -2 -14   0   29.78    5.16
   2 -14   0   31.34    5.28
  -2 -14  -1  117.30   10.36
   2 -14   1   98.26   10.10
  -2 -14  -2   11.72    3.73
   2 -14   2    8.82    3.31
  -2 -14  -3   15.27    3.75
   2 -14   3   17.29    4.30
   2 -14   3   12.70    3.69
  -2 -14  -4    0.86    2.19
   2 -14   4    0.34    1.25
   2 -14   4    2.75    2.33
   2 -14   4   -0.94    2.40
  -2 -14  -5   28.55    5.24
   2 -14   5   29.95    3.34
   2 -14   5   28.18    5.72
   2 -14   5   23.88    5.02
   2 -14   6   -4.01    3.18
   2 -14   6    0.93    2.09
   2 -14   6   -0.32    1.21
   2 -14   7   50.58    7.35
   2 -14   7   52.75    4.46
   2 -14   7   39.59    6.50
   2 -14   8    0.87    1.20
   2  14   8    1.38    0.64
   2 -14   9    1.09    3.08
   2 -14   9    0.28    1.14
   2 -14   9    0.97    2.48
   2  14   9   -0.12    0.86
   2 -14  10   12.81    3.86
   2  14  10    8.34    1.46
   2 -14  10    8.06    1.84
   2  14  11   23.67    2.42
   2  14  12   -0.22    1.12
   2  14  13   -0.49    1.21
   2 -14  14   -3.63    3.41
  -2 -15  17    0.96    2.84
  -2 -15  16   16.19    4.58
  -2 -15  15    2.82    3.58
  -2 -15  14    1.86    2.95
  -2 -15  13    3.67    3.03
  -2 -15  12   30.90    5.41
  -2 -15  11   10.71    3.75
  -2 -15  10   15.95    4.20
   2 -15  -9   13.54    3.17
  -2 -15   9   12.36    3.74
   2 -15  -9   15.18    4.00
  -2 -15   8   -0.88    2.59
   2 -15  -8    2.02    3.09
   2 -15  -8    0.65    2.27
   2 -15  -7   32.09    5.77
   2 -15  -7   40.48    5.32
  -2 -15   7   27.74    5.27
   2 -15  -6   -0.99    2.53
   2 -15  -6   -2.89    2.60
  -2 -15   6    0.86    2.32
   2 -15  -5   22.53    4.59
  -2 -15   5   19.80    4.57
  -2 -15   4   59.21    7.19
   2 -15  -4   47.60    6.33
  -2 -15   3    1.74    2.21
   2 -15  -3   -1.61    2.47
   2 -15  -2   13.35    3.85
  -2 -15   2    7.87    3.10
  -2 -15   1    9.73    3.46
   2 -15  -1    5.19    2.87
  -2 -15   0   20.43    4.36
   2 -15   0   27.65    5.16
   2 -15   1   98.61   10.09
  -2 -15  -1   98.93    9.81
  -2 -15  -2    8.98    3.43
   2 -15   2   11.55    3.58
   2 -15   2    2.85    2.82
  -2 -15  -3   45.38    6.84
   2 -15   3   60.01    7.86
   2 -15   3   61.19    5.25
   2 -15   3   65.92    7.94
   2 -15   4    9.75    2.24
   2 -15   4   15.20    4.25
  -2 -15  -4   11.01    3.61
   2 -15   4   11.73    3.75
  -2 -15  -5    4.61    3.26
   2 -15   5   10.46    3.99
   2 -15   5    7.98    1.96
   2 -15   5   14.75    4.11
   2 -15   6   27.88    3.35
   2 -15   6   28.60    5.45
   2 -15   7    2.23    1.49
   2 -15   7    1.00    2.40
   2 -15   7    2.22    3.26
   2 -15   8   59.42    7.74
   2 -15   8   50.14    7.94
   2 -15   8   40.25    3.99
   2 -15   9    2.94    1.50
   2 -15   9    1.02    2.59
   2 -15   9   -3.51    3.44
   2 -15  10    1.20    3.37
   2 -15  10    1.03    2.62
   2 -15  11   20.83    4.83
   2 -15  11   10.97    4.81
   2 -15  12   -1.05    2.82
  -2 -16  15   16.64    4.32
  -2 -16  14   -2.92    2.98
  -2 -16  13   27.80    5.58
  -2 -16  12   -3.81    2.93
  -2 -16  11   22.82    4.78
  -2 -16  10   16.93    4.31
   2 -16  -9   32.08    5.97
  -2 -16   9   22.59    5.04
   2 -16  -8   25.67    5.06
  -2 -16   8   11.14    4.05
   2 -16  -8   20.80    4.22
   2 -16  -7    2.19    2.15
   2 -16  -7   -1.06    2.71
  -2 -16   7    1.85    2.72
   2 -16  -6   14.47    3.70
  -2 -16   6   21.17    4.57
   2 -16  -5    0.80    2.62
  -2 -16   5    4.56    2.57
   2 -16  -4   12.48    4.00
  -2 -16   4   15.71    4.28
  -2 -16   3   16.73    4.20
   2 -16  -3   19.94    4.27
   2 -16  -2   -1.79    2.95
  -2 -16   2   -0.94    2.51
   2 -16  -1    1.86    2.85
  -2 -16   1    5.64    3.30
   2 -16   0   56.53    7.74
  -2 -16   0   41.51    6.72
   2 -16   0   57.48    7.68
   2 -16   1   71.36    8.57
  -2 -16  -1   64.41    8.08
   2 -16   1   46.48    7.26
  -2 -16  -2   66.01    8.30
   2 -16   2   74.49    9.13
   2 -16   2   77.68    8.98
  -2 -16  -3    6.76    3.29
   2 -16   3    7.06    2.05
   2 -16   3    2.10    2.84
   2 -16   3    6.17    3.16
  -2 -16  -4    3.89    3.41
   2 -16   4    9.73    4.31
   2 -16   4    2.28    1.63
   2 -16   4    8.28    3.63
  -2 -16  -5   15.63    4.48
   2 -16   5   22.29    5.59
   2 -16   5   16.09    2.73
   2 -16   5   21.93    5.25
   2 -16   6    3.53    1.75
   2 -16   6    1.15    3.38
   2 -16   6    2.10    2.68
   2 -16   7   28.22    6.15
   2 -16   7   16.82    2.73
   2 -16   7   21.06    4.83
   2 -16   8   21.64    5.66
   2 -16   8   32.75    5.97
   2 -16   9    3.68    3.46
   2 -16   9   -1.07    2.73
   2 -16  10    1.08    3.42
  -2 -17  12    1.01    2.56
  -2 -17  11    3.02    2.96
  -2 -17  10    4.95    3.04
  -2 -17   9   23.60    5.28
  -2 -17   8   14.75    4.71
   2 -17  -7    6.91    2.94
  -2 -17   7    9.79    4.01
   2 -17  -6   -2.42    3.14
  -2 -17   6    1.95    3.09
   2 -17  -5   -0.84    2.48
  -2 -17   5   -0.98    3.00
   2 -17  -4    7.87    3.66
  -2 -17   4    5.90    3.46
  -2 -17   3   29.66    5.80
   2 -17  -3   33.54    5.62
  -2 -17   2   20.89    4.84
   2 -17  -2   11.27    4.29
  -2 -17   1    2.99    2.68
   2 -17  -1    1.95    3.20
   2 -17  -1   -1.10    3.09
  -2 -17   0   21.98    4.95
   2 -17   0   18.13    4.84
   2 -17   0   14.22    4.35
   2 -17   1  125.76   11.97
   2 -17   1  108.81   11.41
  -2 -17  -1  101.33   10.98
   2 -17   2   19.98    3.11
  -2 -17  -2   13.14    4.12
   2 -17   2   18.21    4.90
   2 -17   2   17.30    4.85
   2 -17   3   19.86    5.62
  -2 -17  -3   22.43    5.35
   2 -17   3   11.93    4.51
   2 -17   3   19.32    3.10
  -2 -17  -4   24.59    5.53
   2 -17   4   19.54    3.09
   2 -17   4   19.29    5.38
   2 -17   4   20.73    5.09
   2 -17   5   -2.68    1.81
  -2 -17  -5    4.12    3.15
   2 -17   5   -1.17    3.13
   2 -17   5    1.10    2.79
   2 -17   6   -2.39    3.66
   2 -17   6   -1.11    3.41
  -2 -18   6    3.11    2.78
  -2 -18   5    1.04    3.05
  -2 -18   4   15.61    4.76
   2 -18  -4   21.09    5.07
  -2 -18   3    1.05    3.08
   2 -18  -3   -0.95    3.14
   2 -18  -2    0.99    2.91
  -2 -18   2   -1.05    3.56
  -2 -18   1   27.23    6.04
   2 -18  -1   34.73    6.27
   2 -18   0   17.95    4.83
  -2 -18   0   18.88    4.89
  -2 -18  -1    9.52    4.45
   2 -18   1   18.46    5.42
   2 -18   2   29.08    4.04
   2 -18   2   40.26    7.16
   2 -18   3   12.66    5.26
   2 -18   3   20.87    3.33
   2 -19   1   35.14    4.52
  -3   0  25    0.62    2.17
  -3   0  24   10.12    3.20
  -3   0  23   -0.57    1.81
  -3   0  22    9.84    2.71
  -3   0  21    2.09    1.99
  -3   0  20    5.51    1.78
  -3   0  19   -0.95    1.61
   3   0 -19   -0.72    1.34
  -3   0  18  332.11   18.55
   3   0 -18  274.13   17.49
   3   0 -17    0.36    1.30
   3   0 -17    0.53    1.81
   3   0 -16  561.00   30.95
  -3   0  16  539.43   30.06
   3   0 -16  513.38   29.71
   3   0 -15    1.78    1.36
   3   0 -15    1.00    1.65
  -3   0  15    1.12    1.27
   3   0 -14    1.72    1.31
   3   0 -14    1.44    1.58
  -3   0  14    3.82    1.42
   3   0 -13   -0.33    1.01
  -3   0  13    0.32    1.06
   3   0 -13   -0.45    1.63
  -3   0  12  110.12    7.61
   3   0 -12  117.08    8.46
   3   0 -11    0.24    0.80
  -3   0  11   -0.27    0.73
  -3   0  10  320.39   18.99
   3   0 -10  355.73   18.87
   3   0  -9    0.81    0.79
  -3   0   9    0.24    0.72
  -3   0   8   93.30    6.45
   3   0  -8  107.69    6.46
   3   0  -7   -1.10    0.81
  -3   0   7   -0.20    0.54
  -3   0   6  696.41   34.65
   3   0  -6  616.09   34.44
   3   0  -5    0.90    0.72
  -3   0   5   -0.17    0.60
   3   0  -5    0.79    0.53
  -3   0   4 2570.56  128.80
   3   0  -4 2534.58  128.47
   3   0  -4 2383.44  128.66
  -3   0   4 2520.98  128.24
  -3   0   3    0.53    0.51
   3   0  -3   -0.10    0.39
   3   0  -3    1.06    0.64
  -3   0   3    0.71    0.57
   3   0  -2  264.32   14.40
  -3   0   2  263.43   14.18
  -3   0   1    0.10    0.47
  -3   0   0 9091.62  464.15
  -3   0  -1   -0.11    0.45
   3   0   1   -0.13    0.53
   3   0   1   -0.11    0.38
   3   0   2 1268.83   71.27
  -3   0  -2 1359.20   71.22
  -3   0  -3   -0.28    0.54
   3   0   3    0.15    0.45
  -3   0  -4 4903.87  239.00
   3   0   4 4439.94  238.94
  -3   0  -5   -0.33    0.62
   3   0   5    0.18    0.49
   3   0   6  324.18   18.93
  -3   0  -6  363.52   18.92
   3   0   7   -0.24    0.73
  -3   0  -7   -0.40    0.73
   3   0   8  891.10   45.93
  -3   0  -8  839.33   45.49
   3   0   9   -0.60    0.98
  -3   0  -9    2.16    0.91
  -3   0 -10    1.55    0.96
   3   0  10    1.01    1.10
  -3   0 -11    0.84    0.71
   3   0  11    0.38    0.84
  -3   0 -12  598.49   31.41
   3   0  12  539.85   31.96
   3   0  13    2.30    1.41
  -3   0 -13    0.32    1.09
  -3   0 -14    0.68    1.20
   3   0  14    0.50    1.35
   3   0  14    1.46    1.11
   3   0  15   -0.31    1.12
   3   0  15    4.39    1.61
   3   0  16  554.87   33.14
   3   0  16  582.06   31.57
   3   0  17    0.65    1.98
   3   0  17   -0.35    1.22
   3   0  18    4.21    2.32
   3   0  18    4.33    1.72
   3   0  19   -0.75    2.21
   3   0  19   -0.36    1.48
   3   0  20    3.98    2.45
   3   0  21   -0.84    2.87
   3   0  22   95.42    9.75
   3   0  23    2.75    3.31
   3   0  24   33.58    4.59
  -3  -1  25   17.32    3.63
  -3  -1  24   38.11    4.97
  -3  -1  23   10.28    3.03
  -3  -1  22    0.55    1.92
  -3  -1  21    8.90    2.43
  -3  -1  20    3.01    1.54
  -3  -1  19    2.85    1.40
   3  -1 -19    0.93    1.21
   3   1 -19   -0.41    1.38
  -3  -1  18   38.67    4.25
   3  -1 -18   37.47    3.76
   3   1 -18   36.27    4.10
   3  -1 -17   11.74    2.13
  -3  -1  17   11.14    2.27
   3   1 -17    7.69    2.07
   3  -1 -17    9.08    2.77
   3  -1 -16  154.66   11.52
  -3  -1  16  160.52   10.88
   3   1 -16  155.46   10.81
   3  -1 -16  177.85   10.61
   3   1 -15   25.33    3.30
  -3  -1  15   20.98    2.92
   3  -1 -15   23.34    3.60
   3  -1 -15   24.85    2.93
   3  -1 -14   12.40    2.15
   3   1 -14   19.47    2.83
  -3  -1  14   13.21    2.25
   3  -1 -14    9.58    2.50
   3   1 -13   75.88    6.25
  -3  -1  13   77.50    6.00
   3  -1 -13   86.22    6.85
   3  -1 -12   62.49    5.40
   3   1 -12   55.26    4.86
  -3  -1  12   51.00    4.45
   3  -1 -11  124.39    7.94
  -3  -1  11  125.92    8.16
  -3  -1  10  117.57    7.99
   3  -1 -10  134.80    7.98
   3  -1  -9  213.05   11.89
  -3  -1   9  196.33   12.01
  -3  -1   8   11.97    1.61
   3  -1  -8   10.10    1.44
   3   1  -7  892.33   46.49
  -3   1   7  864.67   47.15
  -3  -1   7  898.24   47.22
   3  -1  -7  946.10   47.23
   3   1  -6  227.49   12.15
  -3  -1   6  244.81   12.90
   3  -1  -6  220.45   12.67
  -3   1   6  212.00   12.65
   3   1  -5  101.19    6.32
   3  -1  -5  118.66    6.84
  -3   1   5  132.66    6.93
  -3  -1   5  112.88    6.88
   3  -1  -4  894.32   46.46
   3  -1  -4  851.17   46.49
  -3  -1   4  885.35   46.21
  -3   1   4  995.50   46.60
   3   1  -4  894.46   46.20
  -3  -1   4  844.54   46.61
   3  -1  -4  902.37   46.60
   3  -1  -3   15.67    1.57
  -3  -1   3   19.67    1.44
  -3  -1   3   14.58    1.57
  -3   1   3   13.50    1.43
   3  -1  -3   14.32    1.47
   3   1  -3   20.16    1.45
  -3  -1   2  840.43   43.50
  -3   1   2  902.08   43.78
   3  -1  -2  858.12   43.65
   3   1  -2  800.32   43.46
   3  -1  -2  819.47   43.73
  -3   1   1 1411.02   79.19
  -3  -1   1 1648.40   79.09
  -3   1   0  168.84    9.12
   3  -1   0  152.10    9.03
  -3  -1   0  163.97    8.95
   3  -1   1    0.36    0.44
   3  -1   1    0.13    0.41
  -3  -1  -1    0.32    0.48
   3  -1   2  388.18   21.16
  -3  -1  -2  410.49   21.19
   3  -1   2  390.41   21.05
   3  -1   3   25.96    2.26
  -3  -1  -3   26.60    2.20
   3  -1   3   26.45    2.12
   3  -1   4 1724.01   88.08
  -3  -1  -4 1686.59   87.99
   3  -1   5  789.54   43.93
  -3  -1  -5  851.66   43.89
  -3   1  -5  865.00   43.75
   3  -1   6   38.70    3.24
  -3  -1  -6   42.41    3.20
  -3   1  -6   39.50    2.99
  -3   1  -7  183.83   10.32
  -3  -1  -7  176.99   10.52
   3  -1   7  177.19   10.74
   3  -1   8  283.26   15.21
  -3  -1  -8  237.88   14.68
  -3   1  -8  263.71   14.46
  -3   1  -9  438.64   25.43
   3  -1   9  490.07   26.40
  -3  -1  -9  517.94   26.05
  -3  -1 -10   10.58    1.63
   3  -1  10   11.07    1.85
  -3   1 -10   12.74    1.63
   3  -1  11   13.50    2.22
  -3   1 -11   11.44    1.69
  -3  -1 -11   11.70    1.90
  -3   1 -12   10.53    1.61
   3  -1  12    8.32    2.09
  -3  -1 -12    8.68    1.77
  -3  -1 -13   21.13    2.63
  -3   1 -13   24.53    2.44
   3  -1  13   12.39    2.72
  -3  -1 -14    4.44    1.56
  -3   1 -14    4.37    1.27
   3   1  14    6.21    1.40
   3  -1  14    7.51    1.82
   3  -1  14    5.52    1.65
   3   1  15  266.13   16.94
  -3  -1 -15  299.26   17.81
   3  -1  15  289.31   18.82
   3  -1  15  296.61   17.83
   3  -1  16    8.50    2.04
   3  -1  16    7.75    2.30
   3   1  16    7.29    1.77
  -3   1 -16    9.50    1.92
   3  -1  17    7.10    2.49
   3   1  17   11.24    1.98
   3  -1  17   10.22    2.37
  -3   1 -17    6.29    1.65
   3   1  18    5.31    1.46
   3  -1  18    3.43    1.84
  -3   1 -18    5.65    1.59
   3  -1  18    4.20    2.53
   3  -1  19    9.65    2.33
  -3   1 -19    9.58    1.96
   3  -1  19    3.00    2.14
   3  -1  20    1.60    2.54
   3  -1  20   -0.44    1.77
  -3   1 -20    0.60    1.31
   3  -1  21   62.33    7.52
   3  -1  22  132.47   11.76
   3  -1  23    6.41    3.22
   3  -1  24   -0.58    2.08
  -3  -2  25    1.86    2.05
  -3   2  25    9.92    3.08
  -3  -2  24   -0.60    1.82
  -3   2  24    0.60    1.75
  -3   2  23   19.43    3.50
  -3  -2  23   24.02    3.92
  -3   2  22    1.64    1.92
  -3  -2  22    3.84    2.09
  -3  -2  21   89.79    7.55
  -3   2  21   89.62    7.70
  -3  -2  20    5.48    2.12
  -3   2  20    2.48    1.80
  -3   2  19    4.24    1.75
  -3  -2  19    6.14    1.76
   3   2 -19    3.16    2.07
   3  -2 -19    2.02    1.23
  -3   2  18   40.82    4.37
  -3  -2  18   42.34    4.39
   3  -2 -18   36.91    3.53
   3   2 -18   30.63    4.13
   3  -2 -17  161.43   11.60
  -3   2  17  182.81   11.18
   3   2 -17  147.33   10.85
   3  -2 -17  144.85    9.83
  -3  -2  17  179.79   11.18
  -3  -2  16   51.22    4.72
   3   2 -16   49.23    5.20
   3  -2 -16   46.03    5.15
   3   2 -16   49.67    4.96
  -3   2  16   46.55    4.55
   3  -2 -16   43.55    3.98
   3  -2 -15  226.35   12.95
   3   2 -15  216.43   14.27
   3  -2 -15  202.19   14.07
  -3  -2  15  217.89   13.55
  -3   2  15  222.71   13.56
   3   2 -15  203.17   13.80
   3   2 -14  104.55    8.24
  -3   2  14  103.69    7.47
  -3  -2  14  100.31    7.41
   3  -2 -14  104.05    8.19
   3   2 -14  110.17    8.09
  -3   2  13   10.24    1.95
   3   2 -13    9.61    2.22
   3   2 -13   13.16    2.55
   3  -2 -13    8.59    2.20
  -3  -2  13   10.32    1.99
   3   2 -12   57.15    5.16
   3   2 -12   49.51    4.86
   3  -2 -12   54.39    5.06
  -3  -2  12   53.04    4.39
  -3   2  12   46.65    4.21
  -3   2  11  103.26    6.93
   3   2 -11   95.87    7.49
   3  -2 -11  102.87    6.71
  -3  -2  11   96.05    6.86
   3   2 -11  106.89    6.76
   3   2 -10  548.01   28.82
   3  -2 -10  545.81   28.81
  -3   2  10  508.20   28.93
  -3  -2  10  532.38   29.03
   3   2  -9   14.38    1.78
  -3  -2   9   12.55    1.80
  -3   2   9   14.76    1.89
   3  -2  -9   18.86    1.91
  -3   2   9   15.88    2.20
   3   2  -9   12.99    1.19
   3   2  -8  102.61    5.73
  -3   2   8   88.14    6.54
   3  -2  -8  115.82    6.61
  -3  -2   8  106.90    6.70
   3   2  -8  101.09    6.46
  -3   2   8  103.25    6.96
   3  -2  -7  472.46   24.93
  -3  -2   7  477.83   25.06
   3   2  -7  503.13   24.10
  -3   2   7  420.85   24.93
   3   2  -7  408.61   24.85
  -3   2   7  424.51   25.16
  -3  -2   6  158.44    9.31
   3   2  -6  162.04    8.54
   3   2  -6  141.43    9.20
   3  -2  -6  160.79    9.24
  -3   2   6  165.44    9.62
   3  -2  -5   94.17    5.76
   3   2  -5   87.57    5.46
   3  -2  -5   89.62    5.46
  -3  -2   5   84.87    4.94
   3   2  -5   86.65    4.90
  -3  -2   5   86.23    5.53
  -3   2   5   84.21    5.68
   3  -2  -4    1.08    0.70
   3   2  -4    0.42    0.55
  -3  -2   4    1.07    0.67
   3  -2  -4    1.11    0.62
  -3  -2   4    1.16    0.40
   3   2  -4    1.20    0.39
  -3   2   4    0.72    0.66
   3  -2  -3    2.75    0.72
  -3   2   3    2.21    0.76
   3  -2  -3    0.34    0.64
  -3  -2   3    1.38    0.44
   3   2  -3    1.72    0.61
  -3  -2   2    9.96    1.00
   3  -2  -2   10.77    1.22
   3  -2  -2    7.18    1.17
   3   2  -2    8.98    1.18
  -3  -2   2    9.94    0.86
   3  -2  -1   24.20    2.00
  -3  -2   1   21.07    1.71
   3   2  -1   23.02    1.68
  -3   2   1   21.95    2.00
   3  -2   0   61.94    4.17
   3  -2   0   70.07    4.28
   3   2   0   64.83    4.06
   3  -2   1   83.22    5.30
   3  -2   1   92.26    5.44
  -3  -2  -2   28.23    2.20
   3  -2   2   23.31    2.06
  -3   2  -2   24.44    2.10
   3  -2   2   27.39    2.14
   3  -2   3   48.19    3.42
  -3   2  -3   47.32    3.37
  -3   2  -3   50.72    3.47
   3  -2   3   46.56    3.34
  -3  -2  -3   52.05    3.46
   3  -2   4  325.58   17.80
   3  -2   4  337.09   18.01
  -3   2  -4  338.98   17.88
  -3   2  -4  304.69   17.86
  -3  -2  -4  346.98   17.98
  -3  -2  -5 1091.08   54.32
   3  -2   5 1005.10   54.09
   3  -2   5 1064.58   54.45
  -3   2  -5 1018.34   54.13
  -3   2  -5 1039.78   54.28
  -3   2  -6  106.81    7.37
   3  -2   6  121.15    7.73
  -3  -2  -6  121.54    7.52
  -3   2  -7    9.74    1.38
   3  -2   7    7.14    1.32
  -3   2  -7   10.22    1.33
  -3  -2  -7    5.22    1.19
  -3   2  -8   59.30    4.21
  -3  -2  -8   64.52    4.56
  -3   2  -8   64.92    4.56
   3  -2   8   55.53    4.59
  -3   2  -9  440.91   22.05
  -3  -2  -9  408.23   21.91
   3   2   9  349.09   22.05
   3  -2   9  393.37   22.21
  -3   2  -9  387.12   21.41
  -3  -2 -10  419.70   24.16
  -3   2 -10  442.06   24.25
  -3   2 -10  473.68   23.89
   3   2  10  395.37   24.55
   3  -2  10  457.58   24.87
   3   2  11  669.10   38.23
  -3  -2 -11  734.23   37.72
  -3   2 -11  728.81   37.13
   3  -2  11  650.33   38.11
  -3   2 -11  686.63   37.57
  -3  -2 -12    5.08    1.49
  -3   2 -12    9.32    1.76
   3   2  12    5.48    1.78
   3  -2  12    4.19    1.45
  -3   2 -12    5.89    1.29
  -3  -2 -13  163.78   10.78
   3  -2  13  167.50   11.60
  -3   2 -13  188.50   11.08
  -3   2 -13  169.86   10.24
   3   2  13  168.55   11.59
  -3   2 -14   54.39    4.54
  -3  -2 -14   50.05    4.46
   3   2  14   48.73    4.99
   3  -2  14   50.43    5.01
  -3   2 -14   43.80    3.81
   3  -2  14   44.04    4.51
   3   2  14   45.60    3.51
   3   2  15    4.42    1.22
   3   2  15    8.91    2.38
  -3   2 -15    6.17    1.77
   3  -2  15    3.38    1.74
   3  -2  15    9.39    2.36
  -3   2 -15    5.81    1.59
  -3  -2 -15    8.31    1.96
   3  -2  16  250.39   17.89
   3   2  16  278.76   18.26
  -3   2 -16  310.31   16.31
   3  -2  16  279.21   17.31
   3   2  16  274.00   15.70
   3  -2  17   34.49    4.88
  -3   2 -17   37.03    3.57
   3  -2  17   39.59    4.55
   3  -2  18   31.35    4.09
   3  -2  18   34.54    5.12
   3   2  18   34.07    5.01
  -3   2 -18   29.41    3.13
   3   2  19   88.70    8.67
   3  -2  19   86.51    8.65
  -3   2 -19   97.39    6.50
   3  -2  19   77.41    7.43
  -3   2 -20   21.15    2.73
   3  -2  20   24.75    3.89
   3   2  20   22.54    4.29
   3  -2  20   15.98    3.93
   3   2  21    1.70    2.61
   3  -2  21    1.69    2.69
  -3   2 -21    1.76    1.62
   3  -2  22   -0.88    3.43
   3   2  22   -0.89    3.11
   3   2  23   14.60    3.13
   3  -2  23   13.39    3.29
   3   2  24   18.02    3.61
   3  -2  24   17.90    3.68
  -3  -3  25    6.18    2.64
  -3   3  25    6.18    2.89
  -3  -3  24   22.01    3.97
  -3   3  24   16.64    3.52
  -3   3  23   -1.14    2.11
  -3  -3  23    0.57    2.00
  -3  -3  22   15.87    3.23
  -3   3  22   17.96    3.44
  -3   3  21    5.19    2.25
  -3  -3  21    1.56    1.78
  -3  -3  20    2.49    1.70
  -3   3  20    4.46    1.84
  -3   3  19    8.44    2.33
  -3  -3  19    8.49    2.31
   3  -3 -18   -0.63    0.97
  -3  -3  18    1.34    1.42
  -3   3  18    0.89    1.25
   3   3 -18    0.49    1.73
  -3   3  17   96.91    7.46
   3  -3 -17   93.04    6.32
   3   3 -17   86.55    7.60
  -3  -3  17  106.06    7.64
   3   3 -16    1.44    1.78
   3  -3 -16    4.67    1.27
  -3  -3  16    6.34    1.85
   3  -3 -16    2.02    1.73
  -3   3  16    3.53    1.54
   3   3 -16    3.56    2.03
   3   3 -15  175.89   11.76
   3  -3 -15  169.46   11.64
   3   3 -15  165.30   11.51
  -3   3  15  157.90   10.76
  -3  -3  15  166.25   10.87
  -3   3  14   45.19    4.82
  -3   3  14   40.11    3.97
   3   3 -14   42.68    4.64
   3  -3 -14   38.79    4.51
   3   3 -14   47.43    4.89
  -3  -3  14   49.24    4.29
  -3   3  13    0.90    1.32
   3   3 -13   -0.45    1.44
  -3   3  13   -0.32    1.04
   3  -3 -13    0.45    1.52
  -3  -3  13    0.32    0.94
   3   3 -13    2.70    1.75
   3   3 -12  143.64    7.96
  -3   3  12  178.33   10.68
   3   3 -12  143.28   10.13
   3  -3 -12  139.27   10.09
  -3  -3  12  146.16    9.48
  -3   3  12  159.63    9.57
   3   3 -12  151.78   10.42
  -3   3  11   72.83    6.07
   3   3 -11   81.87    5.37
   3   3 -11   70.21    6.11
   3  -3 -11   75.79    5.27
   3   3 -11   72.07    4.06
  -3  -3  11   68.98    5.36
  -3   3  11   71.26    5.37
   3   3 -10   18.18    1.18
   3   3 -10   20.16    2.12
  -3   3  10   18.16    2.62
  -3   3  10   15.74    2.02
  -3  -3  10   13.12    1.98
   3   3 -10   15.14    2.81
   3  -3 -10   15.20    1.92
  -3  -3   9    5.71    1.23
  -3   3   9    9.70    1.97
   3   3  -9    7.89    0.65
   3  -3  -9    8.17    1.31
  -3   3   9    6.33    1.41
   3   3  -9    9.78    2.01
   3   3  -9    9.91    1.42
  -3   3   8  298.40   17.83
  -3  -3   8  300.93   17.87
   3   3  -8  310.50   17.69
   3  -3  -8  312.33   17.69
   3   3  -8  336.38   16.70
  -3   3   8  312.97   18.52
   3   3  -7   50.98    3.79
  -3  -3   7   56.37    4.02
  -3   3   7   52.28    3.94
  -3   3   7   57.11    4.46
   3  -3  -7   51.48    3.79
   3  -3  -6  202.48   10.96
  -3  -3   6  183.77   10.08
  -3   3   6  188.14   10.91
  -3  -3   6  198.05   10.98
   3   3  -6  201.24   10.95
  -3   3   6  178.95   11.41
   3  -3  -6  186.82   11.44
  -3   3   5   26.49    2.21
   3  -3  -5   22.77    2.04
   3   3  -5   23.87    2.07
  -3  -3   5   24.97    1.60
   3  -3  -5   20.84    2.33
  -3   3   5   16.70    2.24
  -3  -3   5   21.91    2.10
  -3  -3   4  251.95   13.85
  -3  -3   4  246.25   13.26
   3   3  -4  264.41   13.83
   3  -3  -4  261.51   13.80
  -3   3   4  258.40   14.44
   3  -3  -4  245.00   14.39
  -3   3   4  233.89   13.79
   3  -3  -3    8.31    1.44
  -3   3   3    6.41    1.28
   3   3  -3    7.52    1.09
  -3  -3   3    7.39    0.99
   3  -3  -3    7.33    1.03
  -3  -3   3    8.73    0.86
   3  -3  -2  333.12   18.84
   3   3  -2  351.14   18.20
   3  -3  -2  340.92   18.18
  -3  -3   2  328.43   18.11
   3  -3  -1   74.95    5.22
   3   3  -1   82.75    5.10
  -3  -3   1   88.35    5.13
   3  -3   0   21.95    2.03
   3   3   0   22.78    1.99
   3   3   0   20.83    1.85
   3  -3   0   19.53    1.81
   3   3   1  622.26   33.40
   3  -3   1  628.40   33.58
   3  -3   1  635.71   33.41
   3   3   1  672.27   33.82
   3   3   2  307.49   17.20
  -3   3  -2  331.60   16.95
   3   3   2  316.65   16.80
  -3  -3  -2  335.50   16.86
   3  -3   2  291.08   16.83
   3  -3   2  278.20   16.66
  -3   3  -2  317.10   16.82
  -3   3  -3    1.30    0.64
  -3   3  -3    3.17    0.75
   3  -3   3    1.33    0.62
   3  -3   3    1.22    0.58
   3   3   3    1.63    0.60
  -3  -3  -3    0.57    0.58
   3   3   4  161.05    9.02
  -3   3  -4  162.45    8.94
   3  -3   4  162.46    9.04
   3  -3   4  125.41    8.71
  -3   3  -4  151.74    8.90
  -3  -3  -4  168.31    8.99
  -3  -3  -5    6.98    1.15
   3  -3   5    6.13    1.13
  -3   3  -5    5.33    1.01
   3  -3   5    6.24    1.05
  -3   3  -5    6.56    1.12
   3   3   5    6.15    1.11
   3  -3   6    6.85    1.16
  -3  -3  -6    5.84    1.18
   3   3   6    6.91    1.24
  -3   3  -6    5.63    1.05
   3  -3   6    5.49    0.98
  -3   3  -6    4.07    1.04
   3   3   7   49.35    4.01
  -3  -3  -7   50.22    3.83
  -3   3  -7   49.62    3.81
  -3   3  -7   55.77    3.79
   3  -3   7   49.61    4.02
  -3   3  -8   67.30    4.97
  -3   3  -8   80.13    4.90
   3   3   8   67.56    5.20
   3  -3   8   66.45    5.17
  -3  -3  -8   69.44    4.99
  -3   3  -9  101.04    7.08
  -3   3  -9  116.01    6.90
   3   3   9  107.69    7.53
  -3  -3  -9  108.66    7.13
   3  -3   9  111.21    7.55
  -3   3 -10    4.04    1.07
  -3   3 -10    3.93    1.19
  -3  -3 -10    2.86    1.09
   3   3  10    2.08    1.15
   3  -3  10    2.06    1.06
  -3  -3 -11  167.58   10.81
   3   3  11  155.29   11.28
  -3   3 -11  183.39   11.01
   3  -3  11  159.54   11.34
  -3   3 -12   21.95    2.53
   3   3  12   15.32    2.58
  -3   3 -12   16.68    2.02
  -3  -3 -12   16.68    2.44
   3  -3  12   17.84    2.82
   3   3  13   48.31    5.02
  -3   3 -13   47.95    4.40
  -3   3 -13   56.13    4.08
   3  -3  13   53.96    5.19
  -3  -3 -13   48.50    4.45
   3   3  14    4.67    0.94
   3  -3  14    4.10    1.96
  -3   3 -14    4.79    1.64
  -3  -3 -14    3.06    1.49
  -3   3 -14    5.93    1.39
   3   3  14    7.69    2.19
   3  -3  14    3.20    1.66
  -3   3 -15   33.88    3.06
  -3   3 -15   33.04    3.59
   3  -3  15   28.58    4.04
  -3  -3 -15   34.63    3.75
   3  -3  15   27.75    3.78
   3   3  15   29.40    3.98
   3   3  15   26.52    2.19
  -3   3 -16  163.66    9.88
   3   3  16  166.49   12.00
   3  -3  16  144.40   11.57
   3  -3  16  161.73   11.42
   3  -3  17   12.61    2.88
  -3   3 -17   12.48    2.03
   3  -3  17   13.77    3.44
   3   3  17    7.28    2.81
  -3   3 -18   13.66    2.09
   3  -3  18   13.16    3.08
   3  -3  18    8.51    2.95
   3   3  18   11.46    3.10
   3  -3  19   11.44    2.87
   3   3  19   23.63    4.61
   3  -3  19    9.83    3.25
  -3   3 -19   22.19    2.58
   3   3  20    3.24    2.67
   3  -3  20    2.92    2.39
   3  -3  20    6.41    2.73
  -3   3 -20    3.33    1.44
  -3   3 -21   23.46    2.90
   3  -3  21   22.02    4.69
   3  -3  21   19.61    3.88
   3   3  21   27.35    5.00
   3   3  22   31.14    5.68
   3  -3  22   31.71    5.63
   3   3  23    1.12    2.08
   3  -3  23    1.67    2.17
   3   3  24    4.07    2.57
   3  -3  24   -0.58    2.64
  -3  -4  25    1.85    2.40
  -3   4  25    0.62    2.45
  -3  -4  24   -0.59    2.31
  -3   4  24    2.36    2.24
  -3  -4  23   -3.41    2.32
  -3   4  23   -0.57    2.26
   3   4 -22   19.51    1.50
  -3  -4  22   22.33    3.94
  -3   4  22   21.15    3.62
   3   4 -21   24.01    1.75
   3   4 -21   23.45    1.63
  -3   4  21   36.25    4.24
  -3  -4  21   33.35    4.17
  -3   4  20   31.47    3.94
   3   4 -20   22.56    1.65
  -3  -4  20   26.74    3.90
   3   4 -20   22.93    1.56
   3   4 -19   59.95    3.59
  -3  -4  19   80.53    6.42
  -3   4  19   72.38    6.16
   3   4 -19   69.23    3.72
  -3   4  18   26.04    3.37
   3   4 -18   20.55    1.37
  -3  -4  18   25.39    3.44
   3   4 -18   22.81    1.48
   3  -4 -18   21.75    2.09
   3   4 -18   24.38    3.77
  -3   4  17  136.48   10.42
  -3  -4  17  125.28    9.05
   3   4 -17  140.44    9.96
  -3   4  17  120.61    8.94
   3  -4 -17  120.38    7.55
  -3   4  16   80.31    7.58
   3  -4 -16   70.06    5.31
   3  -4 -16   88.55    7.36
   3   4 -16   93.70    7.54
  -3   4  16   83.41    6.58
   3   4 -16   89.71    7.44
  -3  -4  16   97.80    6.88
   3  -4 -15    8.14    2.47
   3   4 -15    6.62    2.19
  -3   4  15    6.55    1.70
  -3  -4  15    5.55    1.76
   3   4 -15    7.24    2.20
  -3   4  15   13.21    2.87
   3   4 -14   13.98    2.84
  -3   4  14   14.04    2.89
  -3  -4  14   11.39    2.14
  -3   4  14    9.83    1.98
   3   4 -14   12.62    2.73
   3  -4 -14   11.95    2.71
   3   4 -13   26.02    3.73
   3  -4 -13   26.48    3.60
   3   4 -13   20.03    3.34
  -3   4  13   27.88    3.74
  -3  -4  13   25.91    2.95
  -3   4  13   29.91    3.12
  -3   4  12    0.46    1.52
  -3  -4  12    1.79    0.95
  -3   4  12    1.76    1.14
   3   4 -12    2.88    1.63
   3  -4 -12    0.42    1.54
   3   4 -12   -0.42    1.43
  -3  -4  11  772.28   40.93
  -3   4  11  771.07   40.93
   3   4 -11  763.69   41.69
  -3   4  11  767.63   41.96
   3  -4 -11  755.30   41.64
   3   4 -11  742.02   42.16
  -3  -4  10   57.63    4.45
  -3   4  10   56.60    4.42
   3  -4 -10   61.51    4.29
   3   4 -10   51.16    5.36
   3   4 -10   50.37    4.09
  -3   4  10   61.97    5.29
  -3   4   9  307.39   18.47
   3  -4  -9  351.59   18.40
   3   4  -9  339.62   18.37
  -3  -4   9  326.44   18.59
  -3   4   9  348.29   19.64
   3   4  -9  316.88   19.79
   3  -4  -8   68.91    4.81
  -3   4   8   69.24    5.01
   3   4  -8   75.09    4.92
  -3  -4   8   78.44    5.19
   3   4  -8   70.43    6.06
  -3   4   8   67.61    5.66
   3   4  -7    2.07    0.86
   3  -4  -7    0.66    0.89
  -3   4   7    1.40    0.78
   3   4  -7    4.01    1.74
  -3  -4   7    1.22    0.76
   3  -4  -7    2.52    0.83
  -3   4   7    2.65    1.26
   3  -4  -6   18.18    2.60
  -3  -4   6   21.37    2.16
   3  -4  -6   24.21    2.18
  -3  -4   6   24.79    1.55
   3   4  -6   27.71    2.27
  -3   4   6   21.15    2.13
  -3   4   6   21.59    2.69
   3   4  -5  435.85   24.05
  -3  -4   5  454.79   24.22
  -3  -4   5  457.07   23.45
  -3   4   5  445.84   24.19
  -3   4   5  446.93   25.07
   3  -4  -5  468.12   24.09
   3  -4  -5  431.42   25.07
  -3   4   4  195.14   12.60
  -3   4   4  205.75   11.86
   3  -4  -4  238.00   11.87
   3   4  -4  211.44   11.78
  -3  -4   4  204.45   12.06
   3  -4  -4  217.69   12.87
  -3  -4   4  205.89   11.87
  -3   4   3   25.57    2.73
  -3  -4   3   21.41    2.18
   3  -4  -3   23.84    1.95
   3   4  -3   23.60    1.97
   3  -4  -3   22.14    2.57
   3  -4  -2  452.43   23.94
   3  -4  -2  460.82   25.15
   3   4  -2  456.42   23.95
  -3  -4   2  440.56   24.32
   3  -4  -1  457.28   25.12
   3  -4  -1  488.37   26.00
   3   4  -1  450.08   25.07
  -3  -4   1  479.75   25.15
  -3  -4   0  114.52    7.48
   3  -4   0  117.84    7.04
   3  -4   0  113.50    7.40
   3   4   0  137.62    7.70
   3   4   0  126.41    7.13
   3  -4   1  130.95    7.57
   3   4   1  129.32    7.58
   3  -4   1  132.26    7.96
   3   4   1  134.87    8.25
   3   4   2  395.57   21.94
   3  -4   2  400.05   22.19
   3   4   2  417.08   22.77
  -3  -4  -2  429.27   22.06
   3  -4   2  382.26   21.89
  -3   4  -2  458.31   22.13
   3   4   3   30.02    2.90
  -3   4  -3   27.31    2.42
   3  -4   3   28.37    2.42
   3  -4   3   25.52    2.24
   3   4   3   28.53    2.30
  -3  -4  -3   27.79    2.28
  -3   4  -3   25.41    2.23
   3   4   4  617.53   31.58
  -3   4  -4  581.71   30.57
   3  -4   4  552.96   30.53
  -3  -4  -4  580.40   30.48
   3   4   4  569.89   30.53
   3  -4   4  615.45   30.62
  -3   4  -4  537.78   30.43
  -3  -4  -5   42.84    3.11
  -3   4  -5   35.16    2.96
   3   4   5   33.42    3.01
   3  -4   5   42.93    3.20
   3  -4   5   42.67    3.08
  -3   4  -5   38.82    3.03
  -3   4  -6  149.45    9.48
  -3  -4  -6  153.66    9.47
  -3   4  -6  175.00    9.55
   3   4   6  184.28    9.93
   3  -4   6  165.30    9.78
   3  -4   6  153.62    9.37
   3  -4   7  937.43   48.98
  -3  -4  -7  902.68   48.60
   3  -4   7  886.54   48.36
  -3   4  -7  897.01   48.62
   3   4   7  941.71   48.97
  -3   4  -7 1001.01   48.58
  -3  -4  -8  367.23   20.83
   3   4   8  352.87   21.13
  -3   4  -8  382.21   20.92
   3  -4   8  342.28   21.07
  -3  -4  -9   11.97    1.76
  -3   4  -9    9.24    1.69
  -3   4  -9   12.99    1.70
   3  -4   9   11.50    1.90
   3   4   9   10.62    1.85
   3  -4  10  347.56   20.25
  -3   4 -10  392.70   19.46
  -3   4 -10  334.45   19.62
  -3  -4 -10  320.61   19.53
   3   4  10  350.34   20.23
  -3   4 -11   88.25    6.91
  -3  -4 -11  101.44    7.04
  -3   4 -11  116.85    6.86
   3   4  11  102.65    7.65
   3  -4  11  109.44    7.78
  -3   4 -12   10.84    1.93
  -3   4 -12   10.00    1.62
   3   4  12   11.29    2.28
  -3  -4 -12   12.25    1.96
   3  -4  12   11.20    2.32
  -3  -4 -13    4.46    1.32
  -3   4 -13    7.38    1.70
  -3   4 -13    2.92    1.07
   3   4  13    4.28    1.53
   3  -4  13    7.08    1.89
   3  -4  13    5.41    2.10
  -3   4 -14   22.55    3.01
   3  -4  14   24.75    3.70
  -3  -4 -14   27.75    3.21
   3   4  14   32.89    4.04
   3  -4  14   28.75    3.93
  -3   4 -14   26.16    2.70
  -3   4 -15   54.01    4.98
  -3  -4 -15   62.52    5.10
  -3   4 -15   60.06    4.41
   3  -4  15   41.56    5.32
   3   4  15   48.39    5.64
   3  -4  15   54.65    5.67
   3  -4  16   15.11    3.27
  -3   4 -16   24.45    2.64
   3  -4  16   21.46    3.80
   3   4  16   23.49    3.94
   3   4  17   97.43    9.27
  -3   4 -17  123.47    7.59
   3  -4  17  109.20    9.45
   3  -4  17  107.07    9.17
   3  -4  18    8.58    2.99
   3  -4  18    4.26    2.61
  -3   4 -18    7.32    1.73
   3   4  18    6.49    2.76
   3  -4  19    1.53    2.26
   3  -4  19    6.34    2.80
   3   4  19    6.13    2.77
  -3   4 -19    4.83    1.54
  -3   4 -20   42.26    3.90
   3  -4  20   35.11    5.24
   3  -4  20   49.97    6.30
   3   4  20   43.10    6.12
   3  -4  21   21.76    4.17
  -3   4 -21   24.09    2.84
   3   4  21   21.33    4.73
   3  -4  21   23.70    4.75
   3  -4  22   26.38    5.08
   3   4  22   27.51    5.29
   3   4  23    5.04    2.41
   3  -4  23   11.13    2.97
   3   4  24    0.58    2.20
  -3  -5  25    5.59    2.85
  -3   5  25    3.09    2.53
  -3  -5  24    0.59    2.14
  -3   5  24    0.59    2.13
  -3   5  23    2.26    2.25
  -3  -5  23   -0.57    1.80
  -3  -5  22   74.83    7.01
  -3   5  22   71.62    6.93
  -3  -5  21    1.04    1.81
  -3   5  21   -0.51    1.85
  -3  -5  20    2.46    1.57
  -3   5  20    2.44    1.71
  -3   5  19   14.32    2.74
  -3  -5  19   21.10    3.15
  -3  -5  18   -0.44    1.64
  -3   5  18    1.31    1.48
  -3   5  17    9.74    3.00
   3  -5 -17    7.20    1.09
   3   5 -17    7.32    2.73
  -3   5  17    9.04    2.27
  -3  -5  17   10.46    2.25
   3  -5 -16    5.90    1.11
   3  -5 -16    6.29    2.49
  -3  -5  16    6.28    1.88
  -3   5  16    4.96    2.60
   3   5 -16    4.45    2.50
   3   5 -16    7.24    2.69
  -3   5  16    9.27    2.05
  -3  -5  15   54.30    4.89
   3   5 -15   48.99    5.25
   3   5 -15   49.83    5.67
   3  -5 -15   54.54    5.53
  -3   5  15   66.43    5.23
  -3   5  15   49.94    5.92
   3   5 -14  108.30    9.09
   3   5 -14  128.26    9.01
   3  -5 -14  123.28    8.80
  -3   5  14  104.79    7.91
  -3   5  14  110.45    9.21
  -3  -5  14  121.07    8.19
  -3  -5  13   33.49    3.51
   3  -5 -13   32.78    4.09
   3   5 -13   42.61    4.87
   3   5 -13   39.73    4.40
  -3   5  13   33.37    4.35
  -3   5  13   36.35    3.57
  -3   5  12  111.13    7.10
   3   5 -12   96.53    7.54
  -3  -5  12   96.71    6.98
   3  -5 -12  105.46    7.73
   3   5 -12   92.93    7.99
  -3   5  12   85.35    7.72
   3   5 -11   12.10    2.65
  -3   5  11   10.93    2.51
  -3  -5  11   11.76    1.88
  -3   5  11   15.64    2.08
   3   5 -11   11.67    2.38
   3  -5 -11   14.94    2.54
  -3  -5  10   31.14    3.21
  -3   5  10   42.52    3.54
   3  -5 -10   38.95    3.24
   3   5 -10   40.32    3.25
  -3   5  10   37.76    4.27
   3   5 -10   34.03    4.35
  -3   5   9  104.05    7.95
  -3  -5   9   96.56    6.72
  -3   5   9  104.59    6.82
   3   5  -9  102.50    6.56
   3   5  -9  103.27    8.13
   3  -5  -9  105.82    6.57
   3  -5  -8  385.53   21.05
  -3   5   8  376.43   21.30
   3   5  -8  387.09   21.09
  -3   5   8  439.04   22.91
   3   5  -8  350.87   22.68
  -3  -5   8  397.95   21.40
  -3   5   7  107.56    6.43
   3   5  -7  107.35    6.26
   3   5  -7   99.54    7.73
   3  -5  -7   95.93    6.13
  -3  -5   7   95.42    6.33
   3  -5  -7   91.76    7.25
  -3   5   7   86.78    7.11
   3   5  -6  270.42   16.85
  -3  -5   6  288.45   14.38
   3  -5  -6  278.70   15.14
  -3   5   6  239.48   16.21
  -3   5   6  249.19   15.15
   3   5  -6  275.73   15.13
   3  -5  -6  274.59   16.52
  -3  -5   6  269.51   15.27
   3  -5  -5    4.08    1.38
   3  -5  -5   10.97    1.28
   3   5  -5    7.36    1.14
  -3   5   5    6.34    1.04
  -3   5   5    5.97    1.62
   3   5  -5    7.82    2.01
  -3  -5   5    7.60    1.15
   3  -5  -4  144.25    8.02
   3   5  -4  132.11    7.97
  -3  -5   4  134.70    8.11
  -3   5   4  144.68    9.42
  -3  -5   4  133.67    8.62
   3  -5  -4  150.05    9.55
  -3  -5   3  144.78    8.98
   3  -5  -3  144.78    8.24
   3   5  -3  143.64    8.27
   3  -5  -3  144.29    9.60
   3  -5  -2   37.39    2.63
  -3  -5   2   36.48    3.23
   3  -5  -2   34.57    3.62
   3   5  -2   34.25    2.58
   3   5  -1   78.73    4.81
   3  -5  -1   76.48    6.03
   3   5  -1   75.37    5.44
  -3  -5   1   77.11    5.51
  -3  -5   0    4.16    1.20
   3   5   0    4.60    0.86
   3  -5   0    5.15    0.85
   3  -5   0    6.53    1.16
   3   5   0    5.09    1.32
  -3  -5  -1   15.54    2.04
   3  -5   1   13.72    1.77
   3  -5   1   15.17    1.45
   3   5   1   15.82    2.08
   3   5   1   14.00    1.44
   3  -5   2   39.26    3.12
   3  -5   2   34.26    2.67
   3   5   2   37.86    2.74
   3   5   2   37.81    3.50
  -3  -5  -3   81.01    5.12
   3  -5   3   77.09    5.06
   3  -5   3   87.99    5.45
  -3   5  -3   89.58    5.23
   3   5   3   70.18    5.83
   3   5   3   77.22    5.10
   3  -5   4   12.71    1.64
   3   5   4   16.60    2.39
  -3   5  -4   13.90    1.58
  -3  -5  -4   14.32    1.55
   3   5   4   15.35    1.62
   3  -5   4   10.52    1.42
   3   5   5    1.08    1.10
  -3  -5  -5   -0.17    0.61
   3  -5   5    0.58    0.70
  -3   5  -5    0.75    0.75
  -3   5  -5    1.38    0.76
   3  -5   5    0.37    0.67
   3   5   5    0.19    0.74
   3   5   6   12.78    2.31
   3  -5   6   13.96    1.61
   3  -5   6   10.10    1.54
  -3   5  -6   14.50    1.66
  -3  -5  -6    9.34    1.53
   3   5   6   12.92    1.67
  -3   5  -6   11.16    1.52
   3   5   7    2.08    1.28
   3  -5   7    1.43    0.69
   3   5   7    1.24    0.85
  -3   5  -7    2.65    0.82
  -3   5  -7    0.82    0.78
   3  -5   7    1.99    0.97
  -3  -5  -7    1.81    0.78
  -3   5  -8   -0.19    0.76
   3  -5   8    1.44    0.78
   3  -5   8   -0.28    0.86
   3   5   8    0.85    0.86
  -3   5  -8   -0.22    0.83
  -3  -5  -8    0.66    0.77
   3   5   9    7.36    1.75
  -3   5  -9    9.68    1.51
  -3   5  -9   14.09    1.89
  -3  -5  -9   12.19    1.77
   3  -5   9    9.94    1.90
   3  -5   9   15.55    1.66
  -3   5 -10  138.73    8.35
   3   5  10  119.93    8.60
  -3  -5 -10  116.58    8.07
   3  -5  10  127.85    8.74
  -3   5 -10  127.54    7.81
  -3   5 -11    0.29    1.11
  -3   5 -11    0.21    0.77
   3   5  11    0.40    1.12
   3   5  11    0.09    0.51
   3  -5  11    1.59    1.12
  -3  -5 -11    0.28    0.92
  -3   5 -12   28.61    2.74
  -3  -5 -12   33.99    3.27
  -3   5 -12   30.38    3.24
   3  -5  12   26.41    3.61
   3   5  12   32.48    3.75
   3  -5  12   25.42    3.88
  -3   5 -13   18.45    2.47
   3   5  13   18.95    3.05
  -3   5 -13   24.65    2.48
   3  -5  13   24.95    3.72
  -3  -5 -13   16.36    2.47
   3  -5  13   15.48    2.72
  -3   5 -14    4.09    1.51
  -3  -5 -14    5.11    1.59
  -3   5 -14    1.85    1.14
   3  -5  14    2.12    1.92
   3   5  14    4.80    2.22
   3  -5  14    4.61    2.14
  -3  -5 -15  306.12   19.09
   3   5  15  301.84   20.34
  -3   5 -15  320.45   19.23
   3  -5  15  318.63   20.59
  -3   5 -15  373.60   18.67
   3  -5  15  319.74   20.58
  -3   5 -16    1.49    1.14
   3  -5  16    0.63    1.77
   3   5  16    0.63    1.77
   3  -5  16    2.48    2.04
   3  -5  17    3.87    2.52
  -3   5 -17    2.81    1.18
   3  -5  17    2.03    2.30
   3   5  17    5.44    2.38
  -3   5 -18    5.74    1.59
   3  -5  18    5.05    2.61
   3   5  18    3.63    2.24
   3  -5  18    6.71    2.62
   3   5  19   21.60    4.32
  -3   5 -19   15.18    2.26
   3  -5  19   18.80    3.78
   3  -5  19   13.85    3.73
   3  -5  20    0.72    2.10
   3  -5  20    0.81    2.67
  -3   5 -20    0.54    1.30
   3   5  20   -3.26    2.68
   3  -5  21    2.90    2.68
   3   5  21    0.85    2.89
   3  -5  21    0.85    2.49
   3   5  22   23.15    3.68
   3  -5  22   17.16    3.46
   3  -5  22   18.38    4.26
   3   5  23    1.67    2.17
   3  -5  23    2.78    2.01
  -3  -6  25   26.26    4.53
  -3   6  25   28.00    4.78
  -3   6  24    4.16    2.79
  -3  -6  24   11.36    3.19
  -3   6  23    3.97    2.51
  -3  -6  23    3.42    2.23
  -3   6  22   -1.08    2.29
  -3  -6  22   -1.63    2.58
  -3   6  21    7.69    2.52
  -3  -6  21    5.69    2.39
  -3  -6  20    6.88    2.27
  -3   6  20    7.27    2.25
  -3   6  19    5.05    1.77
  -3  -6  19    6.05    1.96
  -3  -6  18   17.17    3.02
  -3   6  18   16.92    3.00
  -3   6  17  249.28   15.60
  -3  -6  17  253.77   15.68
  -3   6  16   38.80    5.33
   3  -6 -16   38.88    4.59
   3   6 -16   45.62    5.01
  -3  -6  16   34.51    4.00
   3   6 -16   33.19    4.80
  -3   6  16   40.07    4.05
  -3   6  15    5.04    2.59
   3   6 -15    7.59    2.69
  -3  -6  15    7.38    1.88
  -3   6  15    7.24    1.77
   3  -6 -15    5.45    2.07
   3   6 -15    6.05    2.19
  -3   6  14   25.53    2.99
   3   6 -14   18.32    3.03
   3  -6 -14   17.43    2.99
  -3  -6  14   22.83    2.93
  -3   6  14   28.22    4.19
   3   6 -14   16.64    3.33
  -3   6  13   15.51    3.32
   3   6 -13   12.92    2.96
   3  -6 -13   11.24    2.66
  -3   6  13   18.13    2.46
  -3  -6  13   12.98    2.24
   3   6 -13   17.97    2.89
   3   6 -12    9.92    2.80
  -3  -6  12   12.37    2.04
   3   6 -12   13.41    2.57
  -3   6  12   11.82    2.00
   3  -6 -12   12.77    2.57
  -3   6  12   17.99    3.17
   3   6 -11  149.26   10.17
  -3  -6  11  151.03    9.54
   3  -6 -11  144.37   10.09
  -3   6  11  140.67    9.42
  -3   6  11  177.16   11.40
   3   6 -11  154.24   11.16
   3   6 -10    2.50    1.49
   3   6 -10    3.69    2.01
   3  -6 -10    3.48    1.48
  -3  -6  10    2.60    1.09
  -3   6  10    1.02    1.00
  -3   6  10    1.96    1.62
   3  -6  -9   89.65    5.64
   3   6  -9   85.18    5.61
  -3  -6   9   87.99    5.96
  -3   6   9   92.05    5.93
   3   6  -9   83.38    7.30
   3   6  -8  249.15   13.94
  -3   6   8  265.88   15.95
  -3  -6   8  230.38   14.11
  -3   6   8  250.04   14.20
   3  -6  -8  231.05   15.52
   3  -6  -8  252.17   13.92
   3   6  -8  280.43   16.35
   3  -6  -7  648.67   37.59
   3   6  -7  697.26   35.78
  -3  -6   7  668.90   34.85
  -3  -6   7  675.91   35.95
  -3   6   7  764.63   36.14
   3  -6  -7  691.96   35.75
   3   6  -7  693.10   38.06
  -3   6   6   75.60    5.74
   3   6  -6   58.77    3.98
   3  -6  -6   58.74    3.93
  -3  -6   6   53.49    4.01
  -3   6   6   53.56    4.03
   3  -6  -6   53.63    5.17
   3   6  -6   61.67    5.64
  -3   6   5  134.59    8.08
  -3  -6   5  127.48    8.83
  -3  -6   5  130.04    8.06
   3   6  -5  144.60    8.09
   3  -6  -5  145.32    8.06
  -3   6   5  122.87    9.29
   3  -6  -5  146.99    9.80
   3  -6  -4    8.42    1.91
   3   6  -4   13.43    1.40
  -3   6   4    9.26    2.13
  -3  -6   4   12.15    1.90
   3  -6  -4   10.45    1.25
  -3  -6   3    1.49    0.98
   3  -6  -3    0.36    0.48
   3  -6  -3   -0.41    0.93
   3   6  -3    0.37    0.54
  -3  -6   2  104.76    7.29
   3   6  -2  101.19    7.76
   3   6  -2   98.35    6.16
   3  -6  -2  109.76    8.00
   3  -6  -2  115.02    6.27
   3   6  -1  129.80    7.88
   3   6  -1  150.89    9.74
   3   6  -1  158.14    9.34
   3  -6  -1  134.47    7.94
   3   6  -1  136.84    8.00
   3  -6  -1  129.19    9.54
   3  -6  -1  146.78    7.99
  -3  -6   1  153.04    9.31
   3   6   0   50.87    4.84
   3   6   0   54.10    3.57
   3   6   0   53.91    4.54
   3  -6   0   54.93    3.56
   3  -6   0   53.88    5.06
  -3  -6   0   54.97    4.62
  -3  -6  -1  425.40   25.41
   3   6   1  459.04   25.71
   3  -6   1  463.66   24.88
   3   6   1  439.42   24.06
   3   6   1  496.17   25.69
   3  -6   1  463.53   24.09
   3  -6   2   15.97    1.59
   3   6   2   16.60    1.61
   3   6   2   14.43    2.30
  -3  -6  -2   22.32    2.71
   3  -6   2   19.87    2.10
   3   6   2   12.71    2.22
   3   6   3  536.97   29.55
   3  -6   3  524.79   28.81
   3  -6   3  526.16   28.35
   3   6   3  545.00   28.39
  -3  -6  -3  534.61   28.40
  -3   6  -3  549.08   28.42
   3   6   3  525.05   29.79
  -3   6  -4   54.95    3.92
  -3  -6  -4   58.52    3.95
   3   6   4   54.18    4.59
   3  -6   4   60.72    4.26
   3   6   4   56.76    3.98
   3  -6   4   61.21    4.07
   3   6   4   51.55    4.95
   3   6   5    8.42    1.85
  -3  -6  -5    5.44    1.07
   3   6   5    7.02    1.55
  -3   6  -5    6.60    1.15
   3   6   5    4.86    1.06
   3  -6   5    5.87    1.17
   3  -6   5    3.70    1.07
   3   6   6    3.40    1.46
   3   6   6    5.25    1.40
   3  -6   6    3.97    1.03
  -3   6  -6    4.87    1.06
  -3  -6  -6    3.50    0.98
   3  -6   6    4.03    1.03
   3   6   6    2.88    0.96
   3   6   7   16.36    2.72
  -3  -6  -7   14.80    1.72
   3  -6   7   10.22    1.73
   3   6   7   11.36    1.75
   3  -6   7   11.13    1.55
  -3   6  -7   12.23    1.62
   3   6   7   13.60    1.90
   3  -6   8    2.34    1.10
   3   6   8    3.16    1.21
   3   6   8    3.65    1.10
  -3   6  -8    2.48    1.04
  -3   6  -8    3.79    0.98
   3  -6   8    4.02    0.99
   3   6   8    4.37    1.81
  -3  -6  -8    4.16    1.02
   3   6   9    1.05    0.80
  -3   6  -9    1.47    0.87
  -3  -6  -9    2.15    0.95
   3  -6   9    0.66    0.92
   3   6   9    1.55    1.46
  -3   6  -9    1.21    0.88
   3   6   9    0.32    0.92
   3  -6   9    0.58    0.71
  -3  -6 -10   62.41    4.76
   3  -6  10   58.36    5.16
  -3   6 -10   58.38    4.43
  -3   6 -10   71.90    5.00
   3   6  10   61.19    5.24
   3   6  10   59.33    4.02
   3   6  10   69.76    6.35
   3   6  11   10.49    2.69
   3  -6  11   10.61    2.36
  -3   6 -11    9.30    1.63
  -3  -6 -11   16.98    2.25
   3   6  11   14.97    2.53
  -3   6 -11   13.85    2.03
   3   6  12   16.07    3.40
   3   6  12   20.62    2.89
  -3   6 -12   15.82    2.27
  -3   6 -12   16.67    2.13
  -3  -6 -12   22.14    2.56
   3  -6  12   14.26    3.20
   3  -6  12   17.98    2.74
   3  -6  13  310.34   19.06
   3   6  13  313.23   19.13
  -3   6 -13  303.32   17.98
  -3  -6 -13  301.16   17.97
   3  -6  13  311.86   19.87
  -3   6 -13  315.53   17.37
  -3   6 -14   81.51    6.18
   3  -6  14   75.75    6.91
  -3  -6 -14   75.53    6.03
   3   6  14   71.41    6.84
  -3   6 -14   79.38    5.46
   3  -6  14   69.66    7.19
   3  -6  15   54.28    6.20
  -3  -6 -15   58.16    5.11
  -3   6 -15   65.92    5.37
  -3   6 -15   57.54    4.42
   3   6  15   49.01    5.79
   3  -6  15   53.15    5.77
   3  -6  16   28.80    4.63
   3   6  16   28.63    4.56
   3  -6  16   25.43    4.23
  -3   6 -16   30.46    3.00
  -3   6 -17   98.83    6.54
   3  -6  17   96.66    9.05
   3  -6  17   94.78    8.80
   3   6  17   86.68    8.47
   3  -6  18    6.61    2.68
   3   6  18    7.33    2.95
   3  -6  18    8.06    3.01
  -3   6 -18    9.54    1.78
  -3   6 -19   25.54    2.92
   3  -6  19   31.15    5.04
   3   6  19   28.64    5.00
   3  -6  19   19.34    4.15
   3   6  20    0.81    2.76
   3  -6  20   -0.81    2.84
   3  -6  20    1.56    2.38
   3  -6  21  104.55    8.30
   3  -6  21   79.50    9.03
   3   6  21  105.31    8.32
   3   6  22   -1.60    2.60
   3  -6  22   -0.80    2.89
   3  -6  22   -3.21    2.27
   3  -6  23   -0.56    2.31
   3   6  23   -0.56    2.54
  -3   7  25   -1.24    2.98
  -3  -7  24    1.21    2.35
  -3   7  24    3.57    2.26
  -3  -7  23   13.81    3.38
  -3   7  23   11.95    3.20
  -3  -7  22  106.79    8.73
  -3   7  22  103.99    8.67
  -3  -7  21   15.64    3.17
  -3   7  21   11.34    2.81
  -3   7  20    2.44    2.03
  -3  -7  20    0.50    2.02
  -3  -7  19    0.94    1.99
  -3   7  19   -1.38    1.80
  -3  -7  18   22.62    3.43
  -3   7  18   24.51    3.39
  -3  -7  17   10.08    2.24
  -3   7  17   11.96    2.41
  -3  -7  16  129.17    8.94
  -3   7  16  125.75    8.86
   3  -7 -16  118.31    9.17
   3   7 -16  125.63    9.45
   3   7 -15    8.09    2.38
   3   7 -15   14.22    3.41
  -3  -7  15   17.07    2.81
  -3   7  15   20.75    2.80
   3  -7 -15   17.42    3.01
  -3  -7  14   77.41    6.03
  -3   7  14   79.29    6.02
   3   7 -14   69.82    6.35
   3  -7 -14   74.48    6.35
   3   7 -14   70.71    7.22
  -3   7  14   82.73    7.70
  -3   7  13   25.44    2.90
  -3   7  13   23.91    4.16
   3  -7 -13   20.08    3.16
  -3  -7  13   28.18    3.00
   3   7 -13   14.93    2.86
   3   7 -13   28.73    4.14
  -3   7  12   98.95    7.04
   3  -7 -12   87.45    7.39
  -3  -7  12  110.86    7.27
   3   7 -12   94.88    7.53
  -3   7  12  117.50    9.09
   3   7 -12  110.94    8.91
   3  -7 -11   36.06    3.83
   3   7 -11   38.49    4.69
  -3   7  11   32.05    3.22
   3   7 -11   29.13    3.63
  -3  -7  11   32.27    3.26
  -3   7  11   47.68    5.06
  -3   7  10   10.15    2.55
  -3   7  10    5.90    1.40
  -3  -7  10    6.55    1.39
   3  -7 -10    6.49    1.77
   3   7 -10    5.62    2.31
   3   7 -10    5.27    1.77
   3   7  -9    9.34    2.50
  -3  -7   9   10.73    1.65
   3  -7  -9    6.60    1.72
  -3   7   9    6.95    1.40
   3   7  -9    9.08    2.01
  -3   7   9    7.21    2.31
   3  -7  -8  169.27   11.65
  -3   7   8  161.24    9.69
   3  -7  -8  171.73    9.52
   3   7  -8  173.53    9.56
  -3  -7   8  157.78    8.49
  -3  -7   8  168.59    9.77
  -3   7   8  145.17   11.15
   3   7  -8  159.16   11.62
   3  -7  -7   41.16    2.95
   3   7  -7   43.78    3.07
   3   7  -7   38.69    4.61
  -3   7   7   29.53    4.02
  -3   7   7   37.90    3.12
   3  -7  -7   33.76    4.20
  -3  -7   7   32.83    3.00
  -3  -7   6  310.88   18.64
  -3  -7   6  318.41   17.39
   3  -7  -6  289.84   17.06
   3   7  -6  313.55   17.17
  -3   7   6  389.90   19.94
  -3   7   6  317.40   17.37
   3  -7  -6  363.28   19.87
   3  -7  -5    3.46    1.66
  -3  -7   5    9.95    1.26
  -3   7   5    9.26    2.18
  -3  -7   5    4.69    1.51
   3   7  -5    7.98    1.09
   3  -7  -5    5.61    0.95
  -3   7   4   75.30    6.02
  -3  -7   4   60.28    5.07
   3   7  -4   62.63    3.95
   3  -7  -4   57.87    3.86
   3   7  -3   -0.46    1.57
   3   7  -3    0.95    0.56
   3  -7  -3    1.36    0.57
  -3  -7   3    0.36    0.96
   3  -7  -3    1.44    1.29
   3   7  -2  175.60    9.71
   3  -7  -2  166.42    9.63
   3  -7  -2  179.91   12.02
   3   7  -2  186.00   11.93
  -3  -7   2  184.48   11.42
   3   7  -1  299.53   16.36
   3  -7  -1  305.95   16.35
  -3  -7   1  311.89   18.16
   3   7  -1  332.58   18.24
   3   7  -1  337.00   18.76
   3  -7  -1  306.09   18.78
   3   7  -1  322.00   16.47
   3  -7  -1  279.47   16.30
  -3  -7   0    4.19    1.46
   3   7   0    3.34    0.72
   3  -7   0    4.14    0.72
   3   7   0    3.89    0.73
   3   7   0    7.37    1.85
   3  -7   0    2.42    1.32
   3   7   0    3.26    1.49
   3  -7   1   60.70    4.53
   3   7   1   56.75    3.75
   3  -7   1   57.91    3.76
   3  -7   1   65.48    5.89
   3   7   1   57.42    5.10
  -3  -7  -1   64.04    5.32
   3   7   1   56.70    5.14
   3  -7   2   29.86    2.30
   3   7   2   27.09    2.25
   3  -7   2   29.62    2.88
   3   7   2   32.32    3.57
  -3  -7  -2   29.81    3.42
   3   7   2   28.61    3.38
   3  -7   3  124.76    7.32
   3  -7   3  114.05    6.63
   3   7   3   97.06    7.87
   3   7   3  107.01    6.57
   3   7   3   98.25    7.60
  -3  -7  -4   70.43    4.67
   3   7   4   71.39    4.75
   3  -7   4   61.75    4.63
   3  -7   4   71.44    5.08
  -3   7  -4   78.28    4.80
   3   7   4   73.24    6.09
   3   7   4   76.81    5.74
  -3   7  -5  165.80   10.12
  -3  -7  -5  182.33   10.19
   3  -7   5  196.74   10.68
   3   7   5  172.89   10.32
   3   7   5  171.64   11.81
   3  -7   5  174.51   10.34
   3   7   5  169.62   10.98
  -3   7  -6    2.06    0.90
   3  -7   6    1.38    0.85
   3  -7   6    0.22    0.77
  -3  -7  -6    0.19    0.72
   3   7   6    2.69    0.89
   3   7   6    0.47    1.33
   3   7   6    1.41    1.25
   3   7   7    2.47    1.63
   3   7   7    3.32    1.22
  -3   7  -7    3.06    1.01
   3  -7   7    5.29    1.20
   3   7   7    3.63    1.21
   3  -7   7    2.64    1.16
  -3  -7  -7    2.00    0.90
  -3   7  -8    3.32    0.91
  -3  -7  -8    2.82    0.93
   3   7   8    2.49    1.11
   3  -7   8    0.61    0.74
   3   7   8    1.77    0.87
   3  -7   8    3.00    1.02
   3   7   8    2.61    1.98
  -3  -7  -9   31.31    2.96
   3  -7   9   31.19    2.71
   3  -7   9   31.42    3.38
   3   7   9   32.04    4.26
  -3   7  -9   25.28    2.76
   3   7   9   28.91    3.27
   3   7   9   30.50    2.71
   3   7  10   11.70    2.89
  -3   7 -10   10.96    1.77
  -3  -7 -10    6.95    1.50
   3   7  10   10.77    2.08
   3  -7  10    9.06    1.96
   3  -7  10   11.02    1.55
  -3  -7 -11   29.96    3.18
   3   7  11   26.63    4.38
   3   7  11   35.13    3.87
  -3   7 -11   35.22    3.37
   3  -7  11   37.18    3.97
   3  -7  11   39.42    4.98
   3   7  12   44.49    5.33
  -3   7 -12   32.94    3.10
  -3  -7 -12   28.84    3.30
   3  -7  12   37.25    4.21
   3   7  12   45.82    4.60
  -3   7 -12   38.89    3.58
   3  -7  12   27.11    4.35
  -3  -7 -13  198.78   12.33
   3   7  13  212.75   13.59
  -3   7 -13  184.06   12.16
  -3   7 -13  208.99   11.80
   3  -7  13  208.34   13.52
   3  -7  13  172.98   14.05
  -3   7 -14   58.30    4.77
  -3  -7 -14   68.58    5.44
  -3   7 -14   73.95    5.69
   3  -7  14   62.05    6.93
   3   7  14   58.95    6.12
   3  -7  14   77.17    6.87
   3  -7  15    3.64    2.48
  -3   7 -15    4.78    1.40
  -3  -7 -15    3.58    1.75
   3   7  15    1.79    2.09
   3  -7  15    2.40    1.98
  -3   7 -15    1.82    1.61
   3  -7  16   -2.60    2.53
   3  -7  16   -0.75    2.12
  -3   7 -16    0.73    1.20
   3   7  16    1.92    2.04
   3  -7  17   79.18    8.22
   3   7  17   99.41    8.71
  -3   7 -17   88.99    6.18
   3  -7  17   86.30    8.75
  -3   7 -18  118.14    7.77
   3  -7  18  129.07   11.03
   3   7  18  130.18   10.70
   3  -7  18  105.96   10.05
   3   7  19    5.38    3.01
   3  -7  19   10.76    3.98
   3  -7  19    3.86    2.80
   3  -7  20   -2.53    2.86
   3   7  20   -1.46    1.80
   3  -7  20   -0.49    1.92
   3  -7  21    4.61    2.34
   3   7  21    2.03    2.11
   3   7  22    9.48    2.72
   3  -7  22    8.01    2.64
   3  -7  22    6.92    3.70
   3  -7  23    4.46    2.23
   3   7  23    4.42    2.31
  -3  -8  24   77.02    7.53
  -3   8  24   76.32    7.47
  -3  -8  23    2.88    2.30
  -3   8  23    5.09    2.50
  -3   8  22   -0.54    2.29
  -3  -8  22   -1.65    2.68
  -3  -8  21   13.07    3.10
  -3   8  21   15.92    3.17
  -3  -8  20   75.00    6.76
  -3   8  20   78.00    6.93
  -3  -8  19   -0.47    1.87
  -3   8  19   -0.46    1.88
  -3  -8  18    0.89    1.60
  -3   8  18   -0.44    1.85
  -3   8  17   11.10    2.39
  -3  -8  17   12.56    2.54
   3  -8 -16    2.88    0.66
   3   8 -16    4.97    2.28
  -3  -8  16    3.54    1.65
  -3   8  16    3.10    1.62
   3  -8 -16    4.36    2.00
   3   8 -15   16.09    2.88
  -3   8  15   12.73    2.38
   3  -8 -15   16.34    2.83
  -3  -8  15    8.51    2.09
   3  -8 -14   18.72    3.14
  -3  -8  14   22.87    3.00
   3   8 -14   26.99    3.48
  -3   8  14   25.17    3.04
  -3   8  13   12.28    3.28
  -3  -8  13    7.75    1.86
  -3   8  13   10.17    2.05
   3  -8 -13   11.88    2.43
   3   8 -13    7.59    2.14
   3   8 -13    5.71    2.68
  -3  -8  12  159.75   10.07
  -3   8  12  159.78   10.04
  -3   8  12  152.30   11.93
   3   8 -12  155.31   10.52
   3  -8 -12  153.72   10.45
   3   8 -12  161.34   12.06
   3   8 -11    4.27    2.55
  -3  -8  11    2.53    1.18
  -3   8  11    3.85    1.29
   3  -8 -11    5.50    1.61
   3   8 -11    1.80    1.63
  -3   8  11    4.84    2.24
  -3  -8  10   76.04    5.54
  -3   8  10   77.56    5.49
   3  -8 -10   79.34    6.02
   3   8 -10   79.14    6.10
  -3   8  10   78.19    7.26
   3   8 -10   69.31    7.08
   3   8  -9   13.42    3.11
  -3   8   9   10.92    1.60
   3   8  -9   12.35    2.13
   3  -8  -9   13.10    2.17
  -3  -8   9   10.09    1.58
   3  -8  -9   10.06    2.67
  -3   8   9   15.97    3.19
   3   8  -8   -1.71    1.81
   3  -8  -8    0.58    1.31
   3   8  -8    0.58    1.02
  -3   8   8    1.26    0.87
   3  -8  -8    1.40    1.06
  -3  -8   8    0.86    0.79
  -3   8   8   -0.55    1.62
   3  -8  -7    0.57    1.38
   3   8  -7    0.64    0.72
   3   8  -7    1.11    1.64
  -3  -8   7    2.21    1.30
  -3   8   7    0.53    1.63
  -3  -8   7    0.96    0.76
  -3   8   7    0.19    0.68
   3  -8  -7    0.90    0.74
  -3  -8   6   72.83    4.82
   3  -8  -6   70.95    4.56
   3  -8  -6   60.70    6.36
  -3  -8   6   75.87    6.22
  -3   8   6   80.36    6.80
  -3   8   6   65.63    4.73
   3   8  -6   76.15    4.66
  -3  -8   5   41.24    4.31
   3   8  -5   44.26    3.09
   3  -8  -5   43.19    3.03
  -3   8   5   41.68    4.72
   3  -8  -5   46.89    5.06
   3   8  -4   24.03    3.67
   3   8  -4   23.92    1.97
   3  -8  -4   22.66    1.88
  -3  -8   4   27.10    3.27
   3  -8  -4   19.74    3.31
   3   8  -3   14.86    2.82
   3   8  -3   11.83    1.36
   3  -8  -3   15.78    1.41
   3  -8  -3   14.06    2.77
  -3  -8   3   20.03    2.77
   3   8  -2    0.48    1.52
   3  -8  -2    0.60    0.51
   3   8  -2    0.63    0.49
   3   8  -2    0.97    0.53
   3  -8  -2    0.34    0.48
   3  -8  -2   -0.54    1.03
  -3  -8   2    0.84    1.07
   3  -8  -1   67.29    4.38
   3   8  -1   71.12    4.46
   3   8  -1   76.98    4.46
  -3  -8   1   80.12    6.41
   3  -8  -1   74.98    4.42
   3  -8  -1   78.94    6.85
   3   8  -1   69.92    6.29
  -3  -8   0    3.54    1.72
   3   8   0    1.48    0.54
   3  -8   0    1.25    0.51
   3  -8   0    1.06    0.52
   3   8   0    1.76    1.63
   3   8   0    2.10    1.51
   3  -8   0    1.63    1.39
   3   8   0    1.81    0.50
   3   8   1  152.09    8.16
   3  -8   1  133.90    8.06
   3  -8   1  130.84   10.38
   3   8   1  161.67   10.29
   3   8   1  141.37    9.98
  -3  -8  -1  149.23   10.23
   3  -8   2  192.50   11.28
   3   8   2  185.04   12.26
   3   8   2  181.44   10.28
   3  -8   2  185.09   10.30
   3   8   2  182.25   12.02
  -3  -8  -2  179.37   12.33
  -3  -8  -3   78.46    7.02
   3  -8   3   84.26    6.08
   3   8   3   89.91    5.49
   3  -8   3   87.39    5.48
   3   8   3  101.80    7.46
   3   8   3   82.69    6.71
  -3   8  -4   85.47    5.18
   3  -8   4   81.57    5.65
   3  -8   4   78.47    5.18
   3   8   4   81.29    6.88
   3   8   4   76.92    5.13
   3   8   4   66.28    5.90
   3   8   5   14.06    2.36
   3  -8   5   12.43    1.71
  -3  -8  -5   15.74    1.70
   3   8   5   11.65    2.59
  -3   8  -5   13.69    1.61
   3   8   5    8.28    1.45
   3  -8   5   16.81    1.98
   3  -8   6  137.01    7.72
   3   8   6  120.02    7.49
   3  -8   6  111.34    7.45
  -3   8  -6  106.98    7.12
  -3  -8  -6  111.25    7.12
   3   8   6  112.18    8.92
   3   8   6  118.21    7.95
   3   8   7   14.08    2.13
  -3  -8  -7   15.05    1.81
   3  -8   7   17.34    2.13
   3  -8   7   17.10    2.12
   3   8   7   15.06    3.05
  -3   8  -7   12.37    1.70
   3   8   7   14.80    2.06
   3   8   8    0.57    1.66
  -3   8  -8    1.10    0.93
  -3  -8  -8    1.52    0.98
   3   8   8    1.20    1.17
   3  -8   8   -0.31    1.15
   3  -8   8    1.11    0.90
   3   8   8    2.01    1.13
  -3  -8  -9    9.16    1.62
   3   8   9    7.71    2.55
  -3   8  -9    7.84    1.50
   3  -8   9    7.26    1.73
   3  -8   9    6.55    2.33
   3  -8   9    6.68    1.46
   3   8   9   10.47    1.90
  -3  -8 -10  493.31   25.84
  -3   8 -10  470.10   25.79
   3  -8  10  437.87   25.33
   3   8  10  458.60   26.57
   3  -8  10  469.86   28.60
   3   8  10  493.66   28.45
   3  -8  10  493.93   26.79
   3   8  11    0.65    1.76
  -3  -8 -11    2.47    1.34
  -3   8 -11    1.67    1.01
   3  -8  11    2.12    2.08
   3  -8  11    3.03    1.47
   3   8  11    2.95    1.48
   3  -8  11    3.37    1.12
  -3   8 -12    2.09    1.37
   3   8  12   -0.47    1.72
   3  -8  12    1.43    1.76
  -3  -8 -12   -0.29    1.23
   3  -8  12    2.19    2.14
   3  -8  13   12.76    3.57
  -3  -8 -13   17.33    2.54
   3   8  13   16.77    2.95
  -3   8 -13   12.47    2.24
   3  -8  13   12.48    2.75
   3  -8  14   30.22    5.10
   3   8  14   36.20    4.58
  -3   8 -14   34.94    3.66
  -3  -8 -14   29.89    3.47
   3  -8  14   29.39    4.36
   3  -8  15   11.99    3.65
  -3  -8 -15   15.97    2.63
   3   8  15   12.00    3.21
   3  -8  15   12.19    3.22
   3  -8  16   10.49    3.17
   3  -8  16   23.85    4.60
   3   8  16   21.89    4.00
   3  -8  17   40.37    5.47
   3   8  17   32.84    5.03
   3  -8  17   36.45    5.60
   3  -8  18    9.61    3.63
   3   8  18   21.63    4.17
   3  -8  18   14.63    3.64
   3  -8  19    2.80    1.77
   3  -8  19   -3.58    3.40
   3   8  19   -0.46    1.98
   3   8  20   19.13    3.33
   3  -8  20   27.25    5.29
   3  -8  20   22.41    3.56
   3  -8  21    0.92    3.01
   3   8  21   -0.50    2.25
   3  -8  21   -1.02    2.20
   3   8  22    1.05    1.88
   3  -8  22   -0.93    3.35
   3  -8  22    0.53    1.92
   3   8  23    2.74    2.23
   3  -8  23    0.56    2.17
  -3  -9  24   -0.60    2.22
  -3   9  24   -0.59    2.34
  -3  -9  23   21.22    3.98
  -3   9  23   29.25    4.38
  -3  -9  22    1.09    2.41
  -3   9  22    1.07    2.41
  -3  -9  21   76.48    7.02
  -3   9  21   72.59    6.81
  -3  -9  20   -0.99    1.97
  -3   9  20   -0.49    2.10
  -3  -9  19   -0.47    1.99
  -3   9  19   -0.46    1.87
  -3  -9  18    4.87    1.96
  -3   9  18    2.18    1.78
  -3  -9  17   44.63    4.72
  -3   9  17   43.07    4.47
  -3   9  16  246.81   14.82
   3  -9 -16  210.21   14.63
   3   9 -16  269.49   15.39
  -3  -9  16  232.36   14.70
   3  -9 -15    1.85    1.04
   3  -9 -15    4.37    2.00
   3   9 -15    2.09    2.08
  -3  -9  15    5.89    1.93
  -3   9  15    1.81    1.42
   3  -9 -14   11.04    2.27
   3   9 -14   14.75    2.71
   3  -9 -14    5.81    1.53
  -3  -9  14   11.04    2.15
  -3   9  14   12.27    2.18
   3  -9 -13   51.64    4.70
   3   9 -13   45.03    4.58
  -3   9  13   48.34    4.33
  -3  -9  13   46.56    4.27
  -3  -9  12   54.55    4.50
  -3   9  12   52.74    4.44
   3  -9 -12   50.38    4.68
   3   9 -12   50.82    4.75
  -3  -9  11   14.30    2.22
   3  -9 -11   18.43    2.70
  -3   9  11   22.21    2.51
  -3   9  11   24.24    4.12
   3   9 -11   19.05    2.84
   3  -9 -10  249.41   15.13
   3   9 -10  266.30   15.37
  -3   9  10  273.34   17.50
  -3  -9  10  254.92   14.80
  -3   9  10  260.69   14.86
   3   9 -10  237.16   16.95
   3  -9  -9   54.32    5.90
  -3   9   9   58.64    4.14
   3   9  -9   47.14    4.35
   3  -9  -9   52.61    4.39
  -3   9   9   48.66    5.60
  -3  -9   9   49.08    2.95
   3   9  -9   58.81    6.23
  -3  -9   9   53.03    4.06
   3  -9  -8   74.44    7.23
  -3  -9   8   73.49    5.15
   3  -9  -8   79.94    5.63
   3   9  -8   76.66    5.68
  -3  -9   8   87.73    7.11
  -3   9   8   81.95    7.33
  -3   9   8   72.81    5.14
   3   9  -8   64.20    6.88
   3  -9  -7    0.64    1.79
   3   9  -7   -0.25    0.94
  -3   9   7   -0.18    0.68
  -3  -9   7    0.19    0.61
   3  -9  -7   -0.48    1.02
  -3   9   7    2.35    2.00
  -3  -9   7    0.98    1.39
   3  -9  -6    0.43    0.89
   3   9  -6   -0.91    1.07
  -3   9   6   -1.16    1.48
  -3  -9   6    1.45    1.30
   3  -9  -6    0.63    1.52
  -3   9   5   42.35    5.29
  -3  -9   5   44.55    4.76
   3   9  -5   44.64    3.13
   3  -9  -5   49.27    3.13
   3   9  -5   47.01    5.38
   3  -9  -5   39.23    5.19
   3   9  -4   71.82    4.53
   3   9  -4   62.02    6.52
   3  -9  -4   80.05    4.54
  -3  -9   4   83.40    6.77
   3  -9  -4   65.02    6.83
   3   9  -3  245.81   13.66
   3  -9  -3  280.97   13.68
   3  -9  -3  213.67   16.39
   3  -9  -3  237.46   13.72
  -3  -9   3  274.62   16.43
   3   9  -3  260.74   16.51
   3   9  -2    3.57    1.75
   3   9  -2    4.81    0.88
   3  -9  -2    3.98    0.74
   3   9  -2    4.28    0.80
   3  -9  -2    4.99    0.80
   3  -9  -2    2.41    1.63
  -3  -9   2    2.90    1.55
   3   9  -1   60.21    3.65
  -3  -9   1   68.33    5.96
   3  -9  -1   56.11    3.60
   3  -9  -1   61.75    3.64
   3   9  -1   55.91    3.63
   3  -9  -1   56.88    5.95
   3   9  -1   59.08    5.75
   3   9   0   89.64    5.25
   3   9   0   92.40    5.24
   3  -9   0   87.98    5.24
   3   9   0  102.81    7.72
   3  -9   0   95.50    8.18
   3  -9   0   84.81    5.18
   3   9   0   89.95    7.41
  -3  -9   0   97.73    7.69
   3   9   1  162.47    8.81
   3   9   1  151.38    8.73
   3   9   1  144.63   10.89
   3  -9   1  164.96   11.89
   3  -9   1  160.27    8.80
  -3  -9  -1  155.21   11.21
   3   9   1  165.11   11.07
   3   9   2   64.53    4.01
   3  -9   2   44.28    4.43
   3   9   2   69.27    5.85
   3  -9   2   68.64    4.06
   3  -9   2   72.73    6.72
   3   9   2   57.08    5.69
  -3  -9  -2   54.87    5.68
   3  -9   3   12.09    1.45
  -3  -9  -3   13.85    2.82
   3   9   3   13.12    1.50
   3  -9   3   15.17    2.06
   3   9   3    7.81    2.16
   3   9   3   13.10    2.78
   3   9   4  172.87   11.13
   3   9   4  139.81    8.56
   3  -9   4  142.85    9.20
   3  -9   4  146.47    8.67
   3   9   4  144.54    9.90
   3  -9   5   30.79    3.06
  -3   9  -5   33.22    2.75
   3   9   5   34.40    2.89
   3  -9   5   35.81    3.00
  -3  -9  -5   33.33    2.76
   3   9   5   33.89    3.71
   3   9   5   25.10    4.02
  -3  -9  -6   46.20    3.34
   3  -9   6   47.00    3.67
   3  -9   6   42.35    3.64
  -3   9  -6   40.90    3.26
   3   9   6   44.82    3.59
   3   9   6   38.61    3.96
   3   9   6   23.24    4.16
  -3   9  -7   19.13    2.16
   3  -9   7   16.77    2.23
   3   9   7   19.30    2.46
  -3  -9  -7   16.71    1.99
   3  -9   7   22.27    2.54
   3   9   7   20.38    2.58
   3   9   7   17.88    3.45
   3  -9   8   15.46    2.35
  -3  -9  -8   16.38    2.06
  -3   9  -8   16.08    2.07
   3   9   8   13.98    2.22
   3  -9   8   14.40    2.05
   3   9   8   13.30    3.05
  -3  -9  -9    5.13    1.35
  -3   9  -9    6.11    1.53
   3   9   9    3.79    1.51
   3  -9   9    3.92    1.62
   3  -9   9    5.27    1.33
   3   9   9    5.06    2.48
  -3   9 -10   24.81    2.72
  -3  -9 -10   18.84    2.52
   3   9  10   24.62    3.25
   3  -9  10   25.41    3.34
   3  -9  10   27.59    2.64
   3  -9  10   27.05    4.63
   3  -9  11    6.98    2.97
  -3   9 -11    7.66    1.78
   3   9  11    6.83    2.14
  -3  -9 -11    7.55    1.72
   3  -9  11    5.74    2.15
   3  -9  11    7.02    1.40
   3  -9  12   17.56    4.12
  -3  -9 -12   22.06    2.63
   3  -9  12   15.00    2.89
   3   9  12   19.70    3.08
   3  -9  12   16.66    2.14
  -3   9 -12   22.68    2.69
  -3   9 -13   63.86    5.43
   3   9  13   73.75    6.58
   3  -9  13   74.35    6.67
  -3  -9 -13   68.63    5.47
   3  -9  13   64.22    7.59
   3  -9  14   67.80    7.79
  -3   9 -14   61.29    5.28
  -3  -9 -14   59.23    5.16
   3   9  14   66.41    6.40
   3  -9  14   61.06    6.27
   3  -9  15    4.36    2.46
   3  -9  15    0.61    2.20
   3   9  15   -1.19    2.32
   3  -9  16   -0.90    2.85
   3   9  16    0.64    2.35
   3  -9  16   -0.65    2.76
   3  -9  17    1.84    2.71
   3   9  17   -1.34    2.84
   3  -9  17    4.11    3.23
   3   9  18    1.71    1.95
   3  -9  18    0.88    1.97
   3  -9  18    2.83    2.89
   3  -9  19    2.76    1.91
   3   9  19    2.68    1.74
   3  -9  19   -0.97    3.18
   3   9  20   16.93    3.20
   3  -9  20   16.51    4.51
   3  -9  20   14.50    3.07
   3   9  21    0.99    2.21
   3  -9  21    0.51    2.11
   3  -9  22    5.96    3.78
   3   9  22    1.04    2.17
   3  -9  22    3.73    2.52
   3   9  23    3.27    2.32
  -3  10  24    0.58    2.53
  -3 -10  24   -3.56    2.90
  -3  10  23    5.57    2.54
  -3 -10  23   11.34    3.15
  -3  10  22    0.53    2.17
  -3 -10  22    1.08    2.06
  -3  10  21    4.06    2.29
  -3 -10  21    6.18    2.49
  -3 -10  20    4.90    2.47
  -3  10  20    4.83    2.26
  -3 -10  19   52.84    5.44
  -3  10  19   50.76    5.30
  -3  10  18  130.83    9.05
  -3 -10  18  107.39    8.57
  -3  10  17   85.57    7.00
  -3 -10  17   91.01    7.15
   3  10 -16   16.27    2.97
   3 -10 -16   14.18    2.80
  -3 -10  16   17.52    2.77
  -3  10  16   17.39    2.73
  -3  10  15    2.52    1.45
   3 -10 -15    4.01    1.31
   3 -10 -15    4.87    1.92
   3  10 -15    4.77    2.09
  -3 -10  15    1.83    1.56
  -3 -10  14   63.06    5.26
  -3  10  14   61.57    5.19
   3  10 -14   60.34    5.45
   3 -10 -14   71.78    5.61
   3 -10 -14   58.17    4.75
  -3  10  13    5.20    1.48
  -3 -10  13    3.75    1.44
   3  10 -13    2.16    1.51
   3 -10 -13    4.38    1.68
   3 -10 -13    3.12    1.38
  -3 -10  12    5.40    1.53
   3  10 -12    7.46    1.93
  -3  10  12    2.52    1.31
   3 -10 -12    7.00    1.73
   3 -10 -12    6.55    1.78
   3 -10 -11    8.63    1.88
   3  10 -11    4.13    1.58
  -3 -10  11    9.75    1.82
  -3  10  11    9.73    1.76
  -3  10  10   49.72    4.21
   3 -10 -10   57.12    4.58
   3  10 -10   60.19    4.75
   3 -10 -10   55.07    6.40
  -3 -10  10   53.39    4.28
  -3  10   9    7.08    1.44
   3 -10  -9    7.19    2.54
   3 -10  -9   10.51    1.79
   3  10  -9    9.34    1.86
  -3 -10   9    4.05    1.87
  -3  10   9    5.98    2.73
  -3 -10   9    7.46    1.43
  -3 -10   9    6.85    0.92
   3  10  -8   77.90    5.83
  -3 -10   8   78.28    7.24
  -3  10   8   77.70    7.67
  -3 -10   8   88.91    5.59
   3 -10  -8   87.43    5.82
  -3  10   8   82.19    5.50
   3 -10  -8   74.41    7.70
   3 -10  -7   14.69    3.30
   3  10  -7   15.32    2.10
   3 -10  -7   15.29    2.01
  -3  10   7   19.31    3.68
  -3 -10   7   20.81    3.36
   3 -10  -6    0.70    1.67
  -3  10   6    0.64    1.81
   3  10  -6    1.05    0.78
  -3 -10   6   -0.54    1.21
   3 -10  -6    1.73    0.78
   3  10  -6    0.61    1.72
   3  10  -5   87.38    7.40
   3 -10  -5   83.92    7.66
   3  10  -5   67.51    4.87
   3 -10  -5   69.22    4.84
  -3 -10   5   82.53    7.00
   3  10  -4   21.38    3.76
  -3 -10   4   24.71    3.58
   3 -10  -4   22.43    3.96
   3 -10  -3    0.98    0.47
   3 -10  -3    0.82    0.45
   3  10  -3    1.45    0.57
   3  10  -3    2.25    0.65
  -3 -10   3    2.16    1.72
   3 -10  -3   -1.33    1.88
   3  10  -3   -0.56    2.28
   3  10  -2   43.33    2.84
  -3 -10   2   45.97    5.11
   3  10  -2   52.06    2.98
   3 -10  -2   44.17    2.78
   3 -10  -2   44.76    2.85
   3 -10  -2   47.28    5.57
   3  10  -2   48.89    5.29
   3 -10  -1   76.91    4.35
   3 -10  -1   82.05    4.35
   3  10  -1   81.26    4.42
   3 -10  -1   56.51    6.78
   3  10  -1   65.71    4.32
   3  10  -1   67.18    6.64
  -3 -10   1   73.02    6.95
  -3 -10   0   36.22    4.52
   3  10   0   33.38    4.25
   3  10   0   36.37    2.31
   3  10   0   33.16    2.30
   3 -10   0   33.68    2.30
   3 -10   0   35.95    2.27
   3 -10   0   28.85    4.58
  -3 -10  -1    4.01    1.88
   3  10   1    0.97    1.84
   3 -10   1    1.07    0.52
   3 -10   1    0.77    0.53
   3  10   1    0.59    0.49
   3  10   1    0.85    0.54
   3  10   1   -0.54    1.59
   3  10   2   77.67    4.58
   3 -10   2   67.68    5.59
   3 -10   2   83.47    7.73
   3 -10   2   68.84    4.63
  -3 -10  -2   93.80    7.63
   3  10   2   76.25    6.95
   3  10   2   85.56    6.88
   3  10   2   78.55    4.67
  -3 -10  -3    5.94    2.33
   3  10   3    6.56    1.09
   3 -10   3    5.44    1.11
   3 -10   3    6.29    2.32
   3  10   3    7.18    2.41
   3 -10   3    5.32    1.51
   3  10   3    3.99    1.75
  -3 -10  -4  221.39   14.76
   3  10   4  213.45   11.94
   3 -10   4  225.11   12.81
   3 -10   4  199.74   11.95
   3  10   4  218.57   14.54
   3  10   4  199.43   13.40
   3 -10   5    8.13    1.71
   3 -10   5    8.58    1.50
   3  10   5    9.73    1.53
   3  10   5    8.81    2.44
   3 -10   5   11.71    3.13
   3 -10   6   25.71    2.79
   3  10   6   24.35    2.57
   3 -10   6   20.96    2.48
  -3  10  -6   26.60    2.39
  -3 -10  -6   24.16    2.30
   3 -10   6   16.45    3.69
   3  10   6   22.23    3.87
  -3 -10  -7  151.83    9.63
  -3  10  -7  170.91    9.78
   3 -10   7  176.75   10.32
   3  10   7  157.79   10.17
   3 -10   7  162.48   10.28
   3  10   7  185.32   12.68
   3 -10   7  165.73   12.86
  -3  10  -8   77.94    5.26
   3  10   8   66.11    5.58
   3 -10   8   92.54    5.81
   3 -10   8   78.78    5.89
  -3 -10  -8   70.94    5.12
   3  10   8   56.98    6.90
   3 -10   9   16.31    2.74
  -3 -10  -9   14.61    1.97
  -3  10  -9   14.57    1.99
   3  10   9   15.23    2.42
   3 -10   9   21.68    2.42
  -3  10 -10    5.99    1.51
   3 -10  10    7.40    3.06
  -3 -10 -10    6.17    1.58
   3 -10  10    7.32    1.56
   3  10  10    9.74    2.17
   3 -10  10    4.84    1.81
   3 -10  11   42.32    5.75
   3 -10  11   32.93    4.04
   3 -10  11   33.78    3.04
   3  10  11   26.25    3.69
  -3  10 -11   31.20    3.23
  -3 -10 -11   31.29    3.19
  -3  10 -12   86.94    6.32
  -3 -10 -12   89.09    6.36
   3  10  12   89.91    7.36
   3 -10  12   76.97    7.10
   3 -10  12   90.64    5.98
   3 -10  12   86.37    9.04
  -3  10 -13   56.09    4.96
  -3 -10 -13   59.94    5.03
   3 -10  13   61.28    6.10
   3  10  13   68.23    6.29
   3 -10  13   62.85    7.71
  -3 -10 -14  278.36   15.95
   3 -10  14  249.38   17.05
  -3  10 -14  270.31   15.90
   3  10  14  256.60   17.04
   3 -10  14  263.48   19.33
   3 -10  15    4.75    3.25
   3  10  15    6.39    2.64
   3 -10  15   13.13    3.31
   3 -10  16  337.40   19.41
   3  10  16  310.26   19.15
   3 -10  16  351.14   23.37
   3 -10  17   -1.00    3.39
   3 -10  17    1.22    1.80
   3  10  17   -0.39    1.67
   3  10  18    1.66    1.69
   3 -10  18   -1.02    3.35
   3 -10  18    0.43    1.71
   3 -10  19   44.42    7.26
   3  10  19   57.78    5.43
   3 -10  19   46.33    5.01
   3 -10  20   -2.08    2.92
   3  10  20    0.93    1.76
   3 -10  20   -0.48    1.86
   3 -10  21   22.09    5.58
   3 -10  21   15.67    3.29
   3  10  21   19.48    3.36
   3 -10  22   -1.06    3.48
   3 -10  22    0.53    2.05
   3  10  22    1.02    2.17
  -3  11  24    5.20    2.66
  -3  11  23   11.63    3.30
  -3 -11  23   10.11    2.91
  -3 -11  22    1.61    1.98
  -3  11  22   -0.53    1.80
  -3  11  21    4.04    2.06
  -3 -11  21    1.02    1.89
  -3  11  20    4.30    2.04
  -3 -11  20    3.88    2.19
  -3 -11  19    0.46    1.70
  -3  11  19   -0.45    1.54
  -3 -11  18    3.02    1.98
  -3  11  18    1.71    1.58
  -3 -11  17   -0.81    1.50
  -3  11  17   -1.20    1.96
  -3  11  16   -1.12    1.52
  -3 -11  16    1.13    1.47
   3  11 -16   -0.79    1.89
  -3 -11  15   29.36    3.53
   3 -11 -15   34.90    3.86
  -3  11  15   32.34    3.56
   3  11 -15   30.71    3.76
  -3  11  14   41.43    3.76
  -3 -11  14   35.36    3.60
   3 -11 -14   30.69    3.50
   3  11 -14   26.42    3.51
   3 -11 -14   31.00    3.33
   3 -11 -13   15.91    2.56
   3 -11 -13   18.73    2.62
   3  11 -13   17.12    2.71
  -3  11  13   19.14    2.53
  -3 -11  13   19.46    2.57
  -3  11  12    0.56    1.18
   3 -11 -12    0.36    1.24
   3  11 -12    0.31    1.28
   3 -11 -12    1.46    1.21
  -3 -11  12   -0.28    1.19
   3  11 -11   30.46    3.38
  -3 -11  11   37.47    3.36
  -3  11  11   36.49    3.32
   3 -11 -11   36.98    3.44
   3 -11 -11   30.62    3.77
   3 -11 -10   12.59    3.09
   3 -11 -10    5.30    1.90
  -3  11  10    7.22    1.63
  -3 -11  10    7.27    0.83
   3  11 -10    8.69    1.84
  -3 -11  10   12.24    2.87
  -3 -11  10    7.16    1.53
   3 -11 -10    7.92    1.62
   3 -11  -9   97.93    6.29
   3 -11  -9   97.81    9.05
  -3  11   9   88.79    6.02
   3  11  -9   87.12    6.27
   3 -11  -9   92.04    7.31
  -3 -11   9   95.52    6.12
  -3 -11   9   83.28    8.02
   3  11  -8    6.26    1.43
   3 -11  -8    6.18    2.65
   3 -11  -8    7.09    1.42
  -3 -11   8    7.36    2.68
   3 -11  -8    6.30    2.12
   3 -11  -7   19.51    2.19
   3 -11  -7   34.35    4.91
   3  11  -7   24.21    2.45
  -3 -11   7   33.80    4.42
   3 -11  -6   40.26    5.49
   3  11  -6   40.35    3.00
   3 -11  -6   30.59    2.70
  -3 -11   6   33.69    4.60
   3 -11  -5  631.20   33.69
   3  11  -5  644.99   33.85
  -3 -11   5  631.97   36.91
   3  11  -5  686.19   37.35
   3 -11  -5  663.42   38.04
   3 -11  -4   -0.11    0.60
   3  11  -4   -1.22    2.25
   3  11  -4   -0.39    0.57
   3 -11  -4   -0.08    0.47
   3  11  -4   -0.13    0.72
  -3 -11   4    0.60    1.90
   3 -11  -4    1.49    2.10
   3  11  -3    4.95    0.76
   3 -11  -3    8.05    2.79
   3 -11  -3    4.84    0.66
   3 -11  -3    6.75    0.88
   3  11  -3    6.39    1.01
   3  11  -3    7.10    2.67
  -3 -11   3    4.17    2.10
   3 -11  -2    3.66    0.54
   3  11  -2    5.62    0.65
  -3 -11   2    6.11    2.33
   3  11  -2    1.15    1.84
   3 -11  -2    3.81    0.67
   3  11  -2    6.03    0.87
   3 -11  -2    8.04    2.64
   3  11  -1   88.25    4.83
   3  11  -1   85.62    4.76
   3  11  -1   95.38    7.93
   3 -11  -1   87.60    8.31
  -3 -11   1   99.17    8.26
   3 -11   0   33.74    1.99
  -3 -11   0   40.23    4.96
   3  11   0   34.65    2.04
   3  11   0   35.03    2.11
   3 -11   0   31.62    2.07
   3 -11   0   35.18    5.00
   3  11   0   26.75    4.02
   3 -11   1  261.71   14.01
   3 -11   1  256.24   14.15
   3 -11   1  275.60   18.33
   3  11   1  267.21   14.15
   3  11   1  292.22   17.34
  -3 -11  -1  284.15   17.98
   3  11   1  278.12   14.04
   3 -11   2  392.29   20.82
   3  11   2  394.40   20.77
   3  11   2  398.42   20.97
   3 -11   2  394.66   21.00
   3  11   2  444.91   24.80
   3 -11   2  409.20   25.23
   3 -11   2  388.16   22.46
   3 -11   2  379.44   24.69
  -3 -11  -2  471.26   25.26
  -3 -11  -3   20.97    3.96
   3  11   3   30.12    2.42
   3 -11   3   26.72    3.14
   3 -11   3   33.14    2.46
   3 -11   3   33.21    4.96
   3  11   3   32.24    4.44
   3 -11   3   35.89    4.99
  -3 -11  -4   -0.66    1.86
   3 -11   4    1.01    0.81
   3 -11   4    0.31    1.27
   3  11   4    0.62    1.66
   3 -11   4   -0.73    2.16
   3  11   4   -0.16    0.71
   3 -11   5  117.45    7.81
   3  11   5  123.73    7.28
   3 -11   5  106.96    7.15
   3 -11   5  109.55   10.02
   3  11   5  110.46    9.59
   3 -11   6   12.72    2.16
   3  11   6   16.35    2.17
   3 -11   6   19.35    2.36
   3  11   6   14.97    3.36
   3 -11   6   13.41    3.81
   3  11   7    5.92    1.52
  -3 -11  -7    7.10    1.41
   3 -11   7   12.33    1.99
   3 -11   7    7.82    1.75
  -3  11  -7    8.48    1.43
   3 -11   7    5.70    3.12
   3 -11   8    4.21    2.58
  -3  11  -8    2.45    1.08
   3 -11   8    3.87    1.40
   3  11   8    4.27    1.38
  -3 -11  -8    2.78    1.17
   3 -11   8    4.43    1.60
  -3  11  -9    9.61    1.58
   3 -11   9    8.95    1.80
   3 -11   9    7.84    2.07
  -3 -11  -9   10.18    1.62
   3  11   9   12.06    2.28
  -3 -11 -10   63.15    4.70
   3 -11  10   50.77    4.45
   3  11  10   67.64    5.54
   3 -11  10   64.89    5.56
  -3  11 -10   63.37    4.70
   3 -11  11    7.38    3.24
   3 -11  11    4.30    2.01
  -3  11 -11    3.67    1.35
  -3 -11 -11    4.65    1.39
   3  11  11    4.61    1.99
   3 -11  11    4.35    1.35
  -3  11 -12   29.83    3.20
   3 -11  12   37.94    6.05
   3 -11  12   32.90    3.04
  -3 -11 -12   28.20    3.11
   3  11  12   28.17    3.88
   3 -11  12   24.71    3.81
   3 -11  13   34.18    6.20
   3 -11  13   54.06    4.49
  -3 -11 -13   48.19    4.30
  -3  11 -13   50.33    4.43
  -3  11 -14    0.32    1.56
   3 -11  14   -1.00    2.69
   3  11  14    1.26    1.32
   3 -11  14    1.31    1.55
  -3 -11 -14   -1.57    1.73
   3  11  15    9.42    2.10
   3 -11  15    6.30    1.98
   3 -11  15    6.15    3.61
   3 -11  16    1.05    3.34
   3  11  16    0.36    1.56
   3 -11  16   -1.12    1.42
   3 -11  17   20.43    5.05
   3  11  17   14.15    2.68
   3 -11  17   13.88    2.76
   3  11  18    2.03    1.76
   3 -11  18   -0.84    2.05
   3 -11  19    1.10    3.10
   3 -11  19   -0.90    2.15
   3  11  19    4.32    2.32
   3  11  20   19.96    3.38
   3 -11  20   20.22    3.47
   3 -11  20   21.09    5.67
   3 -11  21    4.94    2.38
   3  11  21    2.86    2.26
   3  11  22    2.50    1.91
   3 -11  22    9.29    2.95
  -3  12  23    0.54    2.32
  -3  12  22    0.51    1.93
  -3  12  21    0.49    2.06
  -3 -12  20   31.68    4.09
  -3  12  20   32.12    4.18
  -3 -12  19   -0.44    1.86
  -3  12  19    1.30    1.76
  -3  12  18    9.75    2.54
  -3 -12  18    9.81    2.46
  -3 -12  17   23.70    3.29
  -3  12  17   23.99    3.38
  -3 -12  16   11.39    2.36
   3  12 -16    9.23    2.15
  -3  12  16   11.13    2.34
  -3 -12  15   24.44    3.21
   3  12 -15   32.07    3.64
  -3  12  15   28.68    3.39
  -3  12  14   19.47    2.65
   3  12 -14   18.74    2.82
  -3 -12  14   20.78    2.78
  -3  12  13   12.72    2.14
  -3 -12  13   18.04    2.43
   3 -12 -13   17.73    2.83
   3  12 -13   11.99    2.22
  -3  12  12   16.14    2.20
  -3 -12  12    9.47    3.05
   3 -12 -12   10.06    2.38
   3  12 -12   14.82    2.23
  -3 -12  12   17.80    2.27
   3 -12 -12   13.25    2.11
   3 -12 -11   -0.43    1.42
  -3 -12  11   -0.24    1.08
   3 -12 -11    1.19    1.12
   3  12 -11   -0.26    1.09
  -3  12  11   -0.24    0.96
  -3 -12  11   -0.71    1.90
   3 -12 -10    7.77    2.10
   3 -12 -10    5.94    2.98
  -3 -12  10    2.86    1.10
   3 -12 -10    5.99    1.46
   3  12 -10    2.86    1.28
  -3 -12  10    4.65    0.82
  -3 -12  10    2.77    2.21
   3 -12  -9   66.87    4.84
   3  12  -9   74.00    5.09
   3 -12  -9   78.68    8.13
   3 -12  -9   70.00    6.46
  -3 -12   9   67.99    7.13
   3 -12  -8    5.93    1.18
   3 -12  -8    4.18    2.67
   3  12  -8    6.78    1.28
  -3 -12   8    4.68    2.07
   3 -12  -8    6.57    2.17
  -3 -12   7   49.28    6.05
   3 -12  -7   58.38    3.86
   3  12  -7   59.31    4.03
   3 -12  -7   66.18    7.34
   3 -12  -7   47.77    5.62
   3 -12  -6  282.81   14.41
   3  12  -6  252.13   14.50
   3 -12  -6  292.70   19.20
   3 -12  -6  248.37   17.03
  -3 -12   6  257.08   17.80
   3 -12  -5   51.73    6.38
   3 -12  -5   45.95    2.92
   3  12  -5   52.50    3.16
   3 -12  -5   50.08    3.03
   3  12  -5   47.39    3.17
  -3 -12   5   65.68    6.50
   3 -12  -5   44.82    5.30
   3 -12  -4   42.99    6.07
   3  12  -4   50.61    2.94
   3  12  -4   47.66    2.85
   3 -12  -4   48.94    5.67
  -3 -12   4   35.62    5.26
  -3 -12   3   17.25    3.68
   3 -12  -3   13.64    2.97
   3 -12  -3   12.84    3.35
   3 -12  -2  133.94   12.01
   3 -12  -2  169.39   12.13
  -3 -12   2  163.54   12.20
   3 -12  -1    2.38    2.33
   3 -12  -1   -0.67    1.97
  -3 -12   1    0.68    1.83
  -3 -12   0   39.96    5.33
   3 -12   0   37.63    5.41
   3 -12   0   31.96    4.82
  -3 -12  -1   28.46    4.57
   3 -12   1   39.33    5.34
   3 -12   1   27.39    4.73
  -3 -12  -2   11.27    3.05
   3 -12   2   17.93    3.96
   3  12   2   16.61    3.62
   3 -12   2   11.25    3.18
   3 -12   2    9.43    2.03
   3 -12   3    0.75    0.46
  -3 -12  -3    1.43    2.01
   3 -12   3    1.33    1.29
   3 -12   3    0.71    0.44
   3  12   3    1.14    0.42
   3 -12   3    4.65    2.79
  -3 -12  -4   78.70    7.89
   3 -12   4   77.66    5.87
   3 -12   4   91.38    8.62
   3  12   4   72.58    4.41
   3 -12   5   37.36    5.63
   3 -12   5   39.32    3.82
   3 -12   6   54.03    6.70
   3 -12   6   42.08    3.98
   3 -12   7    4.42    2.51
   3 -12   7    8.03    1.73
  -3  12  -8   46.73    3.88
   3 -12   8   49.33    6.84
   3 -12   8   59.73    3.95
   3 -12   8   49.98    4.39
  -3 -12  -9   46.09    3.80
   3 -12   9   50.73    3.80
   3 -12   9   42.66    4.06
  -3  12  -9   50.80    3.98
   3  12   9   53.61    3.83
  -3 -12 -10    7.99    1.55
  -3  12 -10    8.09    1.64
   3  12  10    8.30    1.49
   3 -12  10   10.39    1.66
   3 -12  10    8.42    1.70
  -3  12 -11  119.27    7.85
   3  12  11  123.43    7.78
   3 -12  11  113.66    7.72
   3 -12  11  125.80    7.88
  -3  12 -12  126.80    8.74
   3 -12  12  130.43   12.63
   3 -12  12  136.53    8.76
   3  12  12  148.43    8.86
   3 -12  12  137.22    8.62
  -3  12 -13    2.04    1.45
   3  12  13    2.52    1.43
   3 -12  13    2.32    1.23
   3 -12  13    1.85    1.26
   3 -12  13    1.05    2.83
   3 -12  14    2.16    3.18
  -3  12 -14    0.31    1.45
   3  12  14    0.60    1.23
   3 -12  14   -0.31    1.30
   3 -12  15   -1.11    3.39
   3  12  15   -2.28    1.66
   3 -12  15    1.68    1.54
   3 -12  16   56.57    8.38
   3 -12  16   62.86    5.49
   3  12  16   58.72    5.29
   3 -12  17   36.93    7.14
   3  12  17   41.30    4.25
   3 -12  17   36.53    4.24
   3  12  18    7.11    2.24
   3 -12  18    9.39    2.39
   3 -12  18    8.13    4.20
   3  12  19    6.69    2.37
   3 -12  19    4.75    2.25
   3  12  20   15.85    2.98
   3  12  21    7.89    2.43
   3  12  22    8.77    2.84
  -3  13  19    2.93    1.89
  -3  13  18    1.98    1.82
  -3  13  17   10.49    2.46
  -3  13  16   24.72    3.24
  -3 -13  15   27.08    3.32
  -3  13  15   32.17    3.47
  -3 -13  14    2.08    1.56
  -3 -13  14    2.42    2.83
  -3  13  14    2.64    1.34
  -3 -13  13    4.61    1.45
  -3 -13  13    7.90    3.09
  -3  13  13    6.67    1.64
   3  13 -12   41.34    3.81
  -3  13  12   41.26    3.69
  -3 -13  12   41.96    3.72
  -3 -13  12   47.01    6.00
   3 -13 -12   49.89    4.99
   3 -13 -11    0.48    1.83
  -3 -13  11    1.51    1.93
   3  13 -11    2.75    1.22
   3 -13 -10   18.82    3.33
   3 -13 -10   20.97    4.51
  -3 -13  10   18.59    3.99
   3  13 -10   23.50    2.43
   3 -13  -9   55.45    7.20
  -3 -13   9   46.59    3.46
   3 -13  -9   48.58    5.35
  -3 -13   9   53.49    6.30
   3  13  -9   47.33    3.64
   3 -13  -8    7.83    2.51
   3 -13  -8    9.91    3.19
   3  13  -8    9.72    1.31
  -3 -13   8    8.02    2.67
   3 -13  -7   49.96    6.83
   3  13  -7   65.58    3.84
   3 -13  -7   54.66    3.56
  -3 -13   7   59.64    6.68
   3 -13  -7   56.62    6.19
   3 -13  -6   -0.61    1.79
   3 -13  -6    0.89    1.99
   3  13  -6    0.15    0.50
   3  13  -6    0.23    0.54
  -3 -13   6   -0.72    1.93
   3 -13  -5   15.20    3.45
   3 -13  -5   14.15    3.91
  -3 -13   5   17.16    3.87
   3 -13  -4    0.88    2.36
   3 -13  -4    0.66    2.02
  -3 -13   4    0.71    1.82
   3 -13  -3   28.01    4.44
  -3 -13   3   18.93    3.92
   3 -13  -3   19.15    4.19
   3 -13  -2  197.48   14.89
   3 -13  -2  185.48   13.99
  -3 -13   2  183.85   14.04
  -3 -13   1   52.75    6.08
   3 -13  -1   33.02    5.22
   3 -13  -1   46.23    6.16
  -3 -13   0    8.98    2.96
   3 -13   0   14.44    3.45
   3 -13   0    7.74    2.96
   3 -13   1   90.51    8.61
  -3 -13  -1   81.46    8.00
   3 -13   2   16.27    4.04
   3 -13   2   12.82    2.34
  -3 -13  -2   18.36    3.91
   3 -13   3    0.84    2.14
  -3 -13  -3    0.78    2.28
   3 -13   3    0.70    1.33
   3 -13   4   27.79    4.99
  -3 -13  -4   39.07    5.55
   3 -13   4   31.26    3.49
   3  13   5   20.83    1.56
   3 -13   5   21.89    1.61
   3  13   5   19.56    1.51
   3 -13   5   26.39    3.00
   3 -13   5   17.06    4.17
   3 -13   6    2.58    1.35
   3  13   6    2.07    0.70
   3 -13   6    1.43    0.66
   3 -13   7   15.33    4.48
   3  13   7   19.13    1.79
   3 -13   7   19.54    1.81
   3 -13   7   17.23    2.55
   3 -13   8   25.66    5.06
   3 -13   8   17.59    2.53
   3  13   8   19.27    1.94
   3 -13   8   20.30    2.01
   3 -13   9   28.50    5.52
   3  13   9   24.71    2.35
  -3  13  -9   21.47    2.44
   3 -13   9   21.42    2.27
   3 -13   9   25.77    2.92
   3  13  10   41.79    3.32
   3 -13  10   37.24    3.62
   3 -13  10   35.22    3.19
  -3  13 -10   34.85    3.34
   3  13  11   85.60    5.37
   3 -13  11   72.00    5.34
   3 -13  11   72.66    5.11
   3 -13  12   40.67    3.60
   3  13  12   37.19    3.52
   3 -13  12   37.60    6.60
   3 -13  12   38.08    3.51
   3 -13  13   15.85    2.30
   3  13  13   13.87    2.22
   3 -13  13   21.53    5.33
   3 -13  14    5.82    3.83
   3  13  14    2.03    1.42
   3 -13  15    1.19    3.49
   3  13  15    2.19    1.64
   3  13  16    6.38    1.83
   3 -13  16    8.48    4.38
   3  13  17    8.23    2.25
   3  13  18    7.24    2.27
  -3 -14  17    2.67    3.02
  -3 -14  16   14.91    4.15
  -3 -14  15    9.47    3.38
  -3 -14  14    1.69    2.78
  -3 -14  13    4.99    3.24
  -3 -14  12    0.82    2.41
  -3 -14  11   47.48    6.93
   3 -14 -11   76.75    6.73
   3 -14 -10    8.75    3.51
   3 -14 -10    3.91    1.96
  -3 -14  10    0.80    2.45
   3 -14  -9   -0.97    2.47
  -3 -14   9    0.79    2.13
   3 -14  -8    9.64    3.43
   3 -14  -8   14.14    3.32
   3  14  -8   12.51    1.26
  -3 -14   8   12.64    3.35
   3 -14  -7    1.92    2.18
   3  14  -7    0.55    0.29
   3  14  -7    0.75    0.34
  -3 -14   7   -0.78    1.98
   3 -14  -6   27.57    5.18
   3 -14  -6   35.27    4.97
  -3 -14   6   33.39    5.11
   3 -14  -5    3.79    2.55
   3 -14  -5   -2.77    2.28
  -3 -14   5   -2.32    2.18
   3 -14  -4    0.94    2.27
   3 -14  -4   -0.72    2.02
  -3 -14   4   -0.78    2.10
   3 -14  -3    0.74    2.19
  -3 -14   3   -0.79    2.12
   3 -14  -3   -0.94    2.10
  -3 -14   2    6.39    2.83
   3 -14  -2    8.46    2.95
   3 -14  -2   11.15    3.72
   3 -14  -1   84.38    8.46
  -3 -14   1   97.18    9.02
  -3 -14   0   21.83    4.29
   3 -14   0   25.51    4.63
   3 -14   0   12.04    4.05
   3 -14   1    8.51    3.25
  -3 -14  -1    5.71    2.70
   3 -14   2   15.83    4.23
  -3 -14  -2   18.98    4.21
   3 -14   2   13.18    2.53
   3 -14   3    6.37    3.30
  -3 -14  -3    9.18    3.11
   3 -14   3    7.75    1.97
  -3 -14  -4    6.72    2.87
   3 -14   4    6.09    1.85
   3 -14   4    4.69    2.89
   3 -14   5   -0.97    2.73
   3 -14   5   -1.05    1.40
   3 -14   6    3.00    2.96
   3 -14   6    7.46    1.87
   3  14   7    1.43    0.69
   3 -14   7    3.10    3.61
   3 -14   7    3.90    3.10
   3 -14   7    0.99    1.28
   3 -14   8   21.26    5.49
   3  14   8   27.48    2.17
   3 -14   8   20.69    2.87
   3 -14   8   20.82    5.07
   3 -14   9   16.41    4.72
   3 -14   9   21.91    2.78
   3 -14   9   21.11    4.59
   3  14   9   14.37    1.74
   3 -14  10   68.63    9.00
   3 -14  10   59.02    5.16
   3  14  10   72.76    4.73
   3  14  11    5.78    1.39
   3  14  12   32.39    3.12
   3 -14  13    1.22    3.42
   3 -14  14   -1.24    3.50
  -3 -15  18   15.84    4.34
  -3 -15  17    0.92    2.71
  -3 -15  16   57.28    7.61
  -3 -15  15    8.09    3.52
  -3 -15  14    7.99    3.64
  -3 -15  13   38.51    5.99
  -3 -15  12  121.26   11.19
  -3 -15  11   -0.86    2.31
   3 -15 -10   25.82    5.63
   3 -15 -10   24.40    4.28
  -3 -15  10   28.10    5.18
   3 -15  -9    1.03    2.48
   3 -15  -9    1.28    2.37
  -3 -15   9    0.85    2.39
   3 -15  -8    2.05    2.76
  -3 -15   8   -0.84    2.36
   3 -15  -8    2.01    2.41
   3 -15  -7   10.20    3.73
   3 -15  -7   11.16    3.41
  -3 -15   7   17.55    4.19
   3 -15  -6    1.45    2.22
   3 -15  -6    2.02    2.58
  -3 -15   6    0.83    2.13
   3 -15  -5   21.23    4.84
   3 -15  -5   10.51    3.34
  -3 -15   5   18.42    4.28
   3 -15  -4   17.14    4.49
   3 -15  -4   24.12    4.50
  -3 -15   4   20.26    4.48
  -3 -15   3   23.83    4.59
   3 -15  -3   20.94    4.30
   3 -15  -3   20.05    4.56
  -3 -15   2    7.72    3.19
   3 -15  -2    6.66    3.02
   3 -15  -2    5.98    3.40
  -3 -15   1    0.86    2.31
   3 -15  -1    0.86    2.53
   3 -15  -1   -0.99    3.14
  -3 -15   0    2.60    2.20
   3 -15   0    0.89    2.62
  -3 -15  -1   12.25    3.54
   3 -15   1   12.86    3.87
  -3 -15  -2    5.30    2.92
   3 -15   2    4.74    3.13
   3 -15   2    4.36    1.70
  -3 -15  -3  113.44   10.13
   3 -15   3   79.48    6.78
   3 -15   3   99.86   10.26
   3 -15   4    3.02    2.84
  -3 -15  -4    0.90    2.52
   3 -15   4    0.38    1.36
   3 -15   5   11.43    4.25
   3 -15   5    7.75    2.10
   3 -15   6   69.69    9.07
   3 -15   6   77.14    6.24
   3 -15   6   94.61    9.79
   3 -15   7   -1.03    2.63
   3 -15   7    5.50    1.97
   3 -15   7    8.83    3.98
   3 -15   8    4.16    3.31
   3 -15   8    2.27    3.05
   3 -15   8    1.68    1.72
   3 -15   9    2.34    3.43
   3 -15   9    1.61    1.62
   3 -15   9   -2.10    3.21
   3 -15  10   22.85    5.82
   3 -15  10    9.55    3.77
   3 -15  11    4.93    4.06
   3 -15  11    3.21    3.15
  -3 -16  16   38.86    6.39
  -3 -16  15    5.61    3.65
  -3 -16  14    3.72    2.85
  -3 -16  13    1.85    2.61
  -3 -16  12    0.92    2.47
  -3 -16  11   -0.92    2.58
   3 -16 -10    2.18    3.09
  -3 -16  10   13.53    4.13
   3 -16  -9   -1.09    2.92
   3 -16  -9    1.37    2.60
  -3 -16   9   -0.90    2.64
   3 -16  -8   75.15    8.28
   3 -16  -8   93.39   10.30
   3 -16  -7    4.32    3.04
   3 -16  -7   -0.75    2.64
  -3 -16   7    2.67    2.62
   3 -16  -6    6.43    3.42
   3 -16  -6    3.91    2.50
  -3 -16   6    8.94    3.57
   3 -16  -5    7.49    3.28
   3 -16  -5    3.24    2.67
  -3 -16   5    4.50    3.06
   3 -16  -4    3.21    3.01
   3 -16  -4   -0.84    2.66
  -3 -16   4    0.90    2.17
   3 -16  -3    8.55    3.85
  -3 -16   3    0.91    2.68
   3 -16  -3    2.60    2.44
  -3 -16   2   10.06    3.51
   3 -16  -2   10.74    3.68
  -3 -16   1    1.83    2.91
  -3 -16   0    0.92    3.04
   3 -16   0    6.67    3.44
   3 -16   1   -0.43    1.66
   3 -16   1    2.95    3.34
  -3 -16  -1    3.72    2.62
  -3 -16  -2    0.94    2.98
   3 -16   2    0.42    1.50
   3 -16   2   -2.03    2.85
  -3 -16  -3    7.56    3.52
   3 -16   3    6.50    2.10
   3 -16   3   11.49    4.08
  -3 -16  -4   -0.95    2.68
   3 -16   4    3.23    3.42
   3 -16   4    1.18    1.53
   3 -16   5   39.93    7.09
   3 -16   5   32.21    6.19
   3 -16   5   43.88    4.42
   3 -16   6   -1.14    4.34
   3 -16   6    1.86    1.76
   3 -16   6    1.08    2.89
   3 -16   7   37.34    4.02
   3 -16   7   40.03    7.11
   3 -16   7   34.60    6.44
   3 -16   8   26.63    6.37
   3 -16   8   21.81    5.30
   3 -16   9    7.68    3.63
  -3 -17  13    7.82    3.73
  -3 -17  12    4.84    3.50
  -3 -17  11    9.58    3.67
  -3 -17  10    0.95    2.56
  -3 -17   9   44.48    6.57
  -3 -17   8  116.90   11.39
   3 -17  -7   15.07    4.10
  -3 -17   7   25.61    5.25
  -3 -17   6   29.55    5.67
   3 -17  -6   35.02    5.72
   3 -17  -5    6.76    3.47
   3 -17  -5    7.79    3.46
  -3 -17   5    5.74    3.27
  -3 -17   4   -0.96    2.71
   3 -17  -4    3.39    3.03
   3 -17  -4    3.59    3.23
  -3 -17   3    7.70    3.58
   3 -17  -3    6.48    3.44
  -3 -17   2   26.10    5.38
   3 -17  -2   20.10    4.81
  -3 -17   1   -0.97    2.85
   3 -17  -1   -0.99    3.02
  -3 -17   0    7.83    3.54
   3 -17   0    7.12    3.68
  -3 -17  -1    6.90    3.35
   3 -17   1    3.15    1.96
   3 -17   1    4.19    3.45
  -3 -17  -2    9.94    3.97
   3 -17   2    6.48    4.01
   3 -17   2    5.27    2.20
   3 -17   3   36.67    6.66
  -3 -17  -3   25.95    5.37
   3 -17   3   26.36    3.57
   3 -17   4   11.45    4.59
   3 -17   4   10.76    2.66
   3 -17   4    8.98    4.08
   3 -17   5    2.81    1.78
   3 -17   5    3.53    3.16
  -3 -18   8   -1.00    2.94
  -3 -18   7    1.00    3.08
   3 -18  -6   -0.86    2.84
  -3 -18   6    3.02    3.31
  -3 -18   5   18.23    4.96
   3 -18  -5   19.78    4.74
  -3 -18   4    8.11    3.88
   3 -18  -4   12.16    3.93
  -3 -18   3    5.08    3.11
   3 -18  -3    0.97    3.09
  -3 -18   2    3.05    2.87
   3 -18  -2    2.01    3.20
  -3 -18   1    1.02    2.74
   3 -18  -1   -1.04    2.93
  -3 -18   0    3.08    3.49
   3 -18   0    0.48    1.88
   3 -18   0    1.07    3.02
  -3 -18  -1   32.14    6.00
   3 -18   1   23.21    5.87
   3 -18   1   26.21    3.89
   3 -18   2   20.05    3.35
   3 -18   3    2.65    1.84
   3 -19  -4    8.75    3.90
   3 -19  -3    3.02    3.31
   3 -19  -1    5.69    2.30
   3 -19   0   -0.50    2.14
   3 -19   1   10.78    2.75
  -4   0  25   -0.63    2.33
  -4   0  24   16.91    3.62
  -4   0  23   -0.58    1.89
  -4   0  22   -1.65    2.24
  -4   0  21   -0.52    1.84
   4   0 -21   -1.24    1.83
  -4   0  20  155.80   11.10
   4   0 -20  158.85   10.85
   4   0 -19    0.42    1.53
  -4   0  19    0.47    1.40
  -4   0  18   36.56    4.16
   4   0 -18   33.61    4.04
  -4   0  17   -0.43    1.36
   4   0 -17   -0.42    1.57
  -4   0  16  196.48   13.08
   4   0 -16  218.28   13.39
   4   0 -16  205.63   14.13
  -4   0  15    0.77    1.13
   4   0 -15   -1.06    1.96
  -4   0  14  155.63   10.31
   4   0 -14  158.56   11.12
   4   0 -13    0.84    0.98
  -4   0  13   -0.34    1.00
   4   0 -12  297.72   16.34
  -4   0  12  266.82   16.48
   4   0 -11    1.00    0.77
  -4   0  11    0.91    0.77
   4   0 -10    0.24    0.78
  -4   0  10   -0.29    0.81
  -4   0   9   -0.27    0.79
   4   0  -9   -0.46    0.76
   4   0  -8   23.32    2.08
  -4   0   8   19.85    2.29
   4   0  -8   21.44    2.32
  -4   0   7    0.30    0.54
   4   0  -7    0.15    0.54
   4   0  -7    1.00    0.70
  -4   0   7    0.23    0.65
  -4   0   6  864.50   46.21
   4   0  -6  901.51   45.76
   4   0  -6  851.04   46.05
  -4   0   6  879.60   45.54
   4   0  -5    0.14    0.53
  -4   0   5   -0.20    0.69
   4   0  -5    0.73    0.74
  -4   0   5    0.27    0.44
   4   0  -4 7497.82  377.96
  -4   0   4 7433.08  378.01
   4   0  -4 7226.38  378.19
  -4   0   3    0.14    0.57
   4   0  -3    0.14    0.52
   4   0  -3    0.17    0.73
   4   0  -3    0.18    0.31
  -4   0   2 3325.45  170.47
  -4   0   1    0.14    0.58
  -4   0   0 1505.18   80.51
   4   0   0 1629.82   80.82
  -4   0  -1    0.14    0.55
   4   0   1    0.86    0.53
  -4   0  -2 1072.22   54.95
   4   0   2 1020.25   55.09
  -4   0  -2 1017.50   55.08
   4   0   2 1110.04   55.03
   4   0   3    0.37    0.61
  -4   0  -3   -0.18    0.68
  -4   0  -4 2518.86  127.91
   4   0   4 2444.28  127.93
   4   0   5    0.87    0.58
  -4   0  -5   -0.20    0.78
  -4   0  -6  283.91   16.19
   4   0   6  302.44   16.44
  -4   0  -6  283.38   16.01
  -4   0  -7    1.35    0.79
   4   0   7    0.52    0.77
  -4   0  -7    0.59    0.73
  -4   0  -8   85.81    5.68
   4   0   8   76.36    5.78
  -4   0  -8   77.67    5.40
  -4   0  -9   -0.52    1.01
  -4   0  -9   -0.22    0.86
   4   0   9   -0.32    0.77
   4   0  10   28.73    3.20
  -4   0 -10   31.47    3.07
  -4   0 -10   27.29    2.71
  -4   0 -11    2.08    1.04
  -4   0 -11   -0.25    0.92
   4   0  11    1.54    0.93
   4   0  12  171.41   11.44
  -4   0 -12  170.71   10.79
  -4   0 -13    1.34    1.31
   4   0  13   -0.47    1.18
  -4   0 -14  454.36   25.54
   4   0  14  448.73   26.45
   4   0  15    3.33    1.63
  -4   0 -15   -0.88    1.17
   4   0  16   59.33    6.13
  -4   0 -16   63.03    5.01
   4   0  16   55.71    4.95
   4   0  17    1.08    1.27
   4   0  17   -1.30    1.99
  -4   0 -17    0.94    1.28
   4   0  18   63.11    5.42
   4   0  18   53.94    6.41
  -4   0 -18   62.74    5.19
   4   0  19   -0.75    2.30
   4   0  19    0.39    1.56
   4   0  20   67.12    7.86
   4   0  20   69.68    6.03
   4   0  21    0.78    1.68
   4   0  21   -0.86    2.63
   4   0  22    1.82    3.10
   4   0  23    0.95    3.33
  -4  -1  25   16.41    3.77
  -4  -1  24   16.92    3.32
  -4  -1  23   50.94    5.81
  -4  -1  22   45.21    5.20
  -4  -1  21   11.57    2.83
   4   1 -21    8.29    2.46
  -4  -1  20   39.49    4.62
   4   1 -20   41.71    4.76
   4  -1 -20   41.96    4.35
   4   1 -19   13.91    2.95
   4  -1 -19   14.91    2.66
  -4  -1  19   19.97    3.23
   4  -1 -18    1.16    1.64
  -4  -1  18    0.45    1.49
   4   1 -18    2.33    2.13
   4  -1 -17   11.39    2.36
   4   1 -17   11.10    2.70
   4  -1 -16   23.32    3.90
   4  -1 -16   21.04    3.07
  -4  -1  16   16.67    2.88
   4   1 -16   19.55    3.20
  -4  -1  15  250.00   16.05
   4  -1 -15  267.52   17.05
   4   1 -15  288.05   16.80
  -4  -1  14   14.51    2.36
   4  -1 -14   11.88    2.54
   4  -1 -13    6.72    1.60
  -4  -1  13    1.71    1.17
   4  -1 -12  172.99   10.00
  -4  -1  12  144.43   10.02
  -4  -1  11  274.05   15.78
   4  -1 -11  263.88   15.39
   4   1 -10    0.28    0.51
   4  -1 -10    1.64    1.04
  -4  -1  10    0.29    0.88
  -4   1   9   15.65    2.05
  -4  -1   9   12.60    1.86
   4  -1  -9   19.86    2.08
   4   1  -9   12.93    1.43
  -4  -1   8  116.15    8.07
   4  -1  -8  128.29    8.04
   4   1  -8  130.70    7.45
  -4   1   8  139.92    8.14
   4  -1  -7  171.41   10.11
   4   1  -7  180.40    9.64
  -4  -1   7  178.99   10.39
  -4   1   7  155.15    9.95
  -4  -1   6   43.56    3.48
   4  -1  -6   37.56    3.21
   4   1  -6   40.49    2.89
   4  -1  -6   44.49    3.27
  -4   1   6   46.20    3.25
   4  -1  -5 1501.09   86.97
  -4  -1   5 1700.57   86.59
  -4   1   5 1913.93   86.82
  -4  -1   5 1657.76   87.10
   4  -1  -5 1639.74   86.82
   4   1  -5 1651.16   86.50
  -4  -1   4  213.56   11.63
   4  -1  -4  208.16   11.86
   4   1  -4  200.33   11.55
   4  -1  -4  229.56   11.72
   4  -1  -4  203.30   11.96
  -4   1   3  983.80   53.27
   4   1  -3 1018.62   53.04
   4  -1  -3 1032.81   53.39
  -4  -1   3 1015.04   53.04
   4  -1  -3 1062.36   53.09
  -4  -1   2   27.12    2.28
  -4   1   2   33.08    2.54
   4   1  -2   33.02    2.39
  -4   1   1   38.58    2.97
  -4  -1   1   40.51    2.85
   4   1  -1   37.52    2.79
   4  -1   0   20.35    2.01
  -4   1   0   21.45    1.95
  -4  -1   0   21.71    1.90
  -4  -1  -1   40.09    2.92
   4  -1   1   43.54    3.10
   4  -1   1   38.32    3.04
  -4   1  -1   38.74    3.04
  -4  -1  -2  307.32   17.00
   4  -1   2  332.17   17.17
  -4  -1  -2  315.82   17.26
   4  -1   2  298.38   17.15
   4  -1   3  169.12   10.51
  -4  -1  -3  182.14   10.56
   4  -1   3  169.88   10.38
  -4  -1  -4  280.99   15.43
   4  -1   4  252.90   15.45
   4  -1   4  292.13   15.38
   4  -1   5  205.77   11.50
  -4  -1  -5  205.92   11.40
  -4   1  -5  178.44   11.08
   4  -1   6   77.05    5.67
  -4  -1  -6   87.25    5.68
  -4   1  -6   87.06    5.56
   4  -1   7  163.08   10.49
  -4  -1  -7  182.46   10.46
  -4   1  -7  174.64   10.20
   4  -1   8  319.14   17.95
  -4  -1  -8  316.81   17.64
  -4   1  -8  303.87   17.31
  -4  -1  -9   12.19    1.79
   4  -1   9    3.51    1.29
  -4   1  -9    9.00    1.45
  -4  -1 -10   49.50    4.39
  -4   1 -10   65.85    4.51
   4  -1  10   57.51    4.94
  -4  -1 -11    9.49    1.78
   4  -1  11    8.10    1.81
  -4   1 -11   12.95    1.82
  -4  -1 -12  342.88   19.60
   4  -1  12  366.13   20.45
  -4   1 -12  325.82   19.04
  -4  -1 -13  144.87    9.88
   4  -1  13  160.50   10.84
  -4   1 -13  155.56    9.56
  -4  -1 -14   43.36    4.50
   4  -1  14   56.78    5.43
  -4   1 -14   53.59    4.30
   4  -1  15  114.10    9.22
  -4   1 -15  120.03    7.90
  -4   1 -16   61.49    4.87
   4  -1  16   62.18    6.16
   4  -1  16   57.33    5.37
   4   1  16   54.23    4.66
  -4   1 -17   92.17    6.15
   4  -1  17   68.07    7.20
   4   1  17   69.20    5.71
   4  -1  17   78.13    6.46
   4  -1  18    9.18    2.38
   4   1  18    6.91    1.77
   4  -1  18    6.99    2.75
  -4   1 -18    8.35    1.86
   4   1  19    2.54    1.38
   4  -1  19    2.28    1.78
   4  -1  19    0.75    2.21
  -4   1 -19    5.73    1.76
   4  -1  20   -0.47    1.70
   4  -1  20    0.81    2.74
   4   1  20   -0.31    1.35
   4  -1  21    7.51    2.52
   4  -1  21    6.90    3.38
   4  -1  22   58.19    7.59
   4  -1  23   11.40    3.83
  -4  -2  25    1.90    2.40
  -4   2  25    0.63    2.08
  -4  -2  24    1.21    1.93
  -4   2  24    3.03    2.36
  -4  -2  23   33.04    4.80
  -4   2  23   48.64    5.36
  -4   2  22   -0.55    1.82
  -4  -2  22   -1.66    2.31
  -4   2  21   60.45    5.80
  -4  -2  21   51.11    5.50
   4   2 -21   43.89    5.28
  -4   2  20   97.03    7.51
   4   2 -20   73.29    7.13
   4  -2 -20   73.25    6.24
  -4  -2  20  106.94    7.82
   4   2 -19    1.51    1.66
   4  -2 -19    4.05    1.68
  -4   2  19    0.95    1.67
  -4  -2  19    0.96    1.77
   4   2 -18    2.51    1.97
  -4  -2  18    7.25    2.15
  -4   2  18    6.34    2.05
   4  -2 -18    3.45    1.60
  -4  -2  17  133.63    8.97
  -4   2  17  129.38    8.89
   4  -2 -17  107.87    8.09
   4   2 -17  107.16    9.03
  -4  -2  16   28.59    3.42
   4   2 -16   19.26    3.36
  -4   2  16   24.34    3.35
   4  -2 -16   28.09    4.09
   4   2 -16   26.01    4.08
  -4   2  15    0.38    1.22
  -4  -2  15    0.77    1.31
   4   2 -15    0.53    1.80
   4  -2 -15   -0.53    1.89
   4   2 -15   -0.48    1.69
  -4  -2  14   37.12    3.84
  -4   2  14   46.23    4.17
   4   2 -14   30.75    4.12
  -4   2  14   38.75    4.20
   4  -2 -14   39.58    4.63
   4   2 -14   39.29    4.62
  -4   2  13   18.82    2.99
  -4  -2  13   25.43    2.96
  -4   2  13   22.49    2.75
   4  -2 -13   23.17    2.61
   4   2 -13   26.17    2.80
   4   2 -13   23.72    3.38
   4   2 -13   23.73    1.98
  -4   2  12   81.98    6.07
  -4   2  12   65.14    5.33
   4   2 -12   64.57    4.28
   4  -2 -12   69.92    5.18
   4   2 -12   72.36    5.22
  -4  -2  12   72.83    5.52
  -4   2  11    3.76    1.41
   4   2 -11    4.39    0.82
   4   2 -11    4.51    1.24
   4  -2 -11    3.48    1.10
  -4  -2  11    6.41    1.39
  -4   2  11    5.45    1.33
   4   2 -10  253.64   14.21
  -4  -2  10  256.17   15.44
  -4   2  10  261.44   15.46
   4  -2 -10  272.71   15.18
   4   2 -10  271.56   15.19
  -4   2  10  301.69   15.94
   4   2  -9  287.78   16.21
  -4  -2   9  328.87   17.53
   4   2  -9  303.57   17.14
  -4   2   9  304.16   17.38
   4  -2  -9  314.97   17.16
  -4   2   9  322.26   17.61
  -4   2   8   17.14    2.14
  -4   2   8   20.45    2.23
  -4  -2   8   18.63    2.21
   4   2  -8   16.73    1.51
   4   2  -8   22.64    2.27
   4  -2  -8   16.86    2.04
   4   2  -7   43.14    3.40
   4   2  -7   40.15    2.81
  -4  -2   7   45.10    3.58
  -4   2   7   44.05    3.61
   4  -2  -7   44.49    3.41
  -4   2   7   41.31    3.52
   4   2  -6  253.64   14.97
   4  -2  -6  258.92   14.99
  -4  -2   6  270.34   15.21
  -4   2   6  255.74   15.15
   4   2  -6  261.89   14.39
  -4  -2   6  282.74   14.51
  -4   2   6  299.54   15.34
   4  -2  -5    0.78    0.66
   4   2  -5    0.73    0.71
   4  -2  -5   -0.20    0.62
  -4  -2   5    1.06    0.53
   4   2  -5    2.25    0.57
  -4   2   5    2.56    0.92
   4  -2  -5    0.72    0.75
  -4  -2   5    0.41    0.57
  -4  -2   4   36.36    2.54
   4   2  -4   26.35    2.75
   4   2  -4   39.65    2.59
  -4   2   4   41.38    3.09
   4  -2  -4   37.62    2.97
   4  -2  -4   34.27    2.85
   4   2  -3  135.17    8.34
  -4  -2   3  138.24    8.02
   4  -2  -3  140.68    8.39
   4   2  -3  143.79    8.08
   4  -2  -3  156.76    8.64
   4  -2  -2    4.31    0.98
  -4  -2   2    4.55    0.79
  -4  -2   1  118.66    6.41
  -4   2   1  112.49    6.70
   4   2  -1   97.74    6.07
  -4   2   0  936.49   50.68
  -4  -2   0  962.23   50.46
   4  -2   0  904.96   50.67
   4  -2   1  475.60   24.22
   4  -2   1  443.35   24.10
  -4  -2  -1  433.67   23.92
   4  -2   2 1120.00   59.81
  -4  -2  -2 1172.17   59.87
  -4   2  -2 1090.65   59.79
   4  -2   2 1214.18   59.85
  -4   2  -3  896.28   47.73
  -4  -2  -3  911.61   47.72
   4  -2   3  895.79   47.64
   4  -2   3  940.88   47.79
  -4  -2  -4  290.44   16.02
  -4   2  -4  275.61   15.98
   4  -2   4  300.20   15.96
   4  -2   4  271.02   16.01
  -4   2  -4  297.73   15.97
   4  -2   5    4.32    1.01
  -4   2  -5    5.46    1.17
  -4  -2  -5    5.81    1.21
  -4   2  -5    3.14    0.98
   4  -2   5    4.05    0.98
  -4  -2  -6    0.42    0.67
  -4   2  -6    0.64    0.91
   4  -2   6    0.24    0.70
  -4   2  -6    0.76    0.72
  -4  -2  -7   51.05    3.88
  -4   2  -7   45.25    3.61
   4  -2   7   46.52    3.91
  -4   2  -7   49.22    3.84
  -4   2  -8   15.70    1.87
  -4  -2  -8   19.79    2.17
  -4   2  -8   16.09    2.03
   4   2   8   14.59    2.11
   4  -2   8   15.95    2.24
  -4   2  -9  525.80   30.45
  -4   2  -9  570.54   30.28
  -4  -2  -9  605.89   30.70
   4   2   9  539.18   30.91
   4  -2   9  579.31   31.03
  -4   2 -10   86.46    6.31
  -4  -2 -10  109.70    6.65
   4  -2  10   84.82    6.63
  -4   2 -10   83.64    5.97
   4   2  10   88.59    6.67
  -4   2 -11   18.20    2.29
  -4   2 -11   15.22    2.06
   4   2  11   18.36    2.57
   4  -2  11   18.99    2.64
  -4  -2 -11   18.40    2.36
  -4  -2 -12  217.00   13.05
  -4   2 -12  209.20   12.99
   4   2  12  217.91   13.77
   4  -2  12  197.43   13.47
  -4   2 -12  222.74   12.65
  -4   2 -13  802.36   42.19
  -4  -2 -13  784.89   42.76
  -4   2 -13  782.43   42.73
   4  -2  13  767.18   43.53
   4   2  13  821.04   43.75
  -4  -2 -14  175.45   11.21
  -4   2 -14  193.80   11.42
   4  -2  14  172.82   12.02
  -4   2 -14  160.59   10.50
   4   2  14  169.18   11.99
   4   2  15  470.25   26.64
  -4   2 -15  426.94   24.45
   4  -2  15  451.98   26.46
   4   2  16    1.21    1.79
   4  -2  16    4.21    2.11
  -4   2 -16    2.82    1.47
   4  -2  16    4.58    1.87
   4   2  16    2.56    1.14
   4  -2  17    3.34    1.78
   4   2  17    3.81    1.24
  -4   2 -17    3.22    1.35
   4   2  17    8.57    2.75
   4  -2  17    3.92    2.08
   4  -2  18   31.78    4.33
  -4   2 -18   31.66    3.41
   4   2  18   39.74    5.41
   4  -2  18   26.72    4.69
   4   2  18   33.97    3.20
   4  -2  19   25.87    4.28
   4  -2  19   21.16    4.43
  -4   2 -19   35.04    3.54
   4   2  19   35.81    5.39
   4  -2  20    2.68    2.04
   4   2  20   -0.82    2.78
   4  -2  20    4.06    2.67
   4  -2  21   41.60    5.23
   4   2  21   52.92    6.70
   4  -2  21   44.71    6.49
   4  -2  22    4.93    2.55
   4   2  22    1.83    3.01
   4  -2  22   -1.82    3.63
   4  -2  23   13.34    4.49
   4   2  23   15.37    4.74
  -4  -3  25   22.17    4.16
  -4   3  25   29.74    4.62
  -4   3  24   -0.61    2.47
  -4  -3  24    1.22    2.63
  -4   3  23   -2.32    2.03
  -4  -3  23   -1.16    1.98
   4   3 -22    7.88    1.32
  -4  -3  22    7.24    2.75
  -4   3  22    9.98    2.74
  -4  -3  21   72.68    6.51
  -4   3  21   71.28    6.50
   4   3 -21   63.11    4.29
   4   3 -21   66.34    6.55
  -4  -3  20  116.26    8.33
  -4   3  20   94.44    7.78
   4   3 -20   96.19    5.74
   4   3 -20  102.21    8.46
   4  -3 -20   79.45    6.43
   4   3 -19   -0.54    2.11
  -4   3  19   -0.62    2.30
   4  -3 -19    4.08    1.52
   4   3 -19    0.37    0.75
  -4  -3  19    1.92    1.82
  -4   3  19    0.48    1.52
   4  -3 -18   40.49    4.03
  -4   3  18   55.55    5.84
  -4  -3  18   42.50    4.66
  -4   3  18   49.88    4.92
   4   3 -18   42.02    5.17
   4   3 -18   44.73    3.09
  -4   3  17  263.51   15.53
  -4  -3  17  203.57   14.03
  -4   3  17  215.98   14.13
   4   3 -17  225.33   12.16
   4   3 -17  215.04   14.86
  -4   3  16    9.54    2.50
   4   3 -16    5.82    2.32
   4   3 -16    7.37    0.99
  -4   3  16   10.15    2.19
   4  -3 -16    7.66    2.31
   4   3 -16    6.61    2.23
  -4  -3  16    9.02    2.18
  -4   3  15    1.00    1.41
  -4  -3  15    2.32    1.40
  -4   3  15    3.06    1.63
   4   3 -15   -0.53    1.62
   4  -3 -15    0.52    1.72
   4   3 -15    1.11    0.57
   4   3 -15    0.52    1.88
  -4  -3  14   43.51    4.12
  -4   3  14   36.86    3.93
   4   3 -14   44.46    2.73
   4  -3 -14   40.57    4.75
   4   3 -14   35.14    4.64
   4   3 -14   40.39    4.68
  -4   3  14   42.27    4.66
   4   3 -13   40.38    4.90
   4   3 -13   53.03    3.12
   4   3 -13   47.71    4.18
  -4  -3  13   51.76    4.52
   4  -3 -13   51.05    4.26
  -4   3  13   47.42    4.39
  -4   3  13   50.47    4.99
   4  -3 -12  154.33   10.01
   4   3 -12  159.99   11.35
   4   3 -12  169.64    8.90
  -4  -3  12  155.93   10.43
   4   3 -12  164.50   10.12
  -4   3  12  177.81   10.61
  -4   3  12  144.79   10.70
  -4  -3  11  968.14   51.40
  -4   3  11  933.20   51.31
   4   3 -11  969.77   49.71
   4   3 -11  962.69   50.99
   4  -3 -11  969.00   50.98
  -4   3  11  974.19   51.98
  -4   3  10    0.71    1.24
  -4   3  10    0.29    0.87
   4   3 -10    0.28    0.35
   4   3 -10    1.18    0.80
   4  -3 -10    1.39    0.90
  -4  -3  10    1.45    0.92
  -4  -3   9  506.96   28.96
   4   3  -9  529.68   27.68
   4   3  -9  539.42   28.78
   4  -3  -9  540.48   28.75
  -4   3   9  507.51   28.94
  -4   3   9  601.80   29.77
   4   3  -8  689.32   36.31
   4   3  -8  729.17   37.40
  -4  -3   8  673.44   37.47
   4  -3  -8  768.63   37.46
  -4   3   8  685.10   37.45
  -4   3   8  680.57   37.89
  -4   3   7    5.80    1.29
   4  -3  -7    4.95    1.22
   4   3  -7    6.43    1.18
   4   3  -7    6.53    0.79
  -4  -3   7    8.90    1.46
  -4   3   7    7.87    1.63
  -4  -3   6   24.19    1.77
   4   3  -6   17.39    2.09
   4  -3  -6   28.33    2.39
  -4  -3   6   26.75    2.44
  -4   3   6   17.99    2.10
  -4   3   6   27.66    2.72
   4  -3  -6   18.82    2.40
  -4  -3   5  201.31   12.03
   4  -3  -5  214.77   11.99
  -4  -3   5  219.54   11.41
   4   3  -5  210.58   11.96
  -4   3   5  215.36   12.11
  -4   3   5  185.33   12.23
   4  -3  -5  208.00   12.43
   4  -3  -4  125.10    7.64
  -4   3   4  135.89    8.22
   4   3  -4  128.11    7.67
  -4  -3   4  122.14    7.12
   4  -3  -4  143.45    8.31
  -4  -3   4  123.59    7.17
   4   3  -3  250.77   14.61
   4  -3  -3  271.99   14.69
  -4  -3   3  254.88   14.25
   4  -3  -3  298.50   15.44
  -4  -3   3  266.10   14.16
  -4  -3   2  709.88   35.33
   4  -3  -2  688.50   36.26
   4   3  -2  681.79   35.66
   4  -3  -2  627.08   35.77
   4   3  -2  663.57   35.24
  -4  -3   1  531.10   27.60
   4   3  -1  511.81   27.58
   4  -3  -1  525.85   28.03
   4   3   0   11.99    1.42
   4  -3   0   12.61    1.53
   4   3   0    8.96    1.33
   4  -3   0   11.37    1.46
   4   3   1 1365.29   62.50
   4  -3   1 1313.90   62.35
   4   3   1 1317.19   62.37
   4  -3   2  405.75   22.93
   4   3   2  460.26   23.09
   4  -3   2  416.40   23.06
  -4  -3  -3  345.49   18.46
  -4   3  -3  342.46   18.46
   4   3   3  329.78   18.39
   4  -3   3  336.54   18.44
  -4   3  -3  333.20   18.43
   4  -3   3  327.35   18.39
  -4   3  -4   29.91    2.73
   4   3   4   33.75    2.83
   4  -3   4   31.69    2.73
   4  -3   4   36.63    2.93
  -4  -3  -4   30.66    2.74
  -4   3  -4   35.16    2.86
   4   3   5  271.22   14.38
   4  -3   5  294.04   14.51
   4  -3   5  275.16   14.21
  -4  -3  -5  269.76   14.27
  -4   3  -5  260.24   14.24
   4  -3   6    0.24    0.73
  -4   3  -6    1.51    0.93
  -4  -3  -6    1.28    0.89
  -4   3  -6    1.82    0.87
   4  -3   6    1.16    0.72
   4   3   6    0.24    0.64
  -4   3  -7  104.23    6.64
   4   3   7  101.95    6.93
   4  -3   7  106.35    7.00
  -4   3  -7  100.64    6.72
  -4  -3  -7  101.07    6.70
  -4  -3  -8    1.93    0.96
  -4   3  -8    3.45    1.10
  -4   3  -8    1.47    0.88
   4  -3   8    0.59    0.75
   4   3   8    1.18    0.97
  -4  -3  -9   29.79    2.92
   4  -3   9   27.96    3.02
   4   3   9   25.59    2.98
  -4   3  -9   28.55    2.68
  -4   3  -9   25.14    2.74
   4   3  10  148.63   10.19
  -4   3 -10  147.40    9.47
  -4   3 -10  167.43    9.99
   4  -3  10  167.53   10.42
  -4  -3 -10  157.67    9.86
  -4  -3 -11  303.42   18.70
  -4   3 -11  315.06   18.80
   4   3  11  321.15   19.45
  -4   3 -11  363.79   18.64
   4  -3  11  342.67   19.56
   4  -3  12   11.26    2.20
  -4   3 -12   11.14    2.04
  -4  -3 -12   12.93    2.08
   4   3  12   15.24    2.56
  -4   3 -12   11.49    1.91
   4   3  13    0.96    1.34
  -4   3 -13   -0.34    1.25
  -4  -3 -13   -0.67    1.21
   4  -3  13    0.47    1.61
  -4   3 -13    0.25    0.98
  -4  -3 -14   64.58    5.70
  -4   3 -14   63.95    5.65
  -4   3 -14   77.78    5.43
   4   3  14   85.86    6.92
   4  -3  14   72.54    6.54
   4   3  15    8.50    2.17
  -4   3 -15    5.66    1.58
   4  -3  15    4.49    1.93
  -4   3 -16   54.58    4.47
   4   3  16   66.82    6.36
   4  -3  16   51.55    5.82
   4  -3  16   45.36    5.23
   4   3  16   48.41    3.66
   4  -3  17    4.82    2.15
   4   3  17    4.24    1.10
   4  -3  17    5.26    2.45
  -4   3 -17    7.45    1.71
   4   3  17    5.32    2.41
   4  -3  18   21.68    3.78
  -4   3 -18   23.27    2.86
   4   3  18   24.34    4.24
   4  -3  18   21.24    4.06
   4  -3  19    1.15    1.96
   4   3  19   -0.77    2.36
   4  -3  19   -0.76    2.58
  -4   3 -19    1.81    1.40
   4  -3  20    7.78    2.95
  -4   3 -20    9.29    2.16
   4   3  20    4.96    3.00
   4  -3  20   11.43    3.49
   4  -3  21    6.18    2.69
   4   3  21    6.11    3.16
   4  -3  21    6.05    3.38
   4   3  22   13.79    4.22
   4  -3  22   20.09    4.73
   4  -3  22   18.56    3.92
   4  -3  23    7.44    2.97
   4  -3  23   13.34    4.38
   4   3  23    7.71    3.95
  -4  -4  25    8.26    2.94
  -4   4  25   10.14    3.22
  -4   4  24   -1.82    2.58
  -4  -4  24   -3.05    2.74
  -4  -4  23    8.76    2.79
  -4   4  23    5.81    2.44
  -4  -4  22   23.46    3.95
  -4   4  22   31.10    4.31
  -4  -4  21    4.80    2.24
  -4   4  21    6.88    2.35
  -4  -4  20   22.36    3.71
  -4   4  20   34.76    4.17
   4   4 -20   24.59    4.02
  -4  -4  19   24.15    3.63
  -4   4  19   35.42    4.12
   4  -4 -19   33.15    3.09
   4   4 -19   23.84    4.08
   4   4 -18    9.20    2.90
  -4   4  18   18.86    3.55
   4  -4 -18   10.98    1.90
  -4  -4  18   10.09    2.37
  -4   4  18    9.98    2.44
  -4   4  17    9.55    2.83
   4   4 -17    5.13    2.28
  -4  -4  17    4.35    1.90
  -4   4  17    4.30    1.69
  -4  -4  16   55.12    4.91
  -4   4  16   54.01    4.90
   4   4 -16   40.08    5.11
   4  -4 -16   47.93    5.40
   4   4 -16   39.16    5.03
  -4   4  16   43.72    5.27
  -4   4  15   22.00    3.72
   4   4 -15   18.36    3.39
  -4  -4  15   21.77    2.95
  -4   4  15   19.21    2.88
   4  -4 -15   15.49    3.10
   4   4 -15   19.98    3.40
  -4   4  14   35.48    4.39
  -4   4  14   36.22    3.70
  -4  -4  14   35.65    3.70
   4  -4 -14   30.56    4.23
   4   4 -14   32.41    4.27
   4   4 -14   32.42    4.47
  -4   4  13   -0.48    1.52
   4  -4 -13   -0.28    0.95
  -4  -4  13    3.81    1.21
  -4   4  13    1.71    1.05
   4   4 -13    0.28    0.96
   4   4 -13    0.54    1.88
   4   4 -12  140.05   10.65
  -4  -4  12  146.51    9.68
   4  -4 -12  153.49    9.34
   4   4 -12  148.63    9.29
  -4   4  12  140.81    9.55
  -4   4  12  154.99   10.54
   4   4 -11   85.98    7.54
  -4  -4  11   82.42    6.51
  -4   4  11  105.06    6.84
   4   4 -11   90.60    6.30
   4  -4 -11   94.80    6.37
  -4   4  11   97.72    7.38
  -4   4  10   10.50    1.79
   4   4 -10   11.58    2.60
   4   4 -10   11.97    1.73
   4  -4 -10   11.04    1.72
  -4  -4  10   13.83    1.99
  -4   4  10   12.75    2.42
  -4   4   9  265.25   15.70
   4   4  -9  284.30   15.54
   4  -4  -9  270.88   15.43
  -4  -4   9  284.10   15.81
  -4   4   9  257.77   16.36
   4   4  -8  110.71    7.41
   4  -4  -8  115.26    7.47
  -4  -4   8  115.65    7.65
  -4   4   8  119.50    7.70
   4  -4  -7  192.19   12.44
  -4  -4   7  204.35   11.88
   4  -4  -7  201.99   11.65
  -4  -4   7  193.68   10.77
  -4   4   7  195.33   11.81
  -4   4   7  230.35   12.75
   4   4  -7  212.32   11.73
   4   4  -6  571.13   30.70
   4  -4  -6  542.15   30.63
  -4  -4   6  548.39   30.84
  -4   4   6  592.28   30.91
  -4   4   6  596.21   31.69
   4  -4  -6  582.12   31.69
  -4  -4   6  593.10   30.00
   4  -4  -5  580.05   30.16
  -4  -4   5  587.29   30.35
  -4   4   5  588.31   30.37
  -4   4   5  532.85   30.92
  -4  -4   5  550.01   29.97
  -4  -4   5  536.84   29.48
   4  -4  -5  605.53   31.27
   4   4  -5  593.58   30.19
   4  -4  -4  113.74    6.89
  -4  -4   4  118.81    6.49
   4   4  -4  114.50    6.91
  -4  -4   4  112.47    6.79
   4  -4  -4   92.05    7.39
   4  -4  -3  383.92   21.63
  -4  -4   3  401.27   20.85
   4   4  -3  379.84   21.18
  -4  -4   3  380.19   21.11
   4  -4  -3  384.18   21.16
   4  -4  -3  454.82   22.49
   4   4  -2  278.20   15.42
   4  -4  -2  265.21   15.75
   4  -4  -2  298.00   15.52
   4   4  -2  286.45   15.46
   4  -4  -2  284.00   16.44
  -4  -4   2  265.09   15.37
   4   4  -1   63.08    4.39
   4  -4  -1   62.15    4.56
   4  -4   0  190.80   11.39
   4  -4   0  210.04   11.78
   4   4   0  198.86   11.43
   4   4   0  206.64   11.70
   4  -4   1   71.26    4.96
   4   4   1   64.17    4.61
   4  -4   1   73.63    4.72
   4   4   1   73.57    5.10
   4   4   2    7.53    1.44
  -4   4  -2    8.36    1.45
   4  -4   2    7.55    1.31
   4   4   2    8.65    1.24
   4  -4   2    8.52    1.22
   4   4   3    2.49    1.13
  -4   4  -3    3.85    1.04
   4  -4   3    2.03    0.87
   4  -4   3    2.08    0.80
  -4   4  -3    3.80    0.99
   4   4   3    2.05    0.78
  -4  -4  -3    2.82    0.95
  -4  -4  -4  485.12   27.77
  -4   4  -4  506.92   27.83
   4   4   4  496.02   27.84
   4  -4   4  522.78   27.94
  -4   4  -4  539.01   27.95
   4  -4   4  575.78   28.05
  -4  -4  -5  191.84   11.03
   4   4   5  178.82   11.03
   4  -4   5  184.70   11.07
  -4   4  -5  184.81   10.98
   4  -4   5  197.30   11.06
  -4   4  -5  191.83   11.04
  -4   4  -6  748.46   39.44
  -4   4  -6  703.33   39.28
   4  -4   6  788.45   39.42
   4  -4   6  719.11   39.52
   4   4   6  756.23   39.64
  -4  -4  -6  744.90   39.43
  -4  -4  -7  349.23   19.76
   4  -4   7  353.19   19.65
  -4   4  -7  348.96   19.78
   4   4   7  350.31   20.05
   4  -4   7  349.88   20.04
  -4   4  -7  387.45   19.83
  -4   4  -8    0.74    0.86
  -4  -4  -8   -0.24    0.87
  -4   4  -8   -0.22    0.87
   4   4   8    2.08    1.13
   4  -4   8    0.89    0.66
   4  -4   8    0.65    0.66
   4  -4   9    8.81    1.82
  -4  -4  -9   10.90    1.73
  -4   4  -9   12.88    1.81
   4   4   9   11.48    2.01
  -4   4  -9   10.80    1.82
  -4  -4 -10  246.99   14.30
  -4   4 -10  222.85   13.88
  -4   4 -10  264.47   14.48
   4   4  10  241.14   14.76
   4  -4  10  243.61   14.82
  -4   4 -11    3.70    1.25
  -4  -4 -11    4.15    1.37
  -4   4 -11    2.10    1.24
   4   4  11    2.80    1.41
   4  -4  11    7.18    1.80
  -4  -4 -12  188.83   11.59
  -4   4 -12  171.38   11.44
   4  -4  12  181.37   12.20
   4   4  12  190.36   12.36
  -4   4 -12  192.72   11.25
  -4   4 -13   16.24    2.53
  -4  -4 -13   10.74    2.15
  -4   4 -13   18.85    2.32
   4  -4  13   13.95    2.70
  -4   4 -14    3.93    1.44
  -4   4 -14    3.24    1.39
   4  -4  14    4.73    1.91
  -4  -4 -14    6.38    1.74
   4   4  14    5.28    2.25
   4  -4  15   43.76    5.15
  -4   4 -15   37.95    3.78
   4   4  15   40.80    4.96
   4  -4  15   54.09    5.47
   4   4  15   40.42    2.77
  -4   4 -16   -0.57    1.21
   4  -4  16    1.24    1.74
   4   4  16    4.37    2.19
   4  -4  16   -1.15    1.95
   4  -4  17    0.59    1.95
  -4   4 -17    0.87    1.31
   4  -4  17   -0.67    2.12
   4   4  17    1.35    2.29
   4   4  18    2.18    2.39
   4  -4  18    1.85    1.96
  -4   4 -18    3.28    1.57
   4  -4  18    2.87    2.59
   4   4  19    3.10    2.71
   4  -4  19   -0.64    2.03
  -4   4 -19    0.31    1.35
   4  -4  19    3.09    2.37
   4  -4  20    2.65    2.64
  -4   4 -20    3.74    1.60
   4   4  20    2.49    2.74
   4  -4  20    3.29    2.80
   4  -4  21    1.36    2.45
   4   4  21   -0.88    2.98
   4  -4  21   -0.87    3.68
   4   4  22   36.02    6.25
   4  -4  22   28.31    5.89
   4  -4  22   34.42    5.20
   4  -4  23    5.71    3.03
   4  -4  23    6.24    3.18
   4   4  23    2.89    3.18
  -4  -5  25    5.74    2.76
  -4   5  25    0.64    2.16
  -4  -5  24   17.76    3.87
  -4   5  24   20.07    3.85
  -4  -5  23    5.86    2.35
  -4   5  23    4.07    2.28
  -4  -5  22   -0.56    2.33
  -4   5  22    3.33    2.26
  -4  -5  21   12.30    2.81
  -4   5  21   14.83    3.06
  -4  -5  20   99.37    8.01
  -4   5  20   89.73    7.79
  -4   5  19   10.05    2.48
   4  -5 -19    9.42    1.57
  -4  -5  19    8.72    2.51
   4   5 -18   28.19    4.44
  -4  -5  18   30.82    3.78
  -4   5  18   23.63    3.51
   4  -5 -18   18.09    2.30
   4   5 -17   22.99    3.95
  -4   5  17   24.77    4.10
  -4  -5  17   27.93    3.58
  -4   5  17   14.65    2.70
  -4   5  16   36.94    4.91
   4   5 -16   37.05    5.09
  -4  -5  16   35.55    3.98
  -4   5  16   37.90    4.08
   4  -5 -16   36.16    4.68
   4   5 -16   29.51    4.48
  -4   5  15   -0.58    1.90
   4   5 -15    1.77    2.01
   4  -5 -15    1.53    1.98
   4   5 -15    0.52    1.75
  -4  -5  15   -0.78    1.41
  -4   5  15    1.54    1.35
  -4   5  14   57.65    5.98
  -4  -5  14   51.28    4.81
   4   5 -14   46.42    5.27
   4  -5 -14   54.98    5.59
   4   5 -14   45.42    5.69
  -4   5  13   17.28    3.16
   4   5 -13   12.04    3.00
   4  -5 -13   13.72    2.95
   4   5 -13   18.61    3.12
  -4  -5  13   19.52    2.58
  -4   5  13   16.84    2.48
   4   5 -12  265.85   14.90
  -4  -5  12  258.40   15.29
  -4   5  12  269.95   15.40
   4  -5 -12  256.73   14.81
  -4   5  12  232.34   16.03
   4   5 -12  230.78   16.45
   4   5 -11   33.88    4.40
   4  -5 -11   34.60    3.29
  -4  -5  11   40.06    3.72
   4   5 -11   35.47    3.32
  -4   5  11   44.52    3.84
  -4   5  11   48.20    4.74
   4   5 -10  119.72    9.21
   4   5 -10  114.45    7.47
   4  -5 -10  121.64    7.50
  -4  -5  10  108.71    7.68
  -4   5  10  109.69    7.64
  -4   5  10  129.19    8.87
   4   5  -9   32.78    4.34
   4   5  -9   39.38    3.30
   4  -5  -9   40.00    3.30
  -4  -5   9   40.49    3.60
  -4   5   9   37.00    3.47
  -4   5   9   42.78    4.27
  -4   5   8   38.75    3.37
   4  -5  -8   32.48    3.75
  -4  -5   8   40.33    2.32
   4   5  -8   39.82    3.19
   4  -5  -8   32.13    3.02
  -4   5   8   37.23    3.98
   4   5  -8   32.98    4.19
  -4  -5   8   33.55    3.22
   4  -5  -7    2.77    1.35
   4   5  -7    1.45    0.94
  -4  -5   7    1.49    0.47
   4  -5  -7    1.41    0.86
  -4  -5   7    2.30    0.88
  -4   5   7    1.55    1.27
  -4   5   7    2.73    0.85
  -4  -5   6  355.06   16.99
  -4  -5   6  320.07   17.94
  -4   5   6  301.84   18.82
  -4  -5   6  312.36   17.80
   4  -5  -6  314.15   18.92
   4   5  -6  300.90   17.57
   4  -5  -6  300.49   17.55
  -4   5   6  310.15   17.80
   4   5  -5    1.06    0.72
   4  -5  -5    2.24    0.86
  -4   5   5    1.83    1.36
  -4  -5   5    1.16    0.48
  -4  -5   5    1.31    0.87
   4  -5  -5    0.38    1.02
   4   5  -4   25.28    2.30
   4  -5  -4   25.18    2.27
  -4  -5   4   25.66    2.50
   4  -5  -4   24.59    3.04
   4  -5  -3  155.60    8.76
   4  -5  -3  131.98    9.86
  -4  -5   3  148.23    9.08
   4   5  -3  150.75    8.74
   4   5  -2  135.64    8.49
   4   5  -2  137.45    8.09
   4  -5  -2  156.70    9.60
   4  -5  -2  136.83    8.10
  -4  -5   2  129.17    8.41
   4  -5  -2  132.68    8.59
   4   5  -1   49.76    4.10
   4  -5  -1   66.64    5.19
   4  -5  -1   52.34    3.81
   4  -5  -1   55.81    4.29
  -4  -5   1   54.64    4.21
   4  -5   0   67.56    4.63
   4  -5   0   72.88    5.14
   4   5   0   69.34    4.66
   4   5   0   71.50    5.18
   4   5   1   44.12    3.24
   4  -5   1   47.35    3.65
   4  -5   1   40.14    3.13
   4   5   1   36.74    3.52
   4   5   2   15.04    2.15
   4  -5   2   11.87    1.49
   4  -5   2   13.21    1.76
   4   5   2   10.13    1.44
  -4   5  -3   -0.39    0.73
   4   5   3   -0.32    1.11
  -4  -5  -3    0.19    0.64
   4   5   3    0.37    0.63
   4  -5   3    0.45    0.67
   4  -5   3    0.55    0.57
   4  -5   4  378.98   18.45
   4   5   4  321.49   18.06
   4  -5   4  307.79   17.95
  -4   5  -4  336.77   18.06
  -4  -5  -4  319.30   17.99
  -4   5  -4  307.79   18.10
   4   5   4  316.55   18.95
   4   5   5   13.05    2.24
  -4   5  -5   14.89    1.80
  -4  -5  -5   15.58    1.83
   4  -5   5   17.09    1.94
   4   5   5   14.75    1.86
   4  -5   5   15.96    1.93
  -4   5  -5   16.28    1.93
   4   5   6  108.78    7.97
   4   5   6  112.67    7.10
  -4  -5  -6  103.29    6.83
  -4   5  -6  115.24    6.97
   4  -5   6  111.27    6.92
   4  -5   6  101.95    6.95
  -4   5  -6   93.35    6.71
  -4  -5  -7    2.53    0.96
  -4   5  -7    1.17    0.79
  -4   5  -7    0.23    0.78
   4   5   7    0.27    0.77
   4  -5   7    0.81    0.86
   4  -5   7    0.65    0.78
  -4   5  -8  560.91   27.98
   4  -5   8  495.49   27.72
  -4   5  -8  475.98   27.82
   4   5   8  524.90   28.34
  -4  -5  -8  511.43   27.92
   4  -5   8  520.26   28.33
  -4   5  -9   13.93    1.98
  -4  -5  -9   16.07    2.17
  -4   5  -9   17.14    2.23
   4   5   9   23.28    2.76
   4  -5   9   20.86    2.66
   4  -5   9   15.85    2.01
  -4   5 -10   66.76    4.96
  -4  -5 -10   66.73    5.13
  -4   5 -10   67.10    5.20
   4   5  10   72.75    5.69
   4  -5  10   64.60    5.51
  -4  -5 -11    2.67    1.13
   4   5  11    4.09    1.63
  -4   5 -11    1.50    1.15
  -4   5 -11    2.22    1.12
   4  -5  11    0.82    1.39
  -4  -5 -12  228.04   13.90
  -4   5 -12  212.10   13.39
   4   5  12  241.79   14.85
  -4   5 -12  247.40   14.09
   4  -5  12  238.68   14.84
  -4   5 -13    2.37    1.22
  -4  -5 -13    1.34    1.21
  -4   5 -13   -0.52    1.13
   4   5  13    1.48    1.67
   4  -5  13   -0.98    1.61
  -4   5 -14   64.55    5.39
   4   5  14   72.48    6.49
  -4   5 -14   55.58    4.81
   4  -5  14   73.56    6.43
  -4  -5 -14   64.27    5.41
  -4   5 -15  284.23   16.70
   4   5  15  319.58   18.98
   4  -5  15  320.02   18.89
  -4   5 -16    6.56    1.76
   4   5  16    4.43    2.09
   4  -5  16    2.51    1.70
   4  -5  16    4.46    2.24
   4   5  17   -0.68    2.17
   4  -5  17    1.97    2.30
   4  -5  17    0.68    1.99
  -4   5 -17    1.46    1.26
  -4   5 -18   86.71    6.36
   4   5  18   87.54    8.80
   4  -5  18   88.22    8.50
   4  -5  18   75.39    7.90
   4  -5  19    0.70    2.15
  -4   5 -19    2.42    1.56
   4   5  19   -3.92    2.82
   4  -5  19   -1.55    3.23
   4  -5  20    8.70    3.14
  -4   5 -20    3.98    1.61
   4   5  20    8.37    3.56
   4   5  21   30.01    5.42
   4  -5  21   30.62    5.67
   4  -5  21   41.05    5.78
   4   5  22   27.80    5.58
   4  -5  22   36.21    5.45
   4  -5  22   31.21    5.80
   4  -5  23    0.76    2.58
   4   5  23   -3.84    3.73
   4  -5  23    0.95    2.91
  -4   6  25   -0.64    3.15
  -4  -6  24    1.23    2.61
  -4   6  24    0.61    2.48
  -4  -6  23   21.20    3.98
  -4   6  23   29.73    4.36
  -4   6  22   17.82    3.53
  -4  -6  22   12.95    3.40
  -4  -6  21    1.07    1.77
  -4   6  21   -0.53    1.96
  -4  -6  20    0.51    1.79
  -4   6  20    0.51    1.72
  -4  -6  19   33.58    4.23
  -4   6  19   32.65    4.24
  -4  -6  18   29.59    3.86
  -4   6  18   33.71    4.06
  -4  -6  17    3.07    1.83
  -4   6  17    1.29    1.51
  -4   6  16   -0.65    2.13
   4   6 -16    0.63    2.08
  -4   6  16   -0.41    1.43
   4   6 -16   -0.52    1.89
   4  -6 -16    0.51    1.83
  -4  -6  16   -0.41    1.41
  -4   6  15    2.47    2.17
   4   6 -15    1.87    2.54
   4  -6 -15    1.49    1.63
   4   6 -15   -0.51    1.88
  -4  -6  15    1.96    1.56
  -4   6  15    0.77    1.18
  -4   6  14   48.69    4.55
  -4  -6  14   49.78    4.62
   4  -6 -14   43.27    4.98
   4   6 -14   47.95    5.24
  -4   6  14   48.98    5.58
   4   6 -14   50.52    5.80
  -4  -6  13   83.24    6.26
  -4   6  13   79.92    6.20
   4  -6 -13   79.04    6.74
   4   6 -13   78.96    6.77
  -4   6  13   77.70    7.34
   4   6 -13   80.02    7.56
  -4  -6  12   17.44    2.37
   4   6 -12   10.73    3.01
  -4   6  12   14.19    2.23
   4  -6 -12   18.97    2.84
   4   6 -12   15.11    2.71
  -4   6  12   15.50    3.11
   4   6 -11   69.05    5.10
   4  -6 -11   70.69    5.08
  -4  -6  11   76.85    5.58
  -4   6  11   77.89    5.53
  -4   6  11   60.15    6.22
   4   6 -11   53.91    6.28
   4   6 -10   40.83    3.41
   4  -6 -10   39.70    3.32
  -4  -6  10   36.66    3.48
  -4   6  10   37.08    3.49
  -4   6  10   28.84    4.04
   4   6 -10   47.61    5.15
   4   6  -9  113.56    9.43
   4  -6  -9  126.57    9.26
   4   6  -9  124.84    7.79
  -4   6   9  135.26    9.41
   4  -6  -9  107.83    7.57
  -4  -6   9  126.23    8.09
  -4   6   9  143.56    8.32
   4  -6  -8  139.01    9.24
   4   6  -8  108.29    8.98
  -4  -6   8  118.22    7.62
  -4  -6   8  116.57    6.36
  -4   6   8  117.95    7.62
   4   6  -8  122.98    7.41
   4  -6  -8  106.59    7.21
  -4   6   8  126.10    8.95
   4   6  -7  205.03   14.03
  -4  -6   7  215.28   11.30
  -4  -6   7  193.37   12.22
  -4   6   7  203.73   12.30
   4   6  -7  215.06   12.21
   4  -6  -7  221.86   12.18
  -4   6   7  196.60   13.47
   4  -6  -7  226.43   13.95
   4  -6  -6    0.90    1.08
  -4   6   6    0.85    0.68
   4   6  -6    1.31    0.75
   4  -6  -6    1.44    0.76
   4   6  -6    1.01    1.60
  -4  -6   6    0.64    0.71
  -4  -6   6    1.54    0.53
  -4  -6   6    1.14    1.11
  -4   6   6   -0.43    1.36
   4   6  -5    8.68    1.35
   4  -6  -5   10.25    1.44
  -4   6   5   11.92    2.34
  -4  -6   5   10.81    1.78
   4  -6  -5   12.85    2.35
  -4  -6   4    0.28    0.78
   4   6  -4    1.34    0.75
   4  -6  -4    0.44    1.17
   4  -6  -4    2.29    0.79
   4   6  -3  219.39   11.96
   4  -6  -3  197.60   13.54
   4  -6  -3  198.79   11.87
  -4  -6   3  236.67   12.92
  -4  -6   2   18.66    2.37
   4  -6  -2   20.08    1.88
   4   6  -2   16.98    1.78
   4  -6  -2   20.44    2.92
  -4  -6   1   15.94    2.26
   4  -6  -1   15.70    1.77
   4  -6  -1   15.78    2.14
   4   6  -1   21.19    1.97
   4   6  -1   22.92    2.58
   4  -6  -1   22.17    3.01
   4   6  -1   24.63    2.09
  -4  -6   0   28.76    3.02
   4   6   0   24.68    2.33
   4  -6   0   32.59    2.98
   4  -6   0   27.53    3.52
   4   6   0   30.06    3.12
   4  -6   0   28.36    2.37
   4  -6   1   13.14    1.86
   4  -6   1   13.01    1.52
   4   6   1    9.59    1.85
   4   6   1   12.65    1.49
   4  -6   2   19.33    1.87
   4   6   2   14.66    1.69
   4  -6   2   14.80    1.96
   4   6   2   17.94    2.50
   4  -6   3  115.40    7.40
   4  -6   3  114.60    7.01
   4   6   3  105.88    6.96
   4   6   3  121.98    8.25
   4  -6   4  216.85   12.61
  -4  -6  -4  215.95   12.31
  -4   6  -4  233.87   12.41
   4   6   4  211.84   12.28
   4  -6   4  205.25   12.23
   4   6   4  188.48   13.21
  -4  -6  -5   48.34    3.70
   4   6   5   49.12    3.77
   4  -6   5   52.11    3.87
   4  -6   5   42.41    3.75
  -4   6  -5   46.54    3.68
   4   6   5   43.06    4.53
  -4  -6  -6   36.07    3.21
   4   6   6   35.56    4.31
  -4   6  -6   37.44    3.27
   4   6   6   40.82    3.50
   4  -6   6   44.16    3.56
   4  -6   6   42.60    3.46
  -4   6  -6   34.50    3.27
  -4  -6  -7  266.15   15.77
  -4   6  -7  296.08   15.98
   4   6   7  282.64   16.13
   4  -6   7  282.76   16.13
  -4   6  -7  291.13   15.93
   4  -6   7  254.01   15.70
   4   6   7  285.79   17.45
   4   6   8   63.24    6.13
  -4  -6  -8   68.43    5.04
   4   6   8   62.33    5.21
   4  -6   8   68.79    5.33
  -4   6  -8   73.09    5.10
   4  -6   8   70.56    4.98
  -4   6  -8   65.99    5.02
   4   6   9  314.60   21.30
   4  -6   9  346.24   20.32
  -4  -6  -9  349.54   19.85
   4  -6   9  376.43   19.78
  -4   6  -9  353.17   19.89
   4   6   9  348.38   20.34
  -4   6  -9  363.93   19.83
   4   6  10   36.30    4.62
  -4   6 -10   41.99    3.64
  -4  -6 -10   32.46    3.35
  -4   6 -10   33.27    3.25
   4  -6  10   34.67    3.82
   4   6  10   35.66    3.91
   4  -6  10   36.66    3.21
   4  -6  11  196.85   12.67
  -4  -6 -11  186.07   11.87
  -4   6 -11  205.02   12.07
   4   6  11  207.72   12.77
  -4   6 -11  185.86   11.62
   4   6  12   36.75    2.92
  -4   6 -12   48.19    4.05
  -4  -6 -12   44.17    3.96
   4   6  12   31.43    3.99
   4  -6  12   42.97    4.40
  -4   6 -12   41.04    3.69
   4   6  13   11.66    1.18
  -4   6 -13   14.89    2.44
  -4   6 -13   11.52    2.01
   4  -6  13   13.02    2.66
   4   6  13   14.97    2.88
  -4  -6 -13   14.08    2.33
  -4   6 -14   43.88    4.03
  -4  -6 -14   47.80    4.54
  -4   6 -14   59.09    4.73
   4   6  14   45.41    5.04
   4  -6  14   39.70    4.85
   4  -6  14   42.67    5.52
   4  -6  15    1.19    1.81
  -4   6 -15   -1.11    1.15
   4   6  15   -0.59    2.08
   4  -6  15   -0.68    1.73
   4  -6  16   47.68    6.27
  -4   6 -16   63.57    4.80
   4   6  16   57.21    6.15
   4  -6  16   44.19    5.63
   4  -6  17    5.05    2.54
  -4   6 -17    7.20    1.85
   4   6  17    5.49    2.42
   4  -6  17    2.76    2.36
   4  -6  18    0.74    2.36
  -4   6 -18   -0.88    1.38
   4   6  18    2.22    2.52
   4  -6  18   -0.74    2.51
  -4   6 -19   37.21    3.69
   4  -6  19   38.41    5.60
   4   6  19   27.82    5.07
   4  -6  19   40.38    5.80
   4   6  20    0.84    3.03
   4  -6  20    0.84    2.75
   4  -6  20    3.95    2.51
   4  -6  21   35.65    5.77
   4   6  21   34.35    5.76
   4  -6  21   40.57    6.05
   4   6  22   17.50    4.82
   4  -6  22   18.33    4.93
   4   6  23   69.37    6.92
   4  -6  23   64.51    7.75
   4  -6  24   36.40    5.96
  -4  -7  24   -1.23    2.28
  -4   7  24    1.22    2.37
  -4  -7  23   -0.59    2.51
  -4   7  23   -0.58    2.21
  -4  -7  22   -0.56    2.35
  -4   7  22    0.56    2.27
  -4  -7  21    1.08    2.10
  -4   7  21    2.65    2.21
  -4  -7  20   10.26    2.65
  -4   7  20    7.07    2.31
  -4   7  19   -0.96    1.78
  -4  -7  19    4.39    2.03
  -4  -7  18   16.66    2.99
  -4   7  18   21.45    3.34
  -4  -7  17  131.34    9.65
  -4   7  17  139.79    9.80
   4   7 -16   14.24    3.16
   4  -7 -16   15.35    2.97
  -4  -7  16   19.14    2.98
  -4   7  16   15.59    2.66
  -4   7  15  143.15    9.35
   4  -7 -15  131.09    9.85
  -4  -7  15  144.84    9.40
   4   7 -15  109.61    9.42
  -4   7  15  124.05   10.55
  -4  -7  14   16.06    2.60
   4   7 -14   12.97    3.23
  -4   7  14   20.48    2.77
   4  -7 -14   19.06    3.10
   4   7 -14   14.81    2.97
  -4   7  14   18.23    3.56
   4   7 -13    4.47    2.36
  -4  -7  13    1.05    1.18
  -4   7  13    1.03    1.01
   4  -7 -13    0.44    1.59
   4   7 -13   -0.46    1.51
  -4   7  13   -0.60    2.10
   4   7 -12    4.40    2.67
  -4  -7  12    4.19    1.40
  -4   7  12    0.95    1.08
   4  -7 -12    1.67    1.67
   4   7 -12    0.43    1.52
  -4   7  12    6.92    2.25
  -4  -7  11   24.40    2.86
   4   7 -11   29.83    2.91
   4   7 -11   32.78    4.62
  -4   7  11   29.75    3.01
  -4   7  11   23.89    3.89
   4   7 -10    4.86    2.32
   4  -7 -10    6.06    1.36
   4   7 -10    6.54    1.39
  -4  -7  10    3.94    1.27
  -4   7  10    5.91    2.01
  -4   7  10    4.20    1.31
   4  -7  -9   68.36    6.30
  -4  -7   9   65.94    4.96
  -4   7   9   66.07    4.98
   4  -7  -9   60.83    4.61
   4   7  -9   69.50    4.76
  -4   7   9   64.05    6.18
   4   7  -9   63.19    6.47
   4  -7  -8    0.53    1.27
   4   7  -8    0.80    0.70
   4   7  -8    0.58    1.98
  -4   7   8    0.24    0.84
  -4  -7   8    0.79    0.39
   4  -7  -8    2.67    0.96
  -4   7   8    1.51    1.60
  -4  -7   8    0.24    0.82
  -4   7   7  363.19   20.19
   4   7  -7  364.25   19.95
   4  -7  -7  376.50   19.94
  -4  -7   7  368.80   19.20
  -4  -7   7  354.89   20.95
  -4   7   7  385.84   22.09
  -4  -7   7  345.88   20.14
   4  -7  -7  381.79   22.26
   4   7  -7  332.42   22.11
  -4  -7   6   26.87    3.17
   4   7  -6   24.81    2.44
   4  -7  -6   28.10    2.47
  -4   7   6   23.27    3.63
   4  -7  -6   32.00    3.91
  -4  -7   5   30.61    3.43
   4  -7  -5   30.96    4.02
   4   7  -5   34.49    2.79
   4  -7  -5   40.06    2.89
   4   7  -4   18.90    1.84
   4  -7  -4   15.92    1.70
   4   7  -4   18.47    3.08
  -4  -7   4   15.50    2.31
   4  -7  -4   15.98    2.75
   4   7  -3   10.20    1.32
   4  -7  -3   11.77    1.42
   4   7  -3   10.91    2.52
   4  -7  -3   12.41    2.49
  -4  -7   3   13.64    2.24
   4  -7  -2   81.03    5.02
   4   7  -2   84.72    6.97
  -4  -7   2   86.15    6.23
   4  -7  -2   79.43    6.82
   4   7  -2   68.88    4.90
   4   7  -1   89.69    7.50
   4   7  -1   96.20    6.02
   4   7  -1   96.68    5.98
   4   7  -1   99.19    7.16
   4  -7  -1   90.60    7.69
   4  -7  -1  102.58    6.05
   4  -7  -1   91.05    6.62
   4  -7  -1   90.05    5.90
  -4  -7   1  110.19    7.36
   4   7   0  101.42    8.06
   4   7   0  110.56    6.57
   4  -7   0   99.95    6.45
   4  -7   0  109.38    7.31
   4  -7   0  117.35    8.70
   4   7   0  108.83    7.70
  -4  -7   0  107.78    7.78
  -4  -7  -1   50.05    4.62
   4   7   1   47.65    3.50
   4  -7   1   47.02    4.09
   4  -7   1   50.87    3.54
   4   7   1   47.46    4.59
   4  -7   2   95.74    6.70
   4   7   2   94.78    6.06
   4  -7   2  102.93    6.14
   4   7   2   89.37    7.17
   4   7   3  361.00   18.93
   4  -7   3  371.11   18.94
   4  -7   3  309.28   19.26
   4   7   3  313.37   20.13
  -4   7  -4   35.08    3.18
   4  -7   4   39.83    3.58
   4   7   4   46.90    3.39
   4  -7   4   39.70    3.23
   4   7   4   37.85    4.27
   4   7   5  116.26    9.27
  -4  -7  -5  128.08    8.06
  -4   7  -5  126.18    8.05
   4  -7   5  150.38    8.63
   4   7   5  125.21    8.11
   4  -7   5  139.87    8.30
   4   7   6  144.64   10.64
  -4   7  -6  176.19   10.33
   4   7   6  178.47   10.52
   4  -7   6  181.94   10.64
   4  -7   6  192.69   10.66
  -4  -7  -6  164.82   10.22
   4   7   6  164.20   11.79
   4  -7   7   10.31    1.71
   4   7   7    6.58    2.22
  -4  -7  -7   11.16    1.71
  -4   7  -7   10.39    1.71
   4   7   7   13.27    1.87
   4   7   7   11.31    2.04
   4  -7   7   13.17    1.94
   4   7   8   30.50    3.36
   4   7   8   35.31    3.51
  -4  -7  -8   40.95    3.45
  -4   7  -8   38.74    3.42
   4  -7   8   38.47    3.62
   4  -7   8   35.48    3.28
   4   7   8   40.24    4.82
   4   7   9  113.84    7.50
  -4  -7  -9  109.03    7.52
  -4   7  -9  116.89    7.63
   4  -7   9  120.24    8.12
   4   7   9  118.32    8.08
   4  -7   9  105.15    7.31
   4   7   9  130.82    9.67
   4   7  10    0.60    2.05
  -4  -7 -10   -0.56    1.16
  -4   7 -10    0.85    1.12
   4  -7  10    1.93    1.14
   4   7  10   -0.38    1.12
   4  -7  10    0.72    1.02
  -4   7 -10    2.12    1.01
   4   7  10   -0.45    0.98
   4   7  11  107.78    9.06
  -4  -7 -11   95.08    7.01
  -4   7 -11  116.34    7.10
  -4   7 -11   96.58    7.01
   4   7  11  100.04    7.73
   4  -7  11  108.73    7.89
   4   7  11   91.93    6.27
  -4   7 -12  132.17    8.73
  -4   7 -12  149.39    9.22
   4  -7  12  142.36    9.95
   4   7  12  137.95    9.87
  -4  -7 -12  128.32    8.92
   4   7  12  134.18    7.85
  -4  -7 -13  191.51   12.33
  -4   7 -13  204.09   12.05
   4  -7  13  183.89   13.19
  -4   7 -13  197.58   12.41
   4   7  13  202.17   13.48
   4  -7  13  219.55   14.85
  -4   7 -14    8.90    2.20
  -4   7 -14    5.87    1.63
  -4  -7 -14    9.88    2.18
   4   7  14   11.06    2.73
   4  -7  14    5.61    2.42
   4  -7  14   12.33    3.28
   4  -7  15    3.73    2.22
   4  -7  15    8.43    2.82
  -4   7 -15    6.20    1.62
   4   7  15    9.01    2.67
   4  -7  16   22.24    4.50
  -4   7 -16   19.42    2.67
   4   7  16   22.70    4.04
   4  -7  16   25.39    4.17
   4  -7  17    7.89    3.00
  -4   7 -17    6.06    1.75
   4   7  17    2.09    2.65
   4  -7  17    1.41    2.87
   4  -7  18   26.04    4.83
  -4   7 -18   26.83    3.07
   4   7  18   25.47    4.69
   4  -7  18   27.05    4.66
   4  -7  19   -2.51    2.93
   4   7  19   -3.97    3.01
   4  -7  19   -0.80    3.40
   4   7  20   -1.68    3.26
   4  -7  20    0.86    2.62
   4  -7  20    1.68    2.94
   4   7  21   82.29    9.05
   4  -7  21   75.56    8.73
   4  -7  21   92.18    9.46
   4  -7  22    1.77    3.10
   4   7  22    2.72    2.98
   4  -7  23   -2.68    3.47
   4  -7  24    2.68    3.04
  -4  -8  24   19.75    3.88
  -4   8  24   21.33    4.17
  -4  -8  23   -2.37    2.30
  -4   8  23   -0.58    2.27
  -4  -8  22    5.09    2.35
  -4   8  22    0.56    2.17
  -4  -8  21   10.25    2.99
  -4   8  21    5.85    2.34
  -4  -8  20   21.58    3.65
  -4   8  20   24.33    3.93
  -4  -8  19   -1.47    1.66
  -4   8  19    1.93    1.83
  -4  -8  18    0.93    1.77
  -4   8  18    0.46    1.51
  -4  -8  17    0.88    1.72
  -4   8  17    0.44    1.48
  -4  -8  16    0.42    1.46
  -4   8  16   -1.64    1.67
   4  -8 -16   -0.48    1.81
  -4  -8  15   16.48    2.66
  -4   8  15   15.80    2.58
   4  -8 -15   11.06    2.55
   4   8 -15   14.77    2.98
  -4  -8  14   12.12    2.29
  -4   8  14   12.97    2.35
   4  -8 -14    8.41    2.35
   4   8 -14    8.72    2.30
  -4  -8  13   20.03    2.83
   4  -8 -13   21.71    3.20
  -4   8  13   18.68    2.61
   4   8 -13   16.91    3.02
  -4   8  13   20.05    3.77
  -4   8  12   81.28    6.22
   4  -8 -12   89.22    6.88
   4   8 -12   80.02    6.76
  -4  -8  12   83.67    6.29
  -4   8  12   93.77    8.10
   4   8 -12   75.34    7.80
   4  -8 -11   55.38    5.32
   4   8 -11   61.90    5.55
  -4   8  11   64.08    6.75
  -4  -8  11   69.13    5.15
   4   8 -11   66.33    6.84
  -4   8  11   60.95    4.96
  -4  -8  10  231.63   13.97
  -4   8  10  227.85   13.92
  -4   8  10  245.97   16.02
   4   8 -10  248.10   13.72
   4   8 -10  233.26   16.21
   4  -8  -9   34.92    4.72
   4   8  -9   32.59    4.79
  -4  -8   9   43.06    3.61
   4   8  -9   43.26    3.42
  -4   8   9   38.94    3.49
   4  -8  -9   48.28    3.41
  -4   8   9   46.67    5.16
  -4  -8   9   37.28    2.25
   4  -8  -8  246.41   13.79
   4   8  -8  258.03   13.92
  -4  -8   8  241.01   12.99
  -4  -8   8  244.50   15.26
  -4  -8   8  242.31   14.11
  -4   8   8  203.58   15.62
   4   8  -8  238.83   16.42
  -4   8   8  257.90   14.23
   4  -8  -8  261.21   16.57
   4   8  -7  143.41    8.31
   4  -8  -7  138.28    8.23
  -4  -8   7  135.93    8.51
  -4   8   7  140.73   10.47
  -4  -8   7  137.49    9.56
   4  -8  -7  122.76   10.17
   4  -8  -6    6.40    2.14
  -4   8   6    8.17    2.40
  -4  -8   6    9.14    1.93
   4   8  -6    7.80    1.29
   4  -8  -6    9.10    1.33
   4   8  -5    4.30    1.06
   4  -8  -5    4.07    0.96
  -4  -8   5    2.39    1.32
   4   8  -5    2.29    1.69
   4  -8  -5    5.14    1.89
   4   8  -4    8.36    2.25
   4  -8  -4    5.47    1.02
  -4  -8   4    6.33    1.87
   4   8  -4    7.27    1.18
   4  -8  -4    7.32    2.11
   4   8  -3   32.58    2.54
   4  -8  -3   29.90    2.46
   4   8  -3   33.52    4.25
  -4  -8   3   33.45    3.63
   4  -8  -3   23.00    3.65
  -4  -8   2    3.30    1.61
   4   8  -2    1.83    0.74
   4   8  -2    2.09    1.84
   4   8  -2    2.31    0.67
   4  -8  -2    2.68    0.71
   4  -8  -2    2.74    0.71
   4  -8  -2   -0.56    1.27
  -4  -8   1    5.85    1.81
   4   8  -1    6.78    1.10
   4  -8  -1    8.21    1.15
   4   8  -1    6.05    2.04
   4   8  -1    7.86    1.12
   4   8  -1    6.94    1.77
   4  -8  -1   10.14    2.32
   4  -8  -1    7.14    1.10
   4   8   0   94.45    7.58
   4  -8   0   80.45    6.28
   4  -8   0   95.08    5.62
   4   8   0   87.09    5.59
   4  -8   0   86.01    7.71
   4   8   0   84.32    6.89
   4   8   0   90.28    5.60
  -4  -8   0   92.53    7.16
  -4  -8  -1  239.90   14.44
   4   8   1  210.34   14.26
   4   8   1  211.30   12.37
   4  -8   1  221.75   12.40
   4  -8   1  241.36   13.56
   4  -8   1  199.08   14.72
   4   8   1  243.05   14.38
   4   8   2    0.17    0.65
   4   8   2   -0.44    1.36
   4  -8   2   -0.29    0.89
   4   8   2    0.44    1.35
   4  -8   2    1.17    0.75
   4   8   3   59.58    5.53
   4   8   3   68.41    5.94
   4  -8   3   64.73    4.94
   4   8   3   65.59    4.37
   4  -8   3   56.39    4.26
   4   8   4  346.43   20.46
   4   8   4  347.82   20.92
   4  -8   4  345.40   19.60
   4   8   4  339.21   19.04
   4  -8   4  352.79   19.12
  -4  -8  -5  219.47   12.51
  -4   8  -5  205.83   12.43
   4   8   5  227.51   12.63
   4  -8   5  195.89   12.71
   4  -8   5  220.07   12.61
   4   8   5  210.93   14.26
   4   8   5  237.51   13.78
   4  -8   6   61.31    5.02
   4  -8   6   75.72    5.23
   4   8   6   64.72    5.02
  -4   8  -6   78.82    5.08
   4   8   6   63.78    6.40
  -4  -8  -6   74.67    5.01
   4   8   6   58.15    5.42
  -4   8  -7  105.40    7.36
   4   8   7  120.88    8.18
  -4  -8  -7  107.90    7.39
   4   8   7  120.60    7.80
   4  -8   7  128.81    7.93
   4  -8   7  124.07    7.79
   4   8   7  107.31    9.08
   4  -8   8  324.63   18.21
  -4   8  -8  318.65   18.16
  -4  -8  -8  320.70   18.16
   4  -8   8  338.83   18.73
   4   8   8  289.03   19.99
   4   8   8  330.53   18.56
   4   8   8  317.59   18.56
  -4   8  -9   62.94    4.74
  -4  -8  -9   54.25    4.53
   4   8   9   62.91    5.11
   4  -8   9   60.01    5.05
   4  -8   9   57.23    4.52
   4   8   9   52.66    4.56
   4   8   9   66.57    6.57
  -4   8 -10  132.83    8.90
  -4  -8 -10  136.64    8.96
   4   8  10  136.63    9.57
   4  -8  10  138.25    9.66
   4  -8  10  139.06    8.81
   4   8  10  148.49    8.81
   4   8  10  145.15   11.15
  -4   8 -11   22.46    2.68
   4  -8  11   17.91    3.01
   4  -8  11   23.86    2.57
  -4  -8 -11   20.41    2.61
   4   8  11   23.95    3.13
   4   8  11   17.20    2.11
  -4   8 -12   78.97    6.02
   4   8  12   83.18    6.89
   4  -8  12   86.91    7.03
  -4  -8 -12   76.07    5.99
   4  -8  12   65.46    7.50
   4  -8  13   77.90    7.01
  -4  -8 -13   80.15    6.09
   4   8  13   79.23    7.00
  -4   8 -13   75.36    6.03
   4  -8  13   72.50    7.95
  -4   8 -14   23.39    3.17
  -4  -8 -14   16.48    2.70
   4   8  14   18.48    3.57
   4  -8  14   21.72    3.80
   4  -8  14   20.63    4.32
   4   8  15  104.29    8.56
   4  -8  15   85.36    8.20
   4  -8  15   87.93    9.05
   4  -8  16   -0.84    2.36
   4   8  16    1.96    2.60
   4  -8  16   -0.67    2.71
   4  -8  17   27.78    4.91
   4  -8  17   17.20    4.30
   4   8  17   28.16    4.82
   4   8  18   68.00    7.68
   4  -8  18   70.05    7.90
   4  -8  18   89.04    8.97
   4   8  19    9.50    3.52
   4  -8  19   12.01    4.10
   4  -8  19    4.52    3.46
   4  -8  20   29.73    5.56
   4   8  20   32.33    5.65
   4  -8  20   26.83    5.20
   4  -8  21   12.31    4.51
   4   8  21   10.32    3.84
   4  -8  22   44.55    6.81
   4  -8  22   56.57    5.93
   4   8  22   45.96    5.47
   4  -8  23   -0.96    3.54
   4  -8  24   15.32    4.66
  -4   9  24   18.25    3.80
  -4  -9  24   12.97    3.49
  -4   9  23    2.33    2.22
  -4  -9  23    4.14    2.25
  -4   9  22   12.83    3.08
  -4  -9  22    9.05    2.81
  -4   9  21   18.63    3.44
  -4  -9  21   21.60    3.67
  -4   9  20   41.47    4.93
  -4  -9  20   35.53    4.67
  -4  -9  19    3.41    2.12
  -4   9  19    4.80    2.28
  -4  -9  18    5.08    1.97
  -4   9  18    2.27    1.78
  -4   9  17   68.74    6.17
  -4  -9  17   70.16    6.15
  -4   9  16    2.82    1.69
  -4  -9  16    6.15    1.98
   4  -9 -16    4.51    2.14
  -4  -9  15    0.76    1.30
  -4   9  15   -0.37    1.42
   4  -9 -15    0.44    1.86
   4   9 -15   -1.83    1.86
  -4   9  14   56.73    5.08
   4  -9 -14   56.26    5.46
   4   9 -14   71.83    6.09
  -4  -9  14   62.10    5.24
  -4  -9  13    6.99    1.79
   4  -9 -13    8.50    2.10
   4   9 -13   10.25    2.38
  -4   9  13    6.32    1.78
   4  -9 -12  159.96   10.94
   4   9 -12  165.24   11.14
  -4  -9  12  163.91   10.51
  -4   9  12  169.75   10.61
  -4  -9  11    1.18    1.12
  -4   9  11   -0.59    1.14
   4  -9 -11    1.48    1.33
   4   9 -11    0.39    1.48
  -4   9  11   -0.66    2.09
   4  -9 -10  194.50   13.27
  -4   9  10  174.16   10.61
  -4  -9  10  168.84   10.59
   4  -9 -10  166.94   11.07
   4   9 -10  160.56   11.08
  -4   9  10  183.73   13.04
   4  -9  -9  531.86   28.93
  -4  -9   9  480.39   24.35
   4  -9  -9  441.95   26.03
  -4  -9   9  474.84   25.75
  -4  -9   9  449.72   27.21
  -4   9   9  420.90   27.78
  -4   9   9  444.15   25.65
   4   9  -9  488.87   28.54
   4  -9  -8   11.17    2.89
  -4  -9   8    7.34    1.52
   4  -9  -8   10.87    1.50
   4   9  -8   11.85    1.66
  -4   9   8   17.14    3.37
  -4  -9   8   13.16    2.64
   4  -9  -7    4.54    2.22
   4  -9  -7    3.45    1.02
   4   9  -7    6.69    1.23
  -4  -9   7    3.68    1.67
  -4   9   7    5.45    2.37
   4   9  -6  278.25   15.31
   4  -9  -6  282.36   15.25
  -4  -9   6  261.93   17.11
   4  -9  -6  274.25   18.25
   4   9  -5   14.46    3.19
   4  -9  -5   15.84    1.63
  -4  -9   5   11.39    2.58
   4   9  -5   13.21    1.61
   4  -9  -5   15.28    3.10
   4  -9  -4   59.19    3.84
   4   9  -4   58.80    3.91
  -4  -9   4   53.06    5.25
   4  -9  -4   48.59    5.62
   4   9  -4   45.83    5.55
   4  -9  -3   33.18    2.64
   4   9  -3   37.14    4.71
   4  -9  -3   42.61    2.95
  -4  -9   3   33.02    4.11
   4  -9  -3   33.76    4.56
   4   9  -3   35.04    2.71
   4   9  -2   64.01    4.28
   4  -9  -2   65.76    4.27
   4   9  -2   61.21    4.19
   4  -9  -2   58.70    6.27
  -4  -9   2   67.87    6.04
   4   9  -2   60.46    6.23
   4  -9  -2   69.53    4.25
  -4  -9   1   -0.48    1.29
   4   9  -1    0.14    0.63
   4   9  -1    1.07    1.70
   4  -9  -1   -0.14    0.53
   4   9  -1    0.68    0.64
   4  -9  -1    1.49    0.74
   4  -9  -1   -1.26    1.60
   4  -9   0   -0.32    1.05
  -4  -9   0    0.98    1.43
   4   9   0   -0.43    0.67
   4  -9   0    0.28    0.60
   4  -9   0    0.57    0.60
   4   9   0    1.55    1.81
   4   9   0   -1.41    1.69
   4  -9   0    1.27    1.70
   4   9   0    0.71    0.65
  -4  -9  -1  151.98   10.18
   4  -9   1  126.28    7.76
   4   9   1  142.01    7.85
   4  -9   1  115.21    8.60
   4  -9   1  132.02   10.54
   4   9   1  134.60    9.75
   4   9   1  135.86    9.93
  -4  -9  -2   40.58    4.69
   4   9   2   45.18    3.29
   4  -9   2   46.09    3.31
   4   9   2   46.37    4.92
   4  -9   2   45.67    5.43
   4  -9   2   45.85    4.08
   4   9   2   38.20    4.59
   4   9   3   95.27    5.85
   4  -9   3   94.41    5.89
   4  -9   3   82.75    6.43
   4   9   3   88.95    7.57
   4   9   3   87.03    7.27
   4   9   4    2.16    1.60
   4  -9   4    0.30    1.05
   4   9   4    1.19    0.72
   4  -9   4    2.25    1.01
   4   9   4    0.52    1.59
   4  -9   5  436.12   24.64
   4   9   5  460.90   24.24
   4  -9   5  451.98   24.24
   4   9   5  426.88   26.20
   4   9   5  421.29   25.29
   4   9   6    1.15    1.66
  -4   9  -6    1.99    1.05
   4   9   6    2.24    1.84
   4  -9   6    4.39    1.36
   4   9   6    1.75    1.06
   4  -9   6    1.56    1.06
  -4  -9  -6    0.22    0.90
   4   9   7   -0.36    1.28
  -4  -9  -7    0.23    0.98
  -4   9  -7    1.62    1.08
   4  -9   7    3.23    1.41
   4  -9   7    3.14    1.31
   4   9   7    2.83    1.40
   4   9   7    1.77    1.73
   4   9   8    4.24    1.62
  -4   9  -8    5.92    1.45
   4  -9   8    5.60    1.56
  -4  -9  -8    5.62    1.44
   4   9   8    6.99    1.73
   4  -9   8    5.74    1.46
   4   9   8    4.93    2.58
   4   9   9   17.44    3.65
   4   9   9   19.13    2.82
  -4   9  -9   24.91    2.73
  -4  -9  -9   23.33    2.65
   4  -9   9   24.03    2.66
   4  -9   9   23.48    3.05
   4   9   9   19.95    2.70
  -4  -9 -10   40.30    3.72
  -4   9 -10   35.41    3.54
   4   9  10   37.98    4.12
   4  -9  10   38.57    4.27
   4  -9  10   41.48    3.61
   4   9  10   34.66    3.47
  -4  -9 -11  107.17    7.34
  -4   9 -11  109.16    7.38
   4   9  11  100.77    7.91
   4  -9  11  104.50    8.07
   4  -9  11  108.10    7.05
   4  -9  11   82.89    9.11
  -4  -9 -12    3.14    1.48
  -4   9 -12    6.30    1.79
   4   9  12    2.38    1.87
   4  -9  12    8.84    2.51
   4  -9  12    4.43    1.47
   4  -9  12    8.17    2.95
  -4  -9 -13   70.71    5.75
   4   9  13   66.13    6.57
   4  -9  13   76.07    6.84
  -4   9 -13   70.55    5.75
   4  -9  13   77.34    8.35
   4  -9  14   37.18    5.84
  -4  -9 -14   40.47    4.07
   4   9  14   32.80    4.58
   4  -9  14   34.10    4.74
   4  -9  15    4.44    2.93
   4   9  15    4.88    2.55
   4  -9  15    4.39    2.39
   4  -9  16    4.55    3.00
   4   9  16    5.94    2.91
   4  -9  16    0.67    2.68
   4  -9  17   37.40    6.23
   4   9  17   32.27    5.22
   4  -9  17   40.81    5.58
   4  -9  18    0.96    2.70
   4   9  18   -3.70    2.67
   4  -9  18   -1.52    2.66
   4  -9  19   54.78    7.57
   4   9  19   60.65    7.06
   4  -9  19   54.77    7.12
   4  -9  20   -2.52    2.46
   4  -9  20   -1.00    3.18
   4   9  21   17.30    3.39
   4  -9  21    8.11    4.43
   4  -9  21    8.35    2.86
   4  -9  22    9.14    3.79
   4   9  22   14.23    3.14
   4  -9  22    7.59    2.73
   4  -9  23   36.87    6.71
  -4  10  24   -1.19    2.68
  -4 -10  23    2.91    2.22
  -4  10  23    4.57    2.38
  -4 -10  22    7.79    2.64
  -4  10  22    3.83    2.24
  -4 -10  21    3.18    2.16
  -4  10  21    2.09    2.03
  -4 -10  20   23.18    3.79
  -4  10  20   22.74    3.68
  -4  10  19   67.32    6.13
  -4 -10  19   56.38    5.82
  -4  10  18   27.82    3.78
  -4 -10  18   30.87    3.99
  -4 -10  17   19.37    3.06
  -4  10  17   23.64    3.29
  -4  10  16    3.90    1.87
  -4 -10  16    7.50    2.11
  -4  10  15    8.92    2.04
   4 -10 -15    3.70    2.03
   4  10 -15    6.11    2.02
  -4 -10  15    5.20    1.75
   4 -10 -14    0.39    1.56
   4  10 -14   -0.42    1.74
  -4  10  14    0.35    1.44
  -4 -10  14    0.35    1.34
  -4  10  13   51.87    4.38
   4 -10 -13   39.79    4.28
   4  10 -13   45.56    4.64
  -4 -10  13   38.58    3.98
  -4 -10  12   60.08    4.80
  -4  10  12   61.58    4.85
   4 -10 -12   48.82    4.88
   4  10 -12   52.78    5.06
   4 -10 -11    7.62    2.09
   4  10 -11    7.39    1.92
  -4 -10  11    8.57    2.50
  -4  10  11    7.64    1.63
  -4 -10  11    5.41    1.61
   4 -10 -10   55.16    6.46
   4 -10 -10   48.95    4.68
   4  10 -10   58.06    5.08
  -4 -10  10   57.66    4.53
  -4 -10  10   60.69    6.01
  -4  10  10   59.17    4.62
  -4 -10   9    5.21    1.40
   4 -10  -9    7.29    2.77
   4 -10  -9    2.45    1.43
   4  10  -9    1.64    1.48
  -4 -10   9   -0.54    1.51
  -4 -10   9    2.25    0.65
   4 -10  -8    2.16    1.86
   4 -10  -8    4.81    1.59
   4  10  -8    8.16    1.91
  -4  10   8    8.69    2.91
  -4 -10   8    9.94    2.45
   4 -10  -7   48.39    3.52
   4  10  -7   47.77    3.58
  -4 -10   7   55.76    5.51
  -4  10   7   51.22    6.00
   4 -10  -7   49.96    6.06
   4 -10  -6   81.76    5.11
   4  10  -6   85.13    5.22
  -4 -10   6   87.17    7.24
   4  10  -6   63.50    7.27
   4 -10  -6   74.67    7.73
   4  10  -5    0.63    2.15
   4  10  -5    0.43    0.70
   4 -10  -5    0.79    0.69
  -4 -10   5   -0.52    1.39
   4 -10  -5   -1.41    2.07
   4  10  -4   90.59    5.47
   4 -10  -4   91.15    5.41
   4 -10  -4   84.38    5.54
  -4 -10   4   94.19    7.63
   4 -10  -4   85.30    8.16
   4  10  -4   83.25    7.83
   4  10  -3   46.82    5.49
   4  10  -3   44.72    3.43
   4 -10  -3   46.24    3.38
   4  10  -3   54.94    3.53
   4 -10  -3   53.15    3.43
   4 -10  -3   51.55    5.98
  -4 -10   3   59.03    5.56
  -4 -10   2    8.58    2.35
   4 -10  -2   11.79    1.32
   4  10  -2   14.56    3.18
   4  10  -2    9.65    1.30
   4 -10  -2   12.70    1.34
   4  10  -2   14.03    1.45
   4 -10  -2    8.95    2.62
  -4 -10   1   25.94    3.86
   4  10  -1   27.65    4.11
   4  10  -1   27.66    2.27
   4 -10  -1   29.81    2.28
   4 -10  -1   30.10    2.30
   4  10  -1   30.73    2.35
   4 -10  -1   33.31    4.80
   4  10   0   39.32    2.83
   4 -10   0   39.97    2.82
   4 -10   0   30.62    3.53
   4  10   0   35.49    2.74
   4 -10   0   35.42    4.90
   4  10   0   44.70    5.09
   4 -10   0   42.33    2.87
  -4 -10   0   38.41    4.65
   4 -10   1  207.64   13.73
   4  10   1  244.50   12.68
   4  10   1  214.96   12.55
   4  10   1  226.36   15.15
   4 -10   1  241.07   16.30
   4 -10   1  235.20   12.65
   4 -10   1  229.64   12.64
   4  10   1  230.28   15.09
  -4 -10  -1  216.97   15.10
  -4 -10  -2   44.86    5.28
   4 -10   2   37.99    3.95
   4  10   2   50.78    3.37
   4 -10   2   43.81    3.26
   4 -10   2   47.92    5.69
   4  10   2   33.62    4.63
   4  10   2   46.86    5.04
   4  10   3   11.55    2.78
   4 -10   3   19.73    2.63
   4  10   3   16.09    1.87
   4 -10   3   17.72    1.89
   4 -10   3   18.37    3.84
   4  10   3   18.83    3.34
   4  10   4   21.07    3.57
   4 -10   4   27.82    3.15
   4  10   4   32.69    2.80
   4 -10   4   33.03    2.80
   4  10   4   39.31    4.72
   4  10   5    3.90    1.92
   4 -10   5    4.32    1.44
   4  10   5    5.77    1.30
   4 -10   5    1.39    0.92
   4  10   5    6.45    2.64
   4 -10   6  166.18   10.28
   4  10   6  156.19    9.85
   4 -10   6  165.94   10.01
   4  10   6  158.56   11.95
   4  10   6  152.17   10.70
  -4  10  -7   78.18    5.36
  -4 -10  -7   81.37    5.41
   4 -10   7   59.51    5.40
   4  10   7   84.64    5.80
   4 -10   7   92.21    5.98
   4  10   7   57.78    6.77
   4  10   7   65.57    5.93
  -4  10  -8    8.25    1.64
   4 -10   8    8.46    1.91
   4  10   8    6.75    1.83
   4 -10   8    6.33    1.74
  -4 -10  -8    9.19    1.66
   4  10   8    7.31    1.98
  -4  10  -9   60.41    4.54
  -4 -10  -9   50.28    4.29
   4 -10   9   58.20    4.55
   4  10   9   50.14    4.77
   4 -10   9   54.17    4.94
  -4 -10 -10    4.11    1.51
   4  10  10    5.54    1.76
   4 -10  10    4.53    1.90
   4 -10  10    5.23    1.51
  -4  10 -10    3.61    1.39
   4 -10  10    2.51    2.85
  -4  10 -11   61.74    5.02
  -4 -10 -11   60.41    4.95
   4  10  11   68.23    5.82
   4 -10  11   57.95    5.72
   4 -10  11   58.99    4.76
   4 -10  11   62.99    7.51
  -4 -10 -12   98.93    6.82
  -4  10 -12   79.20    6.43
   4  10  12   94.92    7.62
   4 -10  12  101.77    7.86
   4 -10  12   84.43    6.17
   4 -10  12   87.98    9.26
   4 -10  13   42.93    6.85
  -4 -10 -13   62.21    4.85
  -4  10 -13   55.16    4.71
   4 -10  13   51.60    5.51
   4  10  13   35.95    4.78
   4 -10  14   41.29    6.60
  -4 -10 -14   40.42    4.18
   4  10  14   38.63    4.97
   4 -10  14   41.10    5.23
   4  10  15  112.68    9.40
   4 -10  15  112.70    9.55
   4 -10  15  107.72   10.97
   4 -10  16   35.53    6.17
   4  10  16   37.20    5.45
   4 -10  16   39.50    5.55
   4 -10  17    1.01    2.84
   4  10  17    2.07    2.55
   4 -10  17   -1.41    2.32
   4 -10  18   -1.48    3.27
   4 -10  18   -1.03    3.16
   4  10  19    3.20    1.95
   4 -10  19    4.72    2.10
   4 -10  20    1.07    3.53
   4  10  20    5.71    2.22
   4 -10  20    2.94    2.17
   4 -10  21   -1.08    4.30
   4 -10  21    5.13    2.50
   4  10  21    2.47    2.30
   4  10  22   -2.59    2.56
  -4 -11  23   11.73    3.01
  -4  11  23    8.79    2.99
  -4 -11  22    1.60    2.03
  -4  11  22    0.53    1.84
  -4 -11  21    1.02    1.94
  -4  11  21    2.01    2.09
  -4 -11  20   -0.48    1.78
  -4  11  20    0.96    1.86
  -4 -11  19   13.70    2.89
  -4  11  19   14.51    2.87
  -4 -11  18    6.90    2.18
  -4  11  18   10.83    2.59
  -4 -11  17   -0.41    1.39
  -4  11  17    0.41    1.48
  -4 -11  16  125.98    9.25
  -4  11  16  143.75    9.58
   4 -11 -15  124.28    8.78
   4  11 -15  110.20    8.88
   4 -11 -15  110.66    8.04
  -4 -11  15  126.41    8.68
  -4  11  15  140.04    8.93
  -4 -11  14   11.38    2.29
  -4  11  14   11.04    2.21
   4 -11 -14    8.41    2.25
   4  11 -14   10.67    2.45
   4 -11 -14    9.33    2.03
   4 -11 -13    0.35    1.60
   4  11 -13    0.37    1.65
  -4 -11  13    0.32    1.36
  -4  11  13   -0.32    1.35
  -4 -11  12   71.47    5.18
   4 -11 -12   53.62    5.07
   4  11 -12   63.15    5.41
  -4  11  12   60.06    4.92
  -4 -11  12   60.50    6.48
  -4  11  11   54.17    4.33
   4  11 -11   46.27    4.44
   4 -11 -11   43.75    4.27
  -4 -11  11   62.20    6.15
  -4 -11  11   45.58    4.05
   4 -11 -10   21.56    4.15
  -4 -11  10   17.62    1.22
  -4 -11  10   19.09    2.33
  -4 -11  10   13.59    1.13
   4 -11 -10   15.69    2.43
   4  11 -10   17.34    2.60
  -4 -11  10   21.61    3.62
   4 -11  -9   13.50    3.44
   4 -11  -9   14.13    2.22
   4  11  -9   13.36    2.35
  -4 -11   9   13.51    3.03
   4 -11  -8   41.65    5.73
   4 -11  -8   37.85    3.56
   4  11  -8   45.28    3.97
  -4 -11   8   39.67    5.07
   4 -11  -7    9.35    2.97
   4 -11  -7    7.68    1.66
  -4 -11   7    5.24    2.23
   4  11  -7    4.71    1.48
   4 -11  -6   33.37    5.04
   4 -11  -6   28.95    2.89
   4  11  -6   28.33    2.95
  -4 -11   6   42.49    4.88
   4 -11  -5  262.15   13.89
   4  11  -5  258.77   13.98
  -4 -11   5  223.48   16.42
   4 -11  -5  248.51   17.78
   4  11  -4    0.65    2.27
   4  11  -4    1.88    0.80
   4 -11  -4    1.93    0.75
   4  11  -4    1.79    0.76
   4 -11  -4    1.38    0.65
  -4 -11   4    4.06    2.03
   4 -11  -4    0.76    1.83
   4  11  -3    5.65    2.28
   4 -11  -3    4.80    0.90
   4  11  -3    5.17    0.99
   4  11  -3    4.21    0.84
   4 -11  -3    6.04    0.89
   4 -11  -3    4.54    2.24
  -4 -11   3    3.54    2.08
  -4 -11   2   26.91    4.00
   4  11  -2   28.68    4.33
   4 -11  -2   25.61    1.96
   4  11  -2   22.64    1.94
   4 -11  -2   23.88    1.91
   4  11  -2   25.31    1.99
   4 -11  -2   18.06    3.93
   4  11  -1   14.20    3.10
  -4 -11   1   10.24    2.70
   4  11  -1    9.86    1.19
   4 -11  -1   11.14    1.19
   4 -11  -1    8.25    1.12
   4 -11  -1    9.16    3.01
   4  11  -1    9.95    1.14
   4 -11   0  102.51    7.97
   4  11   0  118.76    6.76
   4  11   0  121.85    6.81
   4 -11   0  118.99    6.78
   4 -11   0  113.00    6.69
   4 -11   0  125.75   10.55
   4  11   0  110.91    9.26
  -4 -11   0  128.70    9.81
   4  11   1    2.21    2.20
  -4 -11  -1    0.62    1.39
   4 -11   1    1.05    1.26
   4  11   1   -0.59    1.82
   4  11   1    1.52    0.70
   4  11   1    1.16    0.71
   4 -11   1    1.30    0.71
   4 -11   1    0.12    0.69
   4 -11   1    3.05    2.24
   4  11   2    4.78    2.17
  -4 -11  -2    5.65    2.45
   4 -11   2    3.10    1.59
   4 -11   2    5.11    1.03
   4  11   2    4.81    0.98
   4  11   2    3.45    0.94
   4 -11   2    4.90    1.12
   4 -11   2    4.64    2.38
   4  11   2    4.78    2.59
   4  11   3  162.43    9.13
   4 -11   3  163.87    9.19
   4 -11   3  155.82   12.66
   4  11   3  149.57   11.69
   4 -11   3  140.30    9.98
   4  11   3  143.28   11.01
   4  11   4    3.10    2.04
   4 -11   4    1.34    1.21
   4  11   4    2.29    0.98
   4 -11   4    1.41    1.00
   4 -11   4    0.81    1.94
   4  11   4    1.94    1.75
   4  11   5   56.88    4.31
   4 -11   5   57.42    4.39
   4  11   5   54.85    6.21
   4  11   5   57.35    5.66
   4 -11   5   56.94    4.86
   4 -11   6   33.51    3.24
   4 -11   6   34.36    3.56
   4  11   6   29.14    3.13
   4  11   6   29.26    3.86
   4 -11   7   75.44    5.62
   4  11   7   68.24    5.31
   4 -11   7   69.62    5.46
   4 -11   7   60.52    7.42
  -4  11  -8    6.23    1.51
   4 -11   8    4.65    1.57
   4  11   8    9.31    1.92
   4 -11   8    5.73    1.68
  -4 -11  -8    9.62    1.74
  -4  11  -9   -0.76    1.21
  -4 -11  -9   -0.75    1.34
   4 -11   9   -0.30    1.23
   4  11   9   -0.36    1.26
   4 -11   9    0.75    1.53
  -4 -11 -10   63.58    4.79
   4  11  10   64.53    5.50
  -4  11 -10   54.66    4.64
   4 -11  10   59.42    4.82
   4 -11  10   54.48    5.35
   4 -11  11    0.94    2.52
  -4 -11 -11    4.23    1.60
   4  11  11    3.94    2.08
   4 -11  11    4.57    2.17
   4 -11  11    3.32    1.46
  -4  11 -11    2.88    1.63
   4 -11  12   -0.96    2.44
  -4  11 -12   -0.92    1.65
  -4 -11 -12   -0.91    1.64
   4  11  12    0.48    2.00
   4 -11  12    0.50    2.07
   4 -11  12    0.54    1.13
   4 -11  13   30.63    5.98
   4  11  13   38.55    4.78
  -4 -11 -13   42.41    4.06
   4 -11  13   43.17    5.03
  -4  11 -13   39.07    3.99
   4 -11  14    7.09    3.55
   4  11  14    3.92    2.30
   4 -11  14    5.21    2.56
   4  11  15    2.99    2.44
   4 -11  15    3.08    2.63
   4 -11  16    2.13    3.26
   4  11  16    3.16    2.63
   4 -11  16   -3.90    3.07
   4 -11  17   -2.17    3.06
   4  11  17    0.40    1.71
   4 -11  17   -2.92    2.00
   4 -11  18   13.32    4.73
   4 -11  18    6.97    2.28
   4  11  18    7.15    2.29
   4 -11  19    1.13    3.18
   4  11  19   -0.44    2.28
   4 -11  19   -3.19    2.26
   4  11  20   23.54    3.63
   4 -11  20   19.65    3.55
   4 -11  21    5.51    2.42
   4  11  21    2.91    2.15
  -4  12  23    6.46    2.84
  -4  12  22    2.59    2.20
  -4  12  21   10.40    2.68
  -4 -12  20    0.47    1.87
  -4  12  20    2.84    2.20
  -4 -12  19   -1.34    1.86
  -4  12  19    0.45    1.88
  -4  12  18   -0.43    1.75
  -4 -12  18    1.71    1.92
  -4 -12  17   12.51    2.55
  -4  12  17   12.13    2.51
  -4 -12  16   13.26    2.57
  -4  12  16   12.19    2.48
   4  12 -15    1.15    1.53
  -4 -12  15    0.71    1.41
  -4  12  15   -0.35    1.53
  -4 -12  14   44.70    4.43
   4  12 -14   50.45    4.93
  -4  12  14   64.65    5.00
  -4 -12  14   48.10    6.17
   4 -12 -14   50.50    4.92
  -4 -12  13   -0.31    1.27
   4  12 -13    1.39    1.39
  -4 -12  13    0.70    2.22
  -4  12  13    2.14    1.45
   4 -12 -13    0.80    1.60
  -4 -12  12   84.53    6.06
  -4  12  12   78.30    5.96
   4  12 -12   86.48    6.40
  -4 -12  12   78.82    7.79
   4 -12 -12   75.94    6.70
   4 -12 -11    1.11    1.27
   4  12 -11    0.62    1.57
  -4 -12  11    2.00    2.04
   4 -12 -11    2.26    1.72
   4 -12 -10   37.08    5.75
  -4 -12  10   32.25    2.26
   4 -12 -10   36.95    3.47
   4  12 -10   39.43    3.76
  -4 -12  10   39.73    5.22
   4  12  -9   67.95    5.39
   4 -12  -9   72.23    5.27
  -4 -12   9   79.52    7.44
   4 -12  -9   84.14    8.62
   4 -12  -8    9.36    3.16
   4 -12  -8    4.61    1.29
   4  12  -8    7.14    1.62
  -4 -12   8    5.78    2.52
  -4 -12   7  106.20    9.07
   4 -12  -7  112.22    6.72
   4  12  -7   91.89    6.69
   4 -12  -7  117.38   10.25
   4 -12  -6    3.36    2.86
   4 -12  -6    1.26    0.94
   4  12  -6    1.44    0.96
  -4 -12   6    2.54    2.22
   4  12  -5   69.50    4.47
   4  12  -5   71.48    4.82
  -4 -12   5   78.21    7.22
   4 -12  -5   66.87    4.57
   4 -12  -5   67.30    4.29
   4 -12  -5   80.25    8.18
   4 -12  -4   14.50    1.38
   4  12  -4   19.42    1.85
   4 -12  -4   13.66    1.63
   4  12  -4   15.23    1.52
  -4 -12   4   11.59    3.14
   4 -12  -4   15.77    3.87
  -4 -12   3    1.95    1.83
   4  12  -3    1.16    0.61
   4 -12  -3    0.42    0.54
   4 -12  -3   -0.81    2.29
  -4 -12   2    3.94    2.30
   4 -12  -2    3.74    0.67
   4  12  -2    2.03    0.65
   4  12  -2    2.87    0.66
   4 -12  -2    3.37    0.60
   4 -12  -2    3.28    2.31
  -4 -12   1   28.52    4.70
   4 -12  -1   38.39    2.39
   4  12  -1   38.85    2.53
   4  12  -1   38.09    2.46
   4 -12  -1   35.86    2.46
   4 -12  -1   40.98    5.76
   4  12  -1   40.40    5.15
   4 -12   0   51.74    4.97
   4 -12   0   56.02    3.56
   4  12   0   58.12    3.62
   4 -12   0   69.41    7.44
   4  12   0   54.30    3.49
   4 -12   0   62.74    3.50
   4  12   0   50.51    5.98
  -4 -12   0   71.09    6.85
   4  12   1   71.24    4.05
   4 -12   1   68.55    4.01
   4 -12   1   57.51    5.36
   4  12   1   61.98    4.09
   4 -12   1   67.70    4.17
   4 -12   1   84.55    8.24
   4  12   1   56.17    6.33
  -4 -12  -1   61.28    6.70
  -4 -12  -2   22.72    4.07
   4 -12   2   18.79    2.90
   4  12   2   24.22    2.08
   4 -12   2   29.94    2.24
   4  12   2   25.32    1.98
   4  12   2   25.03    4.40
   4 -12   2   21.65    4.30
   4 -12   2   22.84    1.94
   4  12   2   17.80    3.56
   4 -12   3   33.38    2.46
  -4 -12  -3   26.46    4.43
   4 -12   3   30.13    3.53
   4  12   3   31.18    2.59
   4 -12   3   31.81    2.68
   4  12   3   28.67    2.31
   4 -12   3   39.72    5.60
   4  12   3   30.84    4.29
   4 -12   4   41.34    4.06
   4  12   4   41.52    3.20
   4 -12   4   37.77    3.18
   4 -12   4   35.18    5.45
   4 -12   4   32.61    5.52
   4 -12   5   62.26    5.45
   4  12   5   72.32    5.00
   4 -12   5   72.97    5.05
   4 -12   5   65.85    7.73
   4 -12   5   69.62    7.81
   4 -12   6    6.71    1.71
   4  12   6    4.44    1.43
   4 -12   6    5.63    1.50
   4 -12   6    6.89    2.85
   4  12   7    5.33    1.51
   4 -12   7    5.35    1.58
   4 -12   7    4.94    1.54
   4 -12   7    5.35    3.04
   4 -12   8    4.21    1.71
   4  12   8    3.82    1.57
   4 -12   8    5.57    1.82
   4 -12   8    5.53    3.04
  -4  12  -9   61.94    4.84
   4 -12   9   54.09    4.98
   4 -12   9   68.68    5.58
   4  12   9   71.14    5.59
   4 -12  10    0.81    1.58
  -4  12 -10    3.15    1.34
   4 -12  10    2.97    1.45
   4  12  10    3.15    1.71
   4 -12  11    6.04    3.53
  -4  12 -11    0.83    1.40
   4  12  11    3.03    1.80
   4 -12  11    1.33    1.85
   4 -12  11    0.87    1.37
   4 -12  12   76.65    9.32
  -4  12 -12   79.43    6.03
   4  12  12   77.29    6.91
   4 -12  12   71.33    6.86
   4 -12  12   87.09    6.02
   4 -12  13    0.52    2.10
   4 -12  13   -1.06    2.86
  -4  12 -13    2.84    1.61
   4  12  13    6.57    2.47
   4 -12  13    1.37    1.34
   4 -12  14    6.55    3.60
   4  12  14    4.83    2.25
   4 -12  15    1.12    3.15
   4  12  15    1.72    1.58
   4 -12  15    3.20    1.74
   4 -12  16   13.50    2.60
   4 -12  16   12.57    4.69
   4  12  16   10.87    2.38
   4 -12  17   25.69    6.07
   4 -12  17   20.55    3.21
   4  12  17   26.40    3.51
   4  12  18   -0.41    1.69
   4 -12  18    2.93    1.91
   4  12  19    8.96    2.50
   4  12  20    0.90    1.99
   4  12  21    4.71    2.47
  -4  13  19    4.37    2.17
  -4  13  18   24.98    3.64
  -4  13  17    1.54    1.60
  -4  13  16  149.63    9.81
  -4 -13  16  126.01   11.57
  -4 -13  15   -0.33    1.47
  -4 -13  15    3.88    2.63
  -4  13  15   -0.67    1.71
  -4 -13  14    0.94    1.36
  -4  13  14    0.31    1.58
  -4 -13  14   -0.76    2.03
   4 -13 -13    0.44    1.63
  -4 -13  13   -0.74    2.18
  -4 -13  13    0.88    1.27
   4 -13 -12   17.93    3.07
  -4 -13  12   20.40    4.03
   4  13 -11   70.33    5.50
  -4 -13  11   72.98    7.61
   4 -13 -11   77.15    6.93
   4 -13 -10   28.69    5.24
   4  13 -10   27.99    2.97
  -4 -13  10   32.65    4.96
   4 -13 -10   26.92    4.05
   4 -13  -9    7.38    3.33
   4  13  -9    2.69    1.30
  -4 -13   9    0.70    2.16
   4 -13  -9    1.65    1.87
   4 -13  -8   -0.92    2.06
   4  13  -8    0.81    0.92
  -4 -13   8    2.79    2.37
   4 -13  -8    2.29    2.06
   4 -13  -7    2.73    2.45
   4 -13  -7    3.35    0.83
  -4 -13   7    2.09    2.05
   4 -13  -7    4.75    2.42
   4  13  -7    5.23    1.18
   4 -13  -6   19.08    4.30
   4  13  -6   18.87    1.73
   4  13  -6   15.07    1.76
   4 -13  -6   14.64    1.41
   4 -13  -6   16.59    3.48
  -4 -13   6   14.57    3.53
   4 -13  -5   10.84    3.36
   4 -13  -5    4.74    0.76
   4 -13  -5    7.74    0.98
   4  13  -5    7.76    1.16
   4 -13  -5    5.09    2.49
   4  13  -5    5.78    0.92
  -4 -13   5    4.19    2.31
   4  13  -4    4.96    0.73
   4 -13  -4    4.31    0.57
   4 -13  -4    6.01    0.73
   4  13  -4    5.63    0.92
   4 -13  -4    7.25    2.58
   4 -13  -4    5.38    2.65
  -4 -13   4   12.70    3.12
  -4 -13   3   33.57    5.08
   4  13  -3   31.69    1.98
   4  13  -3   31.04    2.09
   4 -13  -3   37.49    5.11
   4 -13  -3   39.95    5.82
  -4 -13   2   -0.72    2.29
   4 -13  -2    0.71    2.16
   4 -13  -2    0.89    2.26
  -4 -13   1    2.89    2.13
   4 -13  -1   -1.77    1.68
   4 -13  -1   -0.73    2.06
  -4 -13   0    3.66    2.41
   4 -13   0   -0.39    1.41
   4 -13   0    3.55    2.50
   4 -13   0    0.76    2.22
  -4 -13  -1   44.46    5.81
   4 -13   1   38.77    4.18
   4 -13   1   45.51    6.47
   4 -13   1   42.30    5.95
  -4 -13  -2    1.50    2.11
   4 -13   2    0.38    1.24
   4  13   2    0.72    0.46
   4 -13   2    0.28    0.42
   4  13   2    0.26    0.56
   4 -13   2   -0.09    0.57
   4 -13   2   -0.90    1.86
   4 -13   2   -0.81    2.39
   4  13   3    0.55    0.50
  -4 -13  -3   -1.51    2.13
   4 -13   3    0.34    0.53
   4 -13   3    1.11    1.41
   4 -13   3    0.12    0.73
   4  13   3    1.58    0.76
   4 -13   3    1.81    2.30
   4 -13   3    0.84    2.37
   4 -13   4   24.89    3.24
   4  13   4   27.44    2.50
   4 -13   4   28.69    2.58
   4 -13   4   29.79    2.31
   4 -13   4   28.36    5.14
   4  13   4   34.25    2.30
   4 -13   4   26.98    5.13
   4  13   5    0.95    0.97
   4 -13   5    0.72    1.26
   4 -13   5    1.38    1.02
   4 -13   5   -0.93    2.49
   4 -13   5    0.90    2.54
   4 -13   6   -1.05    1.55
   4  13   6    0.68    0.97
   4 -13   6    0.46    1.06
   4 -13   6   -0.93    2.73
   4 -13   7   32.68    5.72
   4 -13   7   22.73    2.73
   4 -13   7   20.49    2.94
   4  13   7   25.57    2.87
   4  13   8   27.85    3.32
   4 -13   8   31.25    3.45
   4 -13   8   40.09    3.91
   4 -13   9    2.04    2.87
   4 -13   9    0.65    1.35
   4  13   9   -0.34    1.51
   4 -13   9   -0.34    1.54
   4  13  10   66.67    5.71
  -4  13 -10   57.74    4.95
   4 -13  10   77.87    5.56
   4 -13  11    3.23    1.39
   4 -13  11    2.40    1.58
   4 -13  12  308.31   17.62
   4  13  12  321.49   17.69
   4 -13  12  315.61   22.83
   4 -13  12  294.34   17.67
   4 -13  13   31.95    6.30
   4  13  13   35.26    3.55
   4 -13  14    1.17    2.98
   4  13  14    3.33    1.61
   4 -13  15    3.59    3.37
   4  13  15    3.25    1.60
   4  13  16   10.42    2.36
   4  13  17    6.66    2.20
  -4 -14  20    1.76    3.17
  -4 -14  19    6.95    3.32
  -4 -14  18    8.55    3.51
  -4 -14  17   -0.84    2.94
  -4 -14  16   -1.65    2.97
  -4 -14  15   19.50    4.42
  -4 -14  14   48.01    6.44
  -4 -14  13    2.35    2.66
  -4 -14  12   33.42    5.51
  -4 -14  11   60.23    7.01
   4 -14 -11   56.78    6.18
   4 -14 -10    9.78    2.86
   4 -14 -10   13.83    4.14
  -4 -14  10    9.99    3.31
   4 -14  -9    7.78    2.76
   4 -14  -9    3.94    2.80
  -4 -14   9    9.08    2.96
   4 -14  -8    8.77    3.14
   4 -14  -8    7.84    3.36
  -4 -14   8   11.30    3.36
   4 -14  -7   13.64    3.31
   4 -14  -7   15.55    4.36
   4  14  -7   14.13    1.48
   4  14  -7   17.30    1.59
  -4 -14   7   14.30    3.53
   4 -14  -6    2.92    2.74
   4  14  -6    0.82    0.48
   4  14  -6    0.48    0.49
  -4 -14   6    0.75    2.30
   4 -14  -6    2.02    2.29
   4 -14  -5    4.85    2.74
  -4 -14   5    4.56    2.75
   4 -14  -5    4.89    2.53
  -4 -14   4    0.77    2.25
   4 -14  -4   -0.72    2.04
   4 -14  -4    3.85    2.45
  -4 -14   3    5.40    2.87
   4 -14  -3    3.83    2.58
   4 -14  -3    5.98    2.78
  -4 -14   2   39.57    5.58
   4 -14  -2   43.37    6.24
   4 -14  -2   32.42    5.51
  -4 -14   1   21.86    4.29
   4 -14  -1   20.82    4.64
   4 -14  -1   13.56    3.82
   4 -14   0   50.08    5.02
   4 -14   0   64.61    7.71
  -4 -14   0   70.38    7.32
   4 -14   0   48.60    6.68
  -4 -14  -1   17.59    4.07
   4 -14   1   10.09    2.40
   4 -14   1   17.28    4.29
   4 -14   1   16.15    4.07
  -4 -14  -2   29.83    5.11
   4 -14   2   34.42    3.89
   4 -14   2   34.69    5.77
   4 -14   2   44.74    6.22
   4 -14   3    8.16    2.94
  -4 -14  -3   17.08    4.07
   4 -14   3   12.02    2.33
   4 -14   3    9.67    3.63
   4 -14   4   79.47    6.33
   4 -14   4   81.57    8.86
   4 -14   4   66.51    8.46
   4 -14   5   -1.93    3.18
   4 -14   5   -2.24    1.58
   4  14   5   -0.14    0.58
   4  14   5   -0.07    0.60
   4 -14   6    6.97    3.40
   4 -14   6    7.29    1.94
   4  14   6    6.13    1.00
   4 -14   7    1.03    2.77
   4 -14   7    4.32    1.84
   4  14   7    3.98    0.96
   4 -14   8   10.64    2.25
   4  14   8   11.17    1.52
   4 -14   9   36.03    6.41
   4  14   9   35.85    3.00
   4 -14   9   33.81    3.86
   4 -14  10   17.32    2.63
   4  14  10   15.88    2.07
   4  14  11   10.74    1.92
   4 -14  13    1.22    3.43
  -4 -15  19   -0.89    3.13
  -4 -15  18    7.07    3.37
  -4 -15  17   33.21    5.71
  -4 -15  16    0.87    2.32
  -4 -15  15   16.16    4.41
  -4 -15  14    1.69    2.68
  -4 -15  13    0.84    2.36
  -4 -15  12   33.12    5.66
  -4 -15  11   47.01    6.56
   4 -15 -10    3.15    3.56
   4 -15 -10    5.61    2.70
  -4 -15  10    2.45    2.50
   4 -15  -9   11.52    4.02
   4 -15  -9   11.71    3.13
  -4 -15   9   10.56    3.36
   4 -15  -8   14.57    4.37
   4 -15  -8    9.47    3.04
  -4 -15   8   12.95    3.68
   4 -15  -7   28.80    4.85
   4 -15  -7   33.12    6.14
  -4 -15   7   27.41    4.87
   4 -15  -6    5.16    3.28
   4 -15  -6    1.46    2.15
  -4 -15   6    1.63    2.85
   4 -15  -5   21.65    5.00
   4 -15  -5   11.28    3.45
  -4 -15   5   11.47    3.68
   4 -15  -4   52.48    7.19
  -4 -15   4   56.28    6.79
   4 -15  -4   33.43    5.48
  -4 -15   3   -1.66    2.54
   4 -15  -3   -0.80    2.15
   4 -15  -3    2.05    2.46
   4 -15  -2   -0.83    2.33
  -4 -15   2    2.50    2.35
   4 -15  -2   -1.02    2.73
   4 -15  -1   23.93    4.82
  -4 -15   1   30.19    5.15
   4 -15  -1   34.30    5.99
   4 -15   0   11.46    3.92
  -4 -15   0   11.86    3.56
   4 -15   0    8.63    2.20
   4 -15   0   13.19    4.25
   4 -15   1   -0.91    2.45
  -4 -15  -1    7.71    3.26
   4 -15   1    1.70    1.69
   4 -15   1    8.14    3.24
   4 -15   2    5.64    2.88
  -4 -15  -2   -0.86    2.64
   4 -15   2   -0.83    1.53
   4 -15   2    2.06    2.62
   4 -15   3   25.22    5.20
   4 -15   3   29.91    5.64
   4 -15   3   27.15    3.55
   4 -15   4   35.02    6.19
   4 -15   4   49.03    4.68
   4 -15   5    1.03    3.03
   4 -15   5    0.39    1.51
   4 -15   6    2.13    2.57
   4 -15   6    6.07    1.97
   4 -15   7   25.23    5.58
   4 -15   7   33.99    3.85
   4 -15   8   14.69    4.64
   4 -15   8   11.40    2.49
   4 -15   9   24.45    5.69
   4 -15   9   29.82    3.62
   4 -15  10   11.95    4.77
   4 -15  10    5.45    3.09
  -4 -16  16    0.90    2.76
  -4 -16  15    5.39    3.06
  -4 -16  14   27.64    5.27
  -4 -16  13   12.45    4.12
  -4 -16  12    2.62    2.35
  -4 -16  11    6.95    3.23
  -4 -16  10   13.85    3.81
   4 -16  -9    6.64    3.99
   4 -16  -9    0.70    2.23
  -4 -16   9    8.65    3.53
   4 -16  -8    7.72    3.64
   4 -16  -8    3.65    2.64
  -4 -16   8    5.16    2.75
   4 -16  -7    1.10    3.09
   4 -16  -7    1.51    2.73
  -4 -16   7   -0.87    2.76
   4 -16  -6    9.85    3.97
   4 -16  -6   16.47    4.02
  -4 -16   6    5.23    2.90
  -4 -16   5   -0.88    2.68
   4 -16  -5   -1.10    2.79
   4 -16  -5   -4.05    2.38
   4 -16  -4   19.67    5.05
  -4 -16   4   14.94    4.28
   4 -16  -4   10.86    3.69
   4 -16  -3   18.95    4.34
   4 -16  -3   15.24    4.84
  -4 -16   2   10.64    3.52
   4 -16  -2   16.00    4.05
   4 -16  -2   14.11    4.56
  -4 -16   1    5.38    2.95
   4 -16  -1    2.75    2.81
   4 -16  -1    4.15    1.84
   4 -16  -1   -1.08    2.89
   4 -16   0   14.16    4.23
  -4 -16   0   19.89    4.73
   4 -16   0   12.14    2.80
   4 -16   0   17.23    4.63
   4 -16   1    1.95    2.61
  -4 -16  -1    0.91    2.45
   4 -16   1    0.44    1.68
   4 -16   1   -1.08    3.17
   4 -16   2   11.04    3.95
  -4 -16  -2   18.33    4.57
   4 -16   2   10.78    2.55
   4 -16   2    8.67    3.95
   4 -16   3   -1.03    2.63
   4 -16   3    0.85    1.90
   4 -16   4    2.13    2.86
   4 -16   4    0.83    1.57
   4 -16   5    2.83    1.79
   4 -16   5    1.10    3.09
   4 -16   6   30.53    6.19
   4 -16   6   21.67    3.20
   4 -16   7    8.13    4.24
   4 -16   7   15.09    2.77
  -4 -17  14   10.26    3.91
  -4 -17  13   -0.93    2.73
  -4 -17  12   11.05    4.25
  -4 -17  11    6.41    3.49
  -4 -17  10    0.91    2.56
  -4 -17   9    9.14    3.42
   4 -17  -8    6.24    3.27
  -4 -17   8    9.21    3.85
   4 -17  -7   22.67    4.75
  -4 -17   7   32.28    5.70
  -4 -17   6   34.31    5.89
   4 -17  -6   21.76    4.80
  -4 -17   5   -0.93    3.16
   4 -17  -5    0.87    2.55
  -4 -17   4   24.27    4.93
   4 -17  -4   26.83    5.47
  -4 -17   3   -0.94    2.87
   4 -17  -3    5.53    3.41
  -4 -17   2    4.70    2.99
   4 -17  -2    3.79    3.61
   4 -17  -2    3.44    3.09
  -4 -17   1    3.79    3.02
   4 -17  -1    4.88    3.42
   4 -17  -1    5.32    2.18
   4 -17  -1   -1.15    3.37
  -4 -17   0   -0.96    3.04
   4 -17   0    3.01    2.70
   4 -17   0    0.47    1.75
  -4 -17  -1    8.66    3.50
   4 -17   1    8.27    4.05
   4 -17   1   11.51    2.73
  -4 -17  -2   30.91    5.88
   4 -17   2   23.42    5.98
   4 -17   2   31.43    4.03
   4 -17   3   22.10    3.32
   4 -17   3   14.25    4.94
   4 -17   4    0.86    1.51
   4 -17   4   -1.13    3.71
   4 -17   5    8.79    2.42
  -4 -18   9    5.81    3.60
  -4 -18   8    2.91    3.60
  -4 -18   7    2.92    3.41
  -4 -18   6    6.84    3.44
   4 -18  -6    7.99    3.56
  -4 -18   5   -0.98    3.22
   4 -18  -5    0.92    2.81
  -4 -18   4   -0.98    3.12
   4 -18  -4    0.95    2.79
  -4 -18   3    2.95    3.01
   4 -18  -3   -2.93    3.32
  -4 -18   2   17.86    4.54
   4 -18  -2   21.09    4.83
   4 -18  -2   15.00    3.25
  -4 -18   1    1.00    3.06
   4 -18  -1    1.00    1.86
   4 -18  -1   -1.03    3.16
  -4 -18   0   38.20    6.38
   4 -18   0   29.08    4.25
   4 -18   0   39.36    6.91
  -4 -18  -1    1.01    2.71
   4 -18   1    4.31    2.19
   4 -18   2   -1.87    1.77
   4 -18   3    2.74    2.02
   4 -18   4   59.57    5.74
  -5   0  25   -0.65    2.06
  -5   0  24   77.93    7.55
  -5   0  23   -1.80    1.83
  -5   0  22    8.60    2.70
   5   0 -21    1.43    1.81
  -5   0  21   -0.55    1.92
   5   0 -20   42.18    4.95
  -5   0  20   51.41    5.35
   5   0 -19    1.95    1.80
  -5   0  19    3.00    1.54
   5   0 -18   16.17    3.10
  -5   0  18   12.41    2.60
  -5   0  17    4.10    1.66
   5   0 -16    9.68    2.89
  -5   0  16   15.21    2.66
  -5   0  15    3.32    1.24
   5   0 -15    4.23    1.28
  -5   0  14   31.33    3.67
   5   0 -14   36.93    3.54
  -5   0  13    1.50    1.06
   5   0 -13    1.48    0.91
   5   0 -12   32.05    2.81
  -5   0  12   27.13    3.19
   5   0 -12   26.27    2.98
   5   0 -11   -0.20    0.71
  -5   0  11   -0.66    1.04
   5   0 -11   -0.27    0.98
  -5   0  10  425.58   26.10
   5   0 -10  505.92   26.14
  -5   0  10  461.04   26.75
  -5   0   9   -0.39    0.73
  -5   0   9   -0.30    0.92
   5   0  -9   -0.19    0.65
   5   0  -9   -0.25    1.04
   5   0  -8  344.59   19.01
   5   0  -8  315.58   18.52
  -5   0   8  332.31   19.25
  -5   0   8  366.19   18.55
   5   0  -7    0.35    0.59
  -5   0   7    0.27    0.68
   5   0  -7   -0.46    0.76
  -5   0   7    0.13    0.55
   5   0  -6   70.60    4.69
  -5   0   6   75.01    5.21
   5   0  -6   70.59    5.05
  -5   0   6   66.78    4.21
   5   0  -5   -0.17    0.53
  -5   0   5    0.18    0.66
   5   0  -5   -0.21    0.73
   5   0  -4   77.86    5.37
   5   0  -4   86.07    5.23
  -5   0   4   72.88    5.10
   5   0  -4   79.60    4.49
  -5   0   3   -0.17    0.56
   5   0  -3    0.86    0.62
   5   0  -3   -0.43    0.70
   5   0  -3    0.49    0.38
  -5   0   2  226.24   12.69
   5   0  -2  224.07   12.66
  -5   0   1    0.17    0.60
   5   0   0  238.26   14.14
  -5   0   0  256.86   13.98
  -5   0  -1   -1.44    0.80
   5   0   1    0.22    0.66
  -5   0  -2  432.33   24.31
   5   0   2  461.36   24.62
   5   0   2  465.22   24.47
   5   0   3    0.23    0.63
  -5   0  -3    0.76    0.76
  -5   0  -3   -0.45    0.77
   5   0   4   26.09    2.65
  -5   0  -4   25.57    2.51
  -5   0  -5   -0.23    0.80
   5   0   5    0.25    0.68
   5   0   6  255.70   15.58
  -5   0  -6  285.36   15.59
  -5   0  -7    0.26    0.90
   5   0   7    0.58    0.78
  -5   0  -7    0.91    0.84
  -5   0  -8 1862.54   96.15
   5   0   8 1907.22   96.51
  -5   0  -8 1790.61   95.87
  -5   0  -9   -0.28    1.08
   5   0   9   -0.35    0.98
  -5   0  -9    0.25    1.10
  -5   0 -10   30.51    3.34
   5   0  10   36.39    3.80
  -5   0 -10   39.97    3.43
   5   0  11   -0.41    1.14
  -5   0 -11    2.22    1.23
  -5   0 -11   -0.27    0.94
   5   0  12   61.21    5.38
  -5   0 -12   43.51    4.51
  -5   0 -12   58.50    4.55
  -5   0 -13    4.58    1.31
   5   0  13    1.93    1.17
  -5   0 -13    2.93    1.28
   5   0  14  292.54   19.30
  -5   0 -14  326.79   18.17
   5   0  15   -1.14    1.87
  -5   0 -15    0.94    1.41
   5   0  16   30.64    4.35
  -5   0 -16   25.30    3.13
   5   0  17    2.65    1.87
   5   0  18    0.71    2.09
   5   0  18    1.20    1.44
   5   0  19    0.41    1.48
   5   0  19   -2.29    2.90
   5   0  20   -0.42    1.64
   5   0  20   -0.82    2.40
   5   0  21    1.28    1.62
   5   0  21   -0.87    3.23
   5   0  22   52.54    7.20
  -5  -1  25   99.31    8.87
  -5  -1  24    0.62    2.49
  -5  -1  23    2.40    2.39
  -5  -1  22   -0.57    2.07
  -5  -1  21   80.24    7.36
   5   1 -21   87.48    7.61
   5   1 -20   12.53    3.00
   5  -1 -20   10.27    2.66
  -5  -1  20   11.56    2.74
   5  -1 -19    1.77    1.72
  -5  -1  19    1.00    1.41
   5   1 -19    2.10    1.99
   5  -1 -18    2.61    1.75
  -5  -1  18    5.26    1.64
   5   1 -18    6.72    2.33
   5   1 -17  102.16    8.26
  -5  -1  17   97.74    7.75
   5  -1 -16   73.96    7.17
  -5  -1  16   76.25    6.38
  -5  -1  15  147.90   10.35
   5  -1 -15  145.39    9.77
   5   1 -15  157.89    9.17
  -5  -1  14    3.98    1.42
  -5   1  14    5.33    1.67
   5   1 -14    4.92    1.09
   5  -1 -14    8.63    1.62
  -5   1  13   44.80    4.28
   5  -1 -13   49.31    4.11
   5   1 -13   41.04    3.40
  -5  -1  13   51.80    4.52
  -5   1  12    7.69    1.82
   5   1 -12    8.60    1.36
  -5  -1  12   13.42    2.08
   5  -1 -12   12.69    1.92
   5   1 -11  279.16   15.39
   5  -1 -11  288.93   16.14
  -5  -1  11  269.94   16.51
  -5   1  11  274.93   16.18
   5   1 -10   36.42    2.73
   5  -1 -10   31.56    3.16
  -5  -1  10   28.97    3.22
  -5   1  10   35.33    3.22
   5   1  -9   37.01    2.83
   5  -1  -9   35.04    3.15
   5  -1  -9   37.59    3.38
  -5   1   9   40.21    3.34
  -5  -1   9   36.28    3.55
   5  -1  -8  289.44   14.58
   5  -1  -8  240.30   14.13
   5   1  -8  237.32   13.73
  -5  -1   8  252.67   14.64
  -5   1   8  241.13   14.06
   5  -1  -7  267.60   14.96
   5  -1  -7  271.10   14.82
   5   1  -7  261.20   14.46
  -5  -1   7  286.92   15.36
  -5   1   7  232.94   14.46
  -5  -1   7  264.91   14.01
   5   1  -6   52.87    3.68
   5  -1  -6   53.70    4.13
  -5  -1   6   55.61    3.82
   5  -1  -6   52.45    3.94
  -5  -1   6   56.38    4.33
  -5   1   6   50.34    3.67
   5  -1  -5   84.01    6.08
   5  -1  -5   95.90    6.08
   5   1  -5   97.80    5.83
  -5  -1   5   95.26    5.89
   5  -1  -5   94.11    5.71
   5  -1  -4    9.82    1.47
   5   1  -4   12.06    1.38
  -5  -1   4   10.32    1.34
   5  -1  -4   11.86    1.32
   5  -1  -4   12.49    1.64
  -5   1   3  417.89   23.01
   5  -1  -3  437.14   23.21
   5  -1  -3  414.54   22.96
  -5  -1   3  439.93   22.82
   5   1  -3  434.61   22.79
   5  -1  -3  406.67   22.63
  -5   1   2  128.02    7.63
  -5  -1   2  130.42    7.46
   5   1  -2  114.02    7.32
  -5   1   1   15.17    1.76
  -5  -1   1   19.10    1.81
   5   1  -1   12.79    1.52
   5  -1   0  214.99   12.43
  -5   1   0  208.36   12.19
  -5  -1   0  218.56   12.11
   5  -1   1    0.65    0.71
  -5   1  -1    0.38    0.71
  -5  -1  -1   -0.52    0.72
   5  -1   1    1.74    0.74
   5  -1   2  124.23    7.45
  -5  -1  -2  115.82    7.15
   5  -1   2  109.83    7.18
  -5  -1  -3  270.15   15.10
   5  -1   3  265.96   15.10
  -5  -1  -3  257.17   14.80
   5  -1   3  266.97   14.93
   5  -1   4  284.85   15.03
   5  -1   4  262.67   15.04
  -5  -1  -4  271.39   15.06
  -5  -1  -4  238.51   14.68
  -5  -1  -5 1054.57   56.61
   5  -1   5 1118.22   56.84
  -5   1  -5 1066.87   56.48
   5  -1   6   26.39    2.89
  -5   1  -6   36.55    2.98
  -5  -1  -6   30.07    2.86
  -5  -1  -7  240.75   14.28
   5  -1   7  240.47   14.47
  -5   1  -7  255.62   14.17
  -5  -1  -8  105.83    7.39
  -5   1  -8  104.32    7.22
  -5  -1  -8  128.29    7.53
   5  -1   8  114.32    7.74
  -5  -1  -9  148.21    9.10
   5  -1   9  149.58    9.48
  -5   1  -9  139.11    8.78
  -5  -1  -9  127.73    8.73
   5  -1  10  359.46   21.26
  -5   1 -10  384.12   20.59
  -5  -1 -10  354.28   20.73
   5  -1  11   23.18    2.95
  -5   1 -11   19.05    2.43
  -5  -1 -11   19.95    2.61
   5  -1  12    6.16    1.81
  -5  -1 -12    5.02    1.63
  -5   1 -12    5.79    1.47
  -5  -1 -13   16.19    2.67
   5  -1  13   15.39    2.74
  -5   1 -13   17.17    2.40
   5  -1  14    2.62    1.34
  -5   1 -14    3.27    1.60
   5  -1  15  124.69    9.73
  -5   1 -15  125.66    8.43
   5  -1  16    4.31    2.16
  -5   1 -16    3.81    1.56
   5  -1  17    0.66    2.10
  -5   1 -17   -0.33    1.62
   5  -1  18    4.25    2.44
   5  -1  18   10.09    2.37
   5   1  18    9.21    1.92
   5  -1  19    7.55    2.27
   5   1  19    8.34    2.09
   5  -1  19    9.15    3.00
   5  -1  20   14.14    3.01
   5  -1  20   13.03    3.75
   5   1  20   19.89    2.91
   5  -1  21   37.43    4.66
   5   1  21   28.93    3.59
   5  -1  21   27.85    5.51
   5  -1  22    4.50    2.46
   5  -1  22    7.35    3.50
  -5  -2  25   -0.65    2.41
  -5   2  25    2.60    2.34
  -5  -2  24   11.88    3.15
  -5   2  24   11.23    3.32
   5   2 -23   29.70    2.92
  -5  -2  23   28.21    4.32
  -5   2  23   30.54    4.57
   5   2 -22    4.76    1.29
  -5  -2  22    1.73    1.90
  -5   2  22    0.57    1.89
   5   2 -21    2.78    2.27
   5   2 -21    5.64    1.35
  -5  -2  21    1.65    2.00
  -5   2  21    6.58    2.48
   5   2 -20   23.48    3.96
  -5   2  20   26.47    4.23
   5   2 -20   26.09    2.59
   5  -2 -20   31.20    3.84
  -5  -2  20   28.97    3.99
  -5   2  20   30.40    4.00
  -5   2  19    1.14    2.00
   5   2 -19    2.92    1.08
   5  -2 -19    2.01    1.84
   5   2 -19    2.24    2.23
  -5  -2  19    1.01    1.81
  -5   2  19    2.50    1.85
  -5   2  18   13.50    3.05
   5   2 -18   12.03    1.66
   5   2 -18   12.23    3.06
  -5  -2  18   17.75    2.81
  -5   2  18   12.90    2.52
  -5   2  17   32.55    4.24
   5   2 -17   27.87    2.53
   5   2 -17   29.37    4.23
  -5   2  17   35.09    3.98
  -5  -2  17   30.23    3.80
  -5   2  16   22.51    3.50
  -5   2  16   30.88    3.54
   5   2 -16   21.58    2.11
   5  -2 -16   25.57    3.88
   5   2 -16   14.87    3.21
  -5  -2  16   26.28    3.34
  -5  -2  15  480.15   27.44
  -5   2  15  481.55   27.44
   5   2 -15  476.30   26.82
   5  -2 -15  487.14   26.86
   5   2 -15  470.46   25.63
  -5   2  15  520.58   27.91
  -5  -2  14    0.80    1.39
  -5   2  14   -0.39    1.11
  -5   2  14   -0.84    1.42
   5   2 -14    0.14    0.66
   5  -2 -14    0.31    1.08
   5   2 -14   -0.31    1.15
   5   2 -13  159.04    9.32
   5   2 -13  160.25   10.33
  -5   2  13  180.75   11.06
   5  -2 -13  170.09   10.42
  -5  -2  13  167.90   10.87
  -5   2  13  161.54   10.90
   5   2 -12   51.10    3.43
   5   2 -12   48.35    4.18
   5  -2 -12   55.53    4.35
  -5   2  12   54.53    4.62
  -5  -2  12   46.85    4.43
  -5   2  12   41.76    4.33
   5   2 -11   69.29    5.02
   5  -2 -11   67.65    4.97
  -5  -2  11   64.60    5.17
  -5   2  11   66.76    5.22
   5   2 -11   56.89    4.02
  -5   2  11   62.76    5.20
   5   2 -10   85.83    5.92
   5  -2 -10   77.62    5.77
   5   2 -10   84.17    5.05
  -5  -2  10   77.32    5.96
  -5   2  10   78.55    6.00
  -5   2  10   79.17    5.98
  -5  -2   9   77.34    5.74
  -5   2   9   70.24    5.58
   5   2  -9   76.60    4.76
   5   2  -9   74.59    5.44
   5  -2  -9   85.40    5.64
  -5   2   9   71.98    5.54
   5  -2  -8  456.78   25.40
  -5   2   8  441.14   25.57
   5   2  -8  471.30   24.63
  -5  -2   8  466.00   25.69
   5   2  -8  402.76   25.16
   5  -2  -8  454.27   25.32
   5   2  -7  860.50   46.98
   5  -2  -7  894.50   46.99
   5  -2  -7  939.72   47.14
   5   2  -7  955.49   46.38
  -5  -2   7  880.07   47.27
  -5   2   7  868.89   46.99
  -5   2   7  788.92   47.06
   5   2  -6    3.13    1.15
   5  -2  -6    3.12    1.01
   5  -2  -6    3.55    1.10
  -5  -2   6    3.97    0.91
  -5   2   6    3.34    1.03
   5   2  -6    2.84    0.73
  -5  -2   6    3.35    1.08
   5  -2  -6    3.64    1.00
  -5   2   6    2.15    0.96
   5  -2  -5  105.41    6.85
  -5  -2   5  108.02    6.36
   5   2  -5   90.02    6.71
   5   2  -5  117.24    6.42
   5  -2  -5  102.93    6.75
   5  -2  -5  104.78    6.73
  -5  -2   4    0.72    0.60
   5  -2  -4    0.43    0.75
   5   2  -4   -0.42    0.86
   5  -2  -4    0.42    0.84
   5   2  -4    0.15    0.49
   5  -2  -4   -0.40    0.68
   5   2  -3   -0.42    0.84
   5  -2  -3    0.21    0.70
  -5  -2   3    0.75    0.63
   5   2  -3    1.39    0.65
   5  -2  -3    0.21    0.58
  -5  -2   2  104.57    6.13
  -5   2   2  102.35    6.43
   5   2  -2   94.33    5.48
  -5   2   1  151.72    8.90
  -5  -2   1  143.10    8.57
  -5   2   0   60.95    4.34
   5  -2   0   57.43    4.34
   5  -2   0   65.10    4.41
  -5  -2   0   56.98    4.10
   5  -2   1   38.36    3.31
   5  -2   1   42.41    3.32
  -5  -2  -1   42.25    3.20
   5  -2   2  257.59   14.86
   5  -2   2  269.59   14.83
  -5  -2  -2  258.71   14.63
  -5   2  -3  242.71   14.59
   5  -2   3  245.63   14.49
  -5  -2  -3  264.00   14.48
  -5  -2  -3  264.13   14.71
   5  -2   3  267.03   14.70
   5  -2   4  170.35    9.96
  -5   2  -4  162.68    9.91
   5  -2   4  159.55    9.75
  -5  -2  -4  174.12    9.95
  -5  -2  -4  150.75    9.66
  -5   2  -4  163.14    9.78
  -5  -2  -5  329.22   18.07
  -5   2  -5  319.10   18.06
  -5   2  -5  349.27   18.05
   5  -2   5  327.29   18.15
   5  -2   5  287.40   17.79
   5  -2   6  252.85   15.06
  -5   2  -6  250.89   14.86
  -5  -2  -6  256.90   14.89
  -5   2  -6  271.80   14.84
   5   2   7  117.05    8.39
  -5   2  -7  133.06    8.40
   5  -2   7  135.19    8.58
  -5   2  -7  135.25    8.24
  -5  -2  -7  130.20    8.33
  -5  -2  -8  104.25    7.30
  -5   2  -8  110.07    7.42
   5   2   8  113.11    7.67
   5  -2   8  110.82    7.64
  -5   2  -8  115.69    7.30
  -5  -2  -9    2.56    1.09
  -5   2  -9    1.15    1.04
   5   2   9    2.81    1.37
   5  -2   9    2.78    1.15
  -5   2  -9    1.98    1.14
  -5  -2 -10  492.32   26.42
   5  -2  10  521.36   27.13
  -5   2 -10  490.84   26.46
   5   2  10  513.67   27.07
  -5   2 -11   40.44    3.78
   5   2  11   39.83    4.08
   5  -2  11   31.02    3.72
  -5  -2 -11   37.00    3.63
  -5   2 -11   36.59    3.46
  -5  -2 -12   34.44    3.42
  -5   2 -12   23.57    2.98
   5   2  12   25.43    3.43
  -5   2 -12   30.27    3.10
   5  -2  12   27.47    3.58
  -5   2 -13  123.81    8.37
   5   2  13  123.29    9.05
   5  -2  13  114.47    8.89
  -5   2 -13  109.52    7.81
  -5  -2 -13  122.29    8.39
   5   2  14   39.80    4.64
   5  -2  14   43.66    4.84
  -5   2 -14   43.34    3.96
  -5   2 -15    5.17    1.70
   5   2  15    2.86    2.13
   5  -2  15    2.85    1.89
   5   2  16   -1.24    2.11
   5  -2  16   -0.61    2.02
  -5   2 -16    0.63    1.28
   5   2  17   30.63    4.57
   5  -2  17   19.91    4.11
  -5   2 -17   26.45    3.19
   5  -2  17   24.83    3.66
   5   2  18    1.11    1.16
   5   2  18    6.48    2.74
   5  -2  18    1.43    2.35
   5  -2  18    4.13    2.28
   5  -2  19    9.04    2.62
   5   2  19    8.51    1.82
   5   2  19    6.19    2.82
   5  -2  19    7.66    3.15
   5   2  20   97.56    9.55
   5  -2  20  104.77    9.90
   5  -2  20  109.40    8.64
   5   2  20   85.92    6.47
   5   2  21   -4.38    3.72
   5  -2  21   -1.69    2.36
   5  -2  21   -5.21    3.69
   5  -2  22    3.46    2.30
   5  -2  22   -0.92    3.68
   5   2  22    3.73    3.17
  -5  -3  25   10.45    3.26
  -5   3  25    6.52    3.11
  -5  -3  24   12.54    3.34
  -5   3  24   12.50    3.33
  -5  -3  23    0.60    2.40
  -5   3  23    4.80    2.22
   5   3 -22   19.40    1.79
  -5  -3  22   15.58    3.44
  -5  -3  21  129.31    9.93
  -5   3  21  130.73    9.87
   5   3 -21  124.73    7.20
   5   3 -21  120.54   10.16
   5   3 -20   39.75    5.22
   5   3 -20   39.06    2.74
  -5  -3  20   34.33    4.51
   5  -3 -20   33.22    3.94
  -5   3  20   38.82    4.74
  -5   3  19    6.67    2.71
   5   3 -19   10.69    3.01
   5   3 -19    6.57    1.08
   5  -3 -19    7.96    2.03
  -5  -3  19   13.14    2.64
  -5   3  19   12.04    2.48
   5   3 -18  134.14    7.84
  -5  -3  18  140.54   10.11
  -5   3  18  143.17   10.17
   5   3 -18  137.69   10.72
  -5   3  18  164.88   11.20
  -5   3  17    3.81    2.23
   5   3 -17    2.93    2.29
   5   3 -17    4.93    0.94
  -5  -3  17    7.38    2.05
  -5   3  17    9.14    2.07
   5   3 -16   81.63    7.65
   5   3 -16   89.43    5.18
  -5  -3  16   82.82    7.00
  -5   3  16   86.31    6.97
  -5   3  16   83.92    7.44
  -5  -3  15    3.79    1.69
  -5   3  15    8.32    2.04
  -5   3  15    9.17    2.47
   5   3 -15    1.67    1.78
   5   3 -15    4.09    0.81
   5  -3 -15    3.56    1.52
   5   3 -15    6.88    1.73
   5   3 -14   44.66    5.08
   5  -3 -14   36.34    3.71
   5   3 -14   34.32    3.66
   5   3 -14   37.65    2.63
  -5  -3  14   39.82    4.08
  -5   3  14   36.94    3.97
  -5   3  14   41.41    4.42
  -5   3  13   53.95    4.84
   5   3 -13   53.60    3.39
   5   3 -13   46.54    4.32
   5  -3 -13   55.02    4.53
  -5  -3  13   56.44    4.92
  -5   3  13   49.94    5.01
  -5   3  12    2.40    1.52
  -5  -3  12    0.70    0.84
  -5   3  12   -0.35    1.06
   5   3 -12    0.70    0.51
   5   3 -12    1.97    1.04
   5  -3 -12    1.39    1.01
   5   3 -11   45.25    2.83
   5   3 -11   36.39    3.51
   5  -3 -11   37.49    3.54
  -5  -3  11   46.17    4.08
  -5   3  11   37.37    3.72
  -5   3  11   35.69    3.93
   5   3 -10  321.30   18.94
   5   3 -10  333.60   17.88
   5  -3 -10  357.44   19.11
  -5   3  10  371.93   19.77
  -5  -3  10  346.63   19.43
  -5   3  10  301.82   19.14
   5   3  -9  683.13   36.83
  -5  -3   9  687.40   38.19
  -5   3   9  709.80   38.22
   5   3  -9  696.77   37.94
   5  -3  -9  755.55   38.07
  -5   3   9  767.77   38.57
  -5  -3   8  115.28    7.29
  -5   3   8   98.30    7.03
   5   3  -8  104.56    6.11
  -5   3   8  112.07    7.35
   5   3  -8  102.58    6.84
   5  -3  -8   98.28    6.78
   5  -3  -7  104.05    7.03
   5   3  -7  111.52    6.84
   5  -3  -7  108.67    6.77
  -5  -3   7   95.31    6.04
   5   3  -7   98.48    6.03
  -5   3   7  105.41    7.07
  -5  -3   7  110.06    7.08
  -5   3   7   99.02    6.87
   5  -3  -6   50.94    3.95
  -5  -3   6   50.24    3.27
   5   3  -6   49.17    3.78
   5  -3  -6   46.45    3.70
  -5  -3   6   48.50    3.93
  -5   3   6   45.78    3.94
  -5  -3   6   42.36    2.85
   5  -3  -6   46.53    3.98
  -5  -3   5  111.91    6.44
   5  -3  -5  103.36    6.86
   5   3  -5  103.05    6.85
   5  -3  -5  110.53    7.26
   5   3  -4    0.85    0.78
  -5  -3   4    0.27    0.60
   5  -3  -4    0.84    0.76
   5  -3  -4    0.79    0.80
  -5  -3   3   57.57    4.01
   5  -3  -3   63.92    4.78
   5   3  -3   61.91    4.46
   5  -3  -3   63.37    4.50
  -5  -3   2   12.53    1.45
   5  -3  -2   12.11    1.92
   5   3  -2   13.58    1.30
   5  -3  -1   91.07    6.09
  -5   3   1   86.98    6.03
  -5  -3   1   91.63    5.69
   5   3  -1   89.62    5.53
   5  -3   0   53.43    4.01
   5   3   0   48.76    3.94
   5  -3   0   53.72    4.10
  -5  -3   0   51.98    3.75
   5   3   0   52.88    3.75
   5   3   1   34.00    2.99
   5  -3   1   34.29    3.01
   5  -3   1   36.91    3.16
  -5  -3  -1   37.40    2.96
   5   3   2   17.23    1.95
   5  -3   2   14.52    1.90
   5  -3   2   17.75    2.00
   5   3   3   11.78    1.61
  -5   3  -3    9.47    1.56
  -5   3  -3    9.43    1.51
   5  -3   3    9.21    1.50
   5  -3   3    8.88    1.43
  -5  -3  -3    9.09    1.51
  -5   3  -4   95.32    6.73
   5  -3   4   95.82    6.74
   5   3   4  107.83    6.90
   5  -3   4   96.99    6.68
  -5   3  -4  121.39    6.98
  -5  -3  -4  111.91    6.95
   5  -3   5    2.03    0.89
  -5   3  -5    1.20    0.79
   5   3   5    0.26    0.65
  -5   3  -5    1.59    0.70
   5  -3   5    0.23    0.51
  -5  -3  -5    0.71    0.73
  -5  -3  -6   -0.25    0.96
  -5   3  -6    1.00    0.80
   5   3   6   -0.27    0.92
   5  -3   6    0.54    0.69
  -5   3  -6    1.91    0.90
   5  -3   6    1.39    0.76
   5   3   7    4.72    1.29
  -5   3  -7    5.01    1.30
  -5  -3  -7    2.86    1.17
   5  -3   7    5.26    1.33
  -5   3  -7    3.18    1.26
  -5  -3  -8    8.99    1.63
  -5   3  -8   10.49    1.77
   5   3   8   10.34    1.85
   5  -3   8    6.75    1.63
  -5   3  -8    8.30    1.63
   5   3   9   79.72    6.22
   5  -3   9  101.27    6.65
  -5   3  -9   76.82    5.73
  -5  -3  -9   83.51    5.98
  -5   3  -9   73.25    5.83
  -5  -3 -10   85.60    6.43
   5   3  10   80.62    6.75
   5  -3  10   96.51    7.02
  -5   3 -10  102.05    6.50
  -5   3 -10   88.77    6.50
  -5  -3 -11    5.38    1.49
  -5   3 -11    4.79    1.48
   5   3  11    3.74    1.67
   5  -3  11    3.70    1.69
  -5   3 -11    5.46    1.45
   5   3  12    2.71    1.49
  -5   3 -12    1.69    1.25
  -5  -3 -12    2.68    1.43
   5  -3  12    4.92    1.94
  -5   3 -12    1.41    1.13
  -5   3 -13    3.56    1.67
  -5  -3 -13    6.00    1.73
   5   3  13    2.96    1.79
   5  -3  13    5.84    2.04
  -5   3 -13    3.46    1.34
  -5   3 -14  150.75    9.99
   5   3  14  164.32   11.53
   5  -3  14  164.02   11.41
   5   3  15    8.72    2.50
   5  -3  15    4.02    2.42
  -5   3 -15    9.46    1.94
   5   3  16    4.38    2.39
   5  -3  16    4.95    2.36
  -5   3 -16    4.70    1.55
  -5   3 -17  112.44    7.27
   5   3  17  104.66    8.91
   5  -3  17   82.72    8.31
   5  -3  17  103.73    8.31
   5   3  17   86.59    6.25
   5   3  18   15.66    2.16
   5  -3  18   23.02    4.22
  -5   3 -18   24.39    3.01
   5   3  18   17.48    3.99
   5  -3  18   28.15    4.06
   5  -3  19   10.06    2.90
   5   3  19    5.73    1.27
   5   3  19    7.81    3.13
   5  -3  19    4.62    2.72
   5  -3  20    4.28    2.76
   5   3  20    8.27    3.23
   5  -3  20    4.94    3.14
   5   3  21   10.60    3.58
   5  -3  21   14.83    4.04
   5  -3  21   13.19    3.51
   5  -3  22    0.64    2.51
   5   3  22   -1.88    3.75
   5  -3  22   -7.44    3.87
   5  -3  23    0.65    2.32
  -5   4  25   -0.65    2.60
  -5  -4  24   17.64    3.74
  -5   4  24   11.30    3.32
  -5  -4  23   13.31    3.23
  -5   4  23   19.87    3.60
  -5  -4  22    4.64    2.34
  -5   4  22    9.81    2.62
  -5  -4  21   35.54    4.62
  -5   4  21   34.21    4.65
  -5  -4  20   -0.53    1.75
  -5   4  20   -0.53    2.28
   5   4 -19   23.80    4.27
  -5  -4  19   16.77    3.21
  -5   4  19   20.16    3.35
  -5   4  18    6.72    2.76
   5   4 -18    3.74    2.55
  -5  -4  18    5.35    2.04
  -5   4  18    4.82    1.85
  -5   4  17   26.76    4.22
   5   4 -17   26.01    4.45
  -5  -4  17   34.81    3.92
  -5   4  17   39.06    4.24
  -5   4  16    7.44    2.00
  -5   4  16    7.72    2.59
   5   4 -16    7.36    2.58
  -5  -4  16    7.10    1.92
  -5   4  15   34.06    4.48
   5   4 -15   37.13    5.06
   5   4 -15   35.16    3.62
   5  -4 -15   36.52    3.74
  -5  -4  15   34.01    3.84
  -5   4  15   30.67    3.75
   5   4 -14   75.12    7.15
  -5  -4  14   67.60    5.87
  -5   4  14   76.00    6.14
   5   4 -14   69.85    5.57
   5  -4 -14   77.44    5.74
  -5   4  14   70.61    6.54
   5   4 -13   52.02    6.08
   5  -4 -13   74.54    5.33
   5   4 -13   69.11    5.20
  -5  -4  13   62.98    5.47
  -5   4  13   60.38    5.34
  -5   4  13   65.09    5.99
  -5   4  12   15.15    2.34
  -5  -4  12   22.36    2.75
   5   4 -12   12.08    2.01
   5  -4 -12   12.40    2.20
  -5   4  12   21.61    3.12
  -5  -4  11    9.00    1.95
  -5   4  11   14.17    2.14
   5   4 -11   14.72    2.08
   5  -4 -11   13.92    2.05
  -5   4  11   14.44    2.51
   5   4 -10  103.66    6.89
   5  -4 -10   93.21    6.73
  -5   4  10  118.40    7.94
  -5  -4  10  101.77    7.19
  -5   4  10   96.83    7.07
  -5   4   9   22.07    2.69
   5   4  -9   25.50    2.63
   5  -4  -9   23.32    2.52
  -5  -4   9   26.54    2.85
  -5   4   9   18.10    2.70
   5  -4  -8   26.84    3.08
  -5  -4   8   29.00    2.93
  -5  -4   8   28.48    2.10
  -5   4   8   22.91    2.70
  -5   4   8   28.64    3.25
   5   4  -8   26.86    2.70
   5  -4  -8   23.83    2.59
  -5  -4   7   24.97    2.69
   5   4  -7   19.31    2.29
   5  -4  -7   27.05    2.56
  -5   4   7   23.02    2.56
  -5   4   7   22.31    2.78
  -5  -4   7   20.35    1.78
   5  -4  -7   26.60    2.98
  -5  -4   6  545.77   27.60
  -5   4   6  546.21   29.11
  -5  -4   6  510.77   27.63
   5  -4  -6  530.95   28.25
   5   4  -6  534.77   28.29
   5  -4  -6  454.25   28.78
  -5  -4   5   66.65    4.15
   5   4  -5   69.61    4.68
   5  -4  -5   61.37    4.56
  -5  -4   5   62.95    4.08
   5  -4  -5   56.65    5.01
   5  -4  -4  236.59   13.66
  -5  -4   4  234.95   13.16
   5  -4  -4  284.47   14.80
  -5  -4   4  230.35   13.05
   5   4  -4  241.70   13.69
   5   4  -3   27.02    2.58
  -5  -4   3   26.82    2.23
   5  -4  -3   26.50    2.51
   5  -4  -3   23.65    2.86
   5  -4  -2   11.36    1.79
  -5  -4   2   13.94    1.50
   5  -4  -2    4.06    1.42
   5   4  -2   11.76    1.42
   5   4  -2   11.64    1.61
   5  -4  -1   11.30    1.67
  -5  -4   1   15.58    1.66
   5   4  -1   11.86    1.58
   5   4   0  330.35   18.28
   5  -4   0  334.08   18.50
   5  -4   0  307.61   18.19
   5   4   0  342.49   18.30
   5   4   1    2.59    1.07
   5   4   1    4.71    1.12
   5  -4   1    2.49    0.91
   5  -4   1    4.07    1.07
   5  -4   2   10.09    1.56
   5   4   2    8.19    1.55
   5  -4   2    7.85    1.41
  -5   4  -2    7.85    1.51
   5   4   2   10.94    1.59
  -5   4  -3    0.94    0.78
   5   4   3   -0.23    0.69
   5  -4   3    0.67    0.66
   5  -4   3    0.97    0.87
  -5  -4  -4  145.81    9.22
  -5   4  -4  147.21    9.22
   5   4   4  160.36    9.35
   5  -4   4  141.13    9.14
   5  -4   4  153.60    9.27
  -5   4  -4  152.60    9.26
  -5   4  -5  670.56   34.18
  -5   4  -5  595.60   33.95
  -5  -4  -5  634.30   34.05
   5  -4   5  628.03   34.15
   5  -4   5  627.39   34.05
   5   4   5  656.03   34.23
  -5   4  -6  156.90    9.19
   5  -4   6  151.60    9.25
  -5   4  -6  139.74    8.96
   5   4   6  151.82    9.27
   5  -4   6  130.75    8.85
  -5  -4  -6  140.40    9.01
  -5  -4  -7  172.83   10.72
  -5   4  -7  182.46   10.86
  -5   4  -7  177.61   10.69
   5  -4   7  178.34   10.95
   5   4   7  175.26   10.94
   5  -4   7  169.06   10.59
  -5  -4  -8    1.38    0.91
  -5   4  -8    3.07    1.21
   5   4   8    0.66    0.93
   5  -4   8    1.63    1.08
   5  -4   8    0.26    0.75
  -5   4  -8    1.67    1.08
  -5   4  -9   10.80    1.86
  -5  -4  -9    6.92    1.65
  -5   4  -9    9.02    1.65
   5   4   9    9.58    1.83
   5  -4   9    7.03    1.74
  -5  -4 -10    0.30    1.00
  -5   4 -10   -0.31    1.10
  -5   4 -10    1.66    1.26
   5   4  10    2.31    1.42
   5  -4  10    2.67    1.48
  -5   4 -11   11.58    2.08
  -5   4 -11   13.55    2.15
   5   4  11   11.31    2.39
   5  -4  11   11.20    2.23
  -5  -4 -11   13.05    2.13
  -5   4 -12    5.54    1.61
  -5  -4 -12    0.33    1.21
  -5   4 -12    2.37    1.36
   5   4  12    2.74    1.51
   5  -4  12    7.24    2.04
  -5  -4 -13  276.27   16.06
  -5   4 -13  303.00   16.26
  -5   4 -13  240.70   15.43
   5  -4  13  246.24   16.60
   5   4  13  270.74   16.89
   5   4  14    5.97    2.19
   5  -4  14    5.90    2.26
  -5   4 -14    7.95    1.87
   5   4  15  124.96   10.85
   5  -4  15  143.81   11.13
  -5   4 -16   94.38    6.56
   5   4  16   75.38    7.54
   5  -4  16   72.58    7.44
   5   4  17   -0.13    0.71
  -5   4 -17    0.33    1.39
   5   4  17   -1.36    2.38
   5  -4  17   -3.36    2.21
   5  -4  17    0.62    1.81
  -5   4 -18   -2.34    1.86
   5   4  18   -2.20    2.79
   5  -4  18   -2.17    2.61
   5  -4  18    0.64    2.02
   5  -4  19   24.80    4.33
   5   4  19   22.01    4.56
   5  -4  19   18.62    4.26
   5  -4  20   16.15    3.62
   5   4  20   16.78    4.69
   5  -4  20   14.91    4.52
   5  -4  21    9.69    3.18
   5   4  21    3.59    3.58
   5  -4  21    2.65    3.54
   5  -4  22    0.71    2.34
   5   4  22    1.89    2.78
   5  -4  22    5.59    3.26
   5  -4  23   29.41    5.10
  -5  -5  24  102.82    8.94
  -5   5  24   92.83    8.59
  -5  -5  23    3.66    2.09
  -5   5  23   12.09    3.10
  -5  -5  22    4.67    2.48
  -5   5  22    0.58    1.77
  -5  -5  21    0.56    2.07
  -5   5  21    0.56    1.82
  -5  -5  20   31.11    4.23
  -5   5  20   26.51    3.96
  -5  -5  19    1.02    1.69
  -5   5  19    3.04    1.97
  -5  -5  18   28.87    3.95
  -5   5  18   28.54    3.91
  -5   5  17   -0.62    2.12
  -5  -5  17    1.40    1.43
  -5   5  17   -0.46    1.56
   5   5 -17    1.95    2.14
  -5  -5  16  154.43   11.07
  -5   5  16  160.18   11.16
  -5   5  16  185.04   12.55
   5   5 -16  165.63   12.45
   5   5 -15   49.10    5.96
  -5  -5  15   55.34    5.06
  -5   5  15   47.83    4.85
   5  -5 -15   49.81    5.40
   5   5 -15   50.17    5.68
  -5   5  15   46.86    5.43
   5  -5 -14  190.27   11.91
   5   5 -14  198.73   12.05
  -5   5  14  187.55   12.38
  -5  -5  14  211.40   12.75
  -5   5  14  217.30   13.67
   5   5 -14  161.66   13.30
   5   5 -13   54.54    6.05
  -5   5  13   56.70    4.91
   5   5 -13   55.11    4.56
   5  -5 -13   57.27    4.59
  -5  -5  13   50.46    4.73
  -5   5  13   52.32    5.62
   5   5 -12  292.93   19.93
   5   5 -12  319.62   18.21
   5  -5 -12  310.04   18.10
  -5  -5  12  314.87   18.64
  -5   5  12  313.01   18.60
  -5   5  12  378.69   20.02
  -5   5  11    7.32    1.52
   5   5 -11    2.87    1.84
   5   5 -11    3.72    1.36
   5  -5 -11    6.22    1.52
  -5   5  11    6.88    2.04
  -5  -5  11    4.69    1.30
  -5  -5  10    3.18    1.16
   5   5 -10    4.08    1.26
  -5   5  10    1.75    1.30
   5  -5 -10    5.72    1.35
  -5   5  10    4.09    1.40
  -5  -5   9   26.81    2.91
  -5   5   9   27.98    2.94
   5   5  -9   25.18    2.79
   5  -5  -9   29.89    2.89
  -5   5   9   23.96    3.28
   5  -5  -8   47.45    4.75
  -5  -5   8   52.29    3.21
  -5  -5   8   48.94    4.16
  -5   5   8   44.89    4.59
  -5   5   8   52.46    4.29
   5   5  -8   45.23    3.92
   5  -5  -8   48.47    3.93
   5  -5  -7    5.24    1.60
  -5  -5   7    3.22    1.15
  -5   5   7    7.47    1.55
   5   5  -7    5.83    1.31
  -5  -5   7    7.27    0.93
   5  -5  -7    6.15    1.31
  -5  -5   7    5.14    1.18
  -5   5   7    5.12    1.60
   5  -5  -6  229.85   13.52
   5   5  -6  230.81   13.52
  -5  -5   6  248.65   12.91
  -5   5   6  227.07   14.52
  -5  -5   6  235.75   13.38
   5  -5  -6  225.18   14.61
   5   5  -5  116.20    7.21
   5  -5  -5  118.93    7.22
  -5  -5   5  107.29    6.62
  -5  -5   5  109.98    6.99
   5  -5  -5  125.81    8.45
  -5  -5   4   20.95    1.85
   5   5  -4   17.59    2.07
   5  -5  -4   23.22    2.25
   5  -5  -4   19.78    2.76
  -5  -5   4   17.86    1.98
   5  -5  -3    8.70    1.43
  -5  -5   3    7.39    1.28
   5  -5  -3    7.76    1.63
  -5  -5   3    7.43    1.14
   5  -5  -3    8.64    1.89
   5   5  -3    6.32    1.26
   5  -5  -2  935.93   47.65
   5  -5  -2  878.85   47.04
   5   5  -2  864.33   47.03
   5   5  -2  911.65   47.12
   5  -5  -2  886.23   48.40
   5  -5  -1    0.66    0.67
   5  -5  -1   -0.28    0.74
   5   5  -1    0.22    0.62
   5  -5  -1    0.42    1.06
   5   5  -1   -0.46    0.81
   5  -5   0   58.60    4.43
   5  -5   0   52.31    4.01
   5   5   0   51.69    4.02
   5   5   0   54.48    4.30
   5  -5   1   48.60    3.83
   5  -5   1   53.20    4.20
   5   5   1   52.18    3.92
   5   5   1   46.11    4.08
   5  -5   2  203.29   12.14
   5  -5   2  220.61   12.63
   5   5   2  207.09   12.22
   5   5   2  213.65   12.85
  -5   5  -3   57.20    4.76
   5  -5   3   65.80    4.73
   5   5   3   64.73    4.72
   5  -5   3   73.09    5.11
   5   5   3   68.36    5.39
   5   5   4   34.85    3.68
  -5   5  -4   32.92    3.07
  -5   5  -4   34.26    3.15
   5   5   4   36.42    3.16
   5  -5   4   29.00    3.01
   5  -5   4   32.58    3.02
  -5  -5  -4   36.88    3.19
   5   5   5    1.55    1.28
  -5  -5  -5    1.22    0.86
  -5   5  -5    1.54    0.98
  -5   5  -5    2.47    0.99
   5   5   5    3.59    1.07
   5  -5   5    2.79    1.10
   5  -5   5    2.03    0.94
   5  -5   6   65.99    4.96
  -5   5  -6   64.44    4.87
  -5   5  -6   66.73    4.91
   5   5   6   62.81    4.91
  -5  -5  -6   61.77    4.79
   5  -5   6   61.48    4.81
  -5  -5  -7   19.44    2.46
   5   5   7   24.89    2.78
   5  -5   7   22.11    2.63
   5  -5   7   22.66    2.49
  -5   5  -7   23.55    2.62
  -5   5  -7   23.29    2.61
  -5  -5  -8  375.06   20.99
  -5   5  -8  377.91   20.93
   5   5   8  379.18   21.35
   5  -5   8  407.49   21.50
   5  -5   8  358.70   20.76
  -5   5  -8  348.61   20.85
  -5   5  -9  184.83   11.81
  -5   5  -9  206.05   11.88
  -5  -5  -9  193.22   11.85
   5   5   9  209.69   12.45
   5  -5   9  203.99   12.38
   5  -5   9  175.59   11.56
  -5  -5 -10    4.58    1.42
  -5   5 -10    6.48    1.75
  -5   5 -10    8.35    1.62
   5   5  10    8.56    2.01
   5  -5  10    8.13    1.97
  -5   5 -11  135.86    8.62
  -5  -5 -11  124.53    8.63
  -5   5 -11  136.63    8.79
   5   5  11  119.19    9.11
   5  -5  11  128.28    9.21
  -5   5 -12  252.34   15.18
   5   5  12  248.46   16.21
   5  -5  12  288.07   16.56
  -5   5 -12  243.03   15.47
  -5  -5 -12  274.21   15.68
  -5   5 -13   16.41    2.52
  -5   5 -13   15.84    2.46
   5   5  13   19.72    3.10
   5  -5  13   12.54    2.53
  -5  -5 -13   13.41    2.29
  -5   5 -14    1.82    1.45
   5   5  14    5.50    2.14
   5  -5  14    4.36    1.86
   5   5  15  136.43   11.48
   5  -5  15  148.83   11.72
  -5   5 -16    0.64    1.51
   5  -5  16    5.07    2.47
   5   5  16    1.28    1.89
   5  -5  16    3.28    2.16
   5   5  16    1.55    0.60
  -5   5 -17   14.31    2.46
   5   5  17   22.10    4.20
   5  -5  17   24.60    4.15
   5  -5  17   14.95    3.57
   5  -5  18   13.29    3.31
   5  -5  18   24.21    4.40
  -5   5 -18   25.54    3.08
   5   5  18   20.04    4.22
  -5   5 -19   18.45    2.78
   5   5  19   22.24    4.66
   5  -5  19   21.99    4.56
   5   5  20    0.84    2.95
   5  -5  20   -2.52    3.19
   5  -5  21   30.99    5.20
   5   5  21   35.05    5.93
   5  -5  21   40.87    6.11
   5  -5  22    0.78    2.72
   5   5  22    1.90    3.33
   5  -5  22    0.94    3.29
   5  -5  23    0.79    2.98
  -5  -6  24   39.62    5.38
  -5   6  24   40.55    5.39
  -5  -6  23   13.50    3.61
  -5   6  23   15.20    3.46
  -5  -6  22   -1.76    2.29
  -5   6  22    0.58    2.10
  -5   6  21   24.52    3.95
  -5  -6  21   17.46    3.44
  -5  -6  20   10.79    2.92
  -5   6  20   12.74    2.84
  -5  -6  19    1.54    1.80
  -5   6  19    0.51    1.49
  -5  -6  18   62.57    5.88
  -5   6  18   56.85    5.59
  -5  -6  17   22.76    3.33
  -5   6  17   19.19    3.21
  -5  -6  16  176.57   11.56
  -5   6  16  167.34   11.41
  -5   6  16  158.14   12.38
   5   6 -15   42.86    5.74
  -5   6  15   44.22    4.46
  -5  -6  15   45.10    4.56
   5  -6 -15   40.60    4.98
   5   6 -15   40.45    5.07
  -5   6  15   43.35    5.37
   5   6 -14   31.14    4.92
  -5  -6  14   32.21    3.60
  -5   6  14   29.39    3.48
  -5   6  14   40.68    4.78
   5  -6 -13  168.80   10.09
   5   6 -13  147.29    9.91
  -5  -6  13  169.61   10.64
  -5   6  13  163.69   10.57
  -5   6  13  145.28   11.43
   5   6 -13  150.67   11.97
   5   6 -12   78.89    7.52
   5  -6 -12   83.25    5.83
   5   6 -12   77.83    5.79
  -5   6  12   81.27    7.12
  -5  -6  12   78.75    6.16
  -5   6  12   75.59    6.08
  -5  -6  11   99.17    7.09
   5   6 -11   99.84    8.57
  -5   6  11   98.48    7.04
   5   6 -11   97.35    6.66
   5  -6 -11   88.74    6.51
  -5   6  11  103.33    8.11
   5   6 -10   18.72    3.52
  -5   6  10   28.29    2.91
  -5  -6  10   20.82    2.57
   5   6 -10   20.03    2.44
   5  -6 -10   19.88    2.32
  -5   6  10   17.09    3.09
   5  -6  -9    1.45    1.30
  -5  -6   9    2.02    0.55
  -5  -6   9    0.88    0.87
   5   6  -9    0.58    1.72
  -5   6   9    2.92    1.11
  -5   6   9    0.47    1.65
   5   6  -9    2.71    0.99
   5  -6  -9    3.58    1.08
  -5  -6   8  144.35    9.99
  -5  -6   8  165.95    8.90
  -5   6   8  157.25   10.07
  -5  -6   8  158.02   10.07
  -5   6   8  153.41   11.07
   5   6  -8  169.42   10.00
   5  -6  -8  164.61    9.91
   5  -6  -8  175.60   11.53
  -5  -6   7   44.34    2.95
  -5   6   7   38.73    4.42
  -5  -6   7   41.03    3.67
   5   6  -7   45.45    3.63
   5  -6  -7   51.17    3.74
   5  -6  -7   35.52    4.35
   5   6  -6  154.68    9.82
   5  -6  -6  167.20    9.93
  -5  -6   6  166.64    9.30
  -5  -6   6  158.36   10.08
   5  -6  -5   53.51    4.21
   5   6  -5   60.06    4.34
  -5  -6   5   61.72    3.92
  -5  -6   5   64.00    4.62
   5  -6  -5   51.42    5.26
  -5  -6   4    2.29    1.06
   5   6  -4    2.58    0.95
   5  -6  -4    1.37    0.85
  -5  -6   4    2.85    0.84
   5  -6  -4    0.45    1.22
   5   6  -3  662.26   34.64
   5  -6  -3  621.43   34.55
   5  -6  -3  652.27   35.36
   5  -6  -3  648.48   36.29
  -5  -6   3  672.80   35.03
  -5  -6   2  175.75   10.60
   5  -6  -2  179.73   10.89
   5   6  -2  168.93   10.57
   5   6  -2  166.32   10.14
   5  -6  -2  172.68   11.70
   5  -6  -2  171.75   10.16
   5   6  -1  749.91   42.08
   5  -6  -1  871.87   42.27
   5  -6  -1  800.95   42.73
   5  -6  -1  765.65   43.79
   5   6  -1  781.83   42.57
   5  -6   0   61.07    4.72
   5  -6   0   57.49    4.24
   5   6   0   51.65    4.12
   5   6   0   62.63    4.83
   5  -6   1  165.53    9.40
   5  -6   1  143.73    9.68
   5   6   1  152.96    9.31
   5   6   1  155.74   10.04
   5  -6   2    7.09    1.55
   5   6   2    6.44    1.32
   5  -6   2   10.40    1.50
   5   6   2    5.56    1.55
   5  -6   3  425.72   22.90
   5  -6   3  409.30   23.25
   5   6   3  405.10   22.85
   5   6   3  433.51   23.98
   5   6   4    0.40    1.22
   5   6   4    2.63    1.04
   5  -6   4    2.87    0.94
   5  -6   4    2.52    1.07
  -5   6  -4    2.43    1.02
  -5   6  -5  425.20   22.69
  -5  -6  -5  381.81   22.41
  -5   6  -5  451.28   22.68
   5   6   5  407.66   22.47
   5  -6   5  410.51   22.48
   5  -6   5  363.30   22.45
   5   6   5  409.04   23.67
  -5  -6  -6   90.88    6.03
  -5   6  -6   83.66    5.91
   5   6   6   87.48    6.07
   5  -6   6   77.60    5.93
   5  -6   6   78.11    5.92
  -5   6  -6   86.38    6.12
   5   6   6   86.55    7.16
   5   6   7  198.51   13.43
   5  -6   7  216.87   12.43
  -5  -6  -7  200.70   12.06
   5   6   7  221.04   12.49
   5  -6   7  194.75   12.05
  -5   6  -7  184.48   12.01
  -5   6  -7  196.09   12.06
   5   6   8   52.45    5.65
  -5   6  -8   56.99    4.54
  -5  -6  -8   52.14    4.42
  -5   6  -8   56.43    4.51
   5   6   8   52.09    4.62
   5  -6   8   61.20    4.86
   5  -6   8   48.76    4.26
   5   6   9  311.97   19.34
  -5   6  -9  320.20   17.53
  -5  -6  -9  304.98   17.57
  -5   6  -9  288.07   17.44
   5   6   9  293.11   17.84
   5  -6   9  303.99   17.34
   5  -6   9  301.63   17.91
  -5   6 -10    2.92    1.51
  -5  -6 -10    2.77    1.45
  -5   6 -10   -0.31    1.32
   5   6  10    1.57    1.42
   5  -6  10    0.39    1.37
  -5   6 -11  101.28    7.25
  -5  -6 -11  107.66    7.47
  -5   6 -11  101.42    7.43
   5   6  11  118.88    8.23
   5  -6  11  100.94    7.90
  -5  -6 -12   83.31    6.48
  -5   6 -12   89.73    6.63
  -5   6 -12   92.96    6.44
   5   6  12   84.18    7.12
   5  -6  12   75.82    6.89
  -5   6 -13  400.79   23.68
   5   6  13  408.71   24.72
   5  -6  13  421.43   24.75
  -5  -6 -13  409.68   23.79
  -5   6 -13  442.81   23.55
   5   6  14    1.12    1.71
  -5   6 -14    1.87    1.43
   5  -6  14    1.11    1.63
   5   6  15  121.30    8.85
   5  -6  15   96.13    8.18
   5   6  15   80.30    5.01
  -5   6 -15  119.75    7.10
  -5   6 -16   12.54    2.32
   5   6  16   10.99    3.03
   5  -6  16   16.19    3.59
   5  -6  16   17.35    3.80
  -5   6 -17    1.96    1.47
   5   6  17   -0.70    2.22
   5  -6  17    1.40    2.30
   5  -6  17   -0.74    2.09
   5  -6  18    3.81    2.59
  -5   6 -18    3.30    1.75
   5  -6  18    0.75    2.70
   5   6  18    0.75    2.77
   5  -6  19    6.26    3.06
  -5   6 -19    6.33    1.77
   5   6  19    4.80    2.82
   5  -6  19    4.77    3.03
   5  -6  20   17.66    4.22
   5   6  20   16.25    4.49
   5  -6  20   13.58    4.03
   5  -6  21   48.48    6.57
   5   6  21   40.58    6.41
   5  -6  21   39.67    6.55
   5  -6  22   12.63    4.03
   5   6  22   19.05    5.03
   5  -6  22    8.51    4.14
   5  -6  23   34.09    5.73
   5  -6  24   11.86    4.47
  -5  -7  24   10.83    3.34
  -5   7  24   11.33    3.12
  -5  -7  23   -3.67    2.80
  -5   7  23    0.60    2.05
  -5  -7  22    8.22    2.86
  -5   7  22    9.85    2.86
  -5  -7  21    2.25    1.91
  -5   7  21   -2.76    2.25
  -5  -7  20    1.61    2.03
  -5   7  20   -0.53    1.74
  -5  -7  19   79.61    7.37
  -5   7  19   96.62    7.66
  -5  -7  18    8.26    2.36
  -5   7  18    5.71    2.05
  -5  -7  17   22.52    3.47
  -5   7  17   19.38    3.00
  -5  -7  16   59.25    5.57
  -5   7  16   61.50    5.56
  -5  -7  15    3.67    1.57
  -5   7  15    9.62    2.00
   5  -7 -15    3.11    2.03
   5   7 -15    3.20    2.28
  -5   7  15    7.72    2.80
  -5  -7  14    3.09    1.68
   5  -7 -14    0.49    1.82
   5   7 -14    1.52    1.88
  -5   7  14    1.92    1.42
  -5   7  14    1.24    1.83
   5  -7 -13   62.60    4.97
   5   7 -13   74.22    5.27
  -5   7  13   64.44    6.53
  -5  -7  13   66.51    5.52
  -5   7  13   52.67    5.13
  -5   7  12   73.60    5.78
   5  -7 -12   71.17    5.24
   5   7 -12   69.53    5.26
  -5   7  12   67.68    6.72
   5   7 -12   60.12    6.92
  -5  -7  12   67.72    5.63
   5  -7 -11    0.25    1.04
   5   7 -11    2.08    1.19
  -5  -7  11    0.33    1.09
  -5   7  11   -0.33    1.11
   5   7 -11   -0.66    1.87
  -5   7  11   -0.56    1.83
   5  -7 -10   27.62    4.14
   5   7 -10   36.86    5.08
  -5  -7  10   39.31    3.64
   5   7 -10   38.62    3.45
   5  -7 -10   33.56    3.27
  -5   7  10   40.00    3.69
  -5   7  10   40.96    4.88
   5  -7  -9  140.67   10.41
   5   7  -9  132.84   10.76
  -5  -7   9  140.43    7.45
  -5  -7   9  139.73    9.25
   5   7  -9  132.12    8.50
   5  -7  -9  132.01    8.46
  -5   7   9  124.87   10.03
  -5  -7   9  135.35    8.83
  -5   7   9  132.53    8.84
   5  -7  -8   25.33    3.81
  -5  -7   8   29.87    3.15
   5   7  -8   31.22    4.58
   5   7  -8   29.99    2.93
   5  -7  -8   29.78    2.94
  -5   7   8   36.56    4.53
  -5  -7   8   29.70    3.31
  -5  -7   8   35.09    2.29
   5  -7  -7    7.47    2.26
   5  -7  -7    8.21    1.48
   5   7  -7    9.55    2.47
   5   7  -7    7.00    1.40
  -5  -7   7    8.13    1.04
  -5   7   7    8.67    2.48
  -5  -7   7    9.51    1.85
   5  -7  -6   87.85    5.62
  -5  -7   6   82.90    5.10
  -5  -7   6   77.88    6.06
   5  -7  -6   83.35    7.22
   5   7  -6   80.96    5.58
   5   7  -5    2.43    0.87
   5  -7  -5    2.77    0.99
   5  -7  -5    1.56    1.40
   5   7  -4  323.32   18.06
   5  -7  -4  324.68   18.04
   5  -7  -4  293.74   19.80
  -5  -7   4  360.67   19.07
  -5  -7   3    7.04    1.61
   5  -7  -3    8.48    1.71
   5   7  -3    9.90    1.44
   5  -7  -3   10.97    2.42
   5  -7  -3    6.40    1.28
   5  -7  -2  299.01   17.36
   5  -7  -2  309.09   18.06
   5   7  -2  317.66   17.29
   5  -7  -2  299.46   17.18
   5  -7  -2  321.78   19.42
  -5  -7   2  337.63   18.30
   5  -7  -1   15.56    2.26
  -5  -7   1   16.13    2.42
   5  -7  -1   19.17    1.99
   5   7  -1   17.31    1.97
   5  -7  -1   16.16    1.90
   5   7  -1   17.55    1.95
   5   7  -1   14.59    2.42
   5  -7  -1   15.39    2.91
   5   7   0   14.73    1.70
   5  -7   0   12.87    2.05
   5  -7   0    8.76    2.40
   5  -7   0   11.25    1.60
   5   7   0    8.48    1.96
   5  -7   1   13.03    1.74
   5  -7   1   11.42    1.99
   5   7   1   18.97    1.93
   5   7   1   12.99    2.34
   5   7   2    3.17    1.03
   5  -7   2    3.79    1.03
   5  -7   2    5.44    1.40
   5   7   2    4.31    1.54
   5  -7   3   31.78    2.80
   5  -7   3   31.30    3.22
   5   7   3   24.79    2.60
   5   7   3   29.49    3.60
   5   7   4  210.54   12.23
   5  -7   4  199.40   12.56
   5   7   4  215.71   13.60
   5  -7   4  206.67   12.18
  -5  -7  -5   39.84    3.56
  -5   7  -5   37.01    3.52
   5   7   5   46.52    3.68
   5  -7   5   45.50    3.66
   5  -7   5   39.16    3.73
   5   7   5   38.71    4.45
  -5  -7  -6  227.32   13.63
  -5   7  -6  229.35   13.66
   5   7   6  241.32   13.88
   5  -7   6  227.06   13.76
   5  -7   6  248.96   13.99
   5   7   6  224.78   15.08
   5   7   7    2.09    1.66
  -5  -7  -7    1.60    1.24
   5   7   7   -0.61    1.07
   5  -7   7   -0.56    1.04
  -5   7  -7   -0.27    1.10
  -5   7  -8  192.28   11.31
  -5   7  -8  178.73   11.09
   5   7   8  181.40   11.41
   5  -7   8  180.24   11.41
   5  -7   8  168.76   10.95
  -5  -7  -8  177.82   11.05
   5   7   8  182.41   12.82
   5   7   9   24.74    4.17
  -5   7  -9   34.56    3.57
   5   7   9   32.07    3.59
  -5  -7  -9   41.87    3.76
  -5   7  -9   43.63    3.88
   5  -7   9   35.55    3.77
   5  -7   9   38.63    3.50
   5   7  10   36.76    4.98
  -5   7 -10   40.88    3.80
  -5  -7 -10   32.38    3.51
  -5   7 -10   35.11    3.69
   5   7  10   31.41    3.77
   5  -7  10   43.74    4.23
   5  -7  10   39.79    3.61
   5   7  11  146.97   11.87
  -5   7 -11  133.37    9.78
  -5  -7 -11  162.14   10.13
   5   7  11  184.85   11.09
   5  -7  11  162.52   10.79
  -5   7 -11  146.94    9.83
   5   7  12   26.06    2.86
  -5  -7 -12   28.02    3.34
   5   7  12   37.59    4.28
  -5   7 -12   34.01    3.65
   5  -7  12   31.64    4.03
   5   7  13   12.62    1.81
  -5  -7 -13   16.39    2.63
  -5   7 -13   12.58    2.43
   5   7  13   18.17    3.20
   5  -7  13   14.65    3.07
  -5   7 -13   14.58    2.39
  -5   7 -14   81.20    5.86
   5   7  14   73.88    6.86
   5  -7  14   80.09    7.05
   5   7  14   65.50    4.37
  -5   7 -15   25.55    3.11
   5   7  15   19.39    3.67
   5  -7  15   18.98    3.78
   5  -7  15   26.83    4.79
  -5   7 -16   28.80    3.43
   5   7  16   30.15    4.54
   5  -7  16   29.15    4.75
   5  -7  16   34.02    5.54
   5  -7  17    4.06    2.84
  -5   7 -17    1.65    1.66
   5   7  17    2.11    2.40
   5  -7  17    2.84    2.49
   5  -7  18   55.57    7.14
  -5   7 -18   55.99    5.10
   5   7  18   60.36    7.06
   5  -7  18   65.50    7.38
   5  -7  19   -0.85    2.80
   5   7  19    0.81    2.91
   5  -7  19   -0.81    2.91
   5  -7  20    0.87    2.86
   5   7  20   -0.86    3.08
   5  -7  20    0.86    3.02
   5  -7  21   16.01    4.32
   5   7  21   15.40    4.53
   5  -7  21    8.16    3.74
   5  -7  22    5.45    3.55
   5   7  22    8.49    4.10
   5  -7  23   22.04    5.06
   5  -7  24   -0.91    3.19
  -5   8  24    0.62    2.48
  -5  -8  24    1.90    2.40
  -5   8  23    7.18    2.89
  -5  -8  23    6.07    2.60
  -5  -8  22   11.06    3.04
  -5   8  22    6.27    2.60
  -5   8  21    5.46    2.15
  -5  -8  21    6.68    2.48
  -5   8  20    6.23    2.31
  -5  -8  20    6.35    2.44
  -5  -8  19   59.74    5.86
  -5   8  19   51.75    5.56
  -5   8  18   20.55    3.31
  -5  -8  18   22.37    3.53
  -5  -8  17   40.89    4.60
  -5   8  17   37.67    4.31
  -5  -8  16   45.93    4.64
  -5   8  16   42.65    4.50
   5  -8 -15   26.71    4.00
   5   8 -15   29.76    4.39
  -5  -8  15   33.35    3.80
  -5   8  15   36.41    4.01
  -5   8  14   12.81    2.22
   5  -8 -14    7.23    2.42
   5   8 -14    6.03    2.33
  -5  -8  14    5.05    1.88
  -5   8  13   53.82    4.79
   5  -8 -13   44.88    4.97
   5   8 -13   48.95    5.30
  -5   8  13   55.21    6.13
  -5  -8  13   50.18    4.79
   5  -8 -12    5.17    1.50
   5   8 -12    3.52    1.39
  -5  -8  12    3.13    1.55
  -5   8  12    5.85    1.84
  -5   8  12    2.51    2.14
  -5  -8  11   11.68    2.06
  -5   8  11   10.97    1.96
   5  -8 -11   11.69    1.89
   5   8 -11    8.93    1.78
  -5   8  11   10.29    2.96
   5  -8 -10   86.27    8.15
   5  -8 -10  109.32    6.69
  -5  -8  10   99.05    6.96
  -5  -8  10   90.14    7.38
  -5   8  10   96.91    8.42
   5   8 -10  103.98    6.70
  -5   8  10  101.67    7.02
   5   8 -10   84.22    8.56
   5  -8  -9    1.22    1.73
  -5   8   9    3.77    1.38
   5   8  -9    1.34    2.14
  -5  -8   9    3.21    0.67
   5   8  -9    6.69    1.34
   5  -8  -9    4.61    1.26
  -5  -8   9    0.79    1.46
  -5   8   9    4.63    2.21
  -5  -8   9    4.08    1.34
   5  -8  -8   -0.60    1.70
   5   8  -8    3.96    2.57
  -5  -8   8    0.80    0.57
  -5   8   8   -2.86    2.00
  -5  -8   8    0.38    1.16
   5   8  -8    0.67    1.00
   5  -8  -8    0.21    0.88
  -5  -8   7  593.92   30.37
  -5   8   7  541.06   33.18
   5   8  -7  603.56   31.15
   5  -8  -7  602.46   31.09
  -5  -8   7  549.18   32.00
   5  -8  -7  479.19   33.04
  -5  -8   6  124.93    8.73
   5   8  -6  129.15    7.81
   5  -8  -6  114.46    9.64
   5  -8  -6  124.82    7.72
   5   8  -5    2.42    1.94
   5   8  -5    6.30    1.26
   5  -8  -5    6.08    1.23
  -5  -8   5    5.96    1.67
   5  -8  -5    4.69    2.01
   5   8  -4    6.73    1.33
   5  -8  -4    8.10    2.17
   5  -8  -4    5.27    1.13
   5   8  -4    7.67    2.58
  -5  -8   4    7.19    1.76
  -5  -8   3    2.69    1.23
   5   8  -3    4.59    2.13
   5  -8  -3    2.54    0.91
   5   8  -3    2.99    0.92
   5  -8  -3    4.66    1.98
  -5  -8   2    1.17    1.06
   5   8  -2    3.98    1.02
   5   8  -2    2.95    0.89
   5   8  -2    3.33    1.95
   5  -8  -2    3.19    0.84
   5  -8  -2    4.78    0.96
   5  -8  -2    1.76    1.66
   5  -8  -2    2.04    1.13
  -5  -8   1  244.63   14.97
   5   8  -1  224.02   15.54
   5  -8  -1  215.86   14.32
   5   8  -1  244.49   13.66
   5  -8  -1  245.73   13.67
   5   8  -1  226.09   13.52
   5   8  -1  271.26   15.19
   5  -8  -1  225.64   15.83
   5  -8  -1  257.08   13.68
  -5  -8   0  154.03    9.99
   5  -8   0  149.21    9.46
   5  -8   0  128.15    8.40
   5   8   0  126.50   10.10
   5   8   0  142.45    8.56
   5  -8   0  143.39   10.83
   5   8   0  154.64    9.98
   5   8   1   10.75    1.53
   5  -8   1    7.89    1.77
   5  -8   1    8.69    1.43
   5  -8   1   14.32    2.89
   5   8   1    8.89    2.09
   5  -8   2  154.46    9.63
   5   8   2  160.89    9.69
   5  -8   2  169.51   10.48
   5   8   2  169.17   11.24
   5   8   3   22.28    2.33
   5  -8   3   23.81    2.39
   5  -8   3   24.09    2.79
   5   8   3   16.93    2.99
   5   8   4  260.19   14.76
   5  -8   4  247.78   14.68
   5  -8   4  265.01   15.37
   5   8   4  257.51   16.34
   5  -8   5  131.09    9.07
   5  -8   5  141.82    8.85
   5   8   5  145.39    8.89
   5   8   5  138.70   10.30
   5   8   6    8.57    2.31
  -5   8  -6   12.66    1.99
   5   8   6   12.76    1.94
   5   8   6   11.29    2.43
   5  -8   6   13.37    2.07
   5  -8   6   14.16    2.15
  -5  -8  -6   12.49    1.90
   5   8   7   30.94    4.52
   5   8   7   42.42    4.40
  -5   8  -7   37.16    3.54
   5  -8   7   41.38    3.80
   5   8   7   45.33    3.92
  -5  -8  -7   33.56    3.45
   5  -8   7   44.25    3.87
   5   8   8   86.91    6.42
  -5   8  -8   72.55    5.73
   5   8   8   84.04    6.24
   5  -8   8   76.16    5.87
  -5  -8  -8   75.87    5.77
   5  -8   8   80.68    6.18
   5   8   8   95.20    7.90
   5   8   9   24.87    4.06
   5   8   9   20.87    2.86
   5   8   9   20.54    2.90
   5  -8   9   19.81    2.86
  -5   8  -9   23.45    2.78
   5  -8   9   18.70    2.51
  -5  -8  -9   21.16    2.75
   5   8  10    3.27    2.29
  -5  -8 -10    2.80    1.38
  -5   8 -10    1.57    1.42
   5   8  10    2.73    1.46
   5   8  10    1.61    1.24
   5  -8  10    5.35    1.85
   5  -8  10    2.03    1.24
  -5  -8 -11   64.94    5.20
   5   8  11   61.78    5.66
   5  -8  11   63.02    5.76
  -5   8 -11   62.00    5.17
   5  -8  11   53.12    4.75
   5   8  11   58.51    4.73
  -5  -8 -12   42.91    4.27
  -5   8 -12   50.58    4.51
   5   8  12   52.45    5.12
   5  -8  12   46.81    5.05
   5   8  12   41.38    3.69
   5   8  13   26.23    3.85
   5  -8  13   21.33    3.75
  -5  -8 -13   22.95    3.23
   5   8  13   18.90    2.11
  -5   8 -14   22.71    3.02
   5   8  14   18.22    3.60
   5  -8  14   22.99    4.01
   5  -8  14   28.41    4.81
  -5   8 -15   38.55    4.17
   5   8  15   41.93    5.32
   5  -8  15   44.20    5.44
   5  -8  15   44.44    6.24
   5  -8  16   13.76    3.81
  -5   8 -16    7.36    1.95
   5   8  16    4.65    3.01
   5  -8  16    8.70    3.09
  -5   8 -17  103.51    7.47
   5   8  17   94.72    9.14
   5  -8  17   88.37    9.01
   5  -8  18   21.61    4.88
   5   8  18   18.96    4.29
   5  -8  18   19.29    4.41
   5  -8  19   47.03    6.95
   5   8  19   46.27    6.56
   5  -8  19   51.56    6.83
   5  -8  20   10.35    3.86
   5   8  20    5.98    3.35
   5  -8  20    9.54    3.63
   5  -8  21   -1.92    3.15
   5   8  21    0.90    2.95
   5  -8  21    0.90    2.66
   5  -8  22   17.61    4.92
   5  -8  23   -0.98    3.44
   5  -8  24    6.85    3.82
  -5   9  24   28.42    4.47
  -5  -9  23    4.15    2.43
  -5   9  23    5.81    2.89
  -5  -9  22    0.57    1.99
  -5   9  22    3.90    2.27
  -5  -9  21    2.16    2.00
  -5   9  21    0.53    1.75
  -5  -9  20   26.81    4.14
  -5   9  20   37.12    4.48
  -5  -9  19   11.28    2.89
  -5   9  19   17.93    3.14
  -5  -9  18  198.24   13.10
  -5   9  18  191.34   12.98
  -5  -9  17    1.79    2.01
  -5   9  17    1.78    1.82
  -5  -9  16    1.28    1.49
  -5   9  16    0.43    1.45
   5   9 -15   45.14    5.07
   5  -9 -15   40.39    4.86
  -5  -9  15   49.01    4.71
  -5   9  15   48.59    4.74
  -5  -9  14  187.06   11.85
  -5   9  14  174.44   11.67
   5  -9 -14  175.42   12.22
   5   9 -14  183.57   12.48
   5  -9 -13    2.23    1.75
  -5  -9  13    1.81    1.61
   5   9 -13    2.82    2.04
  -5   9  13    6.11    1.81
  -5  -9  12    6.43    1.73
  -5   9  12    6.07    1.78
   5  -9 -12    6.76    2.24
   5   9 -12    8.42    2.28
  -5  -9  11    5.11    1.39
   5  -9 -11    1.91    1.24
   5   9 -11    2.52    1.26
  -5  -9  11    0.48    1.41
  -5   9  11    4.61    2.56
  -5   9  11    6.06    1.59
   5  -9 -10   -0.68    1.92
   5  -9 -10    0.45    1.02
   5   9 -10    0.47    1.14
  -5  -9  10   -0.30    1.12
  -5  -9  10    2.29    1.82
  -5   9  10   -0.65    2.12
  -5   9  10    0.91    1.06
   5   9  -9  263.84   14.91
   5  -9  -9  262.72   14.85
  -5  -9   9  252.39   13.85
  -5   9   9  271.12   17.57
  -5  -9   9  276.04   16.40
   5  -9  -9  283.62   17.97
   5  -9  -8    5.33    2.29
  -5  -9   8    7.63    1.08
  -5   9   8    2.52    2.24
   5   9  -8    7.48    1.47
   5  -9  -8    6.85    1.32
  -5  -9   8    5.71    1.93
   5  -9  -7    0.67    1.70
  -5  -9   7    1.34    0.79
  -5  -9   7    0.43    1.38
   5   9  -7    2.05    1.10
   5  -9  -7    3.51    1.16
   5   9  -6  233.15   13.43
   5  -9  -6  245.71   13.42
  -5  -9   6  213.02   14.61
   5  -9  -6  253.64   16.50
   5   9  -6  227.67   16.14
  -5  -9   5  284.80   17.83
   5  -9  -5  285.74   19.06
   5   9  -5  288.71   16.26
   5  -9  -5  310.09   16.31
   5   9  -5  271.14   18.92
   5   9  -4   58.41    4.14
   5  -9  -4   57.52    4.13
   5  -9  -4   50.45    5.96
  -5  -9   4   65.72    5.60
   5   9  -4   53.32    6.16
   5  -9  -3   32.82    3.06
   5   9  -3   45.30    3.38
   5   9  -3   36.99    5.04
   5   9  -3   39.07    3.11
   5  -9  -3   38.93    3.09
   5  -9  -3   34.89    4.73
  -5  -9   3   36.17    4.19
   5   9  -2   46.58    5.35
   5   9  -2   37.06    3.21
   5  -9  -2   42.69    3.27
   5   9  -2   43.68    3.23
   5  -9  -2   40.71    4.05
   5  -9  -2   47.42    5.37
   5  -9  -2   34.33    3.03
  -5  -9   2   46.82    4.73
   5   9  -1  105.12    9.10
   5   9  -1  123.73    7.24
   5   9  -1  114.21    7.17
   5  -9  -1  119.41    7.20
   5  -9  -1  109.02    8.06
   5  -9  -1  117.56    7.17
   5  -9  -1  111.62    9.50
  -5  -9   1  111.73    8.62
  -5  -9   0    7.95    2.09
   5   9   0    6.71    2.58
   5   9   0    7.70    1.25
   5  -9   0    5.20    1.10
   5  -9   0    6.69    1.25
   5   9   0    9.70    2.28
   5  -9   0    5.23    1.61
   5  -9   0    7.28    2.48
   5   9   0    9.57    1.35
   5   9   1   47.93    5.44
   5  -9   1   47.65    4.43
   5  -9   1   49.32    3.74
   5   9   1   46.84    3.70
   5  -9   1   53.48    6.09
   5   9   1   63.37    5.60
   5   9   2    8.82    2.59
   5  -9   2    6.46    1.71
   5   9   2    5.86    1.21
   5  -9   2    4.67    1.18
   5  -9   2    6.96    2.45
   5   9   2    4.43    2.02
   5   9   3    3.49    2.25
   5   9   3    2.98    1.02
   5  -9   3    4.69    1.51
   5  -9   3    3.02    1.05
   5   9   3    4.06    1.94
   5   9   4    0.48    1.58
   5  -9   4    2.59    1.10
   5   9   4    2.79    1.09
   5  -9   4    1.98    1.23
   5   9   4    4.75    2.15
   5   9   5    0.92    1.79
   5  -9   5    2.62    1.16
   5  -9   5    2.66    1.56
   5   9   5    3.61    1.25
   5   9   5    4.91    2.18
   5  -9   6   97.82    6.66
   5   9   6   88.83    6.15
   5  -9   6   77.46    6.01
   5   9   6   74.52    7.42
   5   9   6   84.15    6.98
  -5  -9  -7   33.10    3.14
   5   9   7   25.43    3.45
  -5   9  -7   31.96    3.12
   5  -9   7   27.00    2.99
   5   9   7   22.93    2.86
   5  -9   7   21.32    2.92
   5   9   7   24.08    4.02
   5   9   8   22.11    4.07
  -5  -9  -8   26.83    2.98
   5   9   8   26.30    3.37
  -5   9  -8   24.01    2.90
   5   9   8   30.27    3.31
   5  -9   8   28.31    3.29
   5  -9   8   30.49    3.20
  -5  -9  -9   45.44    4.28
  -5   9  -9   45.11    4.26
   5   9   9   52.99    4.76
   5  -9   9   52.70    4.84
   5  -9   9   52.90    4.41
   5   9   9   54.74    4.80
   5   9  10   21.87    2.95
  -5  -9 -10   23.39    2.92
  -5   9 -10   27.23    3.12
   5   9  10   22.47    3.17
   5  -9  10   24.30    3.24
   5  -9  10   19.79    2.65
  -5  -9 -11    9.44    2.02
   5   9  11    7.13    1.70
  -5   9 -11    4.92    1.96
   5   9  11    7.16    2.16
   5  -9  11   13.33    2.68
   5  -9  11   12.51    2.02
  -5  -9 -12    4.12    1.78
  -5   9 -12    7.24    1.97
   5   9  12    5.83    2.09
   5  -9  12    3.01    1.93
   5  -9  12    9.09    1.86
   5   9  12    7.25    1.49
   5  -9  13    5.97    2.32
   5   9  13   15.34    3.09
   5  -9  13   16.27    4.15
   5   9  14   90.68    7.91
   5  -9  14   82.02    7.84
   5  -9  14   92.98    9.46
   5   9  15   53.92    6.00
   5  -9  15   49.56    5.93
   5  -9  15   40.85    6.32
   5  -9  16    0.93    2.74
   5   9  16    3.33    2.83
   5  -9  16    7.52    3.02
   5  -9  17   21.90    5.05
   5   9  17   19.36    4.29
   5  -9  17   28.42    4.61
   5   9  18    6.86    3.30
   5  -9  18   13.26    3.91
   5  -9  19   60.58    8.08
   5   9  19   73.64    8.04
   5  -9  19   63.38    7.69
   5   9  20    3.38    2.88
   5  -9  20    0.86    2.92
   5  -9  20    3.04    3.44
   5  -9  21   -1.03    3.04
   5   9  21   -0.88    4.10
   5  -9  21   -0.90    3.88
   5  -9  22   15.70    5.32
  -5  10  23   -0.57    2.58
  -5 -10  23   -1.74    2.55
  -5 -10  22    2.77    2.11
  -5  10  22    2.21    2.10
  -5 -10  21    8.52    2.65
  -5  10  21   12.72    2.89
  -5 -10  20    2.04    1.74
  -5  10  20    1.02    1.78
  -5 -10  19    4.39    2.28
  -5  10  19    4.39    2.00
  -5 -10  18   22.88    3.55
  -5  10  18   24.83    3.56
  -5 -10  17    3.58    1.86
  -5  10  17    1.33    1.77
  -5 -10  16    1.27    1.72
  -5  10  16    3.37    1.61
  -5 -10  15    6.39    2.00
   5 -10 -15    0.91    2.23
   5  10 -15    5.79    2.50
  -5  10  15    7.18    2.18
  -5 -10  14   34.80    3.86
   5 -10 -14   29.38    4.09
   5  10 -14   29.38    4.14
  -5 -10  13   77.71    6.03
   5 -10 -13   62.66    6.16
   5  10 -13   81.19    6.86
  -5  10  13   75.09    5.95
  -5  10  12    4.00    1.59
   5 -10 -12    2.46    1.68
   5  10 -12    3.03    2.06
  -5 -10  12    6.31    1.66
  -5 -10  12    3.25    1.90
   5 -10 -11   95.94    9.33
  -5 -10  11  104.72    7.40
  -5  10  11  127.27    7.79
   5 -10 -11   93.96    7.69
   5  10 -11  110.56    8.12
  -5 -10  11   98.31    8.39
   5 -10 -10    2.24    2.20
  -5 -10  10    0.45    0.37
   5 -10 -10    1.52    1.07
   5  10 -10    2.33    1.15
  -5 -10  10   -0.51    1.68
   5 -10  -9   98.46    6.39
   5  10  -9   87.90    6.36
  -5 -10   9  102.03    5.69
  -5 -10   9   95.61    7.93
   5 -10  -9  115.25    9.61
   5 -10  -8   15.38    3.50
   5 -10  -8   16.83    1.99
   5  10  -8   15.61    1.99
  -5 -10   8   14.84    1.55
  -5 -10   8   16.48    2.92
   5 -10  -7    5.12    2.46
   5  10  -7   10.12    1.61
   5 -10  -7   10.69    1.52
  -5 -10   7   10.82    2.52
   5 -10  -6    1.45    1.95
   5  10  -6    2.99    1.09
   5 -10  -6    3.17    1.02
  -5 -10   6    2.45    1.51
   5  10  -5  177.40   10.69
   5 -10  -5  192.08   10.70
  -5 -10   5  196.91   12.82
   5 -10  -5  173.47   13.54
   5  10  -5  180.14   13.57
   5 -10  -4   90.55    5.51
   5 -10  -4   86.50    8.05
  -5 -10   4   82.52    7.00
   5  10  -4   72.37    5.14
   5 -10  -4   79.39    5.16
   5  10  -4   62.29    7.23
   5  10  -3  147.40    9.01
   5 -10  -3  155.23    9.02
   5 -10  -3  147.77    9.10
   5 -10  -3  174.13   12.61
   5  10  -3  154.05    9.22
  -5 -10   3  169.45   11.37
   5  10  -3  172.83   12.22
   5 -10  -2   38.91    4.03
   5  10  -2   37.71    3.13
   5  10  -2   39.01    5.25
   5 -10  -2   40.63    3.17
   5  10  -2   43.43    3.21
   5 -10  -2   42.14    3.15
   5 -10  -2   30.95    4.94
  -5 -10   2   42.97    4.82
   5 -10  -1   81.09    6.56
   5  10  -1   88.81    5.55
   5 -10  -1   78.66    5.40
   5  10  -1   90.41    5.53
   5 -10  -1   83.47    8.09
   5 -10  -1   89.84    5.54
   5  10  -1   74.68    7.54
  -5 -10   1   83.90    7.31
  -5 -10   0   26.98    4.00
   5  10   0   28.44    4.32
   5  10   0   29.91    2.60
   5 -10   0   32.14    3.49
   5  10   0   31.76    2.59
   5 -10   0   26.01    2.54
   5  10   0   26.68    3.96
   5 -10   0   31.52    2.58
   5 -10   0   27.43    4.50
   5 -10   1   23.82    2.32
   5  10   1   27.25    2.52
   5  10   1   27.02    2.46
   5 -10   1   28.84    3.27
   5  10   1   20.05    3.78
   5  10   1   29.69    3.96
   5 -10   1   21.30    4.20
   5  10   2   33.68    4.52
   5 -10   2   32.67    2.74
   5 -10   2   28.30    3.31
   5  10   2   28.31    2.66
   5 -10   2   19.49    3.99
   5  10   2   27.52    4.08
   5 -10   3   65.64    5.74
   5  10   3   80.04    5.22
   5 -10   3   75.54    5.19
   5 -10   3   89.24    8.31
   5  10   3   63.80    6.77
   5  10   3   76.73    6.88
   5 -10   4  299.65   17.76
   5  10   4  316.68   17.09
   5 -10   4  301.75   17.04
   5  10   4  284.61   19.14
   5  10   4  291.46   18.72
   5 -10   5  292.46   17.64
   5  10   5  286.95   16.98
   5 -10   5  295.57   17.06
   5  10   5  324.98   19.60
   5  10   5  324.47   18.75
   5 -10   6  111.20    7.70
   5  10   6  107.79    7.29
   5 -10   6   99.97    7.22
   5  10   6  110.76    9.15
   5  10   6  109.57    8.35
   5  10   7    2.55    1.77
   5  10   7    0.92    1.25
   5 -10   7    1.59    1.29
   5 -10   7    0.34    1.18
   5  10   7    0.63    2.02
   5  10   8   10.65    2.40
  -5 -10  -8   16.26    2.29
  -5  10  -8   14.41    2.21
   5  10   8   19.62    2.61
   5 -10   8   15.15    2.41
   5 -10   8   17.82    2.55
   5  10   9   20.97    3.11
  -5 -10  -9   21.98    2.88
  -5  10  -9   24.04    2.94
   5  10   9   28.04    3.47
   5 -10   9   31.44    3.26
   5 -10   9   29.34    3.46
  -5 -10 -10  125.35    8.22
   5  10  10  130.12    8.85
   5 -10  10  127.43    8.89
   5 -10  10  127.02    8.22
  -5  10 -10  104.40    7.92
   5  10  10  107.73    8.09
  -5  10 -11   91.29    6.81
   5  10  11   89.46    7.43
   5 -10  11   91.91    7.57
   5 -10  11  103.29    6.91
  -5 -10 -11   88.61    6.78
  -5  10 -12   -0.68    1.71
  -5 -10 -12   -1.68    1.62
   5  10  12   -1.47    1.81
   5 -10  12    1.52    1.61
   5 -10  12   -0.31    1.32
   5 -10  12    3.60    3.06
   5  10  13    4.27    2.09
   5 -10  13    8.26    2.70
   5 -10  13    5.59    3.72
   5  10  14  151.67   11.50
   5 -10  14  147.51   11.53
   5 -10  14  179.72   14.09
   5  10  15   87.59    7.91
   5 -10  15   73.24    7.68
   5 -10  15   74.51    9.09
   5 -10  16   -2.01    3.41
   5 -10  16   -1.37    2.40
   5  10  16    2.01    2.55
   5 -10  17    4.10    3.37
   5  10  17   -1.42    3.31
   5 -10  17   -3.67    3.41
   5 -10  18   -1.05    3.22
   5  10  18   -5.30    3.58
   5 -10  18   -0.78    3.29
   5 -10  19    1.07    3.51
   5  10  19   -0.79    2.70
   5 -10  19    0.81    3.00
   5 -10  20    1.09    3.20
   5  10  20    2.48    2.89
   5 -10  20    3.37    3.58
   5  10  21   56.90    5.99
   5 -10  21   48.41    5.69
  -5 -11  23    0.57    2.23
  -5  11  23    1.15    2.29
  -5 -11  22   10.49    2.66
  -5  11  22   10.48    2.90
  -5  11  21   10.61    3.01
  -5 -11  21   19.08    3.42
  -5 -11  20    5.08    2.40
  -5  11  20    1.52    1.83
  -5 -11  19    3.38    1.97
  -5  11  19    0.96    1.79
  -5 -11  18    0.46    1.74
  -5  11  18    1.38    1.91
  -5 -11  17   13.92    2.71
  -5  11  17   10.85    2.60
  -5 -11  16   23.76    3.39
  -5  11  16   23.32    3.47
  -5 -11  15  100.16    7.49
  -5  11  15   99.20    7.51
   5  11 -15   93.67    7.93
  -5 -11  14    9.05    2.30
   5 -11 -14    6.99    2.33
   5  11 -14    8.40    2.53
  -5  11  14    7.30    2.06
  -5 -11  14   14.99    3.34
  -5  11  13  178.86   10.81
   5 -11 -13  155.02   10.85
   5  11 -13  158.66   11.13
  -5 -11  13  144.14   11.71
  -5 -11  13  169.96   10.69
  -5 -11  12   24.15    3.05
   5 -11 -12   22.40    3.17
   5  11 -12   27.05    3.54
  -5 -11  12   24.64    3.99
   5 -11 -11    3.25    2.49
   5 -11 -11    3.65    1.92
   5  11 -11    1.97    1.84
  -5 -11  11    5.15    2.33
   5 -11 -10  174.44   13.80
  -5 -11  10  169.38    9.42
   5 -11 -10  192.66   11.53
   5  11 -10  186.03   11.62
  -5 -11  10  217.56   13.21
  -5 -11   9  135.37    7.90
   5 -11  -9  150.16    9.50
   5  11  -9  132.84    9.39
  -5 -11   9  149.68   10.82
   5 -11  -8   94.66    5.89
   5  11  -8   89.09    5.93
  -5 -11   8   87.91    7.79
   5 -11  -8   86.95    8.69
   5 -11  -7    2.39    2.26
   5 -11  -7    5.71    1.16
   5  11  -7    6.80    1.29
  -5 -11   7    4.40    1.89
   5 -11  -6    8.73    2.98
   5  11  -6   10.06    1.52
   5 -11  -6   10.19    1.49
  -5 -11   6   13.20    2.85
   5 -11  -5    9.40    1.52
   5  11  -5   12.27    1.56
   5 -11  -5    8.71    1.40
  -5 -11   5   13.40    2.81
   5 -11  -5   13.37    3.51
  -5 -11   4   12.45    2.80
   5  11  -4   10.50    1.48
   5 -11  -4    8.91    1.43
   5 -11  -4    8.07    1.36
   5  11  -4    6.99    1.36
   5 -11  -4    9.31    3.12
   5  11  -3  120.30    7.21
   5 -11  -3  110.81    7.08
   5 -11  -3  122.69   10.48
   5  11  -3  114.93    7.09
   5  11  -3  108.90    9.83
   5 -11  -3  125.12    7.08
  -5 -11   3  121.34    9.50
   5  11  -2  116.41    7.30
   5 -11  -2  136.12    7.40
   5 -11  -2  117.33    8.69
   5 -11  -2  116.38    7.30
   5  11  -2  125.21    7.43
   5 -11  -2  136.14   10.98
   5  11  -2  124.79   10.25
  -5 -11   2  124.89    9.79
  -5 -11   1   16.28    3.37
   5  11  -1   17.16    3.62
   5  11  -1   20.46    1.91
   5 -11  -1   19.63    2.76
   5 -11  -1   19.71    1.89
   5  11  -1   17.84    1.84
   5 -11  -1   16.02    1.83
   5 -11  -1   20.34    3.82
  -5 -11   0  226.26   14.95
   5 -11   0  201.75   13.45
   5 -11   0  239.34   12.32
   5  11   0  224.37   12.26
   5  11   0  211.86   12.15
   5 -11   0  226.64   16.06
   5 -11   0  201.10   12.10
   5  11   0  207.46   14.88
   5  11   1   12.47    3.09
  -5 -11  -1    5.98    2.24
   5 -11   1    5.85    1.25
   5 -11   1    8.26    1.97
   5  11   1    6.65    1.26
   5 -11   1    6.86    1.22
   5  11   1    4.13    2.21
   5  11   1    7.88    1.34
   5 -11   1    7.95    3.11
   5  11   2    4.58    2.40
   5 -11   2    5.24    1.65
   5  11   2    7.74    1.38
   5 -11   2    5.66    1.26
   5  11   2    5.55    1.24
   5 -11   2    1.61    2.19
   5  11   2    6.56    2.55
   5  11   3   13.74    3.13
   5 -11   3   16.51    2.56
   5  11   3   13.88    1.83
   5 -11   3   10.81    1.78
   5 -11   3   14.80    3.62
   5  11   3   10.94    2.95
   5 -11   4  110.30    7.87
   5  11   4  114.68    7.12
   5 -11   4  111.29    7.11
   5 -11   4  102.72    9.98
   5  11   4  111.65    9.38
   5  11   4   90.74    8.42
   5  11   5    6.49    2.45
   5 -11   5    9.62    1.98
   5  11   5    2.71    1.23
   5 -11   5    6.14    1.51
   5  11   5    7.75    2.76
   5  11   6    6.13    2.17
   5 -11   6    5.03    1.61
   5  11   6    6.03    1.52
   5 -11   6    5.43    1.48
   5  11   7    6.64    2.18
   5 -11   7    6.69    1.84
   5  11   7    2.76    1.47
   5 -11   7    7.32    1.79
   5  11   8   21.67    2.86
   5 -11   8   18.48    2.68
   5 -11   8   21.88    2.94
   5  11   8   17.31    2.91
  -5 -11  -9    6.57    1.67
  -5  11  -9    8.74    1.84
   5  11   9    7.11    2.01
   5 -11   9    5.45    1.87
   5 -11   9    3.62    1.46
   5  11   9    7.54    2.14
  -5 -11 -10   95.87    6.75
  -5  11 -10   81.38    6.51
   5  11  10   93.74    7.25
   5 -11  10  103.55    7.57
   5 -11  10   88.63    6.68
   5 -11  10   92.94    9.55
  -5 -11 -11    3.47    1.57
  -5  11 -11    1.90    1.53
   5  11  11    4.49    2.10
   5 -11  11    2.35    1.88
   5 -11  11    4.43    1.50
   5 -11  11    3.77    3.21
  -5 -11 -12   34.64    3.60
  -5  11 -12   26.97    3.41
   5  11  12   29.66    4.04
   5 -11  12   24.01    3.85
   5 -11  12   28.18    3.24
   5 -11  12   20.46    4.75
   5 -11  13   11.02    4.30
   5  11  13   18.61    3.49
   5 -11  13    8.80    2.87
   5 -11  14   25.66    5.56
   5  11  14   20.22    3.87
   5 -11  14   22.06    4.01
   5 -11  15   10.54    3.84
   5  11  15    9.90    3.12
   5 -11  15   14.06    3.31
   5 -11  16    1.08    3.42
   5  11  16   -0.66    2.70
   5 -11  16   -0.68    2.77
   5 -11  17    1.10    3.24
   5  11  17   -2.10    2.59
   5 -11  17   -2.88    3.00
   5 -11  18   47.27    7.76
   5  11  18   38.22    5.85
   5 -11  18   55.03    6.63
   5  11  19    6.12    3.39
   5  11  20   13.43    3.15
   5 -11  20   24.28    3.85
   5  11  21   10.43    2.91
  -5  12  23    7.29    2.88
  -5  12  22   -1.62    2.10
  -5  12  21    0.52    1.86
  -5 -12  20    5.89    2.34
  -5  12  20    5.91    2.66
  -5 -12  19    7.92    2.31
  -5  12  19    9.34    2.67
  -5  12  18   34.08    4.16
  -5 -12  18   29.48    3.98
  -5 -12  17    4.16    1.81
  -5  12  17    1.68    1.92
  -5 -12  16    0.39    1.77
  -5  12  16    1.99    1.79
  -5 -12  16    4.22    2.46
  -5  12  15   63.68    5.78
  -5 -12  15   66.14    7.14
  -5 -12  15   74.88    5.94
  -5 -12  14    4.25    1.66
   5  12 -14    3.26    1.97
  -5  12  14    3.56    1.74
  -5 -12  14    3.98    2.40
   5  12 -13   -0.39    2.01
  -5 -12  13    1.30    1.91
   5  12 -12    3.03    1.68
  -5 -12  12    3.79    2.41
   5 -12 -11   24.55    4.84
   5  12 -11   24.92    3.38
  -5 -12  11   31.27    4.46
   5 -12 -10   32.20    3.51
   5  12 -10   33.03    3.71
  -5 -12  10   30.92    4.57
   5 -12  -9    3.48    2.66
   5 -12  -9    2.08    1.39
   5  12  -9    2.94    1.48
  -5 -12   9    2.45    2.01
   5 -12  -8   24.16    4.53
   5 -12  -8   14.97    2.31
   5  12  -8   14.36    2.31
  -5 -12   8   15.28    3.25
   5 -12  -7  133.68    8.73
  -5 -12   7  142.87   10.94
   5 -12  -7  145.87   12.15
   5 -12  -6    1.72    2.20
   5 -12  -6    0.37    0.86
   5 -12  -6    1.40    0.77
   5  12  -6    1.74    0.84
  -5 -12   6    2.45    2.02
   5  12  -5   41.75    3.03
   5 -12  -5   35.30    2.92
   5  12  -5   35.13    3.04
   5 -12  -5   39.94    2.87
   5 -12  -5   44.39    6.12
  -5 -12   5   35.94    4.90
  -5 -12   4    0.63    1.76
   5  12  -4    1.13    0.75
   5 -12  -4    0.44    0.74
   5  12  -4    0.14    0.76
   5 -12  -4    0.13    0.72
   5 -12  -4   -1.69    1.90
  -5 -12   3   23.28    4.03
   5  12  -3   31.09    2.51
   5 -12  -3   27.27    2.32
   5  12  -3   28.61    2.41
   5 -12  -3   31.57    2.39
   5 -12  -3   34.61    5.28
   5  12  -2   87.98    5.28
   5 -12  -2   81.07    5.13
   5  12  -2   80.40    5.18
   5 -12  -2   93.51    8.97
   5 -12  -2   87.02    5.14
   5 -12  -2   73.93    6.49
  -5 -12   2   79.15    7.61
   5  12  -1  160.10    9.37
   5 -12  -1  186.65    9.46
   5 -12  -1  142.58   10.77
   5  12  -1  150.72    9.36
   5 -12  -1  174.11    9.46
   5 -12  -1  170.13   13.55
  -5 -12   1  181.38   12.72
  -5 -12   0  277.60   18.95
   5 -12   0  249.55   17.14
   5  12   0  300.93   15.86
   5  12   0  286.63   15.76
   5 -12   0  289.08   15.72
   5 -12   0  296.39   15.80
   5 -12   0  298.21   20.23
   5  12   0  306.51   19.26
   5  12   1    3.08    2.29
  -5 -12  -1    3.94    2.17
   5 -12   1    5.47    1.94
   5 -12   1    3.67    1.05
   5  12   1    2.15    0.91
   5  12   1    2.85    1.01
   5 -12   1    3.42    2.19
   5 -12   1    4.08    1.04
   5  12   2   36.19    4.94
   5 -12   2   30.33    3.66
   5 -12   2   37.73    2.92
   5  12   2   36.17    2.83
   5  12   2   30.22    2.76
   5 -12   2   33.60    2.78
   5  12   2   40.01    5.22
   5 -12   2   35.56    5.49
   5  12   3   90.27    5.92
   5 -12   3   94.98    7.15
   5  12   3   85.82    5.95
   5 -12   3  105.47    6.24
   5 -12   3   94.02    9.45
   5  12   3   91.85    8.06
   5  12   4   12.01    2.93
   5 -12   4    6.77    1.94
   5  12   4    8.36    1.55
   5 -12   4    8.01    1.55
   5 -12   4   14.29    3.82
   5 -12   5    8.94    2.06
   5  12   5    6.56    1.49
   5 -12   5   10.28    1.75
   5 -12   5    9.12    3.21
   5  12   5    2.08    2.01
   5 -12   6   45.27    4.45
   5  12   6   49.38    4.10
   5 -12   6   44.99    4.05
   5  12   6   46.70    5.12
   5 -12   7   -0.73    1.43
   5  12   7   -0.30    1.21
   5 -12   7   -0.31    1.22
   5  12   7    0.92    1.75
   5  12   8   14.84    2.56
   5 -12   8   21.95    3.02
   5 -12   8   17.44    4.39
   5 -12   9   19.85    2.71
   5  12   9   22.31    3.08
   5 -12   9   17.81    2.99
  -5  12 -10   -0.30    1.38
   5  12  10    0.41    1.56
   5 -12  10   -0.85    1.69
   5 -12  10    2.00    1.45
  -5  12 -11   67.01    5.64
   5  12  11   69.07    6.29
   5 -12  11   63.26    6.23
   5 -12  11   84.02    5.91
   5 -12  11   59.87    8.27
   5 -12  12   12.55    4.49
  -5  12 -12   22.50    3.02
   5  12  12   29.01    3.92
   5 -12  12   18.66    3.50
   5 -12  12   22.93    2.91
   5 -12  13    3.22    3.52
   5  12  13    1.06    2.01
   5 -12  13    0.55    2.22
   5 -12  13   -1.57    1.53
   5 -12  14   -2.20    3.24
   5  12  14   -0.57    2.06
   5 -12  14   -1.75    2.10
   5 -12  15    7.89    3.90
   5  12  15   16.42    3.55
   5 -12  15   21.19    4.00
   5 -12  16   -1.15    3.53
   5  12  16   -0.64    2.89
   5 -12  16    0.65    2.72
   5  12  17    8.07    3.05
   5 -12  17    8.23    3.37
   5  12  18    0.42    1.94
   5  12  19    7.05    2.42
   5  12  20   -0.46    1.91
  -5 -13  19   14.95    3.85
  -5 -13  18   11.54    3.56
  -5  13  18   11.12    2.61
  -5  13  17    3.66    1.87
  -5 -13  17    6.02    3.00
  -5  13  16   13.48    2.80
  -5 -13  16   13.98    3.86
  -5 -13  15    1.44    2.21
  -5 -13  14    2.83    2.25
   5 -13 -13   -0.47    1.80
  -5 -13  12   18.59    3.90
   5 -13 -11    1.88    2.52
   5  13 -11    1.93    1.50
  -5 -13  11    1.36    2.01
   5 -13 -10   34.79    5.80
   5  13 -10   34.23    3.71
  -5 -13  10   34.23    4.95
   5 -13  -9    1.87    2.86
   5  13  -9    0.85    1.28
  -5 -13   9    2.00    2.34
   5  13  -8   32.71    3.36
  -5 -13   8   28.71    4.64
   5 -13  -7    9.79    1.47
   5  13  -7   12.68    2.06
  -5 -13   7   10.01    3.00
   5 -13  -6    5.56    3.25
   5 -13  -6    3.24    0.90
   5  13  -6    4.23    1.06
   5  13  -6    4.39    1.24
  -5 -13   6    4.72    2.37
  -5 -13   5    6.80    2.56
   5  13  -5    8.63    1.31
   5 -13  -5   10.13    1.27
   5  13  -5    9.22    1.62
   5 -13  -5    9.22    3.35
  -5 -13   4   33.52    4.71
   5  13  -4   22.55    1.96
   5  13  -4   24.11    1.93
   5 -13  -4   18.02    1.79
   5 -13  -4   22.92    4.67
  -5 -13   3    4.13    1.95
   5  13  -3    4.06    0.91
   5 -13  -3    4.82    0.86
   5  13  -3    5.74    0.96
   5 -13  -3    0.90    2.31
   5 -13  -2    6.20    1.00
  -5 -13   2    9.02    2.78
   5  13  -2    7.78    1.09
   5  13  -2    4.03    0.96
   5 -13  -2    6.60    0.99
   5 -13  -2    7.27    2.04
   5 -13  -2    6.34    2.89
  -5 -13   1   23.19    4.19
   5  13  -1   17.48    1.65
   5 -13  -1   16.23    1.62
   5 -13  -1   14.67    2.64
   5  13  -1   18.79    1.69
   5 -13  -1   17.71    1.60
   5 -13  -1   19.13    4.40
  -5 -13   0   -0.71    2.18
   5 -13   0    0.83    1.41
   5  13   0   -0.11    0.92
   5  13   0   -0.12    0.76
   5 -13   0    0.10    0.65
   5 -13   0   -0.48    0.76
   5 -13   0    1.85    2.60
  -5 -13  -1   37.97    5.13
   5  13   1   31.09    2.41
   5 -13   1   31.66    3.78
   5  13   1   32.80    2.56
   5 -13   1   30.59    2.50
   5 -13   1   36.09    5.79
   5  13   2   18.71    1.89
   5  13   2   17.16    1.66
   5 -13   2   12.19    1.68
   5 -13   2   21.29    4.45
   5 -13   2   14.95    2.71
   5 -13   3    1.19    1.44
   5  13   3    4.14    0.97
   5  13   3    3.35    1.02
   5 -13   3    3.41    1.06
   5 -13   3    0.94    2.26
   5  13   3    4.14    2.25
   5 -13   4   10.54    1.73
   5 -13   4   10.53    2.23
   5  13   4    7.89    1.48
   5 -13   4   11.38    3.45
   5  13   4    9.81    1.48
   5  13   4   14.10    3.25
   5 -13   5    1.16    1.39
   5 -13   5   -0.47    1.21
   5  13   5   -0.23    1.16
   5 -13   5   -1.92    2.71
   5 -13   5    0.89    2.39
   5 -13   6    1.54    1.57
   5  13   6   -0.52    1.39
   5 -13   6    0.27    1.21
   5 -13   6    0.98    2.35
   5 -13   6    0.92    2.71
   5 -13   7   52.68    4.81
   5  13   7   48.16    4.28
   5 -13   7   44.21    4.28
   5 -13   7   35.75    6.15
   5 -13   7   61.19    7.52
   5 -13   8   10.34    2.29
   5  13   8   11.91    2.28
   5 -13   8    9.43    2.16
   5 -13   8    3.96    3.07
   5 -13   9    3.19    1.82
   5  13   9    3.68    1.72
   5 -13   9    5.22    1.93
   5  13  10   18.21    3.09
   5 -13  10   24.41    3.09
   5 -13  10   21.72    3.32
   5  13  11   32.65    4.05
   5 -13  11   29.54    3.95
   5 -13  11   26.54    3.31
   5 -13  12   50.13    8.09
   5  13  12   61.67    6.28
   5 -13  13    9.16    3.94
   5  13  13   14.85    3.08
   5 -13  14   -2.35    3.15
   5  13  14   -1.09    2.27
   5  13  16   19.36    3.09
  -5 -14  19    1.62    2.39
  -5 -14  18    1.60    2.63
  -5 -14  17    0.79    2.22
  -5 -14  16   -1.55    2.46
  -5 -14  15   15.25    3.63
  -5 -14  14   21.10    4.33
  -5 -14  13    3.73    2.98
   5 -14 -12   63.94    6.41
  -5 -14  12   56.50    6.88
   5 -14 -11    1.00    2.69
  -5 -14  11    1.46    2.24
   5 -14 -11   -0.57    1.99
   5 -14 -10  116.38   10.96
  -5 -14  10  105.20    9.32
   5 -14  -9   -2.00    2.81
  -5 -14   9   -1.45    2.38
   5 -14  -9    1.84    2.27
   5 -14  -8   40.77    6.34
   5 -14  -8   23.42    4.15
  -5 -14   8   36.76    5.32
   5 -14  -7   51.52    7.06
   5  14  -7   49.99    3.61
  -5 -14   7   54.66    6.47
   5 -14  -6   37.66    6.27
   5  14  -6   35.75    2.67
  -5 -14   6   27.86    5.02
   5 -14  -5   27.68    5.30
  -5 -14   5   22.94    4.23
   5  14  -5   22.31    1.90
  -5 -14   4   20.04    4.00
   5  14  -4   19.59    1.61
   5  14  -4   17.37    1.80
   5 -14  -4   24.57    5.10
  -5 -14   3    0.75    2.19
   5  14  -3    0.50    0.51
   5  14  -3   -0.61    0.72
   5 -14  -3    0.98    2.49
  -5 -14   2   12.05    3.28
   5 -14  -2    5.35    1.96
   5  14  -2    6.53    0.81
   5  14  -2    8.13    1.04
   5 -14  -2    6.82    3.12
  -5 -14   1    0.76    2.24
   5 -14  -1   -0.44    1.66
   5  14  -1   -0.38    0.50
   5 -14  -1   -0.98    2.49
   5 -14   0   12.95    2.54
   5  14   0    8.30    0.96
   5  14   0    7.15    0.82
   5 -14   0    6.85    3.45
  -5 -14  -1   -0.77    1.97
   5 -14   1   -0.85    1.52
   5  14   1   -0.09    0.65
   5 -14   1    1.99    3.37
   5  14   1    0.20    0.53
   5 -14   1    0.84    2.36
   5  14   2   14.12    1.25
   5 -14   2   16.78    2.82
   5  14   2    8.42    1.27
   5 -14   2    6.06    3.00
   5 -14   3   89.36    7.34
   5  14   3   95.32    5.87
   5 -14   3  115.42   10.72
   5 -14   3   94.02    9.67
   5  14   4   16.81    1.95
   5 -14   4   15.00    2.76
   5 -14   4   14.07    4.26
   5 -14   4   13.89    4.09
   5 -14   5    4.40    1.88
   5  14   5    3.76    1.35
   5 -14   5    9.14    3.46
   5 -14   5   12.46    4.24
   5 -14   6   13.49    2.58
   5  14   6   12.78    1.97
   5 -14   6    9.24    3.85
   5 -14   6   12.89    3.91
   5 -14   7    8.27    2.20
   5  14   7    3.87    1.65
   5 -14   7    3.06    3.25
   5 -14   8    9.50    3.95
   5 -14   8   10.36    2.33
   5  14   8   12.08    2.23
   5 -14   8   11.59    4.14
   5 -14   9    0.37    1.59
   5  14   9    0.34    1.60
   5 -14  10    5.30    1.90
   5  14  10    1.14    1.65
   5 -14  11    2.07    1.61
  -5 -15  17   -0.82    2.62
  -5 -15  16    2.44    2.59
  -5 -15  15    0.81    2.48
  -5 -15  14    1.60    2.46
  -5 -15  13   -1.59    2.25
  -5 -15  12   -0.79    2.22
   5 -15 -11   41.44    6.77
  -5 -15  11   27.42    5.16
   5 -15 -10    1.28    2.03
   5 -15 -10   -2.13    2.56
  -5 -15  10   -0.78    2.56
   5 -15  -9    0.66    2.03
   5 -15  -9    1.06    2.85
  -5 -15   9    0.77    2.46
   5 -15  -8    2.12    3.36
  -5 -15   8    0.78    2.40
   5 -15  -8    0.69    2.26
   5 -15  -7    5.27    3.35
   5 -15  -7    2.85    2.72
  -5 -15   7    7.07    3.07
  -5 -15   6   45.16    5.95
   5 -15  -6   36.91    6.38
   5 -15  -6   33.71    5.31
   5 -15  -5    2.11    2.83
  -5 -15   5    2.38    2.43
   5 -15  -5   -0.76    2.31
  -5 -15   4    1.59    2.14
   5 -15  -4    3.11    2.56
   5 -15  -4    2.10    2.68
  -5 -15   3    5.60    3.12
   5 -15  -3    0.95    1.71
   5 -15  -3    3.21    2.81
   5 -15  -3    3.14    2.81
  -5 -15   2   -0.81    2.66
   5 -15  -2   -0.47    1.58
   5 -15  -2   -3.11    3.17
   5 -15  -2   -0.83    2.53
  -5 -15   1    7.36    3.03
   5 -15  -1    0.91    1.60
   5 -15  -1    2.08    3.06
   5 -15  -1   -0.85    2.60
  -5 -15   0    0.82    2.32
   5 -15   0   -0.90    1.57
   5 -15   0   -1.04    2.65
   5 -15   0    1.75    2.47
  -5 -15  -1    1.66    2.63
   5 -15   1    1.32    1.67
   5 -15   1    1.05    2.66
   5 -15   1   -0.90    2.76
   5 -15   2    0.44    1.48
   5 -15   2    3.18    2.99
   5 -15   2    0.93    2.63
   5 -15   3    2.99    2.02
   5 -15   3    2.13    2.85
   5 -15   3   -0.96    2.94
   5 -15   4   26.73    5.39
   5 -15   4   13.39    2.66
   5 -15   4   24.44    5.25
   5 -15   5   20.43    5.28
   5 -15   5   26.46    3.57
   5 -15   5   23.51    5.36
   5 -15   6    2.10    2.97
   5 -15   6    3.69    1.82
   5 -15   6    9.73    3.90
   5 -15   7    9.75    3.92
   5 -15   7    7.31    2.16
   5 -15   7    6.54    3.60
   5 -15   8   -1.12    2.68
   5 -15   8    1.19    1.91
   5 -15   8   -5.48    3.61
   5 -15   9    1.15    3.53
   5 -15   9    4.91    1.98
  -5 -16  16   15.43    4.32
  -5 -16  15   19.61    4.80
  -5 -16  14    1.69    2.87
  -5 -16  13    5.02    3.49
  -5 -16  12    4.17    2.84
  -5 -16  11    1.66    2.54
  -5 -16  10    2.49    2.99
   5 -16  -9   19.90    4.07
  -5 -16   9   10.02    3.32
   5 -16  -8   22.89    4.97
   5 -16  -8   40.25    6.88
  -5 -16   8   32.60    5.53
  -5 -16   7    2.52    2.37
   5 -16  -7   -0.76    2.33
   5 -16  -7    1.11    3.14
  -5 -16   6    6.76    3.05
   5 -16  -6    3.14    3.20
   5 -16  -6    2.23    3.28
   5 -16  -5    0.81    2.66
   5 -16  -5    3.34    3.14
  -5 -16   5    6.79    3.22
   5 -16  -4   30.08    5.98
   5 -16  -4   25.03    5.28
  -5 -16   4   24.64    4.86
   5 -16  -3    0.86    2.53
  -5 -16   3    0.86    2.62
   5 -16  -3    4.48    2.24
   5 -16  -3    5.55    3.13
   5 -16  -2   24.75    5.36
  -5 -16   2   28.53    5.09
   5 -16  -2   26.62    3.85
   5 -16  -2   19.93    5.22
   5 -16  -1   10.00    4.32
  -5 -16   1   11.33    3.66
   5 -16  -1   10.03    2.58
   5 -16  -1    7.66    3.97
   5 -16   0   -0.93    2.75
  -5 -16   0    2.63    2.79
   5 -16   0    4.20    2.10
   5 -16   0    4.41    3.11
   5 -16   1   18.26    4.81
  -5 -16  -1   34.40    5.77
   5 -16   1   29.62    3.84
   5 -16   1   25.42    5.72
   5 -16   2   21.73    5.39
   5 -16   2   18.93    3.16
   5 -16   2   15.55    4.90
   5 -16   3    1.02    3.12
   5 -16   3    0.88    1.59
   5 -16   3    1.13    3.18
   5 -16   4    1.05    2.82
   5 -16   4    0.43    1.69
   5 -16   4   -4.50    3.45
   5 -16   5   45.40    7.00
   5 -16   5   34.20    4.17
   5 -16   5   37.24    6.49
   5 -16   6    7.79    4.23
   5 -16   6    3.38    1.77
   5 -16   7   10.45    2.51
  -5 -17  14   13.28    4.24
  -5 -17  13    6.16    3.19
  -5 -17  12    7.83    3.56
  -5 -17  11   -1.76    3.08
  -5 -17  10   -0.88    2.60
  -5 -17   9   58.38    7.46
  -5 -17   8    8.00    3.38
   5 -17  -8    2.36    2.92
  -5 -17   7   35.65    5.87
   5 -17  -7   31.68    5.69
  -5 -17   6    3.58    3.05
   5 -17  -6    5.86    3.19
  -5 -17   5   22.43    5.16
   5 -17  -5   28.45    5.23
  -5 -17   4    3.60    2.76
   5 -17  -4    7.09    3.11
   5 -17  -4    2.66    1.87
   5 -17  -3    0.91    2.58
  -5 -17   3    9.07    3.78
   5 -17  -3    3.64    2.12
   5 -17  -2   -0.94    3.08
  -5 -17   2   -1.83    3.11
   5 -17  -2   -0.51    1.92
   5 -17  -1    9.63    3.78
  -5 -17   1    9.23    3.79
   5 -17  -1    9.90    2.70
   5 -17   0    0.99    3.15
  -5 -17   0    2.77    2.94
   5 -17   0   -1.45    1.92
   5 -17   1   14.25    4.49
   5 -17   1   18.95    3.29
   5 -17   2   24.06    5.42
   5 -17   2   27.10    3.71
   5 -17   3    4.56    2.27
   5 -17   4   -0.89    1.90
   5 -17   5    3.96    1.99
  -5 -18  10   -0.93    2.62
  -5 -18   9    0.93    2.74
  -5 -18   8    9.35    3.67
  -5 -18   7   -0.94    3.19
  -5 -18   6   13.15    4.15
   5 -18  -6   21.29    4.95
  -5 -18   5   32.00    5.66
   5 -18  -5   24.71    5.68
  -5 -18   4    4.75    3.33
   5 -18  -4    0.94    2.88
  -5 -18   3   12.42    4.26
   5 -18  -3   11.59    3.98
  -5 -18   2   -2.89    3.47
  -5 -18   1    1.93    2.72
   5 -18  -1    1.54    1.90
  -5 -18   0   -2.91    3.30
   5 -18   0   -1.00    1.95
   5 -18   1    5.91    2.23
   5 -18   2    2.89    1.88
   5 -18   3    0.47    1.91
   5 -18   4   -0.46    1.91
  -6   0  24    5.86    2.49
   6   0 -24    4.43    1.84
  -6   0  23   -0.63    2.32
   6   0 -23   -0.31    1.50
   6   0 -22   89.66    6.58
  -6   0  22   87.48    7.89
  -6   0  21   -2.31    2.14
   6   0 -21   -0.54    2.40
   6   0 -21   -1.50    1.17
   6   0 -20   54.91    4.52
   6   0 -20   44.29    5.51
  -6   0  20   51.62    5.57
   6   0 -19   -1.05    2.19
  -6   0  19    0.53    1.63
   6   0 -19   -0.28    1.30
   6   0 -18    1.93    1.22
  -6   0  18    1.53    1.67
  -6   0  17    5.80    1.93
   6   0 -17   -0.80    1.28
   6   0 -16   -0.26    1.03
  -6   0  16   -0.46    1.35
   6   0 -15   -0.50    0.90
  -6   0  15    1.08    1.30
  -6   0  15    2.61    1.53
   6   0 -15    1.03    1.42
  -6   0  14  499.02   28.06
   6   0 -14  519.22   28.17
  -6   0  14  504.10   28.66
   6   0 -14  502.37   27.52
  -6   0  13    0.89    1.07
   6   0 -13    0.23    0.89
  -6   0  13    1.21    1.41
   6   0 -13    0.32    1.10
   6   0 -12   67.12    4.98
   6   0 -12   73.30    5.53
  -6   0  12   60.52    5.56
  -6   0  12   77.21    5.32
  -6   0  11   -0.23    0.76
   6   0 -11   -0.63    1.13
   6   0 -11   -0.22    0.79
  -6   0  11   -0.74    1.05
   6   0 -10  759.32   40.21
  -6   0  10  806.03   41.32
   6   0 -10  759.73   40.74
  -6   0  10  733.34   40.08
   6   0  -9    0.41    0.63
   6   0  -9   -0.56    1.03
  -6   0   9    0.34    1.03
  -6   0   9    0.17    0.65
  -6   0   8 1372.60   70.15
   6   0  -8 1322.31   69.70
   6   0  -8 1342.70   69.28
  -6   0   8 1307.19   68.74
   6   0  -7    0.27    1.03
   6   0  -7    0.20    0.65
   6   0  -6   64.15    4.56
   6   0  -6   62.88    4.88
  -6   0   5    0.21    0.75
   6   0  -5    1.53    1.02
   6   0  -5    0.62    0.74
  -6   0   4 4669.98  235.41
   6   0  -4 4605.01  235.37
   6   0  -4 4780.62  235.77
   6   0  -4 4494.93  234.45
  -6   0   3    0.81    0.71
   6   0  -3    0.77    0.78
   6   0  -3    0.82    0.78
   6   0  -3    0.11    0.46
  -6   0   2   17.31    1.95
   6   0  -2   14.83    1.81
  -6   0   1   -0.21    0.82
   6   0  -1    0.21    0.65
   6   0   0   34.66    3.35
  -6   0   0   43.13    3.38
  -6   0  -1    0.22    0.74
   6   0   1   -0.26    0.66
   6   0   2  283.11   16.40
  -6   0  -2  289.28   16.15
   6   0   3    1.35    0.83
  -6   0  -3    0.90    0.90
   6   0   4  224.39   12.56
  -6   0  -4  191.60   12.27
   6   0   5    0.29    0.82
  -6   0  -5   -1.11    1.18
  -6   0  -6   13.61    1.91
   6   0   6    8.33    1.72
  -6   0  -7   -0.29    0.99
   6   0   7    1.30    0.78
  -6   0  -7    1.04    1.01
  -6   0  -8  273.27   16.48
   6   0   8  284.95   16.81
  -6   0  -8  291.77   16.37
  -6   0  -9    1.91    1.12
   6   0   9    0.38    1.01
  -6   0  -9    0.56    1.13
  -6   0 -10    3.64    1.34
   6   0  10    4.92    1.68
  -6   0 -10    4.63    1.45
  -6   0 -11   -0.35    1.24
   6   0  11    0.44    1.38
  -6   0 -11    0.30    1.11
   6   0  12  568.25   31.23
  -6   0 -12  523.18   29.97
  -6   0 -12  556.25   30.42
   6   0  13   -1.01    1.86
  -6   0 -13    0.65    1.26
   6   0  14  129.30    9.83
  -6   0 -14  127.10    8.69
   6   0  15    1.77    1.59
   6   0  16  107.69    9.09
   6   0  17    0.68    1.91
   6   0  18   18.11    4.05
   6   0  19   -3.11    2.47
   6   0  19    0.44    1.49
   6   0  20  152.48   12.75
   6   0  20  156.79   10.97
   6   0  21    0.45    1.80
   6   0  21   -0.89    3.19
  -6  -1  24   -1.31    2.35
   6   1 -23   77.78    5.64
  -6  -1  23   69.71    7.23
  -6  -1  22   30.14    4.53
   6   1 -22   31.21    3.18
  -6  -1  21   22.60    3.86
  -6   1  21   22.64    3.74
   6   1 -21   19.61    3.75
   6   1 -21   19.90    2.50
  -6   1  20   38.48    4.85
  -6  -1  20   37.18    4.69
   6   1 -20   39.13    3.48
   6  -1 -20   31.32    4.44
   6   1 -20   30.00    4.62
  -6   1  19    0.52    1.76
  -6  -1  19    3.19    2.02
   6   1 -19    0.47    1.07
   6   1 -19    1.13    2.30
  -6   1  18   -0.49    1.55
  -6  -1  18   -0.51    1.43
   6   1 -18   -0.92    1.03
   6   1 -18   -0.55    2.04
  -6   1  17   10.06    2.43
   6   1 -17   14.84    2.04
  -6  -1  17   15.50    2.78
   6   1 -16  323.38   18.20
  -6  -1  16  325.22   19.79
  -6   1  16  338.23   19.69
  -6   1  15    4.33    1.69
   6   1 -15    4.60    1.21
  -6  -1  15    8.30    2.21
   6  -1 -15    5.80    1.73
  -6   1  14    4.35    1.60
   6  -1 -14    3.07    1.27
   6   1 -14   10.68    1.54
  -6  -1  14    8.79    1.87
   6  -1 -14    6.88    1.72
   6   1 -13   85.09    5.80
   6  -1 -13   88.79    6.51
   6  -1 -13   89.22    6.31
  -6  -1  13   95.74    7.14
  -6   1  13   94.64    6.74
   6  -1 -12  116.61    7.78
   6  -1 -12  120.53    7.55
   6   1 -12  115.68    7.00
  -6   1  12   95.54    7.41
  -6  -1  12  109.88    8.07
  -6  -1  11   30.12    2.80
  -6  -1  11   33.54    3.58
   6   1 -11   31.84    2.73
   6  -1 -11   31.28    3.00
   6  -1 -11   33.99    3.40
  -6   1  11   38.65    3.38
   6  -1 -10   10.56    1.74
   6   1 -10   11.21    1.52
   6  -1 -10   14.17    2.08
  -6  -1  10   13.04    2.15
  -6   1  10   11.80    1.82
  -6  -1  10   16.23    1.68
   6  -1  -9   26.04    2.67
  -6   1   9   18.32    2.16
   6  -1  -9   22.87    2.43
   6   1  -9   21.10    2.14
  -6  -1   9   20.14    2.60
  -6  -1   9   24.34    1.95
   6  -1  -8    1.63    1.01
   6   1  -8    0.74    0.74
  -6  -1   8    0.97    1.00
   6  -1  -8    1.89    0.94
  -6   1   8    1.51    0.85
  -6  -1   8    1.19    0.49
   6   1  -7  181.28   10.18
   6  -1  -7  179.82   10.69
   6  -1  -7  160.64   10.30
  -6  -1   6    1.75    0.92
   6  -1  -6    2.24    0.93
   6  -1  -6    1.01    0.93
   6   1  -6    0.55    0.68
   6  -1  -5    0.71    0.59
   6  -1  -5    2.47    0.92
  -6  -1   5    1.52    0.87
   6   1  -5    1.67    0.79
   6  -1  -5    1.78    1.11
  -6   1   4    2.02    0.94
  -6  -1   4    3.39    0.97
   6  -1  -4    2.51    0.96
   6  -1  -4    1.35    0.84
   6   1  -4    2.29    0.80
   6  -1  -4    1.94    0.75
  -6  -1   3   57.54    4.29
   6  -1  -3   63.51    4.52
   6  -1  -3   57.66    4.62
   6   1  -3   63.83    4.38
   6  -1  -3   60.61    4.16
  -6   1   3   60.00    4.51
  -6   1   2  145.77    9.32
  -6  -1   2  170.52    9.34
   6   1  -2  149.25    9.21
  -6   1   1   31.86    2.82
  -6  -1   1   28.68    2.67
   6   1  -1   30.28    2.71
   6  -1   0  211.40   12.64
  -6   1   0  214.52   12.40
  -6  -1   0  213.71   12.30
   6  -1   1   44.09    3.82
  -6   1  -1   50.87    3.84
  -6  -1  -1   46.36    3.67
   6  -1   2  167.07    9.70
  -6  -1  -2  158.87    9.32
  -6   1  -2  151.05    9.34
   6  -1   2  139.47    9.27
   6  -1   3   10.21    1.70
  -6  -1  -3   11.00    1.63
   6  -1   3    7.27    1.49
  -6  -1  -4  343.76   19.29
  -6  -1  -4  336.72   18.99
   6  -1   4  342.36   19.30
  -6  -1  -5  344.69   19.84
   6  -1   5  360.23   20.01
  -6  -1  -6  838.64   46.42
   6  -1   6  939.21   46.84
  -6   1  -6  854.22   46.24
  -6  -1  -7  287.31   16.69
   6  -1   7  291.51   16.93
  -6   1  -7  287.12   16.55
  -6   1  -8  169.35   10.68
  -6  -1  -8  182.40   10.85
   6  -1   8  166.44   11.11
  -6  -1  -8  183.05   11.03
  -6  -1  -9  335.89   20.08
   6  -1   9  362.10   20.61
  -6   1  -9  352.92   19.95
  -6  -1  -9  362.78   20.02
  -6  -1 -10    0.33    1.05
   6  -1  10   -0.41    1.39
  -6   1 -10   -0.29    1.12
  -6  -1 -10   -0.30    1.12
  -6  -1 -11    1.38    1.28
   6  -1  11   -0.44    1.04
  -6   1 -11    0.90    1.14
  -6  -1 -11   -1.23    1.22
  -6  -1 -12   11.48    2.26
   6  -1  12   15.87    2.81
  -6   1 -12   17.03    2.45
  -6  -1 -12   21.57    2.71
   6  -1  13   20.58    3.28
  -6   1 -13   17.61    2.61
  -6  -1 -13   20.70    2.91
   6  -1  14   73.20    6.78
  -6   1 -14   72.69    5.79
   6  -1  15  100.10    8.56
   6  -1  16  107.40    9.18
   6  -1  17   30.47    4.61
   6  -1  18  109.71    9.72
   6  -1  19    0.78    2.73
   6  -1  19    5.48    2.37
   6   1  19    7.24    2.06
   6  -1  20  107.21    9.96
   6  -1  20  104.74    8.38
   6   1  20   86.38    7.30
   6  -1  21   17.65    3.53
   6  -1  21   17.68    4.47
  -6  -2  24    9.78    3.17
  -6   2  24    8.46    2.85
  -6  -2  23    3.14    2.20
  -6   2  23   -1.25    2.49
  -6  -2  22    1.81    1.99
  -6   2  22    1.81    1.70
   6   2 -22    0.57    0.94
  -6  -2  21   -1.16    2.09
  -6   2  21   -1.15    1.96
   6   2 -21    1.22    2.26
   6   2 -21   -0.56    1.02
  -6   2  20   11.61    3.18
  -6  -2  20   10.02    2.78
  -6   2  20    3.87    2.03
   6   2 -20    9.46    1.56
   6   2 -20    6.13    2.78
  -6   2  19    3.85    2.05
  -6   2  19    3.71    2.08
   6   2 -19    8.48    2.83
   6   2 -19    4.73    1.14
  -6  -2  19   10.65    2.57
  -6   2  18    0.52    1.93
  -6  -2  18    4.08    1.68
  -6   2  18    5.07    1.67
   6   2 -18    2.66    1.00
   6   2 -18    2.96    2.36
   6   2 -17  285.52   18.27
   6   2 -17  270.54   15.56
  -6  -2  17  289.35   17.68
  -6   2  17  317.56   17.96
  -6   2  17  275.72   17.65
   6   2 -16   95.06    6.05
  -6  -2  16   98.92    7.66
  -6   2  16   98.66    7.65
  -6   2  16   95.74    7.71
   6   2 -15  200.69   11.45
   6  -2 -15  202.57   12.57
   6   2 -15  198.62   12.57
  -6  -2  15  195.74   13.11
  -6   2  15  213.83   13.29
  -6   2  15  201.90   13.11
   6  -2 -14   55.74    4.69
   6   2 -14   50.95    3.69
   6   2 -14   64.37    4.89
  -6  -2  14   50.76    4.85
  -6   2  14   48.47    4.84
  -6   2  14   44.35    4.73
  -6   2  13    4.83    1.60
   6   2 -13    5.42    1.05
   6   2 -13    6.31    1.75
   6  -2 -13    4.38    1.52
  -6  -2  13    5.69    1.71
  -6   2  13    2.82    1.55
  -6  -2  12   23.86    3.04
   6   2 -12   24.85    2.17
   6   2 -12   21.14    2.75
   6  -2 -12   20.68    2.62
  -6   2  12   24.44    3.09
  -6   2  12   19.14    2.73
  -6  -2  11   36.18    3.66
  -6   2  11   34.50    3.65
   6  -2 -11   33.37    3.29
   6   2 -11   31.66    2.62
   6   2 -11   36.85    3.50
   6  -2 -11   34.72    3.39
  -6   2  11   26.57    3.14
   6  -2 -10   37.17    3.48
  -6  -2  10   32.07    3.50
  -6   2  10   43.48    3.95
   6   2 -10   38.12    2.87
  -6   2  10   27.76    3.18
   6   2 -10   38.29    3.63
   6  -2 -10   39.61    3.59
   6   2  -9  146.34    9.07
   6  -2  -9  150.42    9.09
  -6  -2   9  128.51    7.84
   6  -2  -9  156.51    9.17
   6   2  -9  143.86    8.33
  -6  -2   9  133.98    9.25
  -6   2   9  116.44    9.03
  -6   2   9  179.31    9.34
   6   2  -8  256.34   14.58
   6  -2  -8  239.95   14.45
  -6  -2   8  257.83   14.97
  -6   2   8  233.47   14.72
   6   2  -8  251.92   13.83
  -6   2   8  241.59   14.30
   6  -2  -8  257.21   14.56
  -6  -2   7  427.46   23.29
   6  -2  -7  420.25   23.77
   6   2  -7  434.05   23.87
   6  -2  -7  446.89   23.91
   6   2  -7  432.33   23.21
  -6   2   7  430.94   23.66
  -6  -2   6  207.80   12.07
   6  -2  -6  202.34   12.54
   6   2  -6  210.25   12.05
   6   2  -6  213.31   12.59
   6  -2  -6  206.88   12.56
   6  -2  -6  239.77   12.52
   6  -2  -5    0.76    0.92
  -6  -2   5    3.15    0.82
   6  -2  -5    2.71    0.96
   6   2  -5    1.59    0.76
   6   2  -5    1.78    1.15
   6  -2  -5    1.27    0.81
   6  -2  -4   22.97    2.44
  -6  -2   4   27.35    2.37
   6   2  -4   20.29    2.44
   6  -2  -4   22.77    2.46
   6   2  -4   23.31    2.24
   6  -2  -4   24.45    2.39
  -6   2   3  377.85   21.08
   6   2  -3  373.35   21.26
  -6  -2   3  373.67   20.70
   6  -2  -3  381.63   21.16
   6  -2  -3  393.83   21.06
   6   2  -3  381.26   20.76
  -6   2   2  413.28   22.53
  -6  -2   2  407.14   22.15
   6   2  -2  406.82   21.43
  -6   2   1    0.47    0.77
  -6  -2   1    1.73    0.83
   6  -2   0  385.31   21.37
  -6   2   0  369.89   21.11
  -6  -2   0  392.66   20.97
   6  -2   1    5.69    1.22
  -6   2  -1    5.38    1.27
   6  -2   1    7.25    1.33
  -6  -2  -1    5.21    1.26
   6  -2   2    2.64    0.90
   6  -2   2    0.74    0.70
  -6  -2  -2    2.15    0.99
   6  -2   3    4.55    1.18
   6  -2   3    3.73    1.07
  -6  -2  -3    3.63    1.09
  -6  -2  -4   16.46    2.13
   6  -2   4   12.74    1.90
  -6   2  -4   13.33    1.99
  -6  -2  -4   12.35    1.86
   6  -2   4   12.41    1.82
  -6  -2  -5   15.34    2.07
  -6   2  -5   11.83    1.91
   6  -2   5   11.67    1.85
  -6   2  -5   12.12    1.82
  -6  -2  -5   12.85    1.87
   6  -2   5   13.92    1.93
  -6  -2  -6   35.34    3.27
   6   2   6   32.99    3.24
   6  -2   6   34.05    3.28
  -6   2  -6   29.29    3.06
  -6   2  -6   28.34    3.00
  -6   2  -7   24.49    2.81
  -6  -2  -7   20.74    2.62
   6   2   7   26.16    3.04
   6  -2   7   22.42    2.74
  -6   2  -7   28.23    2.84
   6  -2   8  576.56   30.71
  -6  -2  -8  551.32   30.29
  -6   2  -8  550.66   30.34
  -6   2  -8  549.47   30.11
   6   2   8  534.24   30.54
  -6  -2  -9   99.23    7.13
   6   2   9   94.33    7.33
   6  -2   9  102.99    7.45
  -6   2  -9  100.45    7.16
  -6   2  -9  104.60    7.01
  -6  -2  -9   99.70    7.08
  -6  -2 -10  376.73   20.65
  -6   2 -10  377.51   20.65
   6   2  10  325.60   20.82
   6  -2  10  362.09   21.11
  -6   2 -10  351.61   20.24
  -6  -2 -10  353.13   20.39
  -6  -2 -11  157.20   10.37
  -6   2 -11  154.35   10.35
   6   2  11  162.67   10.97
   6  -2  11  155.28   10.87
  -6   2 -11  160.92   10.16
  -6  -2 -11  163.83   10.34
  -6   2 -12   -0.36    1.38
  -6  -2 -12    4.33    1.73
   6   2  12    2.84    1.70
   6  -2  12    1.41    1.64
  -6   2 -12    1.54    1.20
   6  -2  13  213.52   14.40
   6   2  13  200.16   14.28
  -6   2 -13  242.79   13.64
   6   2  14   88.82    7.57
   6  -2  14   76.84    7.22
  -6   2 -14   90.84    6.60
   6   2  15   20.79    3.72
   6  -2  15   20.07    3.53
  -6   2 -15   21.51    2.87
   6   2  16   -1.27    2.36
   6  -2  16   -1.26    2.08
   6   2  17   33.68    5.02
   6  -2  17   27.88    4.63
   6   2  18   35.90    5.20
   6  -2  18   32.65    5.04
   6   2  19    8.60    3.12
   6  -2  19    0.77    2.80
   6  -2  19    5.58    2.38
   6   2  19    5.37    1.82
   6  -2  20   81.23    8.30
   6  -2  20   72.42    6.93
   6  -2  21    0.58    2.10
   6   2  21   -2.67    3.12
   6  -2  21    2.64    2.70
   6  -2  22    1.19    2.20
  -6  -3  24  112.26    9.60
  -6   3  24  105.29    9.44
  -6  -3  23    0.63    2.27
  -6   3  23    3.75    2.32
  -6  -3  22    2.42    2.13
  -6   3  22    5.41    2.40
  -6  -3  21   11.63    3.07
  -6   3  21    9.21    2.84
   6   3 -21    7.63    1.15
  -6   3  20   27.64    4.20
  -6  -3  20   23.94    3.86
  -6   3  20   20.44    3.50
   6   3 -20   18.09    1.80
  -6   3  19   35.11    4.67
   6   3 -19   30.88    4.79
  -6   3  19   31.20    4.24
   6   3 -19   36.02    2.66
  -6  -3  19   45.33    5.00
   6   3 -18   42.33    5.74
   6   3 -18   57.63    3.68
  -6  -3  18   51.35    5.43
  -6   3  18   58.58    5.66
  -6   3  18   51.62    5.80
  -6   3  17   24.20    3.70
   6   3 -17   18.56    3.76
  -6   3  17   22.44    3.23
   6   3 -17   18.34    1.76
  -6  -3  17   15.43    2.91
   6   3 -16  158.92   11.67
   6   3 -16  149.61    8.67
  -6  -3  16  142.96   10.57
  -6   3  16  151.07   10.66
  -6   3  16  182.11   11.47
   6   3 -15  443.74   22.32
   6  -3 -15  430.43   23.79
   6   3 -15  417.28   23.73
  -6  -3  15  384.68   24.14
  -6   3  15  408.89   24.26
  -6   3  15  375.13   24.27
   6   3 -14    0.25    0.60
   6   3 -14    0.66    1.34
   6  -3 -14    1.62    1.26
  -6  -3  14    1.27    1.39
  -6   3  14    1.26    1.33
  -6   3  14    1.32    1.54
  -6   3  13    3.64    1.39
   6   3 -13    5.15    0.95
   6   3 -13    6.61    1.68
   6  -3 -13    1.87    1.26
  -6  -3  13    7.76    1.88
  -6   3  13    2.06    1.50
  -6  -3  12    1.95    1.20
  -6   3  12    1.55    1.23
   6   3 -12    0.40    0.62
   6   3 -12    0.31    1.00
   6  -3 -12    0.91    1.03
  -6   3  12    1.52    1.41
   6   3 -11    9.70    1.85
   6  -3 -11    8.66    1.69
  -6  -3  11    4.84    1.61
   6   3 -11    5.56    0.98
  -6   3  11    6.25    1.65
  -6   3  11    5.00    1.61
   6  -3 -10  158.22   10.45
  -6  -3  10  176.69   10.89
  -6   3  10  153.49   10.60
   6   3 -10  158.21    9.39
  -6   3  10  185.29   10.88
   6   3 -10  170.89   10.46
   6  -3 -10  172.31   10.47
   6  -3  -9   35.22    3.48
   6   3  -9   36.56    2.78
  -6   3   9   42.72    3.84
  -6  -3   9   38.04    3.80
  -6   3   9   38.59    3.72
   6   3  -9   32.97    3.33
   6  -3  -9   35.64    3.39
   6   3  -8   23.02    2.65
   6  -3  -8   28.19    2.82
  -6  -3   8   29.46    2.36
   6  -3  -8   25.39    2.78
  -6  -3   8   25.02    2.86
  -6   3   8   29.53    3.04
   6   3  -8   24.27    2.15
  -6  -3   8   24.30    1.73
  -6   3   8   18.96    2.62
   6  -3  -7  163.39   10.31
  -6  -3   7  161.34    9.51
   6   3  -7  166.81   10.19
   6  -3  -7  163.46   10.15
  -6   3   7  171.84   10.44
   6   3  -7  167.44    9.53
   6  -3  -7  162.39   10.29
   6  -3  -6 1027.95   52.02
   6   3  -6  932.16   51.63
   6  -3  -6  951.48   51.67
  -6  -3   6 1004.79   51.13
   6  -3  -6  976.47   51.94
   6  -3  -5  101.35    7.19
  -6  -3   5  106.47    6.62
   6  -3  -5  112.54    7.37
   6   3  -5  111.74    7.19
   6  -3  -5  107.26    7.13
   6   3  -4  404.40   22.19
  -6  -3   4  392.38   21.67
   6  -3  -4  384.17   22.10
   6  -3  -4  432.83   22.56
   6   3  -3  116.37    7.50
   6  -3  -3  117.93    7.55
  -6  -3   3  115.06    7.07
   6  -3  -3  108.26    7.61
  -6  -3   2   44.87    3.52
   6   3  -2   48.95    3.19
   6  -3  -1  133.59    8.40
  -6   3   1  140.52    8.43
   6  -3  -1  134.19    8.43
  -6  -3   1  123.26    7.87
   6   3  -1  125.22    7.63
   6   3   0  148.97    8.67
   6   3   0  157.12    9.23
  -6   3   0  127.83    8.86
   6  -3   0  140.50    9.06
  -6  -3   0  147.62    8.74
   6  -3   0  145.03    9.12
   6   3   1  165.82   10.48
   6  -3   1  173.82   10.54
   6  -3   1  169.14   10.52
  -6  -3  -1  179.04   10.30
   6   3   2    4.76    1.30
   6  -3   2    2.90    1.10
   6  -3   2    8.52    1.53
  -6  -3  -2    6.20    1.31
   6  -3   3   32.82    3.00
   6   3   3   20.63    2.50
   6  -3   3   23.81    2.67
  -6  -3  -3   28.35    2.69
  -6  -3  -4  720.81   39.89
  -6   3  -4  714.45   39.89
   6   3   4  745.05   39.94
   6  -3   4  713.27   39.85
  -6   3  -4  799.25   39.92
   6  -3   4  733.98   39.83
  -6  -3  -4  784.98   39.84
  -6   3  -5  363.20   20.12
   6   3   5  369.56   20.22
  -6   3  -5  379.50   20.04
  -6  -3  -5  352.35   20.03
   6  -3   5  318.12   19.75
   6  -3   5  352.53   20.10
  -6  -3  -6   39.93    3.88
  -6   3  -6   47.79    4.05
   6   3   6   46.72    4.10
   6  -3   6   47.06    4.11
  -6   3  -6   61.29    4.31
   6  -3   6   39.60    3.76
  -6  -3  -7   51.18    4.39
  -6   3  -7   53.27    4.48
  -6   3  -7   61.05    4.57
   6   3   7   49.65    4.45
   6  -3   7   54.48    4.63
  -6  -3  -8  101.92    7.47
  -6   3  -8  113.20    7.65
   6   3   8  112.69    7.87
   6  -3   8  109.61    7.78
  -6   3  -8  114.10    7.54
  -6   3  -9  105.70    7.22
  -6  -3  -9   98.04    7.04
  -6   3  -9  102.28    7.01
   6   3   9   96.40    7.35
   6  -3   9   89.98    7.23
  -6   3 -10    9.10    1.88
   6   3  10    6.17    1.96
   6  -3  10    8.15    1.94
  -6   3 -10   10.00    1.92
  -6  -3 -10    8.02    1.86
  -6  -3 -11   30.54    3.46
  -6   3 -11   32.66    3.53
   6   3  11   37.25    3.98
   6  -3  11   28.95    3.67
  -6   3 -11   25.53    3.20
  -6  -3 -12   66.68    5.50
  -6   3 -12   68.72    5.65
  -6   3 -12   61.31    5.24
   6   3  12   70.01    6.18
   6  -3  12   59.40    5.80
   6   3  13    8.20    2.38
   6  -3  13    8.13    2.28
  -6   3 -13    8.13    1.75
  -6   3 -14  107.70    7.64
   6   3  14  112.10    8.75
   6  -3  14   98.67    8.51
  -6   3 -15   79.93    6.32
   6   3  15   86.16    7.62
   6  -3  15   84.17    7.63
   6   3  16   12.86    3.04
   6  -3  16    9.52    2.80
   6   3  17    0.69    2.28
   6  -3  17   -2.74    2.40
   6   3  18    2.96    2.52
   6  -3  18    4.38    2.49
   6   3  19    2.66    1.51
   6   3  19    7.89    3.36
   6  -3  19    4.67    2.81
   6  -3  19    7.40    2.83
   6  -3  20    4.41    2.51
   6   3  20    4.22    3.21
   6  -3  20   -0.83    2.55
   6  -3  21    1.93    2.45
   6   3  21    0.90    3.23
   6  -3  21   -0.89    3.19
   6  -3  22   19.79    4.24
  -6   4  24    7.14    2.66
  -6  -4  24    4.57    2.73
  -6  -4  23   27.69    4.51
  -6   4  23   37.47    4.93
  -6  -4  22    3.03    2.01
  -6   4  22    8.99    2.93
  -6  -4  21    5.81    2.43
  -6   4  21    4.03    2.25
  -6  -4  20   -1.11    2.00
  -6   4  20    1.65    2.03
  -6   4  19    1.25    2.06
  -6  -4  19    3.17    2.06
  -6   4  19    4.71    2.09
  -6   4  18    9.51    2.75
  -6   4  18    6.98    2.16
  -6  -4  18    9.59    2.53
  -6   4  17   13.57    3.15
   6   4 -17   15.83    3.65
  -6  -4  17   13.45    2.70
  -6   4  17   12.79    2.73
   6   4 -16   38.01    5.60
  -6  -4  16   47.22    4.77
  -6   4  16   46.55    4.83
  -6   4  16   54.10    5.59
   6   4 -15  174.01   13.34
   6  -4 -15  195.03   11.90
  -6  -4  15  172.01   12.24
  -6   4  15  187.38   12.43
  -6   4  15  207.48   13.10
   6   4 -14   19.26    2.70
   6  -4 -14   16.36    2.54
  -6  -4  14   26.30    3.26
  -6   4  14   19.77    2.99
  -6   4  14   20.06    3.27
  -6  -4  13   18.01    2.79
  -6   4  13   20.25    2.85
   6   4 -13   16.61    2.45
   6  -4 -13   23.42    2.75
  -6   4  13   16.15    2.91
  -6  -4  12   -1.17    1.10
  -6   4  12    1.55    1.14
   6   4 -12   -0.61    1.20
   6  -4 -12    0.30    1.16
  -6   4  12    0.43    1.36
  -6  -4  11   69.03    5.74
  -6   4  11   67.57    5.71
   6   4 -11   66.35    5.39
   6  -4 -11   78.15    5.64
  -6   4  11   75.30    6.14
   6  -4 -10   10.87    1.99
  -6  -4  10   14.73    2.21
  -6   4  10   16.69    2.47
   6   4 -10   16.71    2.32
  -6   4  10   13.57    2.37
  -6  -4   9   13.13    2.13
   6   4  -9   16.18    2.23
   6  -4  -9   12.40    2.04
  -6   4   9   10.75    1.99
  -6   4   9    9.21    2.07
   6  -4  -8   20.24    2.27
   6  -4  -8   19.50    2.66
  -6  -4   8   15.24    1.67
   6  -4  -8   16.37    2.34
  -6  -4   8   15.20    2.26
   6   4  -8   16.49    2.18
  -6  -4   8   16.95    1.53
  -6   4   8   14.67    2.46
   6  -4  -7  117.26    8.08
  -6  -4   7  119.21    7.17
   6   4  -7  121.54    7.90
   6  -4  -7  121.53    7.88
  -6  -4   7  118.81    6.78
   6  -4  -7  133.07    8.57
   6  -4  -6   57.61    4.72
  -6  -4   6   58.19    3.95
   6   4  -6   54.69    4.39
   6  -4  -6   64.94    4.61
   6  -4  -6   57.42    4.91
  -6  -4   6   55.54    3.40
  -6  -4   5  194.58   11.12
   6  -4  -5  188.65   12.19
   6   4  -5  201.20   11.71
   6  -4  -5  195.40   11.66
  -6  -4   4    7.43    1.24
   6   4  -4    7.20    1.49
   6  -4  -4   11.11    1.66
   6  -4  -4   10.96    2.04
  -6  -4   3  105.20    6.36
   6  -4  -3   88.22    7.05
   6   4  -3   99.49    6.68
   6  -4  -3  102.11    6.73
   6  -4  -2   83.28    5.81
  -6  -4   2   81.18    5.15
   6  -4  -2   70.26    5.95
   6   4  -2   71.16    4.85
   6  -4  -1   38.24    3.58
   6  -4  -1   41.59    3.77
  -6  -4   1   45.86    3.45
   6   4  -1   39.65    3.62
   6   4  -1   46.51    3.41
   6   4   0    0.66    0.68
   6   4   0    1.04    0.70
   6  -4   0    0.78    0.62
   6  -4   0   -0.29    0.84
  -6  -4   0    1.65    0.89
   6  -4   1  267.10   16.65
   6   4   1  282.92   16.78
  -6  -4  -1  301.83   16.63
   6   4   1  288.58   16.75
   6   4   2  110.46    8.19
  -6   4  -2  124.42    8.25
   6   4   2  123.86    8.19
   6  -4   2  149.31    8.50
   6  -4   2  134.43    8.43
   6   4   3   14.22    2.09
  -6   4  -3   21.43    2.41
   6  -4   3   21.58    2.41
   6  -4   3   20.68    2.35
   6  -4   4   10.27    1.80
  -6   4  -4   14.82    2.00
   6   4   4   11.17    1.78
   6  -4   4   11.90    1.80
  -6  -4  -5  246.13   14.64
  -6   4  -5  245.89   14.69
  -6   4  -5  239.03   14.52
   6   4   5  262.73   14.84
   6  -4   5  245.06   14.69
   6  -4   5  258.67   14.69
  -6  -4  -6  152.34    9.91
  -6   4  -6  164.68   10.05
  -6   4  -6  153.16    9.84
   6   4   6  154.24   10.03
   6  -4   6  159.05   10.05
   6  -4   6  160.23    9.96
  -6  -4  -7    4.16    1.41
  -6   4  -7    5.72    1.64
  -6   4  -7    5.69    1.53
   6   4   7    5.29    1.46
   6  -4   7    3.28    1.24
   6  -4   7    8.82    1.59
  -6   4  -8    7.79    1.80
  -6  -4  -8    7.37    1.78
   6  -4   8   12.00    2.09
  -6   4  -8    8.17    1.73
   6   4   8    6.41    1.73
  -6  -4  -9   98.32    6.88
  -6   4  -9   86.94    6.68
   6   4   9   81.23    6.89
   6  -4   9   87.31    6.99
  -6  -4 -10    2.35    1.37
  -6   4 -10    1.70    1.26
  -6   4 -10   -0.62    1.31
   6   4  10    1.66    1.32
   6  -4  10   -0.41    1.21
  -6  -4 -11  109.13    7.83
  -6   4 -11   99.35    7.54
   6   4  11  119.44    8.49
   6  -4  11  118.69    8.47
  -6   4 -11  109.69    7.88
  -6  -4 -12    0.73    1.42
  -6   4 -12   -0.37    1.33
  -6   4 -12    0.33    1.24
   6   4  12    1.44    1.29
   6  -4  12    1.43    1.45
  -6   4 -13   39.12    4.04
   6   4  13   42.51    4.82
   6  -4  13   41.05    4.74
  -6   4 -14  135.87    9.53
   6   4  14  156.25   10.93
   6  -4  14  138.37   10.56
  -6   4 -15   24.17    3.36
   6   4  15   38.09    4.79
   6  -4  15   29.82    4.28
   6   4  16    1.30    2.07
   6  -4  16    2.58    2.12
   6   4  17    5.58    2.78
   6  -4  17    2.06    2.03
   6   4  18    2.97    2.36
   6  -4  18   -2.95    2.94
   6  -4  18    0.66    1.86
   6   4  18   -0.37    1.01
   6   4  19  100.39    9.42
   6  -4  19   83.10    8.84
   6  -4  19   87.56    8.49
   6   4  20   61.61    7.63
   6  -4  20   53.13    7.19
   6  -4  20   63.01    7.06
   6  -4  21   14.86    3.90
   6   4  21   13.52    4.03
   6  -4  21    8.96    3.93
   6  -4  22    0.72    2.38
  -6  -5  24    1.95    2.53
  -6   5  24   -0.64    2.32
  -6   5  23   25.42    4.22
  -6  -5  23   30.66    4.72
  -6  -5  22  161.39   11.79
  -6   5  22  146.37   11.41
  -6  -5  21   -2.30    2.19
  -6   5  21   -0.57    1.99
  -6  -5  20   -0.55    2.04
  -6   5  20    1.09    1.96
  -6  -5  19   11.07    2.71
  -6   5  19    4.14    2.04
  -6  -5  18   10.02    2.58
  -6   5  18   11.88    2.65
  -6   5  18   11.98    3.26
  -6  -5  17   12.94    2.67
  -6   5  17   14.64    2.89
  -6   5  17   13.86    3.23
  -6  -5  16    8.74    2.28
  -6   5  16    8.20    2.12
  -6   5  16    7.44    2.56
   6   5 -15   30.69    4.87
  -6  -5  15   42.13    4.36
  -6   5  15   35.58    4.13
  -6   5  15   38.44    4.66
   6   5 -14   77.30    7.54
   6  -5 -14   75.04    5.72
   6   5 -14   66.97    5.55
  -6   5  14   69.12    6.62
  -6  -5  14   63.44    5.95
  -6   5  14   74.40    6.16
  -6  -5  13   16.31    2.65
   6   5 -13   17.80    3.59
  -6   5  13   17.34    2.62
   6   5 -13   17.73    2.47
   6  -5 -13   14.92    2.30
  -6   5  13   12.39    2.94
  -6  -5  12  124.24    8.94
   6   5 -12  124.76    8.45
   6  -5 -12  124.46    8.41
  -6   5  12  146.44    9.80
  -6   5  12  129.18    8.98
  -6  -5  11    5.50    1.63
  -6   5  11    4.73    1.56
  -6   5  11    4.11    1.75
   6   5 -11    4.12    1.49
   6  -5 -11    2.62    1.39
  -6  -5  10   80.08    6.36
  -6   5  10   76.55    6.70
   6   5 -10   82.18    6.18
   6  -5 -10   89.54    6.24
  -6   5  10   91.92    6.58
   6  -5  -9   13.57    2.48
  -6  -5   9   14.47    1.48
   6  -5  -9   12.96    1.99
  -6   5   9   14.10    2.19
  -6  -5   9   11.11    1.56
  -6   5   9   14.41    2.60
   6   5  -9   12.14    1.98
  -6  -5   9    9.77    2.00
   6   5  -8  137.92    8.24
   6  -5  -8  131.84    8.19
  -6  -5   8  121.26    7.27
  -6  -5   8  119.52    7.49
  -6   5   8  124.29    8.93
   6  -5  -8  120.16    8.87
   6  -5  -7    3.71    1.47
   6  -5  -7    5.74    1.54
  -6  -5   7    6.47    1.10
   6   5  -7    6.68    1.52
   6  -5  -7    6.59    1.41
  -6  -5   7    4.20    0.96
  -6  -5   6  110.66    6.23
   6   5  -6   92.42    6.62
   6  -5  -6  100.88    6.74
   6  -5  -6   89.31    7.37
  -6  -5   6   96.97    6.05
  -6  -5   5  144.59    8.62
   6   5  -5  150.83    9.19
   6  -5  -5  128.25    8.95
   6  -5  -5  169.06   10.41
  -6  -5   5  154.61    8.57
   6   5  -4   60.83    4.75
   6  -5  -4   65.28    4.88
  -6  -5   4   65.59    4.45
   6  -5  -4   74.59    5.87
   6  -5  -3    4.75    1.46
   6   5  -3    4.89    1.21
   6  -5  -3    2.92    0.97
  -6  -5   3    4.32    0.98
   6  -5  -3    3.29    1.57
   6  -5  -2  127.37    9.04
   6   5  -2  148.56    8.95
  -6  -5   2  142.82    8.51
   6  -5  -2  140.07    9.88
   6   5  -2  143.46    8.60
   6  -5  -1  212.89   12.96
   6   5  -1  215.85   13.00
   6  -5  -1  238.24   13.43
  -6  -5   1  217.48   12.63
   6   5  -1  218.90   12.81
   6  -5   0    7.18    1.34
   6  -5   0    8.46    1.66
   6   5   0    9.98    1.58
   6   5   0    9.59    1.62
   6   5   1   28.32    2.97
   6  -5   1   33.06    3.10
   6  -5   1   39.83    3.52
   6   5   1   31.54    3.22
   6   5   2    1.89    1.11
  -6   5  -2    1.17    0.93
   6  -5   2    2.60    1.11
   6   5   2    3.40    1.18
   6  -5   2    3.33    1.21
  -6   5  -3  133.62    8.71
   6   5   3  124.28    8.48
   6  -5   3  129.26    8.54
   6  -5   3  139.43    8.83
   6   5   3  145.85    9.24
   6   5   4   63.50    5.57
  -6   5  -4   76.80    5.42
   6   5   4   60.72    5.01
   6  -5   4   80.06    5.37
   6  -5   4   57.40    5.00
   6   5   5   34.97    4.02
  -6  -5  -5   31.82    3.29
  -6   5  -5   30.95    3.29
  -6   5  -5   33.95    3.39
   6   5   5   41.06    3.54
   6  -5   5   31.98    3.22
   6  -5   5   32.73    3.26
  -6  -5  -6   83.22    6.22
  -6   5  -6   77.12    6.12
   6   5   6   88.47    6.35
   6  -5   6   97.72    6.51
   6  -5   6   78.84    6.14
  -6   5  -6   96.92    6.46
  -6  -5  -7   19.72    2.58
  -6   5  -7   23.86    2.95
   6   5   7   21.66    2.71
   6  -5   7   24.76    2.81
   6  -5   7   28.04    2.84
  -6   5  -7   24.88    2.89
  -6   5  -8   39.14    3.88
  -6  -5  -8   46.83    4.16
  -6   5  -8   40.79    3.95
   6   5   8   37.02    3.97
   6  -5   8   49.04    4.37
   6  -5   8   49.62    4.04
  -6  -5  -9   44.32    4.25
  -6   5  -9   44.27    4.28
  -6   5  -9   56.42    4.53
   6   5   9   44.98    4.51
   6  -5   9   55.68    4.84
  -6  -5 -10   13.90    2.36
  -6   5 -10   13.36    2.43
  -6   5 -10   14.51    2.38
   6   5  10   14.21    2.70
   6  -5  10   13.68    2.49
  -6  -5 -11  197.04   12.22
  -6   5 -11  179.59   12.04
  -6   5 -11  210.35   12.15
   6   5  11  187.58   12.64
   6  -5  11  182.10   12.52
  -6  -5 -12   15.78    2.72
  -6   5 -12   23.26    2.88
   6   5  12   15.01    2.91
   6  -5  12   20.69    3.28
  -6   5 -13   14.10    2.34
   6   5  13   11.01    2.63
   6  -5  13    9.37    2.61
  -6   5 -14    2.73    1.52
   6   5  14    6.25    2.51
   6  -5  14    1.69    1.92
   6  -5  15    3.64    2.14
  -6   5 -15    7.64    2.04
   6   5  15    6.12    2.34
  -6   5 -16   13.72    2.47
   6   5  16   13.20    3.47
   6  -5  16   12.38    3.25
   6   5  17   40.84    5.81
   6  -5  17   41.74    5.59
   6   5  18    3.76    2.56
   6  -5  18    2.24    2.84
   6  -5  18    0.72    2.21
   6   5  19   11.30    3.68
   6  -5  19   20.05    4.35
   6  -5  19    9.64    3.51
   6  -5  20    1.51    2.80
   6   5  20   -1.72    3.26
   6  -5  20    1.69    3.05
   6  -5  21   16.99    4.30
   6   5  21   17.32    4.60
   6  -5  21   19.80    4.74
   6  -5  22    2.37    3.00
   6  -5  23   -0.80    2.64
  -6  -6  24   -1.29    2.32
  -6   6  24   -0.64    2.42
  -6  -6  23  118.44    9.61
  -6   6  23  104.93    9.39
  -6  -6  22    5.97    2.49
  -6   6  22    4.10    2.13
  -6  -6  21    6.27    2.50
  -6   6  21    8.99    2.64
  -6  -6  20    7.10    2.52
  -6   6  20    7.55    2.41
  -6  -6  19   21.95    3.72
  -6   6  19   12.35    2.91
  -6  -6  18   -1.00    1.85
  -6   6  18    0.49    1.78
  -6  -6  17   15.91    3.10
  -6   6  17   29.56    3.83
  -6   6  17   22.89    4.08
  -6  -6  16    6.02    2.06
  -6   6  16    4.59    1.80
  -6   6  16    3.06    2.28
  -6  -6  15    1.79    1.66
  -6   6  15    2.21    1.41
  -6   6  15    1.18    2.07
  -6   6  14    7.16    2.17
   6  -6 -14    4.35    1.74
   6   6 -14    5.75    1.80
  -6  -6  14    9.36    2.31
  -6   6  14    4.52    2.17
   6   6 -13  965.07   57.42
  -6  -6  13 1087.12   55.79
   6   6 -13 1051.22   55.02
   6  -6 -13 1057.25   54.99
  -6   6  13 1015.50   55.58
  -6   6  13  986.60   56.47
  -6   6  12   19.75    2.71
   6   6 -12    6.65    2.79
   6   6 -12   11.25    2.16
   6  -6 -12   14.39    2.31
  -6   6  12   12.62    2.87
  -6  -6  12   14.55    2.35
   6   6 -11  301.33   17.63
   6  -6 -11  312.52   17.66
  -6  -6  11  301.83   18.12
  -6   6  11  289.15   17.98
  -6   6  11  345.70   19.37
  -6   6  10   39.09    3.92
   6   6 -10   43.08    3.86
   6  -6 -10   45.92    3.89
  -6  -6  10   37.22    3.51
  -6   6  10   36.40    4.36
  -6  -6  10   34.19    3.71
   6  -6  -9    0.49    1.38
   6   6  -9    1.13    1.12
   6  -6  -9    1.09    1.16
  -6  -6   9    1.28    0.62
  -6   6   9    0.96    1.41
  -6  -6   9    2.44    1.02
  -6  -6   9    0.33    1.03
  -6  -6   8   86.47    5.24
  -6   6   8   91.69    7.34
  -6  -6   8   82.72    5.82
   6   6  -8   90.73    6.11
   6  -6  -8   83.01    7.10
   6  -6  -8   80.93    5.94
   6   6  -7   97.58    6.38
   6  -6  -7   99.15    6.39
  -6  -6   7   93.38    6.11
  -6  -6   7   82.96    5.56
   6  -6  -7   88.77    7.42
  -6  -6   6    3.67    1.08
  -6  -6   6    4.85    1.05
   6   6  -6    5.49    1.36
   6  -6  -6    5.92    1.45
   6  -6  -6    2.85    1.58
  -6  -6   5  285.46   15.13
   6   6  -5  259.93   15.53
   6  -6  -5  266.27   15.54
   6  -6  -5  270.35   17.12
  -6  -6   5  277.29   15.46
  -6  -6   4  437.08   24.07
   6  -6  -4  455.27   24.98
  -6  -6   4  445.78   23.82
   6  -6  -4  428.14   25.72
   6   6  -4  454.12   24.29
   6  -6  -4  428.63   24.22
   6   6  -3   19.78    2.33
   6  -6  -3   23.26    2.84
   6  -6  -3   27.06    2.61
  -6  -6   3   25.17    2.34
   6  -6  -3   23.86    3.43
   6   6  -2   82.85    5.84
   6  -6  -2   86.75    6.03
   6  -6  -2   92.26    5.99
   6   6  -2   86.67    6.03
   6  -6  -2   81.32    7.11
   6  -6  -2   75.35    6.14
  -6  -6   2   83.57    5.65
   6  -6  -1  302.22   17.51
   6  -6  -1  308.77   17.98
   6   6  -1  314.60   17.61
   6  -6  -1  301.42   19.00
   6   6  -1  312.59   17.74
   6   6   0    2.78    0.91
   6  -6   0    2.02    0.84
   6  -6   0    0.32    0.99
   6   6   0    0.91    1.18
   6   6   1  218.64   12.82
   6  -6   1  192.95   12.59
   6   6   1  210.41   13.22
   6   6   2   96.31    6.59
   6  -6   2   98.43    6.62
   6  -6   2   89.15    6.86
   6   6   2  104.77    7.31
   6   6   3   27.37    3.55
   6   6   3   30.57    3.07
   6  -6   3   31.80    3.07
   6  -6   3   37.47    3.49
  -6   6  -4   32.65    3.50
   6   6   4   34.97    3.35
   6  -6   4   33.91    3.31
   6  -6   4   38.39    3.58
   6   6   4   38.27    4.01
   6   6   5    3.99    1.91
  -6   6  -5    5.01    1.59
   6   6   5    7.40    1.62
   6  -6   5    9.41    1.65
   6  -6   5    6.78    1.56
   6   6   6   45.61    4.94
  -6  -6  -6   48.04    4.18
  -6   6  -6   46.54    4.08
  -6   6  -6   40.82    4.04
   6   6   6   44.83    4.05
   6  -6   6   50.27    4.17
   6  -6   6   38.73    3.91
   6   6   7   61.85    5.96
  -6  -6  -7   62.98    4.98
  -6   6  -7   72.70    5.30
  -6   6  -7   51.43    4.70
   6   6   7   56.20    4.92
   6  -6   7   62.11    5.02
   6  -6   7   55.94    4.79
   6   6   8   12.97    3.03
  -6   6  -8   13.32    2.20
  -6  -6  -8   17.53    2.46
  -6   6  -8   12.49    2.22
   6   6   8   16.42    2.49
   6  -6   8   15.68    2.47
   6  -6   8   14.51    2.19
   6   6   9    8.05    2.32
  -6  -6  -9    6.50    1.76
  -6   6  -9    5.58    1.64
   6   6   9    8.61    2.02
   6  -6   9    7.41    1.85
   6  -6   9    6.52    1.44
  -6   6  -9    6.50    1.84
  -6  -6 -10    2.04    1.26
  -6   6 -10    1.72    1.49
  -6   6 -10    1.33    1.38
   6   6  10    3.37    1.39
   6  -6  10    2.52    1.51
  -6  -6 -11    0.71    1.39
  -6   6 -11    2.36    1.57
   6   6  11    1.82    1.28
   6  -6  11    2.71    1.54
  -6   6 -11    5.03    1.91
  -6   6 -12    4.10    1.84
   6   6  12    1.96    1.91
   6  -6  12    1.46    1.50
  -6   6 -13    5.18    1.89
   6   6  13    2.66    1.98
   6  -6  13    3.71    2.07
  -6   6 -14   46.24    4.49
   6   6  14   48.23    5.45
   6  -6  14   46.37    5.37
  -6   6 -15    5.68    1.87
   6   6  15    8.02    2.79
   6  -6  15    8.01    2.74
  -6   6 -16    0.36    1.43
   6   6  16    0.66    2.03
   6  -6  16   -1.33    2.11
   6   6  17    4.26    2.41
   6  -6  17    1.42    2.48
   6  -6  17    3.07    2.84
   6   6  18   19.74    4.00
   6  -6  18   15.96    3.90
   6  -6  18   11.84    3.57
   6  -6  19    8.06    3.22
   6   6  19    1.62    2.67
   6  -6  19    3.24    2.93
   6  -6  20    4.11    3.42
   6   6  20   -3.45    3.28
   6  -6  20   -1.72    3.11
   6   6  21   72.51    8.61
   6  -6  21   68.19    8.30
   6  -6  21   75.58    8.36
   6  -6  22   11.13    4.09
   6  -6  23   -0.87    3.39
  -6   7  24   -1.26    2.33
  -6  -7  23   -1.23    2.22
  -6   7  23    5.46    2.67
  -6  -7  22   36.61    5.12
  -6   7  22   51.78    5.65
  -6  -7  21    1.70    1.99
  -6   7  21    3.35    2.33
  -6  -7  20    7.06    2.42
  -6   7  20    6.46    2.36
  -6  -7  19   25.17    3.82
  -6   7  19   20.25    3.52
  -6  -7  18    5.04    2.12
  -6   7  18    9.47    2.53
  -6  -7  17    5.81    2.23
  -6   7  17    3.84    2.01
  -6  -7  16   39.18    4.56
  -6   7  16   42.84    4.65
  -6  -7  15    0.89    1.51
  -6   7  15    1.32    1.54
  -6   7  15    0.63    2.22
  -6  -7  14   59.24    5.56
  -6   7  14   67.03    5.79
   6   7 -14   64.35    5.23
   6  -7 -14   67.40    5.24
  -6   7  14   53.14    6.30
  -6   7  13    3.17    1.47
   6  -7 -13    0.88    1.27
   6   7 -13   -0.30    1.21
  -6   7  13    1.19    1.89
  -6  -7  13    0.40    1.27
  -6  -7  12   25.00    3.16
   6   7 -12   25.75    2.97
  -6   7  12   31.27    3.51
   6  -7 -12   23.00    2.87
  -6   7  12   30.97    4.34
  -6   7  11   14.86    2.52
   6   7 -11   11.06    3.33
  -6  -7  11   11.66    2.17
  -6   7  11   13.96    3.02
   6   7 -11    9.01    2.01
   6  -7 -11   14.15    2.13
  -6  -7  11   12.68    2.28
   6  -7 -10   14.52    2.93
  -6  -7  10   13.84    1.33
  -6  -7  10   13.91    2.34
   6   7 -10   15.56    3.52
  -6   7  10   14.92    2.38
  -6  -7  10   13.73    2.21
  -6   7  10   12.01    2.80
   6   7 -10   14.98    2.20
   6  -7 -10   15.83    2.27
   6   7  -9   -0.56    1.21
   6  -7  -9    1.35    1.20
   6  -7  -9    0.55    1.33
   6   7  -9    0.66    2.30
  -6  -7   9    1.21    0.68
  -6   7   9    1.08    1.58
  -6  -7   9    0.30    0.94
   6   7  -8   10.66    1.84
   6  -7  -8    7.65    2.32
   6  -7  -8    7.56    1.74
  -6  -7   8   11.73    1.33
  -6  -7   8    6.88    1.66
   6   7  -7   98.69    7.08
   6  -7  -7  113.63    7.25
  -6  -7   7  108.87    6.54
  -6  -7   7  111.27    7.40
   6  -7  -7  117.01    9.02
   6   7  -6  197.07   11.41
   6  -7  -6  191.57   11.34
  -6  -7   6  189.02   10.76
   6  -7  -6  188.50   13.11
  -6  -7   6  181.67   11.53
  -6  -7   5   -0.28    0.89
   6   7  -5    1.44    1.02
   6  -7  -5    1.65    0.96
   6  -7  -5    1.47    1.39
  -6  -7   5    0.51    0.75
   6  -7  -5    1.06    1.28
   6  -7  -4   41.09    4.29
  -6  -7   4   50.71    3.64
   6   7  -4   51.15    3.91
   6  -7  -4   43.44    3.74
   6  -7  -4   47.04    5.14
  -6  -7   4   48.16    4.08
  -6  -7   3  300.42   17.09
   6   7  -3  310.43   16.77
   6  -7  -3  279.67   17.34
   6  -7  -3  289.78   16.65
   6  -7  -3  286.84   18.53
   6   7  -2    7.37    1.48
   6  -7  -2    5.52    1.28
   6  -7  -2    6.71    1.70
   6   7  -2    5.02    1.29
   6  -7  -2    6.18    1.30
   6  -7  -2    8.17    2.29
   6   7  -1   33.50    3.09
   6  -7  -1   29.67    2.97
   6  -7  -1   30.77    3.39
   6   7  -1   35.68    3.16
   6   7  -1   35.95    3.60
   6  -7  -1   28.50    4.06
   6  -7   0   38.54    3.47
   6  -7   0   48.53    4.17
   6   7   0   34.56    3.34
   6  -7   0   44.03    4.99
   6   7   0   40.71    4.00
   6  -7   1   27.77    2.83
   6  -7   1   26.51    3.11
   6   7   1   30.26    2.92
   6   7   1   32.60    3.54
   6   7   2  105.95    6.93
   6  -7   2  114.67    7.04
   6   7   2  115.66    8.01
   6   7   3   -0.26    0.87
   6  -7   3   -1.36    1.16
   6  -7   3    0.26    0.95
   6   7   3   -1.28    1.54
   6   7   4   14.56    2.71
   6   7   4   13.05    2.06
   6  -7   4   12.52    1.95
   6  -7   4   14.16    2.25
   6   7   5  106.83    6.73
   6  -7   5   83.93    6.37
   6  -7   5   80.02    6.49
   6   7   5   99.97    7.80
   6   7   6   23.94    3.66
  -6   7  -6   26.39    2.99
   6   7   6   24.06    2.89
   6  -7   6   23.77    2.80
   6  -7   6   27.71    3.08
  -6   7  -7  146.25    9.83
  -6   7  -7  148.65    9.77
  -6  -7  -7  147.67    9.73
   6   7   7  159.04    9.97
   6  -7   7  151.84    9.90
   6  -7   7  150.22    9.78
   6   7   7  145.83   11.11
  -6   7  -8  241.90   14.93
  -6  -7  -8  239.29   14.78
  -6   7  -8  252.81   14.91
   6   7   8  241.47   15.10
   6  -7   8  259.87   15.26
   6  -7   8  258.78   14.91
   6   7   8  241.67   16.40
  -6   7  -9   62.07    5.14
  -6  -7  -9   53.86    4.87
  -6   7  -9   55.24    4.89
   6   7   9   58.54    5.23
   6  -7   9   58.36    5.20
   6  -7   9   57.12    4.84
   6   7   9   57.38    6.19
   6   7  10   96.90    8.61
  -6   7 -10   77.05    6.72
  -6  -7 -10   92.03    6.94
  -6   7 -10  107.61    7.22
   6   7  10  100.28    7.48
   6  -7  10   85.00    7.23
   6  -7  10  106.07    7.05
  -6   7 -11   43.51    4.30
  -6  -7 -11   41.69    4.32
   6   7  11   43.01    4.61
   6  -7  11   43.70    4.64
  -6   7 -11   46.06    4.46
  -6   7 -12   74.83    6.31
   6   7  12   90.26    7.41
   6  -7  12   84.12    7.17
  -6   7 -13   78.15    6.27
   6   7  13   78.00    7.06
   6  -7  13   75.05    7.11
  -6   7 -14    2.52    1.70
   6   7  14    0.58    1.97
   6  -7  14    1.17    2.16
  -6   7 -15   56.02    5.01
   6   7  15   58.31    6.28
   6  -7  15   56.36    6.20
   6   7  15   48.60    3.78
  -6   7 -16    1.84    1.78
   6   7  16    4.69    2.49
   6  -7  16    9.43    3.03
   6   7  17    9.32    3.34
   6  -7  17   -0.72    2.75
   6  -7  17    5.02    3.02
   6   7  18   42.27    5.84
   6  -7  18   42.51    5.94
   6  -7  18   26.52    5.31
   6  -7  19    6.97    3.39
   6   7  19    1.64    3.03
   6  -7  19    1.65    2.71
   6  -7  20    6.23    3.47
   6   7  20    5.23    3.48
   6  -7  20    6.95    3.47
   6  -7  21   23.58    5.07
   6   7  21   14.81    4.54
   6  -7  21   16.62    4.66
   6  -7  22   13.84    4.55
   6  -7  23    2.81    3.74
  -6  -8  23    2.45    2.33
  -6   8  23    1.21    2.13
  -6  -8  22   -0.59    2.13
  -6   8  22   -0.59    2.11
  -6  -8  21   -0.57    1.93
  -6   8  21    0.56    1.97
  -6  -8  20    2.74    2.08
  -6   8  20    0.54    2.01
  -6  -8  19    7.37    2.44
  -6   8  19    8.89    2.62
  -6  -8  18    8.62    2.40
  -6   8  18   10.03    2.70
  -6   8  17   70.36    6.38
  -6  -8  17   66.67    6.24
  -6  -8  16   12.90    2.96
  -6   8  16   15.10    2.79
  -6  -8  15   16.67    2.96
  -6   8  15   20.43    3.08
  -6   8  14    2.06    1.69
   6  -8 -14    6.07    1.76
   6   8 -14    3.80    1.60
  -6  -8  14    4.14    1.77
   6  -8 -13   37.96    3.76
   6   8 -13   38.38    3.87
  -6  -8  13   35.42    4.13
  -6   8  13   45.08    4.43
  -6   8  13   47.44    5.60
  -6   8  12   21.46    2.98
   6  -8 -12   18.85    2.56
   6   8 -12   20.54    2.65
  -6  -8  12   24.02    3.15
  -6   8  12   21.89    3.90
  -6  -8  12   20.28    3.01
  -6  -8  11   33.86    3.87
   6   8 -11   40.99    3.66
   6  -8 -11   36.12    3.50
  -6   8  11   40.02    4.03
  -6  -8  11   47.63    4.33
  -6   8  11   37.96    5.06
   6  -8 -10    1.25    1.76
  -6  -8  10    0.41    0.51
  -6   8  10   -0.60    2.04
  -6  -8  10    1.45    1.27
   6   8 -10    4.28    1.42
   6  -8 -10   -0.26    1.07
  -6  -8   9   97.58    5.62
   6   8  -9   92.77    6.58
   6  -8  -9   94.08    6.52
  -6   8   9   84.78    8.02
  -6  -8   9   93.37    7.04
   6  -8  -9  104.43    8.61
  -6  -8   8  120.84    6.68
   6   8  -8  107.77    7.41
   6  -8  -8  100.86    7.24
  -6  -8   8  110.51    7.87
   6  -8  -8  109.51    9.23
  -6  -8   7  243.32   13.31
  -6  -8   7  220.39   14.38
   6  -8  -7  262.05   16.53
   6   8  -7  219.21   13.82
   6  -8  -7  269.03   14.10
   6   8  -6   46.88    3.86
   6  -8  -6   48.87    3.89
  -6  -8   6   44.30    3.43
   6  -8  -6   47.89    5.39
  -6  -8   6   52.12    4.50
  -6  -8   5    2.41    1.28
   6  -8  -5    5.00    1.74
  -6  -8   5    3.05    1.06
   6   8  -5    3.03    1.15
   6  -8  -5    2.76    1.10
   6  -8  -5    7.14    2.27
  -6  -8   4    5.20    1.69
   6  -8  -4    2.27    1.39
   6  -8  -4    6.94    1.38
   6   8  -4    5.74    1.32
   6  -8  -4    8.40    2.51
  -6  -8   3   50.89    4.72
   6  -8  -3   58.90    4.52
   6  -8  -3   51.86    4.84
   6  -8  -3   58.43    5.97
   6   8  -3   50.42    4.19
   6  -8  -3   61.70    4.40
   6  -8  -2   14.68    1.97
   6  -8  -2   14.59    1.92
   6  -8  -2   14.06    2.43
   6   8  -2   18.76    2.23
   6   8  -2   12.07    1.95
   6  -8  -2   17.64    3.31
   6   8  -1   13.92    2.07
   6   8  -1   16.08    2.09
   6  -8  -1   17.31    2.11
   6  -8  -1   17.70    2.59
   6  -8  -1   17.62    2.19
   6   8  -1   17.85    2.69
   6  -8  -1   15.46    3.46
   6   8   0    2.93    1.08
   6  -8   0    0.97    0.95
   6  -8   0   -0.73    1.11
   6  -8   0    3.17    1.70
   6   8   0    2.01    1.23
   6   8   1  176.56   11.10
   6  -8   1  181.80   11.12
   6  -8   1  202.35   12.06
   6   8   1  193.77   12.36
   6   8   2  169.72   10.86
   6  -8   2  201.74   11.11
   6  -8   2  157.86   11.30
   6   8   2  204.23   12.49
   6   8   3   40.13    3.42
   6  -8   3   29.77    3.13
   6  -8   3   37.52    3.83
   6   8   3   31.38    4.06
   6   8   4   34.66    3.18
   6  -8   4   31.39    3.12
   6  -8   4   28.18    3.34
   6   8   4   24.74    3.75
   6   8   5  107.10    7.28
   6  -8   5   98.55    7.17
   6  -8   5  122.32    7.86
   6   8   5   95.29    8.36
   6   8   6    3.31    2.05
   6   8   6    5.00    1.47
   6  -8   6    5.68    1.53
   6  -8   6    3.07    1.46
   6   8   7    2.90    2.21
  -6  -8  -7   -0.62    1.45
  -6   8  -7   -0.94    1.51
   6  -8   7    0.69    1.43
   6   8   7    0.34    1.48
   6  -8   7    2.01    1.42
   6   8   8    1.83    1.94
  -6  -8  -8    4.85    1.67
   6   8   8    1.46    1.39
   6  -8   8    0.37    1.37
  -6   8  -8    1.94    1.51
   6  -8   8    2.34    1.31
  -6   8  -9  290.46   16.03
   6   8   9  251.44   16.08
   6  -8   9  266.02   16.31
   6  -8   9  259.07   15.74
  -6  -8  -9  256.56   15.79
   6   8   9  276.52   17.89
  -6  -8 -10   66.63    5.54
  -6   8 -10   64.76    5.53
   6   8  10   64.26    5.80
   6  -8  10   63.51    5.77
   6  -8  10   73.89    5.56
  -6  -8 -11   12.49    2.34
  -6   8 -11   10.73    2.20
   6   8  11   11.22    2.23
   6   8  11    9.69    2.48
   6  -8  11   10.29    2.55
   6  -8  11   13.73    2.30
  -6   8 -12    3.66    1.88
   6   8  12    4.14    1.60
   6   8  12    4.03    2.06
   6  -8  12    5.60    2.17
   6   8  13    6.70    1.66
  -6   8 -13    8.87    2.20
   6   8  13    7.05    2.51
   6  -8  13    6.59    2.49
   6   8  14    2.18    1.17
  -6   8 -14    3.72    1.87
   6   8  14    1.76    2.06
   6  -8  14    2.95    2.30
  -6   8 -15    7.10    2.14
   6   8  15   10.67    3.09
   6  -8  15    6.36    2.83
   6   8  16   -2.69    2.55
   6  -8  16   -0.68    3.17
   6  -8  16    6.18    3.35
   6   8  17    5.06    3.09
   6  -8  17    8.05    3.37
   6  -8  17    9.97    3.79
   6  -8  18   15.72    4.60
   6   8  18   10.80    3.56
   6  -8  18    5.47    3.08
   6  -8  19   11.30    4.05
   6   8  19   16.42    4.24
   6  -8  19   12.50    3.87
   6  -8  20    0.96    2.94
   6   8  20    2.62    2.68
   6  -8  20   -0.88    2.58
   6  -8  21   20.50    5.01
   6  -8  22   24.78    5.78
  -6  -9  23   22.14    3.93
  -6   9  23   17.08    3.76
  -6  -9  22    2.37    2.13
  -6   9  22    2.94    2.34
  -6   9  21    6.80    2.74
  -6  -9  21    5.70    2.71
  -6  -9  20    3.29    2.08
  -6   9  20    1.63    1.95
  -6   9  19   60.75    6.28
  -6  -9  19   71.67    6.62
  -6  -9  18    3.50    2.13
  -6   9  18    3.48    2.03
  -6  -9  17   16.23    3.08
  -6   9  17   18.03    3.14
  -6  -9  16  103.66    8.08
  -6   9  16  103.70    8.04
  -6  -9  15  167.22   11.33
  -6   9  15  166.91   11.32
  -6  -9  14   -0.81    1.47
  -6   9  14   -2.04    1.83
   6  -9 -14    0.99    2.27
   6   9 -14    0.52    2.01
  -6   9  13   93.50    7.26
   6  -9 -13   96.40    6.74
   6   9 -13  101.41    6.90
  -6  -9  13   89.70    7.56
  -6  -9  13   96.15    7.28
  -6   9  12    5.61    1.61
   6  -9 -12    5.92    1.69
   6   9 -12    6.51    1.64
  -6  -9  12    3.10    1.62
  -6  -9  12    7.09    1.95
   6  -9 -11   16.61    3.54
   6   9 -11   13.07    2.16
   6  -9 -11   13.71    2.13
  -6   9  11    8.67    2.86
  -6  -9  11   17.96    2.85
   6  -9 -10  115.92    9.30
  -6  -9  10   93.03    5.42
   6   9 -10  102.73    6.74
   6  -9 -10   97.25    6.56
  -6   9  10  103.16    9.02
  -6  -9  10   84.01    7.17
   6  -9  -9   25.30    4.11
   6  -9  -9   20.60    2.42
  -6  -9   9   19.86    1.81
   6   9  -9   23.13    2.61
  -6  -9   9   16.87    2.79
   6  -9  -8    0.49    1.10
   6  -9  -8    0.68    1.91
  -6  -9   8    0.14    0.73
  -6  -9   8    1.61    1.19
   6   9  -8   -1.01    1.05
   6  -9  -7   31.17    4.85
  -6  -9   7   31.72    2.58
   6   9  -7   28.51    2.99
   6  -9  -7   34.82    3.11
  -6  -9   7   23.74    3.34
   6   9  -6    4.17    2.50
   6   9  -6    1.37    1.04
   6  -9  -6   -0.66    1.04
  -6  -9   6   -0.17    0.84
   6  -9  -6    4.71    2.28
  -6  -9   6    3.24    1.58
   6   9  -5   69.44    7.48
   6   9  -5   79.95    5.55
   6  -9  -5   81.25    5.48
   6  -9  -5   79.07    6.41
   6  -9  -5   69.97    7.28
  -6  -9   5   85.68    6.61
   6  -9  -4   10.74    1.71
  -6  -9   4    7.36    2.05
   6  -9  -4    8.32    2.13
   6   9  -4    9.34    3.04
   6  -9  -4   17.31    3.33
   6   9  -4    8.74    1.65
  -6  -9   3    5.00    1.67
   6   9  -3    3.26    1.14
   6  -9  -3    7.26    1.32
   6  -9  -3    2.36    1.39
   6   9  -3    1.30    2.08
   6   9  -3    2.04    1.01
   6  -9  -3    3.19    1.01
   6  -9  -3    6.69    2.48
  -6  -9   2   34.65    3.79
   6  -9  -2   32.75    2.88
   6   9  -2   29.46    2.83
   6  -9  -2   30.00    2.84
   6   9  -2   26.01    4.26
   6  -9  -2   33.25    3.60
   6  -9  -2   23.02    4.01
   6   9  -2   23.55    2.62
   6   9  -1   53.02    6.05
   6   9  -1   54.41    4.23
   6  -9  -1   45.13    4.69
   6  -9  -1   64.88    4.41
   6  -9  -1   55.67    4.25
   6   9  -1   51.01    5.28
   6  -9  -1   50.17    6.05
   6   9  -1   56.98    4.33
   6   9   0  116.04    9.87
   6  -9   0  124.66    8.80
   6   9   0  117.98    7.88
   6  -9   0  128.42    8.01
   6   9   0  128.26    8.09
   6  -9   0  131.26    8.08
   6   9   0  131.06    9.33
   6  -9   0  128.80   10.55
   6   9   1    0.71    0.83
   6  -9   1    2.59    1.08
   6   9   1   -0.58    2.03
   6  -9   1    1.13    1.19
   6  -9   1    2.13    1.91
   6   9   1    1.42    1.56
   6   9   2    0.49    0.88
   6   9   2    0.56    1.84
   6  -9   2    0.24    0.95
   6  -9   2   -0.37    1.13
   6   9   2    0.99    1.51
   6   9   3    8.67    2.71
   6   9   3   14.14    2.07
   6  -9   3   13.85    2.04
   6  -9   3   20.60    2.77
   6   9   3   21.11    3.44
   6   9   4    1.57    2.04
   6   9   4    2.68    1.19
   6  -9   4    3.25    1.29
   6  -9   4    2.98    1.46
   6   9   4    5.35    2.23
   6   9   5  124.97   10.38
   6   9   5  148.87    9.42
   6  -9   5  147.24    9.45
   6  -9   5  170.35   10.18
   6   9   5  138.71   10.97
   6   9   6   21.14    3.45
   6  -9   6   27.72    3.16
   6   9   6   18.92    2.67
   6  -9   6   21.50    2.77
   6   9   6   23.60    3.91
   6   9   7    4.58    1.96
   6   9   7    3.38    1.30
   6  -9   7    5.82    1.58
   6  -9   7    4.91    1.62
   6   9   7    4.96    2.53
   6   9   8   16.94    3.56
  -6  -9  -8   10.95    2.17
  -6   9  -8   15.87    2.40
   6   9   8   10.37    2.50
   6   9   8   12.38    2.29
   6  -9   8   15.56    2.55
   6  -9   8   13.20    2.33
   6   9   9   24.02    3.44
   6   9   9   24.44    3.34
   6  -9   9   24.46    3.25
   6  -9   9   28.88    3.24
  -6  -9  -9   26.51    3.28
  -6   9  -9   23.39    3.04
  -6  -9 -10    5.54    1.60
  -6   9 -10    7.54    1.99
   6   9  10    6.76    2.12
   6   9  10    5.56    1.82
   6  -9  10   11.82    2.41
   6  -9  10    9.19    1.91
  -6  -9 -11   37.12    4.00
  -6   9 -11   33.63    3.81
   6   9  11   33.26    3.76
   6   9  11   39.83    4.51
   6  -9  11   38.69    4.47
   6  -9  11   42.17    3.96
   6   9  12   18.31    2.68
   6   9  12   20.23    3.44
   6  -9  12   20.12    3.39
   6  -9  13   63.46    6.40
   6   9  13   59.45    6.18
   6   9  13   66.30    4.99
   6   9  14   41.15    5.20
   6  -9  14   43.83    5.47
   6   9  15   21.43    4.17
   6  -9  15   33.53    4.78
   6  -9  15   28.76    5.68
   6   9  16   15.62    3.73
   6  -9  16    6.94    2.99
   6  -9  16   10.49    4.00
   6  -9  17   -1.95    2.87
   6   9  17   -1.45    3.08
   6  -9  17   -2.97    3.21
   6   9  18    2.32    3.10
   6  -9  18    7.84    3.48
   6  -9  19   14.18    4.48
   6   9  19   14.86    4.30
   6  -9  19   25.89    5.04
   6  -9  20   18.61    5.34
   6   9  20   23.42    5.09
   6  -9  20   32.73    5.99
   6  -9  21    3.15    3.89
  -6 -10  23    1.83    2.26
  -6  10  23    5.43    2.81
  -6 -10  22    1.76    2.23
  -6  10  22    4.64    2.52
  -6 -10  21    7.85    2.74
  -6  10  21   11.72    2.92
  -6 -10  20   -0.54    1.99
  -6  10  20   -1.07    2.09
  -6 -10  19   12.34    2.85
  -6  10  19   15.82    3.40
  -6 -10  18   11.24    2.87
  -6  10  18   10.69    2.67
  -6  10  17    3.25    2.05
  -6 -10  17    1.86    1.89
  -6 -10  16    7.06    2.25
  -6  10  16    8.39    2.40
  -6 -10  15   -0.42    1.59
  -6 -10  15    2.73    1.80
  -6  10  15    1.69    1.61
  -6  10  14  133.37    8.92
   6 -10 -14  106.20    8.97
   6  10 -14  113.19    9.22
  -6 -10  14  109.31    9.08
  -6 -10  14  127.07    8.73
  -6 -10  13    1.54    1.53
   6 -10 -13    1.38    1.99
   6  10 -13    2.91    2.10
  -6 -10  13    1.52    1.77
  -6  10  13    0.39    1.39
   6 -10 -12   49.53    4.13
   6  10 -12   45.14    4.15
  -6 -10  12   44.17    4.90
   6 -10 -11    4.54    2.24
   6 -10 -11    6.19    1.54
   6  10 -11    3.95    1.44
  -6 -10  11    7.19    2.28
   6 -10 -10    9.05    2.95
  -6 -10  10    5.79    0.89
   6 -10 -10    7.62    1.64
   6  10 -10    6.58    1.67
  -6 -10  10    7.14    2.12
   6 -10  -9    6.00    2.50
  -6 -10   9    8.37    1.16
   6  10  -9    7.76    1.63
   6 -10  -9    6.39    1.53
  -6 -10   9   11.17    2.50
   6 -10  -8    5.22    2.29
  -6 -10   8    3.99    1.04
   6  10  -8    5.85    1.47
   6 -10  -8    1.33    1.12
  -6 -10   8    0.92    1.31
   6  10  -7  108.15    6.63
   6 -10  -7   91.53    6.32
  -6 -10   7   97.85    6.01
  -6 -10   7   77.93    7.28
   6 -10  -7   98.31    9.08
   6  10  -6  262.24   15.66
   6 -10  -6  305.54   15.79
   6 -10  -6  260.62   18.57
  -6 -10   6  264.51   17.13
  -6 -10   5   18.34    3.13
   6  10  -5   17.98    2.18
   6 -10  -5   14.00    1.98
   6 -10  -5   17.65    3.68
  -6 -10   4   -0.94    1.44
   6  10  -4    0.25    1.03
   6 -10  -4    0.50    1.05
   6 -10  -4   -0.41    1.21
   6  10  -4    0.85    1.06
   6 -10  -4    0.21    0.94
   6 -10  -4   -0.73    1.96
   6  10  -3   68.55    4.86
   6 -10  -3   65.73    4.75
   6  10  -3   66.03    4.71
   6 -10  -3   67.87    4.70
   6 -10  -3   55.08    5.37
   6 -10  -3   59.43    6.68
  -6 -10   3   61.26    5.87
   6  10  -3   64.41    7.16
  -6 -10   2    6.31    1.99
   6  10  -2    4.09    1.16
   6  10  -2    2.69    2.57
   6 -10  -2    8.54    1.49
   6 -10  -2    2.82    1.51
   6  10  -2    5.81    1.26
   6 -10  -2    6.79    1.25
   6 -10  -2    2.22    2.01
   6  10  -1  153.63   11.51
   6  10  -1  147.64    8.83
   6  10  -1  147.28    8.87
   6 -10  -1  147.74    8.83
   6 -10  -1  130.71    8.66
   6 -10  -1  139.49    9.81
   6 -10  -1  145.77   11.67
   6  10   0    5.72    2.96
   6  10   0    5.35    1.20
   6 -10   0    3.52    1.16
   6  10   0    5.31    1.24
   6 -10   0    1.98    1.63
   6 -10   0    4.86    1.25
   6  10   0    4.65    2.07
   6 -10   0    6.03    2.49
   6 -10   1    3.18    1.14
   6 -10   1    6.25    1.76
   6  10   1    0.62    2.29
   6  10   1    6.24    1.44
   6  10   1    4.09    1.31
   6 -10   1    2.30    2.07
   6  10   1    1.06    1.56
   6  10   2   22.04    3.99
   6  10   2   24.61    2.52
   6 -10   2   20.60    2.44
   6 -10   2   23.59    3.14
   6 -10   2   30.60    4.94
   6  10   2   21.76    3.59
   6  10   3   86.77    8.12
   6  10   3  105.41    6.67
   6 -10   3   98.38    6.59
   6 -10   3   88.13    7.08
   6  10   3   96.15    8.28
   6  10   4   76.45    7.18
   6 -10   4   76.79    6.25
   6  10   4   74.75    5.55
   6 -10   4   75.98    5.58
   6  10   4   82.87    7.42
   6 -10   5   25.98    2.97
   6  10   5   28.21    4.17
   6  10   5   31.45    3.13
   6 -10   5   26.20    3.35
   6  10   5   22.42    3.99
   6  10   6  160.83   10.69
   6 -10   6  181.72   10.94
   6 -10   6  172.26   11.24
   6  10   6  162.26   12.51
   6  10   6  180.52   12.19
   6  10   7    7.21    2.32
   6  10   7    2.01    1.37
   6 -10   7    5.14    1.66
   6 -10   7    2.94    1.47
   6  10   8   18.86    2.83
   6 -10   8   19.38    2.93
   6 -10   8   22.63    2.98
   6  10   8   25.20    3.50
   6  10   9    1.66    1.54
  -6 -10  -9    4.30    1.76
   6  10   9   -0.39    1.61
   6 -10   9    3.65    1.69
   6 -10   9    5.35    1.66
  -6  10  -9    1.00    1.55
   6  10  10   26.57    3.58
  -6 -10 -10   30.85    3.62
  -6  10 -10   32.05    3.63
   6 -10  10   30.16    3.79
   6  10  10   31.57    3.75
   6 -10  10   28.25    3.41
   6  10  11    0.34    1.35
  -6 -10 -11   -0.36    1.55
   6  10  11   -0.47    1.54
   6 -10  11   -0.48    1.63
   6 -10  11    0.35    1.44
  -6  10 -11    1.07    1.48
   6  10  12   11.18    2.76
   6 -10  12   10.96    2.69
   6 -10  12    8.00    1.96
   6  10  12    7.35    1.84
   6  10  13   -0.55    2.12
   6 -10  13    1.12    2.08
   6  10  14   99.17    8.79
   6 -10  14  102.80    8.92
   6 -10  14  112.67   10.87
   6  10  15   10.19    3.09
   6 -10  15   14.40    3.59
   6 -10  15    5.00    3.10
   6 -10  16    1.02    3.14
   6  10  16    0.68    2.78
   6 -10  16    2.78    2.83
   6 -10  17    9.40    4.20
   6  10  17   14.45    4.02
   6 -10  17   10.40    3.56
   6 -10  18   -1.07    3.00
   6  10  18    0.77    2.78
   6 -10  18    0.79    2.93
   6 -10  19   10.87    4.35
   6  10  19   10.64    3.90
   6 -10  19    7.51    3.57
   6  10  20   28.27    5.50
   6 -10  20   37.69    6.09
  -6  11  23   30.76    4.60
  -6 -11  22   -1.14    2.52
  -6  11  22    2.27    2.36
  -6 -11  21    2.18    2.23
  -6  11  21    5.44    2.50
  -6  11  20    0.52    1.98
  -6 -11  20    1.04    2.07
  -6 -11  19   -0.50    1.89
  -6  11  19    2.00    1.99
  -6 -11  18    3.79    2.22
  -6  11  18    9.04    2.79
  -6 -11  17    0.45    1.84
  -6 -11  17    1.87    1.84
  -6  11  17    0.91    1.82
  -6  11  16    0.44    1.66
  -6 -11  16   -0.60    2.05
  -6 -11  16    0.43    1.72
  -6  11  15    1.68    1.74
  -6 -11  15    0.41    1.76
  -6 -11  15    2.34    2.04
  -6 -11  14  160.93   10.59
   6  11 -14  145.42   11.06
  -6 -11  14  157.63   11.58
   6 -11 -13    5.78    2.43
   6  11 -13    2.84    2.14
  -6 -11  13    6.06    2.21
   6 -11 -12   -0.42    2.22
   6  11 -12    3.15    2.06
  -6 -11  12    2.71    2.16
   6 -11 -11   19.74    4.06
  -6 -11  11   17.66    3.35
   6 -11 -10   90.01    5.97
   6  11 -10   85.38    6.04
  -6 -11  10   80.07    7.28
   6 -11 -10   89.37    8.92
   6 -11  -9    4.08    2.60
   6 -11  -9    2.81    1.13
   6  11  -9    4.43    1.44
  -6 -11   9    3.35    0.94
  -6 -11   9    5.74    2.13
   6 -11  -8   30.02    5.06
   6  11  -8   29.59    2.83
   6 -11  -8   22.21    2.51
  -6 -11   8   27.90    2.38
  -6 -11   8   28.02    4.00
   6 -11  -7    0.81    1.95
  -6 -11   7   -0.18    0.92
   6  11  -7    0.43    0.91
   6 -11  -7    0.20    0.91
  -6 -11   7   -0.52    1.60
  -6 -11   6    5.29    2.18
   6  11  -6    4.71    1.37
   6 -11  -6    7.92    1.41
   6 -11  -6    6.47    3.08
  -6 -11   5   19.64    3.37
   6  11  -5   15.77    2.10
   6  11  -5   16.47    2.22
   6 -11  -5   16.28    2.16
   6 -11  -5   20.52    2.26
   6 -11  -5   18.49    4.08
  -6 -11   4   13.32    2.81
   6  11  -4    7.43    1.50
   6 -11  -4    4.73    1.99
   6 -11  -4    4.63    1.23
   6  11  -4    7.50    1.48
   6 -11  -4    5.87    1.29
   6 -11  -4    6.36    2.80
  -6 -11   3    2.16    2.05
   6 -11  -3    2.11    1.48
   6  11  -3    0.87    0.89
   6 -11  -3    0.21    1.05
   6  11  -3    1.38    1.06
   6 -11  -3    1.33    0.90
   6 -11  -3    1.60    2.04
   6 -11  -2   17.43    2.01
  -6 -11   2   16.95    3.15
   6 -11  -2   11.73    2.49
   6  11  -2   18.40    2.04
   6 -11  -2   14.30    1.93
   6 -11  -2   16.07    3.63
   6  11  -2   14.94    1.94
  -6 -11   1   -0.55    1.69
   6 -11  -1    0.82    1.40
   6  11  -1    0.21    0.90
   6 -11  -1    0.81    0.99
   6  11  -1    0.69    2.47
   6  11  -1   -0.20    1.04
   6 -11  -1   -0.81    2.39
   6 -11   0    9.43    2.04
   6  11   0    8.20    1.40
   6 -11   0    7.88    1.43
   6  11   0    5.62    1.36
   6  11   0    5.99    2.56
   6 -11   0   11.28    1.68
   6 -11   0   15.46    3.68
   6  11   1    3.22    2.45
   6 -11   1    4.46    1.92
   6  11   1    2.82    1.09
   6  11   1    1.09    1.06
   6 -11   1    2.15    1.02
   6  11   1    1.17    2.05
   6 -11   1    0.83    2.33
   6 -11   1    2.16    1.19
   6 -11   2  248.36   15.84
   6 -11   2  252.14   14.74
   6  11   2  270.01   14.85
   6 -11   2  240.09   18.26
   6  11   2  301.70   17.63
   6  11   2  243.75   17.11
   6 -11   3   80.93    6.24
   6  11   3   72.91    5.24
   6 -11   3   67.53    5.14
   6 -11   3   72.02    7.95
   6  11   3   74.15    7.23
   6  11   3   65.34    6.90
   6  11   4    8.61    2.73
   6 -11   4    4.74    1.74
   6  11   4    7.33    1.55
   6 -11   4    5.05    1.39
   6 -11   4    7.01    2.99
   6  11   4    5.72    2.60
   6  11   5   15.88    3.36
   6  11   5   15.45    2.28
   6 -11   5   16.94    2.38
   6 -11   5   17.10    2.81
   6  11   6    6.75    2.48
   6 -11   6    5.92    1.65
   6  11   6   10.01    1.93
   6 -11   6    6.67    1.92
   6  11   7   20.07    3.40
   6  11   7   19.78    2.74
   6 -11   7   16.68    2.70
   6 -11   7   24.54    3.26
   6  11   8   52.10    4.88
   6 -11   8   65.21    5.30
   6 -11   8   54.77    5.03
   6  11   8   49.44    5.33
   6  11   9   -1.27    1.69
   6  11   9    0.40    1.64
   6 -11   9    0.41    1.47
   6 -11   9    1.47    1.39
   6  11  10    5.80    2.01
  -6  11 -10    7.85    1.92
   6  11  10    8.21    2.35
   6 -11  10    9.79    2.42
   6 -11  10    7.94    1.93
  -6  11 -11   14.57    2.51
  -6 -11 -11   12.70    2.27
   6  11  11   11.69    2.72
   6 -11  11    8.71    2.42
   6 -11  11    7.48    1.94
   6  11  12   17.24    3.17
   6 -11  12   17.20    3.23
   6 -11  12   14.73    2.60
   6 -11  12   11.75    3.89
   6  11  13   13.13    3.04
   6 -11  13    4.52    2.28
   6 -11  13   10.12    3.96
   6  11  14   37.76    4.94
   6 -11  14   32.76    4.82
   6 -11  14   32.38    6.07
   6  11  15  175.36   13.17
   6 -11  15  203.18   13.88
   6 -11  15  159.42   15.00
   6 -11  16    1.09    3.47
   6  11  16   -1.36    2.38
   6 -11  16   -0.70    2.65
   6 -11  17   15.64    5.08
   6  11  17   15.13    3.85
   6 -11  17   16.31    4.11
   6  11  18   -2.29    3.04
   6 -11  18   -2.34    3.69
   6  11  19   35.92    5.70
   6 -11  19   23.74    5.13
   6  11  20   49.03    6.86
  -6  12  22   17.61    3.61
  -6  12  21   -0.53    2.20
  -6  12  20    3.56    2.49
  -6 -12  19    4.33    2.13
  -6 -12  19    6.96    2.84
  -6  12  19    2.93    1.87
  -6  12  18    8.91    2.44
  -6 -12  18    8.13    3.03
  -6 -12  18   12.44    2.87
  -6  12  17    0.45    1.70
  -6 -12  17    1.33    1.68
  -6 -12  17   -1.31    2.30
  -6 -12  16   30.46    3.78
  -6 -12  16   24.35    4.28
  -6 -12  15    4.38    2.39
   6  12 -14   17.02    3.58
  -6 -12  14   17.11    3.51
   6  12 -13   16.50    3.10
  -6 -12  13   13.88    3.25
   6  12 -12   27.93    4.04
  -6 -12  12   37.49    4.80
   6 -12 -11    3.55    2.38
   6  12 -11    1.23    1.78
  -6 -12  11    4.10    2.34
   6 -12 -10    1.77    2.81
   6  12 -10   -0.78    1.78
  -6 -12  10    1.75    1.98
   6 -12  -9   58.21    7.65
   6  12  -9   72.60    5.07
  -6 -12   9   70.12    6.83
   6 -12  -8   41.28    6.22
   6 -12  -8   48.37    3.77
   6  12  -8   51.97    3.97
  -6 -12   8   54.50    5.85
   6 -12  -7   50.11    6.58
   6  12  -7   38.20    3.33
   6 -12  -7   41.48    3.34
  -6 -12   7   42.68    5.20
   6 -12  -6    1.75    2.11
  -6 -12   6    1.77    1.94
   6  12  -6    1.22    1.10
   6 -12  -6    1.36    1.08
   6  12  -6    3.07    1.10
   6 -12  -6    1.94    0.95
  -6 -12   5   30.67    4.36
   6  12  -5   31.36    2.82
   6 -12  -5   21.93    2.48
   6  12  -5   29.18    2.67
   6 -12  -5   27.57    2.54
   6 -12  -5   38.38    5.77
   6 -12  -4  116.69    9.38
   6 -12  -4  133.48    8.19
   6  12  -4  146.83    8.32
   6 -12  -4  124.86    8.04
   6 -12  -4  137.23   11.86
  -6 -12   4  151.68   10.91
   6  12  -4  141.78    8.38
  -6 -12   3    1.20    1.76
   6  12  -3    0.20    0.94
   6 -12  -3    0.92    0.83
   6  12  -3    1.80    0.99
   6 -12  -3    1.86    0.97
   6 -12  -3    0.88    1.82
   6 -12  -3    0.86    2.20
  -6 -12   2   -0.61    1.63
   6 -12  -2    0.43    1.60
   6  12  -2    1.14    0.87
   6 -12  -2    0.36    0.84
   6  12  -2    0.18    0.85
   6 -12  -2   -0.35    0.94
   6 -12  -2   -0.87    2.33
  -6 -12   1   56.95    6.28
   6 -12  -1   58.43    5.45
   6  12  -1   65.67    4.40
   6 -12  -1   59.96    4.25
   6  12  -1   59.60    4.26
   6 -12  -1   56.60    4.19
   6 -12  -1   53.78    7.20
   6  12   0    2.93    1.00
   6 -12   0    3.57    1.12
   6  12   0    0.37    1.05
   6 -12   0    4.76    1.30
   6 -12   0    5.30    2.81
   6 -12   0    2.12    1.65
   6  12   1    9.83    1.53
   6 -12   1   12.17    2.50
   6  12   1    8.42    1.48
   6 -12   1    5.76    1.25
   6 -12   1    7.78    1.43
   6  12   1   11.00    3.23
   6 -12   1    6.19    3.12
   6  12   2    6.39    2.88
   6  12   2    2.91    1.17
   6 -12   2    5.80    1.94
   6  12   2    5.57    1.30
   6 -12   2    5.18    1.33
   6  12   2    3.93    2.09
   6 -12   2    6.29    2.96
   6 -12   2    3.53    1.27
   6  12   3    4.92    2.35
   6 -12   3    3.68    1.80
   6 -12   3    5.61    1.42
   6  12   3    6.76    1.51
   6 -12   3    7.29    2.91
   6  12   3    8.75    1.68
   6 -12   4   59.71    5.53
   6  12   4   60.68    4.74
   6 -12   4   62.36    4.74
   6 -12   4   52.90    7.22
   6  12   4   56.52    6.22
   6  12   5    0.56    2.08
   6 -12   5    1.24    1.53
   6  12   5    2.18    1.35
   6 -12   5    3.61    1.53
   6 -12   5   -1.89    2.66
   6  12   6   28.24    4.08
   6 -12   6   20.36    3.20
   6  12   6   25.65    2.96
   6 -12   6   23.27    2.96
   6  12   7    4.01    2.41
   6  12   7    3.28    1.61
   6 -12   7    3.04    1.69
   6 -12   7    6.74    2.06
   6  12   8    9.69    2.10
   6 -12   8    4.79    1.81
   6 -12   8    9.64    2.23
   6  12   8    7.52    2.67
   6  12   9    0.79    1.57
   6 -12   9   -0.40    1.88
   6 -12   9    1.88    1.72
   6  12   9    1.30    1.85
   6  12  10    0.43    1.54
   6 -12  10   -0.88    1.50
   6 -12  10    1.86    1.61
  -6  12 -11    7.25    1.95
   6  12  11    9.33    2.43
   6 -12  11    5.27    2.32
   6 -12  11    5.81    1.90
   6 -12  11    1.02    3.12
   6  12  12   15.73    3.17
   6 -12  12   23.90    3.64
   6 -12  12   18.88    2.96
   6 -12  12   19.97    4.82
   6  12  13    1.64    2.08
   6 -12  13    0.56    1.90
   6 -12  13    1.78    1.52
   6 -12  13    1.08    3.18
   6 -12  14    1.11    3.66
   6  12  14   -0.58    2.27
   6 -12  14    0.60    2.10
   6 -12  15   50.03    8.06
   6 -12  15   57.31    6.31
   6  12  15   49.70    6.09
   6  12  16    2.68    2.61
   6 -12  16   -2.05    2.53
   6  12  17   35.39    5.41
   6  12  18    3.70    2.88
   6  12  19    1.54    3.26
  -6 -13  18   22.64    4.19
  -6 -13  17   20.84    4.01
  -6 -13  16    4.74    2.38
  -6 -13  15   14.69    3.66
  -6 -13  14   47.59    5.93
  -6 -13  13    0.66    2.16
  -6 -13  12   35.42    4.92
   6 -13 -11    2.85    2.80
  -6 -13  11    0.64    2.03
   6 -13 -10    0.95    2.79
  -6 -13  10    0.64    1.87
   6 -13  -9    8.53    3.42
   6  13  -9    6.20    1.96
  -6 -13   9    3.81    2.24
   6  13  -8    8.39    2.15
  -6 -13   8   12.79    3.13
  -6 -13   7    8.36    2.81
   6 -13  -7    1.89    2.57
   6  13  -7    6.83    1.58
   6 -13  -7    9.18    1.49
   6  13  -7    6.43    1.43
   6 -13  -6    3.78    2.79
  -6 -13   6    5.16    2.27
   6  13  -6    5.48    1.28
   6 -13  -6    2.95    1.03
   6  13  -6    3.46    1.17
  -6 -13   5   23.99    4.12
   6  13  -5   22.59    2.30
   6 -13  -5   20.79    2.12
   6  13  -5   19.82    2.12
   6 -13  -5   27.26    5.28
  -6 -13   4   16.95    3.51
   6 -13  -4   13.50    2.80
   6  13  -4   10.26    1.64
   6 -13  -4   11.53    1.57
   6  13  -4   11.19    1.63
   6 -13  -4   11.22    3.77
   6 -13  -3   66.92    6.03
   6  13  -3   65.30    4.57
   6 -13  -3   65.15    4.45
   6  13  -3   72.91    4.67
   6 -13  -3   51.22    7.24
  -6 -13   3   83.13    7.65
  -6 -13   2   76.67    7.71
   6 -13  -2   81.77    6.82
   6  13  -2   80.30    5.22
   6 -13  -2   78.90    5.12
   6 -13  -2   73.84    8.70
   6  13  -2   81.73    5.23
   6  13  -1   56.26    3.97
  -6 -13   1   63.11    6.74
   6 -13  -1   49.44    5.21
   6  13  -1   61.29    4.11
   6 -13  -1   55.06    3.94
   6 -13  -1   56.18    7.34
   6 -13   0   -0.44    1.48
   6  13   0    0.17    0.83
   6 -13   0    0.50    0.84
   6  13   0    0.16    0.93
   6 -13   0    2.84    2.90
   6  13   1    3.01    1.01
   6 -13   1    1.30    1.48
   6  13   1    2.99    1.06
   6 -13   1    3.82    1.11
   6 -13   1   -0.95    2.69
   6 -13   2    3.00    1.71
   6  13   2    2.19    0.98
   6 -13   2    1.19    0.94
   6 -13   2    3.82    2.93
   6  13   2    0.73    0.99
   6  13   3   10.94    1.70
   6 -13   3   10.96    2.47
   6  13   3   11.90    1.81
   6 -13   3   11.24    1.79
   6 -13   3    9.68    3.72
   6 -13   4   44.09    4.58
   6  13   4   39.33    3.41
   6  13   4   37.24    3.49
   6 -13   4   38.83    3.51
   6 -13   4   35.32    5.99
   6 -13   5   56.93    5.20
   6  13   5   54.79    4.35
   6 -13   5   42.38    4.01
   6 -13   5   52.72    7.20
   6  13   5   40.94    5.35
   6 -13   6  112.76    8.50
   6  13   6  124.80    8.01
   6 -13   6  113.65    7.89
   6 -13   6  103.20   10.93
   6  13   6  121.44    9.56
   6 -13   7   -1.24    1.88
   6  13   7    1.61    1.40
   6 -13   7    0.33    1.51
   6  13   7   -1.54    2.23
   6 -13   8    3.59    1.92
   6  13   8    4.24    1.78
   6 -13   8    3.22    1.50
   6 -13   8    0.98    3.00
   6  13   9   27.18    3.47
   6 -13   9   26.31    3.49
   6 -13   9   18.18    2.99
   6  13  10    8.51    2.46
   6 -13  10   12.97    2.53
   6  13  11   31.91    4.27
   6 -13  11   22.78    5.52
   6 -13  12    5.58    3.92
   6  13  12    6.96    2.51
   6 -13  12    4.72    1.90
   6  13  13    4.85    2.39
   6  13  14   51.78    5.92
   6  13  15    8.60    3.07
  -6 -14  16   15.96    3.98
  -6 -14  15    3.58    2.72
  -6 -14  14    1.42    2.33
  -6 -14  13    0.70    2.44
  -6 -14  12    0.69    2.21
   6 -14 -11   -2.03    2.98
  -6 -14  11    0.69    2.34
   6 -14 -10    1.01    2.43
  -6 -14  10   -0.69    2.19
   6 -14  -9   14.15    4.51
  -6 -14   9   13.17    3.50
   6 -14  -8   14.09    4.48
   6  14  -8   11.70    1.86
  -6 -14   8   13.21    3.50
   6  14  -7  111.28    7.13
  -6 -14   7  122.46   10.12
   6 -14  -7  119.89   11.58
   6 -14  -6   13.12    4.27
  -6 -14   6   23.18    4.20
   6  14  -6   14.08    1.81
   6 -14  -5   29.20    5.41
  -6 -14   5   27.45    4.68
   6 -14  -5   15.33    3.19
   6  14  -5   27.40    2.37
  -6 -14   4   37.67    5.25
   6  14  -4   27.66    2.43
   6 -14  -4   24.22    3.62
   6 -14  -4   38.14    6.14
  -6 -14   3    1.43    2.20
   6 -14  -3   -0.47    1.51
   6  14  -3    0.42    0.78
   6 -14  -3    0.99    2.80
  -6 -14   2   18.13    3.93
   6  14  -2   10.28    1.51
   6 -14  -2    8.40    2.27
   6 -14  -2   15.98    4.52
  -6 -14   1    6.55    2.91
   6 -14  -1    3.66    1.79
   6  14  -1    4.22    1.14
   6 -14  -1    7.00    3.71
   6 -14   0   44.26    4.56
   6  14   0   32.23    2.82
   6 -14   0   46.30    6.76
   6 -14   1   18.38    3.06
   6  14   1   18.69    2.02
   6 -14   1   22.28    4.81
   6 -14   2   12.80    2.67
   6  14   2   14.35    1.87
   6 -14   2   17.38    4.81
   6 -14   3   77.04    6.65
   6  14   3   82.39    5.57
   6 -14   3   89.06    9.71
   6 -14   4    0.87    1.76
   6  14   4    0.22    1.09
   6 -14   4    1.04    2.92
   6 -14   5   -0.43    1.69
   6  14   5    0.25    1.16
   6 -14   5    3.14    3.20
   6 -14   6    7.34    2.31
   6  14   6    4.15    1.63
   6 -14   6    6.34    3.82
   6 -14   6    4.86    3.21
   6 -14   7    8.92    2.30
   6  14   7    4.35    1.59
   6 -14   7    7.50    3.97
   6 -14   7    3.02    3.10
   6 -14   8    8.66    2.35
   6  14   8    5.82    1.85
   6 -14   8    8.66    3.69
   6 -14   8    5.22    3.56
   6 -14   9   -1.19    1.84
   6 -14   9    1.08    3.04
   6 -14  10   81.39    6.71
   6 -14  11   19.93    2.98
  -6 -15  15   11.35    3.68
  -6 -15  14   23.24    4.43
  -6 -15  13   61.10    7.22
  -6 -15  12    5.19    3.03
   6 -15 -11    2.15    2.88
  -6 -15  11   -0.74    2.08
   6 -15 -10   -1.08    3.03
   6 -15 -10   -1.96    2.35
  -6 -15  10   -0.75    2.53
   6 -15  -9    1.07    2.58
   6 -15  -9    2.69    2.55
  -6 -15   9    4.49    2.46
  -6 -15   8    1.51    2.48
   6 -15  -8   -1.07    3.02
  -6 -15   7    4.52    2.72
   6 -15  -7    2.14    3.15
   6 -15  -6   11.82    4.34
  -6 -15   6   15.86    3.97
   6 -15  -5   22.59    5.14
  -6 -15   5   12.88    3.54
   6 -15  -5   13.40    2.87
  -6 -15   4    3.06    2.25
   6 -15  -4    3.52    1.81
   6 -15  -4   -1.07    3.01
  -6 -15   3    3.86    2.46
   6 -15  -3    3.95    2.30
   6 -15  -3    2.13    2.87
   6 -15  -2    9.64    2.47
  -6 -15   2   11.67    3.34
   6 -15  -2    6.32    3.26
  -6 -15   1   24.28    4.51
   6 -15  -1   14.19    2.90
   6 -15  -1   23.34    5.26
   6 -15   0    1.87    1.69
   6 -15   0   -1.07    3.00
   6 -15   1   11.08    2.51
   6 -15   1   10.75    3.91
   6 -15   1   11.49    3.56
   6 -15   2    0.91    1.64
   6 -15   2    1.08    2.75
   6 -15   2    0.91    2.79
   6 -15   3   73.06    6.57
   6 -15   3   66.78    8.68
   6 -15   4   36.99    4.26
   6 -15   4   27.27    5.74
   6 -15   4   34.03    6.25
   6 -15   5   17.83    3.03
   6 -15   5   21.99    5.11
   6 -15   5   16.07    4.53
   6 -15   6   12.39    2.84
   6 -15   6   11.07    4.15
   6 -15   6   17.61    4.70
   6 -15   7   40.50    4.68
   6 -15   7   42.45    6.98
   6 -15   7   48.10    7.30
   6 -15   8    0.84    1.68
   6 -15   9    1.22    1.89
  -6 -16  13   15.65    4.22
  -6 -16  12   21.32    4.63
  -6 -16  11    7.14    3.25
  -6 -16  10   11.14    3.49
  -6 -16   9    7.20    3.13
   6 -16  -9    5.06    2.76
  -6 -16   8   41.59    5.99
   6 -16  -8   37.38    5.82
  -6 -16   7   -1.60    2.55
   6 -16  -7   -2.26    3.59
   6 -16  -7   -0.77    2.60
   6 -16  -6   -2.27    3.61
  -6 -16   6    1.61    2.56
   6 -16  -6    4.96    2.34
   6 -16  -6    2.36    2.59
   6 -16  -5   20.48    5.27
  -6 -16   5   11.37    3.61
   6 -16  -5   20.40    3.57
   6 -16  -5   14.53    3.90
   6 -16  -4   13.62    4.28
  -6 -16   4   18.00    4.25
   6 -16  -4   17.71    3.30
   6 -16  -4   15.74    4.24
  -6 -16   3   -0.82    2.71
   6 -16  -3   -0.51    2.17
   6 -16  -3    0.85    2.60
   6 -16  -3   -1.13    3.33
  -6 -16   2    6.64    2.93
   6 -16  -2    6.00    2.23
   6 -16  -2    7.85    3.41
   6 -16  -2   10.16    4.08
  -6 -16   1    3.34    2.92
   6 -16  -1    3.92    1.99
   6 -16  -1   -1.12    2.69
   6 -16  -1   -0.90    2.63
   6 -16   0   20.33    3.22
   6 -16   0   19.18    4.98
   6 -16   0   14.71    4.52
   6 -16   1   -1.43    1.51
   6 -16   1   -1.13    2.88
   6 -16   1    0.95    2.66
   6 -16   2    7.02    2.40
   6 -16   2    6.84    3.36
   6 -16   2    0.97    2.88
   6 -16   3   -0.46    1.56
   6 -16   3   -1.00    2.94
   6 -16   4    2.29    1.86
   6 -16   4   -3.09    3.81
   6 -16   5    5.49    2.25
   6 -16   6    1.36    1.93
   6 -16   7    2.68    1.97
  -6 -17  11   10.91    3.81
  -6 -17  10    2.53    2.87
  -6 -17   9   10.97    3.62
  -6 -17   8   28.84    5.36
   6 -17  -8   16.61    4.44
   6 -17  -7    3.25    3.01
  -6 -17   7    3.40    3.39
   6 -17  -6   -2.51    2.75
  -6 -17   6   -1.71    2.71
   6 -17  -5   -0.86    2.53
  -6 -17   5    4.30    3.01
   6 -17  -4   11.46    4.31
  -6 -17   4   21.67    4.67
   6 -17  -3    0.90    2.87
  -6 -17   3   -1.75    2.87
   6 -17  -3   -1.06    1.90
   6 -17  -2   -1.85    2.94
  -6 -17   2   -0.88    2.68
   6 -17  -2   -1.55    1.96
   6 -17  -1    9.50    3.68
   6 -17  -1   18.19    3.26
   6 -17   0    0.50    1.69
   6 -17   1    0.98    1.91
   6 -17   2    7.72    2.56
   6 -17   3    1.89    1.93
   6 -17   4    2.81    2.22
   6 -17   5    6.62    2.30
  -6 -18   8    5.34    3.30
  -6 -18   7    5.35    3.13
  -6 -18   6    8.99    3.68
   6 -18  -6    5.30    3.11
  -6 -18   5   11.77    3.97
  -6 -18   4    0.91    2.68
  -6 -18   3    1.83    3.21
  -6 -18   2   14.72    4.34
   6 -18   3   24.36    3.84
  -7   0  24    5.26    2.69
   7   0 -23   -0.31    1.34
  -7   0  23   -1.90    2.75
  -7   0  22    6.67    2.68
   7   0 -22    1.53    1.45
  -7   0  22    4.89    2.55
  -7   0  21   -0.52    1.72
   7   0 -21   -0.30    1.35
  -7   0  21    1.77    1.66
  -7   0  20  110.88    9.08
   7   0 -20  122.17    8.02
  -7   0  20  113.49    9.26
  -7   0  19    1.38    1.52
   7   0 -19   -2.60    1.30
  -7   0  19   -1.10    1.81
   7   0 -18   34.24    3.49
  -7   0  18   33.54    4.56
  -7   0  18   42.44    4.48
  -7   0  17   -0.80    1.43
   7   0 -17    0.28    1.10
  -7   0  17   -1.03    1.75
   7   0 -16  192.18   10.78
  -7   0  16  164.72   11.81
  -7   0  16  154.05   10.99
  -7   0  15   -0.66    1.38
  -7   0  15    0.48    1.35
   7   0 -15   -0.52    1.02
  -7   0  14   20.05    2.69
  -7   0  14   22.21    3.32
   7   0 -14   27.34    3.19
   7   0 -14   22.00    2.55
  -7   0  13    1.07    1.14
   7   0 -13   -0.25    0.95
  -7   0  13   -0.44    1.40
   7   0 -13    2.11    1.46
   7   0 -12  271.88   15.69
  -7   0  12  252.78   16.65
   7   0 -12  289.88   16.56
  -7   0  12  281.23   15.66
   7   0 -11   -0.33    1.21
   7   0 -11   -0.48    0.76
  -7   0  11   -0.41    1.25
  -7   0  11   -0.20    0.82
   7   0 -10  155.64    9.50
  -7   0  10  137.97    9.77
   7   0 -10  150.75    9.01
  -7   0  10  134.51    8.37
   7   0  -9   -0.24    0.73
   7   0  -9   -0.31    1.11
  -7   0   9   -0.13    0.53
  -7   0   9   -0.38    1.03
   7   0  -8  355.48   19.87
   7   0  -8  357.91   20.29
   7   0  -7    0.30    1.03
   7   0  -7   -0.24    0.73
   7   0  -6  421.68   23.85
  -7   0   6  451.55   24.07
   7   0  -6  435.11   24.31
  -7   0   5    0.48    0.90
   7   0  -5    0.47    0.85
   7   0  -5    2.64    1.14
  -7   0   4  604.73   31.05
   7   0  -4  590.23   30.96
   7   0  -4  599.18   31.38
   7   0  -4  548.76   29.86
  -7   0   3    1.66    1.04
   7   0  -3   -0.24    0.77
   7   0  -3    0.13    0.55
   7   0  -3    1.48    0.94
  -7   0   2  133.36    8.66
   7   0  -2  147.37    8.87
   7   0  -1   -0.31    0.91
  -7   0   1    0.48    0.86
   7   0  -1   -0.25    0.77
   7   0   0   -0.31    0.82
  -7   0   0    1.98    0.94
   7   0   1   -0.91    0.93
  -7   0  -1    0.51    0.81
   7   0   2    0.31    0.78
  -7   0  -2    1.03    0.98
   7   0   3   -0.31    0.84
  -7   0  -3   -0.26    0.97
   7   0   4   44.90    4.02
  -7   0  -5    1.61    1.22
   7   0   5    0.33    0.98
  -7   0  -6   58.06    5.10
   7   0   6   69.96    5.37
  -7   0  -7   -0.33    1.06
   7   0   7   -0.37    1.12
  -7   0  -7    1.17    1.02
   7   0   8    9.60    2.12
  -7   0  -8   11.24    2.19
  -7   0  -8   14.52    2.27
  -7   0  -9    1.75    1.30
   7   0   9   -0.41    1.34
  -7   0  -9    0.31    1.19
  -7   0 -10  247.45   14.84
   7   0  10  243.16   15.21
  -7   0 -10  234.99   14.50
   7   0  11   -0.47    1.44
  -7   0 -11    0.67    1.39
   7   0  12   30.49    4.01
   7   0  13    0.53    1.81
   7   0  14  163.06   11.80
   7   0  15   -0.61    2.01
   7   0  16   26.35    4.21
   7   0  17    0.70    2.14
   7   0  18   13.51    3.67
   7   0  19    0.80    2.62
   7   0  20  154.45   12.18
   7   0  20  118.11    9.61
   7  -1 -24    6.52    2.12
  -7  -1  24    1.97    2.17
   7  -1 -23   54.00    5.19
  -7  -1  23   61.66    6.46
   7   1 -23   53.68    4.50
  -7  -1  22   26.38    4.19
   7  -1 -22   33.21    3.64
   7   1 -22   29.52    3.13
  -7  -1  22   28.16    4.60
  -7  -1  21   46.14    5.30
  -7   1  21   45.35    5.55
   7  -1 -21   61.12    4.95
   7   1 -21   46.44    4.13
  -7  -1  21   62.64    6.26
  -7   1  20   12.54    2.86
  -7  -1  20    8.83    2.30
   7  -1 -20    8.52    2.06
   7   1 -20    4.30    2.84
   7   1 -20    6.40    1.60
  -7  -1  20    5.69    2.30
  -7   1  19    2.94    1.91
  -7  -1  19    0.87    1.77
   7  -1 -19    7.33    1.80
   7   1 -19    2.91    1.33
  -7  -1  19    4.97    2.26
  -7   1  18   19.29    3.28
  -7  -1  18    8.82    2.30
   7  -1 -18   14.71    2.43
   7   1 -18   13.32    1.98
  -7  -1  18   12.27    2.80
  -7   1  17    9.00    2.26
  -7  -1  17   12.12    2.31
   7  -1 -17    8.27    1.87
   7   1 -17    8.60    1.57
  -7  -1  17    7.75    2.33
  -7  -1  16   51.69    4.70
   7  -1 -16   51.95    4.51
   7   1 -16   56.56    4.20
  -7   1  16   47.33    4.84
  -7  -1  16   57.68    5.51
  -7   1  15    0.73    1.40
  -7  -1  15    2.43    1.26
   7  -1 -15   -0.30    1.02
  -7  -1  15    2.41    1.08
   7   1 -15   -0.45    0.85
  -7   1  14    0.34    1.25
  -7  -1  14   -0.27    1.09
   7   1 -14   -0.22    0.86
   7  -1 -14    0.29    1.08
  -7  -1  14   -0.93    1.52
   7  -1 -14    1.40    1.39
   7  -1 -13  109.73    7.79
  -7  -1  13  134.02    9.01
   7   1 -13  118.15    7.47
   7  -1 -13  123.80    8.35
  -7   1  13  108.69    7.88
  -7  -1  13  119.32    7.57
   7  -1 -12  283.44   15.96
   7   1 -12  301.87   15.62
  -7  -1  12  273.49   16.75
   7  -1 -12  301.44   16.54
  -7  -1  12  276.75   15.30
   7  -1 -11  294.56   16.72
   7   1 -11  296.09   16.34
  -7  -1  11  311.78   17.72
  -7   1  11  335.85   16.72
  -7  -1  11  259.65   15.76
   7  -1 -11  275.75   16.91
   7  -1 -10   21.70    2.74
   7  -1 -10   19.79    2.51
   7   1 -10   21.46    2.29
  -7  -1  10   24.59    3.04
  -7   1  10   20.55    2.25
  -7  -1  10   21.16    1.80
   7  -1  -9   98.81    6.82
   7  -1  -9   85.35    6.33
   7   1  -9   94.61    6.21
  -7   1   9   96.65    6.15
   7  -1  -8   27.27    3.02
   7   1  -8   27.13    2.64
   7  -1  -8   29.35    2.96
  -7  -1   7    6.23    1.29
   7  -1  -7    4.43    1.45
   7  -1  -7    1.82    1.12
   7   1  -7    4.10    1.04
   7  -1  -6   54.50    3.51
  -7  -1   6   47.60    3.90
   7   1  -6   55.20    3.99
   7  -1  -6   63.33    4.56
  -7   1   5  888.11   50.08
   7  -1  -5  904.91   50.29
  -7  -1   5  938.47   49.87
   7  -1  -5  960.42   50.18
   7   1  -5  932.35   49.84
   7  -1  -5 1016.67   49.44
  -7   1   4  523.40   28.94
   7  -1  -4  548.72   29.00
   7   1  -4  513.60   28.67
  -7  -1   4  518.04   28.68
   7  -1  -4  557.97   29.29
   7  -1  -4  536.55   28.30
  -7  -1   3   40.29    3.39
   7  -1  -3   40.06    3.50
   7   1  -3   38.56    3.34
   7  -1  -3   40.07    3.18
  -7   1   3   41.14    3.56
   7  -1  -3   37.21    3.71
  -7   1   2  147.91    9.89
  -7  -1   2  182.06   10.05
   7  -1  -2  159.51   10.02
   7   1  -2  164.95    9.95
   7  -1  -1  237.06   13.61
  -7   1   1  221.71   13.15
  -7  -1   1  224.25   13.08
   7   1  -1  217.48   13.10
   7  -1   0   64.30    5.38
  -7   1   0   77.30    5.41
  -7  -1   0   78.51    5.39
   7  -1   1  158.96    9.84
  -7   1  -1  163.01    9.60
  -7  -1  -1  139.06    9.31
  -7   1  -2   88.30    5.98
  -7  -1  -2   80.97    5.79
   7  -1   2   78.06    5.83
   7  -1   2   86.43    6.19
   7  -1   3   13.73    2.06
  -7  -1  -3   13.61    1.88
   7  -1   3    7.65    1.64
   7  -1   4   86.13    6.40
  -7  -1  -4   87.42    6.14
   7  -1   5   83.84    5.94
  -7  -1  -5   67.88    5.35
  -7  -1  -5   71.78    5.66
  -7  -1  -6  616.79   34.99
   7  -1   6  641.26   35.21
  -7   1  -6  669.23   34.91
  -7  -1  -7    9.64    1.77
   7  -1   7    5.49    1.42
  -7   1  -7    3.85    1.43
  -7  -1  -8   22.14    2.81
   7  -1   8   16.10    2.61
  -7   1  -8   24.62    2.80
  -7  -1  -8   23.34    2.72
  -7  -1  -9  129.51    8.87
   7  -1   9  131.95    9.19
  -7   1  -9  130.06    8.67
  -7  -1  -9  128.25    8.68
  -7  -1 -10  211.57   13.21
   7  -1  10  210.88   13.66
  -7   1 -10  214.36   13.06
  -7  -1 -10  209.52   12.98
   7  -1  11   99.57    7.62
  -7   1 -11   86.03    6.68
  -7  -1 -11   93.70    6.86
   7  -1  12   27.46    3.64
  -7   1 -12   27.23    3.27
   7  -1  13    0.53    1.63
   7  -1  14   78.29    7.20
   7  -1  15    3.05    1.94
   7  -1  16    1.97    2.09
   7  -1  17    0.70    2.13
   7  -1  18   90.54    8.86
   7  -1  19    2.38    2.78
   7  -1  20   -0.84    2.48
   7  -1  20   -1.08    2.09
   7  -2 -25   11.81    2.61
   7  -2 -24   -0.81    1.68
  -7  -2  24   -1.32    2.50
  -7   2  24   -0.66    2.23
  -7  -2  23   -0.64    2.47
  -7   2  23   -1.27    2.58
   7  -2 -23    0.40    1.62
   7  -2 -22    0.39    1.67
   7   2 -22   -0.39    1.01
  -7  -2  22   -2.46    2.33
  -7   2  22    0.61    1.87
  -7   2  21    4.09    2.27
   7  -2 -21    0.77    1.58
   7   2 -21    2.16    1.04
  -7  -2  21    2.95    1.95
  -7   2  20   16.61    3.31
   7  -2 -20    8.35    2.22
   7   2 -20   12.80    1.84
  -7  -2  20   12.02    2.94
  -7   2  20   13.09    2.96
  -7   2  19   -0.52    1.99
   7  -2 -19   -0.37    1.34
   7   2 -19    1.58    0.98
  -7  -2  19   -0.55    2.05
  -7   2  19   -0.55    1.81
   7   2 -18   57.39    4.19
   7  -2 -18   53.05    4.91
  -7  -2  18   47.16    5.48
  -7   2  18   60.69    5.87
  -7   2  18   62.69    6.02
   7  -2 -17  143.54   10.15
   7   2 -17  155.14    9.33
  -7  -2  17  167.32   11.41
  -7   2  17  162.18   11.07
  -7   2  17  168.39   11.43
  -7   2  16   10.88    2.43
  -7  -2  16    8.53    1.99
  -7   2  16   10.46    2.19
   7   2 -16    7.35    1.36
   7  -2 -16    5.20    1.71
   7  -2 -15    4.05    1.44
  -7  -2  15    5.30    1.64
  -7   2  15    6.22    1.87
   7   2 -15    2.51    1.02
  -7   2  15    0.81    1.43
   7  -2 -14  313.70   18.76
  -7  -2  14  328.63   19.69
  -7   2  14  293.32   19.32
   7   2 -14  336.14   17.93
   7  -2 -14  320.59   18.90
  -7   2  14  340.90   19.25
  -7  -2  13   18.01    2.18
   7  -2 -13   28.63    3.04
   7   2 -13   21.39    2.16
  -7  -2  13   23.02    3.14
  -7   2  13   17.99    2.93
  -7   2  13   17.95    2.73
   7   2 -13   20.88    2.91
   7  -2 -13   21.45    2.94
  -7  -2  12    4.24    1.11
   7   2 -12    9.81    2.04
   7  -2 -12    7.31    1.85
   7  -2 -12    5.95    1.65
  -7   2  12    8.43    2.05
  -7  -2  12    5.94    1.79
   7   2 -12    7.82    1.29
  -7   2  12    5.74    1.66
   7  -2 -11   32.16    3.19
   7   2 -11   27.98    2.54
  -7  -2  11   33.12    3.58
  -7   2  11   21.03    2.77
  -7   2  11   28.92    3.42
   7   2 -11   25.95    3.18
   7  -2 -11   29.08    3.17
  -7  -2  11   24.86    2.15
   7   2 -10   35.82    3.79
   7  -2 -10   44.73    3.97
   7  -2 -10   40.39    3.74
  -7  -2  10   50.79    4.49
  -7   2  10   43.91    4.27
   7   2 -10   41.40    3.29
  -7   2  10   38.33    3.57
  -7  -2  10   38.86    2.52
   7  -2  -9   13.52    2.03
   7   2  -9   14.81    1.76
   7   2  -9   14.81    2.26
   7  -2  -9   14.45    2.16
  -7   2   9   15.99    2.10
   7  -2  -8    1.44    1.20
   7   2  -8    0.40    0.72
   7   2  -8    1.83    1.07
   7  -2  -8    0.31    0.97
   7  -2  -7   40.98    3.35
  -7  -2   7   43.44    3.38
   7  -2  -7   41.78    3.70
   7   2  -7   33.13    3.54
   7  -2  -7   37.81    3.68
   7   2  -7   40.08    3.23
   7  -2  -6    0.87    0.83
  -7  -2   6    1.06    0.79
   7  -2  -6    0.28    0.79
   7   2  -6    2.08    0.90
   7   2  -6    0.29    1.11
   7  -2  -6   -0.29    1.02
  -7  -2   5   31.77    2.83
   7  -2  -5   29.60    3.11
   7   2  -5   35.01    3.32
   7  -2  -5   38.01    3.30
   7   2  -5   28.74    2.74
   7  -2  -5   27.85    2.78
  -7  -2   4   64.31    4.74
   7  -2  -4   69.69    5.17
   7   2  -4   70.60    5.27
   7  -2  -4   69.61    5.19
   7   2  -4   71.63    4.91
   7  -2  -4   58.95    4.73
  -7   2   3    3.54    1.17
   7   2  -3    2.66    1.13
  -7  -2   3    2.43    1.02
   7  -2  -3    4.22    1.23
   7  -2  -3    2.25    1.09
   7  -2  -3    4.43    1.31
   7   2  -3    2.57    0.92
  -7   2   2  141.98    9.56
  -7  -2   2  166.71    9.56
   7  -2  -1    5.57    1.35
  -7   2   1    2.41    1.13
  -7  -2   1    3.21    1.16
   7  -2   0  328.43   19.89
  -7   2   0  374.21   19.91
  -7  -2   0  351.46   19.61
  -7   2  -1   19.86    2.45
   7  -2   1   21.43    2.52
  -7  -2  -1   21.12    2.36
   7  -2   1   22.77    2.50
   7  -2   2   62.48    4.89
  -7  -2  -2   61.08    4.59
   7  -2   2   56.57    4.63
   7  -2   3   38.32    3.72
  -7  -2  -3   44.90    3.76
   7  -2   3   44.43    3.86
   7  -2   4    1.59    0.94
   7   2   4    1.91    1.09
  -7  -2  -4    3.21    1.14
   7  -2   4    0.88    0.83
  -7  -2  -5   44.78    4.06
  -7   2  -5   37.12    3.84
   7   2   5   45.01    4.05
   7  -2   5   41.55    3.97
  -7   2  -5   46.70    3.93
  -7  -2  -5   43.30    3.82
   7  -2   5   38.47    3.73
  -7  -2  -6   20.09    2.50
  -7   2  -6   14.64    2.21
   7   2   6   15.73    2.25
   7  -2   6   15.32    2.26
  -7   2  -6   10.20    2.03
  -7  -2  -6   14.48    2.20
  -7   2  -7  394.55   23.70
   7   2   7  385.00   23.87
   7  -2   7  436.83   24.12
  -7  -2  -7  401.41   23.72
  -7  -2  -8    1.71    1.34
   7   2   8    4.64    1.32
   7  -2   8    3.84    1.35
  -7   2  -8    2.75    1.10
  -7   2  -8    2.20    1.26
  -7   2  -9   30.07    3.22
   7   2   9   26.37    3.28
   7  -2   9   26.20    3.32
  -7  -2  -9   24.21    3.05
  -7   2  -9   25.30    3.08
  -7  -2  -9   23.55    2.98
  -7  -2 -10    0.73    1.42
  -7   2 -10   -0.73    1.36
   7   2  10    1.33    1.36
   7  -2  10    2.65    1.50
  -7   2 -10    0.66    1.18
  -7  -2 -10    0.67    1.26
   7   2  11    7.08    1.90
   7  -2  11    4.68    1.66
  -7   2 -11    3.38    1.62
   7   2  12  156.99   10.59
   7  -2  12  131.71   10.19
  -7   2 -12  142.49    9.59
   7   2  13    6.45    2.51
   7  -2  13    4.26    1.88
   7   2  14   35.50    4.65
   7  -2  14   37.05    4.61
   7   2  15    0.62    2.15
   7  -2  15    0.61    2.14
   7   2  16   -1.33    2.70
   7  -2  16   -0.66    2.23
   7   2  17  125.26   10.20
   7  -2  17  102.99    9.61
   7   2  18   35.46    5.22
   7  -2  18   24.77    4.75
   7   2  19   50.73    6.50
   7  -2  19   34.26    5.69
   7   2  20   19.66    4.70
   7  -2  20   32.98    5.65
   7  -2  20   23.93    3.97
   7  -2  21    4.86    2.74
  -7  -3  24    1.98    2.31
  -7   3  24   -1.31    2.66
  -7  -3  23    0.64    2.29
  -7   3  23   -1.26    2.57
  -7  -3  22   10.44    3.23
  -7   3  22   13.42    3.25
   7   3 -21   48.29    3.37
  -7  -3  21   46.98    5.48
  -7   3  21   50.75    5.67
  -7   3  20   34.93    4.76
   7   3 -20   31.61    2.55
  -7  -3  20   27.05    4.27
  -7   3  20   42.81    4.86
  -7   3  19    3.93    2.24
   7   3 -19    2.07    0.82
  -7  -3  19   -0.56    1.77
  -7   3  19    3.86    2.10
   7   3 -18    0.14    0.71
  -7  -3  18    0.54    1.71
  -7   3  18   -1.07    1.92
  -7   3  18   -1.59    1.86
  -7  -3  17    0.52    1.77
  -7   3  17    2.59    1.97
   7   3 -17    1.32    0.81
  -7   3  17    0.50    1.54
  -7   3  16   26.34    3.76
   7   3 -16   28.71    2.37
  -7  -3  16   22.07    3.52
  -7   3  16   26.82    3.76
   7  -3 -15   18.20    2.74
  -7  -3  15   23.15    3.19
   7   3 -15   17.18    1.79
  -7   3  15   19.12    3.08
  -7   3  15   11.43    2.63
  -7   3  14  117.11    8.87
   7  -3 -14  112.86    8.30
   7   3 -14  122.67    7.23
  -7   3  14  129.06    8.91
  -7  -3  14  114.38    8.89
  -7  -3  13    1.32    1.50
  -7   3  13    3.07    1.66
   7  -3 -13    2.13    1.17
   7   3 -13    1.62    0.90
  -7   3  13    1.56    1.33
   7   3 -13    2.76    1.47
   7  -3 -13    1.37    1.33
   7   3 -12   19.53    2.74
   7  -3 -12   16.60    2.47
   7  -3 -12   16.97    2.49
  -7  -3  12   14.37    2.57
  -7   3  12   26.88    3.28
   7   3 -12   13.77    1.71
  -7   3  12   14.83    2.46
   7  -3 -11  110.23    8.07
   7   3 -11  114.44    7.15
  -7   3  11  132.89    8.43
   7   3 -11  123.97    8.24
   7  -3 -11  125.40    8.23
  -7  -3  11  114.09    8.47
  -7   3  11  109.66    8.37
   7  -3 -10   -0.33    0.97
  -7  -3  10    0.40    1.01
   7   3 -10    0.31    1.06
   7  -3 -10    1.24    1.18
   7   3 -10    0.35    0.73
  -7   3  10   -0.66    1.15
  -7   3  10    0.79    0.95
   7   3  -9   99.01    6.70
   7  -3  -9   91.22    6.58
   7  -3  -9   88.40    6.59
   7   3  -9   90.89    5.86
  -7   3   9   87.30    6.59
  -7  -3   8   10.88    1.57
   7  -3  -8   10.24    1.94
   7   3  -8   10.76    1.47
   7   3  -8    9.40    1.84
   7  -3  -8   10.56    1.85
  -7  -3   7   80.68    5.31
   7  -3  -7   71.46    5.76
   7   3  -7   88.98    6.06
   7  -3  -7   79.65    5.86
   7   3  -7   73.58    5.23
   7  -3  -7   79.99    5.86
   7  -3  -6  219.47   13.74
  -7  -3   6  229.52   13.15
   7   3  -6  230.16   13.72
   7  -3  -6  236.67   13.77
   7  -3  -6  237.65   13.82
   7   3  -5   39.79    3.81
   7  -3  -5   45.86    3.98
   7  -3  -5   39.91    3.89
  -7  -3   5   43.65    3.51
   7  -3  -5   55.11    4.17
   7  -3  -4  262.92   15.75
  -7  -3   4  271.99   15.24
   7   3  -4  266.67   15.72
   7  -3  -4  275.79   15.87
   7  -3  -4  269.21   15.79
   7   3  -3   50.50    4.16
   7  -3  -3   39.47    3.82
  -7  -3   3   51.15    3.79
   7  -3  -3   46.17    4.11
  -7   3   2  307.92   17.16
  -7  -3   2  303.73   16.64
   7   3  -2  285.44   15.88
   7   3  -1    5.60    1.06
   7   3  -1    3.74    1.14
  -7   3   1    3.47    1.31
  -7  -3   1    2.93    1.09
   7  -3  -1    4.96    1.38
   7   3   0   24.37    2.70
   7  -3   0   24.53    2.73
  -7   3   0   21.11    2.57
  -7  -3   0   24.21    2.49
   7  -3   0   18.98    2.50
   7   3   1    4.23    1.24
   7  -3   1    3.02    1.13
   7  -3   1    3.24    1.22
  -7  -3  -1    5.12    1.31
   7   3   2   14.48    2.08
   7  -3   2   10.15    1.80
   7  -3   2   13.37    1.99
  -7  -3  -2   15.37    2.06
   7   3   3   77.25    5.78
   7  -3   3   73.11    5.68
   7  -3   3   76.80    5.73
  -7  -3  -3   77.08    5.56
   7   3   4  187.74   12.00
   7  -3   4  179.69   11.94
  -7   3  -4  209.39   12.05
   7  -3   4  195.53   12.00
  -7  -3  -4  204.77   11.91
  -7   3  -5  162.19    9.75
   7   3   5  144.04    9.54
   7  -3   5  152.71    9.66
  -7   3  -5  140.94    9.28
   7  -3   5  138.48    9.31
  -7  -3  -5  137.95    9.22
  -7  -3  -6   10.60    1.98
   7   3   6    7.37    1.69
  -7   3  -6   10.76    1.97
  -7   3  -6   12.68    1.97
   7  -3   6   13.25    2.10
  -7  -3  -6   10.05    1.90
   7  -3   6    9.46    1.81
  -7  -3  -7    1.68    1.22
   7   3   7    2.94    1.40
   7  -3   7    0.73    1.16
  -7   3  -7    1.57    1.13
  -7  -3  -7    2.16    1.23
  -7   3  -7    2.05    1.33
  -7  -3  -8    1.02    1.23
  -7   3  -8    0.69    1.28
   7   3   8    1.55    1.32
   7  -3   8    1.93    1.27
  -7   3  -8    1.94    1.23
  -7  -3  -9    5.65    1.69
  -7   3  -9    4.29    1.62
   7   3   9    7.47    1.78
   7  -3   9    2.06    1.42
  -7   3  -9    5.62    1.75
  -7  -3 -10   13.84    2.44
  -7   3 -10   17.70    2.76
   7   3  10   20.20    3.06
   7  -3  10   16.02    2.82
  -7   3 -10   13.90    2.34
  -7  -3 -10   17.69    2.65
   7   3  11    0.48    1.46
   7  -3  11   -1.89    1.70
  -7   3 -11   -0.35    1.29
   7   3  12    3.04    1.62
   7  -3  12    4.02    1.82
  -7   3 -12    2.48    1.51
   7   3  13   28.73    4.00
   7  -3  13   24.67    3.83
   7   3  14    5.79    2.36
   7  -3  14    2.30    2.08
   7   3  15    9.92    2.61
   7  -3  15    6.15    2.48
   7   3  16   27.36    4.34
   7  -3  16   13.84    3.30
   7   3  17    4.28    2.78
   7  -3  17    0.70    2.47
   7   3  18    6.08    2.84
   7  -3  18    8.30    3.22
   7   3  19    6.49    3.38
   7  -3  19    3.20    2.81
   7   3  20   38.79    6.08
   7  -3  20   35.70    5.78
   7  -3  20   27.03    4.53
   7  -3  21    6.03    3.13
  -7   4  24    1.32    2.37
  -7  -4  23   11.52    3.19
  -7   4  23   14.60    3.43
  -7  -4  22    0.62    2.23
  -7   4  22    9.21    3.04
  -7  -4  21   14.96    3.35
  -7   4  21   23.75    4.02
  -7  -4  20    1.16    2.08
  -7   4  20   -2.29    2.23
  -7  -4  19   15.13    3.32
  -7   4  19   23.83    3.81
  -7   4  19   22.66    3.82
  -7   4  18   25.79    3.82
  -7   4  18   32.75    4.53
  -7  -4  18   21.13    3.65
  -7   4  17   57.17    6.22
  -7  -4  17   71.06    6.51
  -7   4  17   77.32    6.73
  -7  -4  16    1.00    1.65
  -7   4  16    4.46    1.93
  -7   4  16    2.55    1.89
  -7  -4  15  196.89   12.60
  -7   4  15  180.46   12.40
  -7   4  15  170.64   12.30
  -7  -4  14    3.22    1.46
  -7   4  14    1.84    1.62
  -7   4  14    0.91    1.64
   7  -4 -13  350.90   20.45
  -7  -4  13  351.41   20.78
  -7   4  13  337.39   20.67
   7   4 -13  360.64   20.20
   7  -4 -13  371.12   20.25
  -7   4  13  314.47   20.50
   7  -4 -12   85.97    6.61
  -7  -4  12   80.20    6.74
   7   4 -12   78.78    6.37
   7  -4 -12   92.03    6.59
  -7   4  12   87.71    6.84
  -7   4  12   79.48    6.66
   7   4 -11   25.55    3.10
   7  -4 -11   22.03    2.89
   7  -4 -11   23.09    3.00
  -7  -4  11   23.34    3.18
  -7   4  11   23.27    3.19
  -7   4  11   23.97    3.19
   7  -4 -10    0.36    1.19
   7   4 -10    0.62    1.02
   7  -4 -10    1.23    1.14
  -7   4  10    1.97    1.20
  -7  -4  10    1.98    1.34
  -7   4  10   -0.39    1.27
  -7  -4  10    0.85    0.53
   7   4  -9   73.20    5.67
   7  -4  -9   70.71    5.55
  -7  -4   9   73.77    4.97
   7  -4  -9   73.73    5.84
  -7   4   9   76.46    6.10
   7  -4  -8    1.79    1.26
   7  -4  -8    0.35    1.06
  -7  -4   8    0.73    0.77
   7   4  -8   -0.30    1.14
   7  -4  -8   -0.60    1.31
   7  -4  -7  156.82    9.86
  -7  -4   7  141.43    8.81
   7   4  -7  156.45    9.63
   7  -4  -7  148.91    9.52
   7  -4  -7  143.33    9.81
   7  -4  -6    2.35    1.25
  -7  -4   6    3.42    0.95
   7   4  -6    4.27    1.33
   7  -4  -6    3.99    1.24
   7  -4  -6    1.42    1.05
   7   4  -5  141.43    8.80
   7  -4  -5  133.68    8.68
  -7  -4   5  141.39    8.21
   7  -4  -5  111.03    8.71
  -7  -4   4   23.41    2.46
   7   4  -4   25.06    2.87
   7  -4  -4   32.13    3.08
   7  -4  -4   29.00    3.26
   7   4  -3   68.74    5.02
   7  -4  -3   58.88    4.78
  -7  -4   3   64.44    4.49
   7  -4  -3   48.62    4.88
  -7  -4   2  132.60    8.18
   7  -4  -2  131.95    9.18
   7   4  -2  129.60    7.74
   7   4  -1   12.45    1.97
   7  -4  -1   13.01    1.96
   7  -4  -1    6.82    1.70
  -7  -4   1   14.43    1.86
   7   4  -1   13.92    1.69
   7   4   0   12.74    1.76
   7   4   0   10.55    1.86
   7  -4   0   11.62    1.95
   7  -4   0    6.63    1.47
  -7  -4   0   10.43    1.60
   7   4   1    1.06    1.11
   7   4   1    0.30    0.89
   7  -4   1    0.30    0.85
   7  -4   1    0.64    1.11
  -7  -4  -1    1.25    0.87
   7   4   2  156.01   10.34
   7   4   2  177.13   10.56
   7  -4   2  180.16   10.60
   7  -4   2  154.06   10.38
  -7  -4  -2  160.48   10.11
  -7   4  -3   18.39    2.43
   7   4   3   16.77    2.22
   7  -4   3   16.77    2.22
   7  -4   3   16.64    2.28
  -7  -4  -3   12.99    2.09
  -7   4  -4  268.32   14.93
   7   4   4  245.57   14.81
   7  -4   4  245.53   14.84
   7  -4   4  250.34   14.83
  -7  -4  -4  234.11   14.51
  -7   4  -5  113.95    7.15
   7   4   5   97.92    6.96
   7  -4   5   85.22    6.75
   7  -4   5   86.82    6.71
  -7  -4  -5   95.43    6.78
  -7  -4  -6   71.78    5.53
  -7   4  -6   73.56    5.60
   7   4   6   71.13    5.55
   7  -4   6   58.62    5.23
   7  -4   6   66.12    5.31
  -7   4  -6   61.04    5.22
  -7   4  -7    0.34    1.31
   7   4   7    0.73    1.03
  -7   4  -7   -0.32    1.27
   7  -4   7    1.46    1.03
  -7  -4  -7    0.34    1.23
   7  -4   7    1.31    1.15
  -7  -4  -8    3.12    1.37
  -7   4  -8    5.95    1.59
   7   4   8    1.96    1.26
  -7   4  -8    5.88    1.70
   7  -4   8    5.04    1.63
  -7  -4  -9  105.54    7.51
  -7   4  -9  109.60    7.64
  -7   4  -9   92.15    7.20
   7   4   9  105.19    7.79
   7  -4   9  102.04    7.73
  -7  -4 -10   13.21    2.33
  -7   4 -10   10.03    2.11
  -7   4 -10   11.20    2.25
   7   4  10   14.51    2.45
   7  -4  10   13.47    2.46
  -7   4 -11   17.85    2.74
   7   4  11   25.85    3.42
   7  -4  11   16.57    3.06
  -7   4 -12   -0.36    1.26
   7   4  12    1.02    1.44
   7  -4  12    1.01    1.28
   7   4  13   86.83    7.67
   7  -4  13   92.23    7.72
   7   4  14  133.91   10.26
   7  -4  14  125.78   10.11
   7   4  15   11.93    3.19
   7  -4  15   16.72    3.48
   7   4  16  188.68   14.27
   7  -4  16  211.34   14.59
   7   4  17    5.75    2.68
   7  -4  17    6.42    2.98
   7   4  18   26.95    4.84
   7  -4  18   23.52    4.77
   7   4  19   19.61    4.55
   7  -4  19   17.69    4.43
   7  -4  19    9.15    3.35
   7   4  20   -3.47    3.04
   7  -4  20    5.99    3.17
   7  -4  20    2.89    2.45
   7  -4  21    8.77    3.13
   7  -4  22   37.11    5.74
  -7  -5  23   23.16    4.38
  -7   5  23   26.82    4.61
  -7  -5  22   35.48    4.82
  -7   5  22   30.87    4.64
  -7  -5  21    1.20    2.28
  -7   5  21   -0.60    2.15
  -7  -5  20   12.23    3.00
  -7   5  20   13.86    3.21
  -7  -5  19   -1.13    2.08
  -7   5  19   -1.12    2.17
  -7  -5  18   -1.09    2.06
  -7   5  18    0.54    1.76
  -7   5  18   -0.60    2.18
  -7  -5  17   43.25    5.23
  -7   5  17   47.86    5.38
  -7  -5  16   21.54    3.39
  -7   5  16   20.80    3.38
  -7   5  16   16.01    3.36
  -7  -5  15    2.39    1.78
  -7   5  15    4.25    2.28
  -7   5  15    6.36    2.35
  -7  -5  14   13.72    2.50
  -7   5  14   14.03    2.76
  -7   5  14   15.88    3.16
  -7  -5  13    7.44    2.28
  -7   5  13   12.60    2.57
  -7   5  13   10.29    2.61
   7   5 -13    6.70    1.88
   7  -5 -13   11.18    2.19
  -7   5  12   28.63    3.77
   7   5 -12   39.25    3.91
   7  -5 -12   41.86    3.91
  -7   5  12   32.33    4.08
  -7  -5  12   38.05    4.20
  -7  -5  11    0.41    1.25
   7   5 -11    2.68    1.51
   7  -5 -11    0.33    1.28
  -7   5  11    2.45    1.43
  -7  -5  11    0.53    0.80
  -7   5  11    2.27    1.68
   7  -5 -11   -0.79    1.34
   7  -5 -10    3.47    1.55
   7  -5 -10    3.70    1.33
  -7   5  10    5.33    2.01
  -7  -5  10    4.05    0.93
   7  -5  -9    0.86    1.26
   7  -5  -9   -0.38    1.24
  -7  -5   9    1.16    0.73
   7   5  -9    0.30    1.08
   7  -5  -9   -0.60    1.32
  -7  -5   9    0.11    0.53
   7  -5  -8   20.38    3.03
   7  -5  -8   23.48    2.76
  -7  -5   8   21.08    2.07
   7  -5  -8   19.73    2.76
   7   5  -8   21.92    2.70
  -7  -5   8   17.96    1.55
   7  -5  -7   54.68    4.90
   7  -5  -7   63.40    4.76
  -7  -5   7   52.52    3.96
   7   5  -7   59.03    4.68
   7  -5  -7   49.08    5.01
  -7  -5   6  100.61    6.02
   7   5  -6   84.08    6.32
   7  -5  -6   87.15    6.40
   7  -5  -6   88.15    7.11
   7  -5  -5    4.58    1.55
  -7  -5   5    5.31    1.13
   7  -5  -5    7.95    2.15
   7   5  -5    6.60    1.57
   7   5  -4  133.25    8.52
   7  -5  -4  135.62    8.49
  -7  -5   4  125.30    7.89
   7  -5  -4  116.88    9.04
   7  -5  -3   12.33    1.94
  -7  -5   3   10.25    1.56
   7   5  -3    9.80    1.71
   7  -5  -3    4.76    1.62
   7  -5  -2   85.09    6.14
   7   5  -2   84.22    6.04
   7  -5  -2   77.95    6.16
  -7  -5   2   77.71    5.56
   7  -5  -2   83.53    6.78
   7   5  -2   79.75    5.42
   7   5  -1  122.33    7.90
   7  -5  -1  106.91    7.69
   7  -5  -1  124.14    8.16
  -7  -5   1  104.38    7.30
   7   5  -1  119.68    7.46
   7   5   0   55.62    4.73
   7  -5   0   64.11    5.16
   7  -5   0   61.89    4.88
  -7  -5   0   61.60    4.62
   7   5   0   58.11    4.66
   7  -5   1   62.46    4.86
   7  -5   1   58.89    4.98
   7   5   1   64.49    4.94
  -7  -5  -1   54.52    4.51
   7   5   1   54.39    4.73
   7   5   2    0.33    1.16
  -7   5  -2    0.33    1.21
   7   5   2    1.52    0.93
   7  -5   2   -0.31    1.00
   7  -5   2    1.68    1.28
  -7  -5  -2   -0.27    1.01
  -7   5  -3   56.97    5.03
   7   5   3   65.32    5.08
   7  -5   3   57.36    4.93
   7  -5   3   65.96    5.25
   7   5   3   67.08    5.43
   7   5   4   37.18    4.03
  -7   5  -4   33.75    3.64
   7  -5   4   38.34    3.70
   7  -5   4   43.60    3.98
   7   5   4   44.21    3.97
  -7   5  -5   20.39    2.85
   7  -5   5   25.40    2.99
   7  -5   5   30.29    3.24
   7   5   5   31.20    3.21
  -7  -5  -6   30.16    3.22
  -7   5  -6   18.77    2.76
  -7   5  -6   22.01    2.91
   7   5   6   24.75    2.94
   7  -5   6   23.51    2.90
   7  -5   6   22.56    2.90
  -7   5  -7  144.14   10.21
  -7   5  -7  166.54   10.45
  -7  -5  -7  164.21   10.46
   7   5   7  159.47   10.54
   7  -5   7  162.47   10.59
   7  -5   7  160.39   10.32
  -7  -5  -8    9.86    2.20
  -7   5  -8   13.87    2.43
  -7   5  -8   12.30    2.23
   7   5   8   11.40    2.48
   7  -5   8   16.02    2.55
   7  -5   8    9.22    1.91
  -7  -5  -9   11.45    2.26
  -7   5  -9    9.80    2.10
  -7   5  -9    9.72    2.18
   7   5   9   11.83    2.28
   7  -5   9   13.05    2.27
  -7  -5 -10    1.11    1.44
  -7   5 -10    0.75    1.35
  -7   5 -10   -0.35    1.37
   7   5  10    0.45    1.39
   7  -5  10    0.89    1.47
  -7   5 -11   22.85    3.01
   7   5  11   26.97    3.58
   7  -5  11   14.82    3.01
  -7   5 -12   86.48    6.60
   7   5  12   79.52    7.08
   7  -5  12   83.00    7.17
   7   5  13   16.48    3.19
   7  -5  13   19.01    3.22
   7   5  14   -1.77    2.24
   7  -5  14    1.17    1.85
   7   5  15   21.67    4.06
   7  -5  15   22.03    3.87
   7   5  16    0.68    2.09
   7  -5  16    4.71    2.62
   7   5  17   61.07    6.92
   7  -5  17   59.83    6.82
   7   5  18   16.98    4.27
   7  -5  18   14.56    3.82
   7   5  19    0.82    2.69
   7  -5  19    4.07    3.17
   7  -5  19    3.07    2.77
   7   5  20   45.78    6.62
   7  -5  20   46.89    6.70
   7  -5  20   49.31    6.52
   7  -5  21    0.79    2.94
   7  -5  22   32.30    5.85
  -7  -6  23   11.02    3.38
  -7   6  23    7.06    3.16
  -7  -6  22   -1.25    2.76
  -7   6  22   -2.48    2.64
  -7  -6  21   73.96    7.19
  -7   6  21   69.08    7.07
  -7  -6  20   -0.59    2.28
  -7   6  20    2.89    2.40
  -7   6  19   46.67    5.24
  -7  -6  19   39.36    5.14
  -7   6  18    3.20    2.08
  -7  -6  18    1.08    1.78
  -7  -6  17   22.87    3.52
  -7   6  17   20.56    3.40
  -7   6  17   18.65    3.77
  -7  -6  16    4.47    2.11
  -7   6  16    3.43    1.82
  -7   6  16    1.20    1.98
  -7  -6  15   88.60    7.49
  -7   6  15   80.26    7.28
  -7  -6  14   31.79    3.88
  -7   6  14   31.93    3.83
  -7   6  14   27.96    4.22
   7   6 -13   33.64    3.57
   7  -6 -13   29.96    3.54
  -7  -6  13   34.09    3.92
  -7   6  13   27.42    4.19
  -7   6  13   31.33    3.89
  -7  -6  12   89.15    7.16
  -7   6  12   91.82    7.19
   7   6 -12  105.51    6.95
   7  -6 -12   90.75    6.61
  -7  -6  12   76.25    6.00
  -7   6  12   93.06    7.80
  -7  -6  11  361.20   21.74
   7   6 -11  379.43   21.33
   7  -6 -11  404.12   21.45
  -7   6  11  386.76   22.53
  -7  -6  11  347.92   20.42
   7  -6 -10   36.35    4.52
  -7  -6  10   41.44    3.06
  -7   6  10   40.24    4.69
  -7  -6  10   40.43    3.32
   7  -6 -10   42.10    4.35
   7   6 -10   41.21    3.95
   7  -6 -10   43.77    4.13
   7  -6  -9    2.97    1.70
   7  -6  -9    5.62    1.88
  -7  -6   9    5.62    1.11
   7   6  -9    8.29    1.63
   7  -6  -9    3.80    1.27
  -7  -6   9    4.84    1.12
  -7  -6   8    7.15    1.20
   7  -6  -8    7.33    2.02
   7  -6  -8    5.91    1.80
  -7  -6   8    5.43    1.17
   7   6  -8    8.18    1.75
   7  -6  -8    7.49    1.75
   7  -6  -7   12.71    2.68
  -7  -6   7   10.08    1.40
  -7  -6   7   10.04    1.50
   7   6  -7    8.94    1.83
   7  -6  -7   12.59    2.04
   7  -6  -6    1.41    1.27
   7   6  -6    2.28    1.17
  -7  -6   6    2.25    0.96
   7  -6  -6    1.46    1.43
  -7  -6   5    1.95    0.98
   7   6  -5    0.28    1.00
   7  -6  -5    0.83    1.11
   7  -6  -5    0.48    1.23
   7   6  -4   57.60    4.62
   7  -6  -4   47.35    4.34
   7  -6  -4   58.25    5.01
  -7  -6   4   56.20    4.18
   7  -6  -4   64.75    5.73
   7   6  -3   20.41    2.57
   7  -6  -3   21.70    2.84
   7  -6  -3   30.01    3.00
  -7  -6   3   22.53    2.37
   7  -6  -3   18.86    3.14
   7  -6  -2   11.50    2.00
   7   6  -2   12.80    1.94
   7  -6  -2   10.54    2.02
   7  -6  -2   13.31    2.04
   7   6  -2   12.00    1.82
  -7  -6   2   13.79    1.83
   7  -6  -2    9.67    2.37
   7   6  -2   11.11    1.94
   7   6  -1    6.98    1.50
   7  -6  -1    7.83    1.62
   7  -6  -1    2.17    1.22
   7  -6  -1    5.31    1.93
  -7  -6   1    5.30    1.34
   7   6  -1    6.70    1.60
   7   6   0   35.31    3.48
   7  -6   0   39.07    3.59
   7  -6   0   39.91    3.90
  -7  -6   0   38.52    3.43
   7   6   0   34.54    3.59
   7   6   1   38.07    3.72
   7  -6   1   40.34    3.79
   7  -6   1   47.63    4.32
   7   6   1   46.36    4.26
   7   6   2   22.75    3.06
   7  -6   2   24.73    2.74
   7   6   2   22.00    2.65
   7  -6   2   15.16    2.56
   7   6   3   29.65    3.59
   7   6   3   33.22    3.30
   7  -6   3   29.64    3.19
   7  -6   3   30.51    3.41
   7   6   4    5.17    1.83
  -7   6  -4    8.34    2.02
   7   6   4    7.04    1.68
   7  -6   4    7.05    1.70
   7  -6   4   13.24    2.34
   7   6   5   10.21    2.47
  -7   6  -5   16.04    2.59
   7   6   5   13.75    2.28
   7  -6   5   13.73    2.22
   7  -6   5   15.96    2.42
   7   6   6   83.98    7.37
  -7   6  -6   83.59    6.58
   7  -6   6   91.92    6.75
   7  -6   6   81.35    6.47
   7   6   6   96.20    6.80
   7   6   7   66.74    6.41
  -7  -6  -7   58.82    5.22
  -7   6  -7   66.69    5.42
  -7   6  -7   59.73    5.38
   7   6   7   68.28    5.54
   7  -6   7   65.87    5.47
   7  -6   7   65.45    5.36
   7   6   8   90.79    8.51
  -7  -6  -8  100.00    7.66
   7   6   8  114.28    8.03
   7  -6   8  109.53    7.93
   7  -6   8  101.10    7.52
  -7   6  -8   99.17    7.59
  -7  -6  -9  117.42    8.66
  -7   6  -9  133.80    8.96
  -7   6  -9  118.95    8.72
   7   6   9  136.12    9.25
   7  -6   9  129.71    9.15
   7  -6   9  122.87    8.72
  -7  -6 -10   11.58    2.39
  -7   6 -10   11.34    2.20
  -7   6 -10    9.22    2.30
   7   6  10   11.35    2.44
   7  -6  10   10.39    2.43
  -7   6 -11   23.97    3.38
   7   6  11   36.34    4.05
   7  -6  11   29.85    3.86
  -7   6 -12   -0.76    1.44
   7   6  12    1.56    1.76
   7  -6  12   -1.55    1.80
   7   6  13  136.48   10.47
   7  -6  13  142.34   10.55
   7   6  14   20.24    3.64
   7  -6  14   24.33    3.93
   7   6  15    4.48    2.69
   7  -6  15   10.19    2.89
   7   6  16   44.62    5.87
   7  -6  16   44.90    5.71
   7   6  17    5.85    2.93
   7  -6  17    5.10    2.92
   7   6  18   -1.56    2.82
   7  -6  18   -0.77    2.86
   7  -6  18    3.26    3.24
   7   6  19   -0.83    3.00
   7  -6  19   -0.82    2.62
   7  -6  19    2.50    3.09
   7  -6  20   -0.85    2.89
   7   6  20   -2.65    4.18
   7  -6  20   -3.50    3.94
   7  -6  21   31.85    5.66
   7  -6  22    9.61    4.35
  -7  -7  23    3.91    2.83
  -7   7  23    3.22    2.74
  -7  -7  22   24.50    4.37
  -7   7  22   22.92    4.15
  -7   7  21   52.52    5.88
  -7  -7  21   45.94    5.78
  -7  -7  20    2.33    2.10
  -7   7  20    2.87    2.44
  -7  -7  19   -0.56    1.96
  -7   7  19    3.32    2.15
  -7  -7  18    4.31    2.15
  -7   7  18    2.13    1.97
  -7  -7  17   -0.51    1.95
  -7   7  17    1.02    1.78
  -7  -7  16   -0.49    1.77
  -7   7  16   -1.95    1.85
  -7  -7  15   50.75    5.21
  -7   7  15   54.05    5.28
  -7   7  15   38.80    5.34
  -7   7  14   65.95    6.70
  -7  -7  14   59.61    5.81
  -7   7  14   68.95    6.04
  -7  -7  13   56.19    5.32
  -7   7  13   65.72    5.62
   7   7 -13   58.91    4.97
   7  -7 -13   59.71    4.93
  -7  -7  13   46.32    4.54
  -7   7  13   52.62    5.92
  -7  -7  12   76.08    6.03
   7   7 -12   69.86    5.44
   7  -7 -12   60.86    5.18
  -7   7  12   84.93    6.31
  -7   7  12   54.83    6.31
  -7  -7  12   57.95    4.98
  -7   7  11    5.68    2.47
  -7  -7  11    4.60    1.47
   7   7 -11    4.78    1.71
   7  -7 -11    4.65    1.70
   7   7 -10    4.77    1.60
   7  -7 -10    3.38    1.99
   7  -7 -10    9.62    1.99
  -7  -7  10    6.78    1.09
  -7  -7  10    4.10    1.26
   7  -7  -9   33.56    4.40
   7  -7  -9   21.11    3.18
  -7  -7   9   25.79    2.22
   7   7  -9   16.64    2.65
   7  -7  -9   18.51    2.67
  -7  -7   9   26.62    2.71
   7   7  -8  116.91    8.13
   7  -7  -8  118.53    8.10
  -7  -7   8  130.88    7.45
  -7  -7   8  123.45    7.83
   7  -7  -8  112.73    9.41
   7  -7  -7   -1.11    1.50
  -7  -7   7    1.37    0.99
  -7  -7   7    2.31    1.05
   7   7  -7    0.57    1.22
   7  -7  -7    0.28    1.13
   7   7  -6   46.06    4.24
   7  -7  -6   55.43    4.46
  -7  -7   6   50.51    3.81
   7  -7  -6   49.72    5.59
  -7  -7   6   54.11    4.09
   7  -7  -5  225.94   14.50
  -7  -7   5  244.83   13.39
   7   7  -5  240.27   13.87
   7  -7  -5  244.61   13.88
   7  -7  -5  190.46   14.96
   7  -7  -4   17.12    2.25
   7  -7  -4   12.96    2.37
  -7  -7   4   17.96    2.08
   7  -7  -4   14.92    2.99
   7   7  -4   12.78    2.07
   7  -7  -3  553.39   28.78
   7   7  -3  531.63   28.49
   7  -7  -3  497.93   28.36
   7  -7  -3  506.14   29.07
  -7  -7   3  518.60   28.06
   7  -7  -3  495.58   30.13
   7   7  -2   61.82    5.15
   7  -7  -2   74.09    5.40
   7  -7  -2   65.64    5.58
   7   7  -2   59.45    5.10
  -7  -7   2   70.14    4.98
   7  -7  -2   66.72    6.48
   7   7  -2   63.44    5.04
   7  -7  -2   67.79    5.13
   7   7  -1  355.43   20.23
   7  -7  -1  354.76   20.22
   7  -7  -1  358.87   20.80
   7  -7  -1  347.45   21.97
   7   7  -1  360.61   20.48
   7   7   0   14.97    2.27
   7  -7   0   20.79    2.56
   7  -7   0   20.85    2.86
   7  -7   0   13.41    3.06
   7   7   0   19.25    2.82
   7   7   1    7.94    1.67
   7  -7   1   10.37    1.81
   7  -7   1    8.40    1.94
   7   7   1    7.27    1.94
   7   7   2   60.38    4.91
   7  -7   2   59.81    4.92
   7  -7   2   59.50    5.31
   7   7   2   70.54    5.79
   7   7   3   -1.22    1.19
   7  -7   3   -0.38    1.44
   7  -7   3   -0.31    1.04
   7   7   3   -1.33    1.64
   7   7   4   60.86    5.02
   7  -7   4   61.93    5.01
   7  -7   4   58.63    5.22
   7   7   4   60.31    5.79
   7  -7   5  407.14   24.44
   7   7   5  443.25   24.64
   7  -7   5  460.98   24.95
   7   7   5  441.76   25.76
   7   7   6   18.51    3.32
   7   7   6   13.26    2.33
   7  -7   6   15.71    2.35
   7  -7   6   11.57    2.29
   7   7   7   31.02    4.58
  -7   7  -7   32.12    3.74
  -7   7  -7   42.95    4.15
   7   7   7   39.72    3.91
   7  -7   7   36.05    3.80
   7  -7   7   34.32    3.68
   7   7   8   -0.60    1.83
  -7  -7  -8   -0.72    1.60
  -7   7  -8    0.73    1.49
  -7   7  -8   -1.50    1.66
   7   7   8    1.99    1.12
   7  -7   8    1.21    1.32
   7  -7   8    0.72    1.10
   7   7   9   65.25    6.80
  -7  -7  -9   60.53    5.36
  -7   7  -9   50.32    5.10
  -7   7  -9   57.58    5.34
   7   7   9   64.13    5.61
   7  -7   9   67.72    5.67
   7  -7   9   57.28    5.06
  -7  -7 -10    0.76    1.77
  -7   7 -10    0.39    1.67
   7   7  10   -0.46    1.59
   7  -7  10    0.37    1.32
  -7   7 -11    0.39    1.48
   7   7  11    2.92    1.89
   7  -7  11    1.95    1.98
   7   7  12   42.56    4.90
   7  -7  12   41.75    4.86
   7   7  13   31.30    4.33
   7  -7  13   25.77    3.98
   7   7  14    3.01    2.17
   7  -7  14    1.21    1.92
   7   7  15  116.17    9.91
   7  -7  15  122.79   10.13
   7   7  16   23.57    4.39
   7  -7  16   26.93    4.46
   7   7  17   11.78    3.59
   7  -7  17   12.48    3.74
   7   7  18    1.56    2.90
   7  -7  18    0.79    3.06
   7  -7  18    6.18    3.27
   7   7  19   -0.84    3.09
   7  -7  19   -0.84    2.93
   7  -7  19   -0.90    2.65
   7  -7  20    0.91    3.00
   7   7  20   -2.66    3.45
   7  -7  21   37.14    6.29
   7  -7  22    0.94    3.10
  -7  -8  23   18.08    3.88
  -7   8  23   20.42    4.06
  -7  -8  22   13.70    3.33
  -7   8  22   12.32    3.37
  -7  -8  21   -1.20    2.33
  -7   8  21    1.19    2.20
  -7  -8  20    5.78    2.46
  -7   8  20    2.86    2.18
  -7  -8  19   -0.55    1.93
  -7   8  19   -0.55    2.02
  -7  -8  18   66.48    6.44
  -7   8  18   70.73    6.67
  -7  -8  17   -1.52    2.06
  -7   8  17   -1.01    2.01
  -7  -8  16   -0.48    2.14
  -7   8  16    0.97    1.79
  -7  -8  15   54.03    5.63
  -7   8  15   61.98    5.72
  -7  -8  14  129.90    9.60
  -7   8  14  139.21    9.78
  -7  -8  14  133.36    9.28
  -7   8  13   18.58    3.06
  -7  -8  13   15.60    2.86
   7   8 -13   14.13    2.52
   7  -8 -13   18.26    2.67
  -7  -8  13   18.20    2.73
  -7   8  13   21.26    4.00
   7   8 -12   31.98    3.41
   7  -8 -12   32.66    3.41
  -7  -8  12   27.70    3.28
  -7   8  12   24.02    4.05
   7  -8 -11   24.66    4.09
   7   8 -11   30.57    3.23
   7  -8 -11   32.38    3.26
  -7   8  11   30.69    4.49
  -7  -8  11   17.56    2.79
   7  -8 -10   59.93    6.35
  -7  -8  10   57.55    3.89
   7   8 -10   65.29    5.18
   7  -8 -10   60.25    4.94
  -7  -8  10   61.25    4.97
   7  -8  -9    3.13    1.92
   7   8  -9    3.03    1.37
   7  -8  -9    3.49    1.51
  -7  -8   9    3.18    1.01
  -7  -8   9    2.43    1.35
  -7  -8   8  149.35    8.69
  -7  -8   8  157.50    9.62
   7   8  -8  140.91    9.35
   7  -8  -8  144.17   11.19
   7  -8  -8  143.52    9.35
   7  -8  -7   13.09    3.05
  -7  -8   7    7.39    1.79
   7   8  -7    9.11    1.84
   7  -8  -7   12.44    2.03
  -7  -8   7   14.37    1.72
  -7  -8   6   20.02    2.66
   7  -8  -6   13.93    2.70
  -7  -8   6   19.64    2.17
   7   8  -6   18.84    2.45
   7  -8  -6   22.60    2.57
   7  -8  -6   26.63    3.99
  -7  -8   5   61.37    4.95
   7  -8  -5   63.82    5.57
   7   8  -5   69.26    5.03
   7  -8  -5   62.15    4.88
  -7  -8   5   63.70    4.53
   7  -8  -5   48.62    5.96
  -7  -8   4   60.02    4.32
   7   8  -4   56.61    4.49
   7  -8  -4   53.13    5.86
   7  -8  -4   50.54    4.38
   7  -8  -4   53.15    5.05
   7   8  -3   22.56    2.61
   7  -8  -3   19.71    2.59
   7   8  -3   20.51    2.52
   7  -8  -3   19.55    2.84
   7  -8  -3   17.31    2.38
  -7  -8   3   19.49    2.34
   7  -8  -3   23.15    3.74
   7   8  -2    0.83    1.07
   7   8  -2    0.59    0.84
   7  -8  -2    0.59    1.00
   7  -8  -2    0.40    1.28
   7  -8  -2   -0.27    1.28
   7  -8  -2   -1.90    1.86
   7   8  -1   30.75    3.08
   7   8  -1   29.64    3.00
   7  -8  -1   26.72    2.96
   7  -8  -1   27.51    3.39
   7  -8  -1   26.28    2.97
   7   8  -1   25.47    3.27
   7  -8  -1   25.19    4.09
   7  -8   0   22.80    2.76
   7   8   0   21.65    2.62
   7  -8   0   24.07    3.17
   7  -8   0   25.28    4.12
   7   8   0   23.33    3.22
   7   8   1    2.01    1.13
   7  -8   1    2.89    1.26
   7  -8   1    3.53    1.50
   7   8   1    2.59    1.52
   7   8   2    1.17    1.02
   7  -8   2    2.35    1.12
   7  -8   2    0.80    1.17
   7   8   2    0.45    1.64
   7   8   3    8.77    1.78
   7  -8   3   10.06    1.96
   7  -8   3    7.14    2.07
   7   8   3   10.95    2.47
   7   8   4    2.21    1.18
   7  -8   4    3.51    1.44
   7  -8   4    2.34    1.45
   7   8   4    1.02    1.63
   7   8   5    1.62    1.89
   7   8   5    1.31    1.18
   7  -8   5    0.66    1.29
   7  -8   5    3.83    1.59
   7   8   6   86.17    6.57
   7  -8   6   96.91    6.80
   7  -8   6   78.57    6.54
   7   8   6   87.80    7.77
   7   8   7   36.69    5.02
   7   8   7   38.26    4.02
   7  -8   7   36.48    3.95
   7  -8   7   47.73    4.34
  -7   8  -8   73.60    6.21
   7   8   8   71.48    6.29
   7  -8   8   88.18    6.62
   7  -8   8   82.32    6.36
   7   8   8   76.40    7.51
  -7  -8  -9    5.25    1.70
  -7   8  -9    1.51    1.55
   7   8   9    5.12    1.93
   7  -8   9    5.58    1.94
   7  -8   9    5.21    1.77
   7   8  10    0.45    1.64
   7  -8  10   -0.46    1.51
   7  -8  10   -1.11    1.29
   7   8  11    3.41    1.71
   7  -8  11    2.94    1.67
   7  -8  11    2.66    1.49
   7   8  12    2.62    1.89
   7  -8  12    1.59    1.96
   7   8  13   -0.56    2.09
   7  -8  13   -1.72    2.00
   7   8  14    6.06    2.63
   7  -8  14    1.84    2.27
   7   8  15   12.98    3.29
   7  -8  15   14.40    3.45
   7   8  16  196.04   14.24
   7  -8  16  186.18   14.11
   7   8  17    1.48    2.73
   7  -8  17    1.49    2.76
   7  -8  17    0.93    2.73
   7   8  18   20.49    4.35
   7  -8  18   11.18    3.96
   7  -8  18   12.36    4.41
   7  -8  19    3.87    3.30
   7   8  19    5.86    3.20
   7  -8  19   10.16    3.82
   7  -8  20    3.93    3.54
   7  -8  21    2.99    3.49
  -7   9  23    6.32    2.95
  -7  -9  22    1.23    2.40
  -7   9  22    4.25    2.68
  -7  -9  21    7.67    2.79
  -7   9  21   14.03    3.18
  -7   9  20    5.05    2.36
  -7  -9  20    8.47    2.65
  -7  -9  19    2.71    2.08
  -7   9  19   10.80    2.91
  -7  -9  18   14.58    3.32
  -7   9  18   17.61    3.30
  -7  -9  17    2.49    1.90
  -7   9  17    4.50    2.13
  -7   9  16   13.50    2.88
  -7  -9  16    8.37    2.45
  -7  -9  16    8.64    2.50
  -7  -9  15   66.67    6.30
  -7  -9  15   60.52    6.01
  -7  -9  14   12.60    2.67
  -7  -9  14   12.02    2.58
   7  -9 -13   -0.30    1.30
  -7  -9  13    1.60    1.66
   7   9 -12   16.45    2.53
   7  -9 -12   14.30    2.33
  -7  -9  12   16.36    2.66
   7  -9 -11    4.87    2.30
   7   9 -11    7.36    1.78
   7  -9 -11    5.08    1.63
  -7  -9  11    2.65    1.49
   7  -9 -10    2.09    1.96
  -7  -9  10    0.96    0.74
   7   9 -10    0.87    1.28
   7  -9 -10    0.56    1.21
  -7  -9  10    1.11    1.40
   7   9  -9    8.92    1.92
   7  -9  -9   15.45    2.27
   7  -9  -9   15.89    3.36
  -7  -9   9   10.14    1.43
  -7  -9   9    9.47    2.12
  -7  -9   8  165.54    9.58
   7   9  -8  156.72   10.25
   7  -9  -8  182.81   10.47
  -7  -9   8  151.94   10.63
   7  -9  -8  170.20   12.66
   7  -9  -7   33.16    4.67
   7  -9  -7   34.70    3.92
   7  -9  -7   24.50    2.91
  -7  -9   7   31.33    2.72
  -7  -9   7   30.91    3.63
   7   9  -7   26.39    2.97
   7   9  -6  120.80    8.03
   7  -9  -6  122.37    7.99
   7  -9  -6  109.79    8.77
  -7  -9   6  121.13    7.59
   7  -9  -6  147.54   10.85
  -7  -9   6  133.56    8.74
  -7  -9   5  144.98    9.70
   7   9  -5  139.26    9.06
   7  -9  -5  152.45    9.16
   7  -9  -5  120.87    9.66
  -7  -9   5  143.58    8.75
   7  -9  -5  172.53   12.04
  -7  -9   4   23.12    3.13
   7  -9  -4   21.14    2.68
   7   9  -4   21.41    2.64
   7  -9  -4   26.33    3.38
   7  -9  -4   23.44    2.67
  -7  -9   4   28.01    2.72
   7  -9  -4   32.88    4.67
   7   9  -3    0.59    1.15
   7  -9  -3    0.29    1.14
   7  -9  -3    0.84    1.47
   7   9  -3    0.52    1.29
   7  -9  -3    2.78    2.13
   7  -9  -3    0.78    1.27
   7   9  -2    9.97    1.89
   7  -9  -2   15.30    2.12
   7  -9  -2    9.21    2.24
   7   9  -2   13.45    2.17
   7  -9  -2   11.08    2.02
   7  -9  -2   13.30    3.26
   7  -9  -1    9.29    1.78
   7   9  -1    7.86    1.74
   7  -9  -1    5.80    1.96
   7   9  -1    7.94    1.76
   7   9  -1    9.20    2.14
   7  -9  -1    4.85    1.49
   7  -9  -1    9.19    2.78
   7   9   0   23.44    2.71
   7  -9   0   19.22    2.48
   7  -9   0   22.59    3.16
   7   9   0   21.43    2.72
   7  -9   0   21.69    4.03
   7   9   0   22.27    3.45
   7   9   1    9.49    1.81
   7  -9   1    8.67    1.71
   7  -9   1    4.91    1.71
   7  -9   1    6.68    2.63
   7   9   1    7.62    2.25
   7   9   2   72.49    5.52
   7  -9   2   79.85    5.67
   7  -9   2   71.26    6.12
   7   9   2   72.35    6.75
   7   9   3    1.49    1.16
   7  -9   3    0.90    1.14
   7  -9   3    0.41    1.44
   7   9   3    2.10    1.72
   7   9   4   95.02    7.26
   7  -9   4  115.42    7.58
   7  -9   4  124.37    8.29
   7   9   4   98.52    8.60
   7   9   5   -0.33    1.17
   7  -9   5    0.33    1.25
   7  -9   5   -1.20    1.44
   7   9   5    1.15    1.77
   7   9   6   44.38    4.37
   7  -9   6   46.96    4.44
   7  -9   6   47.92    4.64
   7   9   6   49.23    5.89
   7   9   7    4.47    2.60
   7   9   7    4.88    1.83
   7  -9   7    0.76    1.48
   7  -9   7    0.77    1.47
   7   9   8   88.77    6.88
   7  -9   8   90.11    6.92
   7  -9   8   80.40    6.69
  -7   9  -9    1.87    1.63
   7   9   9    2.97    1.85
   7  -9   9    4.30    1.72
   7  -9   9    4.19    1.59
   7   9  10    9.02    2.48
   7   9  10    4.56    2.05
   7  -9  10    9.23    2.35
   7  -9  10    9.15    2.11
   7   9  11   14.38    2.76
   7   9  11   17.12    3.20
   7  -9  11   14.40    2.96
   7  -9  11   14.93    2.57
   7   9  12    9.01    2.11
   7   9  12    4.21    2.22
   7  -9  12    8.58    2.44
   7   9  13   80.41    7.43
   7  -9  13   80.56    7.46
   7   9  14   12.80    3.21
   7  -9  14   13.03    3.19
   7   9  15    1.30    2.21
   7  -9  15    2.65    2.10
   7   9  16   -0.69    2.35
   7  -9  16   -1.41    2.54
   7  -9  16    0.97    2.98
   7  -9  17   12.04    3.51
   7  -9  17    9.00    4.30
   7  -9  18    2.04    3.24
   7   9  18   -0.79    2.77
   7  -9  18   -3.99    2.96
   7  -9  19   38.29    6.74
   7   9  19   50.75    6.72
   7  -9  19   28.81    5.81
  -7  10  22   36.40    4.99
  -7 -10  22   32.35    4.71
  -7 -10  21    4.04    2.50
  -7  10  21    3.45    2.68
  -7 -10  20   19.38    3.70
  -7  10  20   17.70    3.61
  -7 -10  19  104.18    8.42
  -7  10  19   95.64    8.39
  -7  10  18    8.77    2.72
  -7 -10  18    4.89    2.37
  -7 -10  18    6.15    2.32
  -7 -10  17    3.94    2.37
  -7  10  17    1.99    2.07
  -7 -10  17    1.04    1.88
  -7  10  16    4.79    1.93
  -7 -10  16    4.48    2.13
  -7 -10  16    9.49    2.60
  -7 -10  15    0.45    1.77
  -7 -10  15    1.44    1.53
  -7 -10  14   63.47    5.89
   7 -10 -13    6.71    1.92
  -7 -10  13    7.69    2.17
   7 -10 -12   20.81    2.69
   7  10 -12   16.30    2.54
  -7 -10  12   16.85    2.84
   7 -10 -11   55.65    6.72
   7  10 -11   55.40    4.51
   7 -10 -11   44.19    4.20
  -7 -10  11   52.76    5.08
   7 -10 -10   13.72    3.43
  -7 -10  10   13.58    1.46
   7  10 -10   14.96    2.23
   7 -10 -10   10.59    1.95
  -7 -10  10   14.72    2.61
   7 -10  -9   10.59    3.25
  -7 -10   9   11.42    1.48
   7  10  -9    8.21    1.85
   7 -10  -9    7.65    1.80
  -7 -10   9    9.76    2.19
  -7 -10   8   19.54    3.16
   7  10  -8   20.98    2.71
   7 -10  -8   30.25    4.59
   7 -10  -8   24.95    2.84
   7 -10  -8   21.17    3.25
  -7 -10   8   21.55    2.24
   7 -10  -7   12.15    3.42
  -7 -10   7   13.07    2.65
   7 -10  -7   12.95    2.58
   7  10  -7   14.05    2.16
   7 -10  -7   12.46    2.03
  -7 -10   7   15.00    1.85
   7 -10  -6   56.98    4.33
   7 -10  -6   46.21    4.94
  -7 -10   6   52.61    3.97
   7 -10  -6   55.78    6.48
  -7 -10   6   44.33    4.85
   7  10  -6   49.78    4.20
   7  10  -5   58.18    4.63
   7 -10  -5   64.88    4.95
   7 -10  -5   59.04    4.58
   7 -10  -5   51.94    5.39
  -7 -10   5   57.62    4.48
   7 -10  -5   64.45    7.07
  -7 -10   5   60.15    5.61
  -7 -10   4   68.08    5.86
   7  10  -4   66.23    5.14
   7 -10  -4   55.57    4.84
   7 -10  -4   56.45    5.51
   7  10  -4   66.95    4.93
   7 -10  -4   69.33    4.92
   7 -10  -4   55.54    6.79
   7  10  -3    2.51    1.09
   7 -10  -3    1.10    1.08
   7 -10  -3   -0.87    1.43
   7  10  -3    2.99    1.29
   7 -10  -3    1.70    1.17
   7 -10  -3    4.53    2.57
   7  10  -2   24.23    2.81
   7 -10  -2   33.10    3.14
   7 -10  -2   26.90    3.50
   7 -10  -2   28.22    4.68
   7  10  -2   31.88    3.07
   7 -10  -2   30.60    3.04
   7  10  -1   10.71    1.74
   7 -10  -1   10.14    1.83
   7  10  -1   11.85    3.63
   7 -10  -1   12.44    2.41
   7  10  -1    7.60    1.72
   7 -10  -1   10.00    2.96
   7 -10  -1    7.43    1.71
   7  10   0   63.15    7.30
   7  10   0   72.31    5.37
   7 -10   0   79.16    6.36
   7 -10   0   74.86    5.39
   7  10   0   75.08    6.79
   7 -10   0   61.81    7.29
   7  10   0   70.77    5.40
   7 -10   0   71.48    5.35
   7 -10   1   54.47    4.33
   7  10   1   47.87    4.19
   7 -10   1   53.92    4.99
   7  10   1   44.94    5.88
   7  10   1   58.61    5.69
   7 -10   1   47.01    6.16
   7  10   2    5.78    2.73
   7  10   2    3.91    1.38
   7 -10   2    3.36    1.40
   7 -10   2    4.19    1.76
   7 -10   2    4.91    2.87
   7  10   2    4.94    2.04
   7  10   3   92.71    8.62
   7  10   3   99.49    6.94
   7 -10   3  111.28    7.12
   7 -10   3   84.65    7.38
   7  10   3  108.21    8.70
   7  10   4   16.24    3.50
   7  10   4   17.83    2.45
   7 -10   4   18.35    2.56
   7 -10   4   14.88    2.73
   7  10   4   22.04    3.89
   7  10   5   50.99    5.88
   7  10   5   53.46    4.60
   7 -10   5   60.20    4.84
   7 -10   5   47.38    4.97
   7  10   5   44.00    5.60
   7  10   6   29.95    4.55
   7  10   6   35.84    3.76
   7 -10   6   36.82    3.87
   7 -10   6   42.64    4.31
   7  10   6   35.36    5.08
   7  10   7    8.45    2.82
   7  10   7   16.97    2.66
   7 -10   7   13.85    2.36
   7 -10   7   17.23    2.75
   7  10   8    1.49    2.07
   7  10   8    0.79    1.34
   7 -10   8   -0.40    1.70
   7 -10   8    0.80    1.47
   7  10   9   36.40    4.78
   7  10   9   49.04    4.93
   7 -10   9   59.39    5.29
   7 -10   9   52.32    4.92
   7  10  10   44.57    4.74
   7 -10  10   42.18    4.72
   7 -10  10   41.67    4.31
   7  10  10   37.91    4.58
   7  10  11    0.40    1.60
   7  10  11   -0.49    2.20
   7 -10  11   -1.51    2.10
   7 -10  11   -0.77    1.50
   7  10  12   -2.11    2.33
   7 -10  12    1.08    1.94
   7 -10  12   -0.78    1.63
   7  10  13    4.55    2.24
   7 -10  13   10.47    2.90
   7  10  14   18.84    3.75
   7 -10  14   14.90    3.56
   7  10  15   15.63    3.66
   7 -10  15   15.33    3.52
   7 -10  15   12.16    4.28
   7  10  16   17.42    3.81
   7 -10  16    8.50    3.27
   7 -10  16   25.06    5.44
   7  10  17   36.39    5.43
   7 -10  17   37.64    5.64
   7 -10  17   23.46    5.90
   7  10  18    5.51    3.23
   7 -10  18   10.39    3.55
   7  10  19   -1.66    3.38
   7 -10  19   -0.85    3.22
  -7 -11  22   13.40    3.47
  -7  11  22    8.81    3.28
  -7 -11  21   20.85    3.93
  -7  11  21   14.74    3.55
  -7  11  20    1.64    1.97
  -7 -11  20   -1.08    2.30
  -7 -11  19    0.52    2.03
  -7  11  19   -0.53    1.91
  -7  11  18   13.29    3.03
  -7 -11  18   13.61    3.02
  -7 -11  18   14.31    3.26
  -7 -11  17   25.51    4.19
  -7 -11  17   30.08    4.12
  -7 -11  16   19.89    3.56
  -7 -11  15   30.30    4.19
  -7 -11  14   -0.51    1.95
  -7 -11  13  168.86   11.92
   7 -11 -12    0.27    1.52
   7  11 -12    1.15    1.45
  -7 -11  12   -0.49    1.51
   7 -11 -11    2.88    1.33
   7  11 -11    6.95    1.78
  -7 -11  11    3.89    2.12
   7 -11 -10    1.66    2.23
   7  11 -10    3.23    1.38
   7 -11 -10    2.28    1.37
  -7 -11  10    2.41    1.54
   7 -11  -9   38.68    5.48
   7  11  -9   29.30    3.16
   7 -11  -9   25.94    2.92
  -7 -11   9   31.84    4.14
  -7 -11   8    8.23    2.43
   7 -11  -8    5.76    2.74
  -7 -11   8    6.61    1.32
   7  11  -8    9.98    1.84
   7 -11  -8   10.66    1.76
   7 -11  -7   28.08    4.94
  -7 -11   7   28.02    3.75
   7 -11  -7   22.08    3.55
  -7 -11   7   21.73    2.46
   7  11  -7   34.29    3.17
   7 -11  -7   27.66    2.91
  -7 -11   6   17.88    3.05
   7 -11  -6   15.85    2.42
   7  11  -6   13.96    2.14
   7 -11  -6   10.32    2.47
   7 -11  -6   13.03    2.00
  -7 -11   6   16.13    2.05
   7 -11  -6   16.45    3.83
   7 -11  -5   71.06    5.04
   7  11  -5   67.06    5.25
   7 -11  -5   60.33    5.84
   7 -11  -5   66.46    5.12
   7 -11  -5   57.35    7.35
   7  11  -5   64.18    4.94
  -7 -11   5   74.26    6.38
  -7 -11   4   23.17    3.52
   7  11  -4   15.00    2.34
   7 -11  -4   20.92    2.41
   7 -11  -4   14.10    2.80
   7  11  -4   16.64    2.30
   7 -11  -4   12.50    2.01
   7 -11  -4   12.29    3.57
   7  11  -3  106.84    7.33
   7 -11  -3  113.67    8.50
   7 -11  -3  108.44    7.31
   7  11  -3  114.05    7.34
   7 -11  -3  109.13    7.21
   7 -11  -3  135.33   10.89
   7  11  -2    3.35    1.06
   7 -11  -2    4.77    1.25
   7 -11  -2    1.34    1.61
   7  11  -2    1.89    0.97
   7 -11  -2    3.48    1.16
   7 -11  -2    0.83    2.13
   7 -11  -1  256.08   17.48
   7  11  -1  273.33   16.48
   7 -11  -1  300.40   16.58
   7 -11  -1  298.20   20.29
   7  11  -1  292.46   16.55
   7 -11  -1  316.79   16.66
   7 -11   0  324.79   20.64
   7  11   0  339.00   19.60
   7  11   0  368.79   19.75
   7 -11   0  352.97   19.65
   7 -11   0  359.35   19.67
   7 -11   0  347.62   23.27
   7  11   1    3.90    1.38
   7 -11   1    5.68    1.55
   7 -11   1    3.04    1.54
   7 -11   1    6.80    1.80
   7  11   1    8.76    2.54
   7  11   1    3.48    1.54
   7 -11   1    0.85    2.06
   7  11   2   10.11    3.28
   7  11   2   12.13    2.03
   7 -11   2    9.86    1.91
   7 -11   2   12.58    2.53
   7 -11   2    9.57    3.09
   7  11   2    6.62    2.61
   7  11   3   -0.65    2.35
   7  11   3    1.40    1.09
   7 -11   3    1.41    1.22
   7 -11   3    0.87    1.43
   7 -11   3   -0.89    2.00
   7  11   3    0.62    1.83
   7  11   4   33.23    3.41
   7 -11   4   31.44    3.32
   7 -11   4   31.47    3.95
   7  11   4   23.24    4.06
   7  11   5   12.69    3.11
   7  11   5    8.01    1.88
   7 -11   5    7.14    1.91
   7 -11   5   12.98    2.56
   7  11   6   20.18    3.81
   7  11   6   19.35    2.78
   7 -11   6   19.58    2.96
   7 -11   6   24.16    3.31
   7  11   7   14.87    2.57
   7 -11   7   19.53    2.79
   7 -11   7   17.00    2.93
   7  11   7   10.38    3.11
   7  11   8   56.10    5.15
   7 -11   8   60.26    5.34
   7 -11   8   65.60    5.54
   7  11   8   47.16    5.52
   7  11   9   10.48    2.66
   7  11   9   11.79    2.47
   7 -11   9   13.72    2.67
   7 -11   9   12.16    2.53
   7  11  10   49.55    5.22
   7 -11  10   58.23    5.54
   7 -11  10   48.08    4.94
   7  11  11   67.56    6.25
   7 -11  11   69.52    6.41
   7 -11  11   57.70    5.52
   7  11  12    2.64    2.12
   7 -11  12    5.94    2.39
   7 -11  12    4.34    1.91
   7  11  13   -1.13    1.86
   7 -11  13    0.58    2.14
   7  11  14    0.60    2.29
   7 -11  14   -1.24    2.53
   7 -11  14    4.20    3.34
   7  11  15   29.33    4.78
   7 -11  15   39.09    5.49
   7 -11  15   34.68    6.54
   7  11  16    1.39    2.29
   7 -11  16    2.12    2.47
   7  11  17    3.66    3.11
   7 -11  17   -2.25    3.55
   7  11  18    6.23    3.32
   7 -11  18    7.18    3.47
  -7  12  21   11.74    3.24
  -7  12  20    5.93    2.52
  -7 -12  16    3.47    2.31
  -7 -12  15   37.46    4.95
  -7 -12  14   27.53    4.28
  -7 -12  13   11.00    2.93
   7 -12 -12    0.89    2.39
   7  12 -12   -0.46    1.89
  -7 -12  12    0.54    1.78
   7  12 -11   10.18    1.99
  -7 -12  11    9.68    2.69
   7  12 -10   93.26    6.50
  -7 -12  10   97.86    8.09
   7 -12 -10   87.57    9.43
   7 -12  -9    0.89    2.27
   7  12  -9    1.73    1.26
  -7 -12   9   -1.08    1.72
  -7 -12   8    7.57    2.40
   7 -12  -8    7.11    2.94
   7  12  -8    4.06    1.44
   7 -12  -7   12.49    3.67
  -7 -12   7    9.21    2.48
   7 -12  -7    8.41    1.80
   7 -12  -7    7.48    2.33
   7  12  -7   12.13    1.88
   7 -12  -6   23.08    2.53
  -7 -12   6   24.46    3.87
   7  12  -6   23.75    2.80
   7 -12  -6   20.41    2.56
   7 -12  -6   20.91    3.37
   7  12  -6   24.60    2.69
  -7 -12   6   20.33    2.46
   7 -12  -6   32.99    5.37
  -7 -12   5    3.84    2.09
   7  12  -5    4.42    1.51
   7 -12  -5    2.84    1.24
   7  12  -5    2.38    1.28
   7 -12  -5    1.92    1.64
   7 -12  -5    4.22    1.31
   7 -12  -5    5.34    2.93
  -7 -12   4    2.22    2.00
   7  12  -4    1.01    1.05
   7 -12  -4    0.48    1.12
   7 -12  -4    2.82    1.74
   7  12  -4    1.98    1.17
   7 -12  -4    2.33    1.21
   7 -12  -4    5.27    2.69
   7  12  -3   23.21    2.57
  -7 -12   3   26.27    4.01
   7 -12  -3   22.98    2.52
   7  12  -3   24.38    2.67
   7 -12  -3   25.66    2.56
   7 -12  -3   24.02    3.52
   7 -12  -3   18.63    4.30
   7 -12  -2   59.71    4.35
   7  12  -2   55.21    4.36
   7  12  -2   52.92    4.30
   7 -12  -2   60.37    4.37
   7 -12  -2   48.16    5.19
   7 -12  -2   58.87    7.27
   7 -12  -1   52.36    5.34
   7  12  -1   58.98    4.41
   7 -12  -1   61.83    4.37
   7  12  -1   49.43    4.21
   7 -12  -1   53.46    4.24
   7 -12  -1   56.85    7.41
   7  12   0   36.71    3.25
   7 -12   0   39.20    3.34
   7 -12   0   26.56    3.82
   7 -12   0   28.21    5.31
   7  12   0   31.97    3.21
   7 -12   0   40.31    3.41
   7 -12   1    7.89    1.69
   7  12   1    9.88    1.87
   7 -12   1   11.61    2.57
   7 -12   1   12.70    1.90
   7  12   1   12.97    2.05
   7  12   1   14.82    3.50
   7 -12   1    8.21    3.15
   7  12   2    6.90    1.67
   7 -12   2    4.89    1.94
   7 -12   2    4.29    1.43
   7 -12   2    6.34    1.76
   7  12   2    5.20    1.69
   7  12   2    4.59    2.57
   7 -12   2    4.64    3.06
   7 -12   3   35.92    4.21
   7  12   3   35.10    3.48
   7 -12   3   39.20    3.58
   7 -12   3   38.66    6.12
   7  12   4   14.05    2.32
   7 -12   4   19.17    2.59
   7 -12   4   22.90    3.46
   7 -12   4   19.20    4.55
   7  12   5   28.08    4.47
   7  12   5   28.73    3.31
   7 -12   5   32.66    3.49
   7 -12   5   32.45    3.97
   7 -12   5   39.17    6.15
   7  12   6   -0.58    2.09
   7  12   6    0.99    1.37
   7 -12   6    1.34    1.48
   7 -12   6    1.31    1.70
   7  12   7   73.98    5.90
   7 -12   7   67.20    5.78
   7 -12   7   67.08    6.05
   7  12   7   65.91    6.67
   7  12   8   -1.55    2.19
   7  12   8    1.54    1.80
   7 -12   8    0.39    1.53
   7 -12   8    1.26    1.67
   7  12   9   -0.42    1.51
   7 -12   9   -0.43    1.53
   7 -12   9    0.83    1.58
   7  12  10   23.46    3.65
   7 -12  10   28.16    3.85
   7 -12  10   33.23    3.91
   7  12  11    4.40    2.20
   7 -12  11    2.98    2.11
   7 -12  11    3.62    1.88
   7  12  12    6.80    2.69
   7 -12  12   13.80    3.21
   7 -12  12   15.03    2.97
   7 -12  12   12.57    4.02
   7  12  13    1.12    2.02
   7 -12  13    1.71    2.06
   7 -12  13    1.09    3.06
   7  12  14    4.81    2.56
   7 -12  14    1.22    2.21
   7  12  15   22.49    4.28
   7 -12  15   18.29    3.78
   7  12  16    5.48    2.86
   7  12  17   20.42    4.33
   7  12  18   -1.53    2.68
  -7 -13  15   11.60    3.21
  -7 -13  14   26.59    4.17
  -7 -13  13   25.67    4.07
   7 -13 -12   11.46    3.76
  -7 -13  12   10.62    3.10
   7 -13 -11  127.26   11.84
  -7 -13  11  128.48   10.25
   7 -13 -10   19.18    4.86
  -7 -13  10   20.87    3.89
  -7 -13   9    4.19    2.55
   7 -13  -9    5.74    3.16
  -7 -13   8    0.60    2.03
   7 -13  -8    0.96    2.81
   7 -13  -8    1.31    1.20
   7 -13  -8    2.13    1.92
   7 -13  -7    2.88    2.70
  -7 -13   7    1.20    2.10
   7  13  -7   -0.28    1.10
   7 -13  -7   -0.24    1.03
   7  13  -7    2.80    1.29
   7 -13  -7   -3.11    1.87
   7 -13  -6   13.43    3.86
  -7 -13   6   17.48    3.52
   7  13  -6   12.30    1.96
   7 -13  -6   12.10    2.84
   7 -13  -6   10.39    1.78
   7  13  -6   10.38    1.73
  -7 -13   5    1.82    2.06
   7  13  -5   -0.47    1.21
   7 -13  -5   -0.50    1.69
   7 -13  -5   -0.43    0.95
   7  13  -5    1.67    1.09
   7 -13  -5   -0.96    2.30
  -7 -13   4   83.36    7.76
   7 -13  -4   75.25    7.02
   7  13  -4   86.35    5.85
   7 -13  -4   81.34    5.67
   7  13  -4   90.29    5.83
   7 -13  -4   80.04    9.15
  -7 -13   3    0.62    1.81
   7 -13  -3   -0.95    1.57
   7  13  -3   -0.20    1.30
   7  13  -3   -0.44    1.20
   7 -13  -3   -1.41    1.33
   7 -13  -3   -0.95    2.56
   7 -13  -2   16.98    3.08
   7  13  -2   16.79    2.18
   7 -13  -2   15.30    2.00
   7  13  -2   15.68    2.07
   7 -13  -2   14.34    3.89
   7  13  -1   27.49    2.82
   7  13  -1   29.51    2.91
   7 -13  -1   27.28    2.71
   7 -13  -1   26.19    3.73
   7 -13  -1   39.52    6.18
   7  13   0    3.99    1.27
   7 -13   0    4.62    2.09
   7  13   0    4.17    1.39
   7 -13   0    4.19    1.31
   7 -13   0    7.76    3.60
   7 -13   1   16.52    2.93
   7  13   1   15.10    2.09
   7 -13   1   15.72    2.04
   7  13   1   16.55    2.24
   7 -13   1   19.58    4.70
   7 -13   2   13.19    2.56
   7  13   2    6.09    1.53
   7 -13   2    7.92    1.68
   7  13   2    8.36    1.80
   7 -13   2    6.88    3.36
   7 -13   3   42.99    4.76
   7  13   3   46.08    4.09
   7 -13   3   53.25    4.21
   7  13   3   49.06    4.10
   7 -13   3   45.90    6.90
   7 -13   4    1.84    1.83
   7  13   4    0.83    1.20
   7 -13   4    0.55    1.16
   7 -13   5   14.67    2.90
   7  13   5   11.30    2.10
   7 -13   5   11.49    2.19
   7 -13   5   16.43    4.23
   7  13   6    9.02    2.17
   7 -13   6   15.46    2.38
   7 -13   6   13.08    2.83
   7 -13   6    9.39    3.70
   7  13   7   27.68    3.27
   7 -13   7   16.90    2.93
   7 -13   7   28.58    3.68
   7  13   8   27.34    3.56
   7 -13   8   27.44    3.71
   7  13   9    5.77    2.30
   7 -13   9    8.02    2.29
   7  13  10    2.21    1.92
   7 -13  10    2.08    1.80
   7  13  11    1.92    2.07
   7 -13  11    0.41    1.66
   7 -13  11    1.08    3.16
   7  13  12   63.72    6.48
   7 -13  12   72.97    6.22
   7  13  13    2.22    2.36
   7  13  14   46.94    5.83
  -7 -14  13   26.96    4.44
   7 -14 -12   35.58    6.11
  -7 -14  12   40.05    5.36
   7 -14 -11    8.16    3.68
  -7 -14  11    3.23    2.34
  -7 -14  10    5.20    2.88
   7 -14 -10    5.11    3.26
  -7 -14   9   45.48    5.73
   7 -14  -9   39.86    6.69
  -7 -14   8    3.90    2.59
   7 -14  -8    5.10    3.24
   7  14  -8    1.81    1.37
   7 -14  -8    0.55    1.76
   7 -14  -7   45.14    6.89
   7  14  -7   47.69    3.98
   7 -14  -7   42.53    5.12
  -7 -14   7   54.80    6.14
   7 -14  -6    7.20    3.41
  -7 -14   6    9.87    3.04
   7 -14  -6   10.97    2.88
   7  14  -6    9.22    1.73
  -7 -14   5   15.27    3.40
   7 -14  -5    3.09    1.89
   7  14  -5    8.88    1.64
   7 -14  -5   10.24    3.81
  -7 -14   4   -1.34    2.05
   7 -14  -4   -0.50    1.75
   7  14  -4    1.36    1.01
   7 -14  -4    1.02    2.60
  -7 -14   3    3.36    2.31
   7 -14  -3   10.31    2.63
   7  14  -3    6.85    1.40
   7 -14  -3   12.13    3.95
   7 -14  -2    1.94    1.84
   7  14  -2    0.19    1.02
   7 -14  -2   -3.05    2.29
   7 -14  -1    3.37    1.93
   7  14  -1    5.52    1.43
   7 -14  -1    5.13    3.26
   7 -14   0   -0.47    1.85
   7  14   0    2.37    1.18
   7 -14   0    1.04    2.49
   7 -14   1   30.10    4.17
   7  14   1   41.76    3.44
   7 -14   1   47.98    7.02
   7 -14   2   18.65    3.16
   7  14   2   16.51    2.22
   7 -14   2   16.77    4.53
   7 -14   3    4.63    2.09
   7  14   3    2.16    1.28
   7 -14   3    7.37    3.58
   7 -14   4   20.28    3.45
   7  14   4   16.67    2.35
   7 -14   4   20.26    4.79
   7  14   5    1.42    1.26
   7 -14   5   -1.08    3.03
   7 -14   6   -0.46    1.67
   7  14   6    0.62    1.24
   7 -14   6   -1.09    3.06
   7 -14   7    0.45    1.75
   7  14   7   -0.34    1.47
   7 -14   7    1.10    2.81
   7 -14   8    2.19    1.79
   7 -14   8    6.68    3.90
   7 -14   8    4.10    3.02
   7 -14   9    6.90    2.31
   7 -14  10   -0.42    1.72
  -7 -15  12   23.64    4.42
  -7 -15  11    0.70    2.52
   7 -15 -11   -1.08    3.04
  -7 -15  10   -0.70    2.22
   7 -15 -10   -1.08    2.60
  -7 -15   9   -2.10    2.46
   7 -15  -9    2.17    3.19
  -7 -15   8   -0.70    2.23
   7 -15  -8   -1.08    3.05
   7 -15  -8   -0.58    1.83
   7 -15  -7   62.98    8.21
   7 -15  -7   49.09    5.77
  -7 -15   7   71.28    7.25
  -7 -15   6   47.61    6.05
   7 -15  -6   34.77    4.69
   7 -15  -5   -1.09    2.62
  -7 -15   5   -0.72    2.65
   7 -15  -5    1.06    1.91
  -7 -15   4   -0.72    2.12
   7 -15  -4   -1.55    1.82
   7 -15  -4   -2.18    2.61
   7 -15  -3   10.64    2.79
   7 -15  -3   16.29    4.27
   7 -15  -2    7.01    2.24
   7 -15  -2    6.51    3.46
   7 -15  -1    2.47    2.10
   7 -15  -1    1.09    2.77
   7 -15   0    0.97    1.85
   7 -15   0   -1.09    3.22
   7 -15   1   39.55    4.69
   7 -15   1   36.49    6.46
   7 -15   2    0.48    1.72
   7 -15   2    2.22    3.12
   7 -15   3    2.37    1.90
   7 -15   3   12.26    4.24
   7 -15   4    2.89    1.88
   7 -15   4    4.47    3.43
   7 -15   5    0.48    1.99
   7 -15   5    2.26    3.18
   7 -15   5    3.91    3.00
   7 -15   6   57.09    5.82
   7 -15   7  135.60    9.94
   7 -15   8    4.91    2.19
   7 -15   9    4.36    2.20
  -7 -16  10   11.95    3.29
  -7 -16   9    2.24    2.29
   7 -16  -9   -0.73    2.39
  -7 -16   8   -0.75    2.20
  -7 -16   7   -0.76    2.31
  -7 -16   6    4.57    2.68
  -7 -16   5    8.44    2.94
  -7 -16   4    2.31    2.62
   7 -16  -4    3.21    2.09
   7 -16  -3    1.57    1.99
   7 -16  -2   21.70    3.57
   7 -16  -1   16.26    3.13
   7 -16   0   13.49    3.04
   7 -16   0   12.54    3.94
   7 -16   1    3.45    2.10
   7 -16   1    2.76    3.41
   7 -16   2   13.69    2.81
   7 -16   3    6.30    2.56
   7 -16   4   -1.48    1.92
   7 -16   5    0.98    2.15
   7 -16   6    9.14    2.59
   7 -16   7   -0.47    2.06
   7 -17  -8    0.80    2.62
  -7 -17   7    7.22    3.07
   7 -17  -7    8.13    3.47
  -7 -17   6   -0.81    2.74
   7 -17  -6   -0.83    2.74
  -7 -17   5    0.81    2.39
   7 -17  -5    0.85    2.80
  -7 -17   4    3.27    2.69
   7 -17  -4   -0.87    2.76
   7 -17   2    2.01    2.05
   7 -17   3    5.97    2.45
   7 -17   4   21.09    3.63
   7 -17   5    1.00    1.94
  -8   0  23    0.68    2.23
   8   0 -23   -0.94    1.43
  -8   0  22   15.75    3.70
   8   0 -22   15.57    2.52
  -8   0  21   -1.27    2.64
   8   0 -21    1.54    1.48
  -8   0  20  129.47    9.89
   8   0 -20  119.73    8.05
  -8   0  20  106.80    8.71
  -8   0  19    1.68    1.63
   8   0 -19    0.30    1.19
  -8   0  19    0.59    1.95
  -8   0  18   26.80    3.55
   8   0 -18   29.79    3.18
  -8   0  18   27.02    4.24
  -8   0  17   -0.36    1.33
   8   0 -17   -0.29    1.23
  -8   0  17   -1.11    2.15
   8   0 -16    9.96    1.87
  -8   0  16    3.19    1.78
  -8   0  16    7.43    1.95
  -8   0  15    2.57    1.57
   8   0 -15   -0.28    1.14
  -8   0  15   -0.29    1.12
   8   0 -14   51.56    4.22
  -8   0  14   46.69    4.95
  -8   0  14   44.38    3.95
  -8   0  13    0.97    1.48
   8   0 -13    0.27    1.04
  -8   0  13   -0.22    0.84
   8   0 -12   96.38    6.45
  -8   0  12   98.59    7.54
  -8   0  12   86.71    5.79
   8   0 -12   85.01    6.74
   8   0 -11    1.77    1.20
   8   0 -11   -0.27    0.90
   8   0 -10  345.56   19.69
   8   0 -10  332.80   19.12
   8   0  -9    0.27    0.92
   8   0  -9   -0.69    1.38
   8   0  -8  766.27   40.79
   8   0  -8  755.19   41.18
   8   0  -7   -0.27    0.82
   8   0  -7   -0.33    1.16
   8   0  -6  370.58   20.11
  -8   0   6  340.27   19.57
   8   0  -6  331.95   19.44
  -8   0   5   -0.28    1.15
   8   0  -5    1.35    1.03
   8   0  -5    2.32    1.26
  -8   0   4  125.25    8.54
   8   0  -4  118.83    8.44
   8   0  -4  146.43    7.62
   8   0  -4  126.19    8.88
  -8   0   3    1.09    0.89
   8   0  -3    0.28    0.82
   8   0  -3    1.23    0.70
   8   0  -3    0.67    0.94
  -8   0   2    2.17    1.20
   8   0  -2    0.85    0.83
   8   0  -1    1.77    1.00
   8   0  -1    1.16    0.95
   8   0   0  240.44   14.29
  -8   0   0  217.42   13.72
   8   0   0  246.26   14.01
   8   0   1    1.04    0.78
  -8   0  -1   -0.29    1.17
   8   0   2  194.45   11.94
  -8   0  -2  182.29   11.55
   8   0   3    0.36    1.00
  -8   0  -3   -0.30    1.11
   8   0   4   19.15    2.63
  -8   0  -4   14.95    2.25
   8   0   5   -0.37    0.90
  -8   0  -6   88.81    6.56
   8   0   6   75.71    6.34
  -8   0  -7   -0.38    1.40
   8   0   7    0.82    1.15
  -8   0  -8   68.39    5.75
   8   0   8   66.72    5.80
  -8   0  -8   65.29    5.45
   8   0   9    1.34    1.37
  -8   0  -9   -0.69    1.49
   8   0  10   17.98    3.04
   8   0  11   -0.51    1.50
   8   0  12  171.31   12.09
   8   0  13   -2.27    1.99
   8   0  14    0.60    1.44
   8   0  15   -1.92    1.96
   8   0  16   10.92    3.17
   8   0  17   -0.73    2.31
   8   0  18   25.53    4.64
   8   0  19   -0.82    2.79
   8  -1 -24    9.89    2.30
  -8  -1  23    9.51    3.40
   8  -1 -23   17.81    2.77
  -8  -1  22   -0.66    2.62
   8  -1 -22   -0.36    1.64
   8   1 -22    1.57    1.29
  -8  -1  21    5.08    2.85
   8  -1 -21    9.22    2.25
   8   1 -21   12.27    2.02
  -8   1  20   10.70    2.65
  -8  -1  20    7.64    2.12
   8  -1 -20    9.09    2.15
  -8  -1  20    6.76    2.90
   8   1 -20   11.47    2.02
  -8   1  19   33.08    3.98
  -8  -1  19   25.52    3.42
   8  -1 -19   23.73    3.07
   8   1 -19   23.77    2.84
  -8  -1  19   30.95    4.29
  -8  -1  18    1.79    1.55
   8  -1 -18    1.68    1.40
   8   1 -18    0.26    1.12
  -8  -1  18    0.58    1.83
  -8   1  18    0.42    1.60
   8  -1 -17   64.03    5.29
  -8  -1  17   69.80    6.48
   8   1 -17   77.21    5.17
  -8   1  17   59.16    5.67
  -8  -1  17   54.30    5.12
   8  -1 -16   69.54    5.84
   8   1 -16   85.22    5.73
  -8  -1  16   91.13    7.35
  -8   1  16   71.18    6.16
  -8  -1  16   77.34    5.84
   8  -1 -15  111.59    7.51
   8   1 -15  103.54    7.03
  -8  -1  15  112.80    8.57
  -8   1  15   88.19    7.24
  -8  -1  15  117.78    7.25
   8  -1 -14    1.87    1.15
   8   1 -14    1.26    1.02
  -8  -1  14    4.48    1.89
  -8   1  14    1.19    1.10
  -8  -1  14    0.43    0.95
   8  -1 -13  243.07   12.97
   8   1 -13  234.64   12.52
  -8   1  13  209.08   12.42
  -8  -1  13  243.94   14.25
  -8  -1  12   20.29    3.10
   8  -1 -12   16.18    2.37
   8   1 -12   21.44    2.38
  -8  -1  12   16.37    1.68
  -8   1  12   14.07    2.07
   8  -1 -12   21.58    2.93
   8  -1 -11    0.30    1.21
   8  -1 -11    0.35    1.55
   8   1 -11    0.25    1.03
  -8   1  11   -0.44    0.89
   8  -1 -10   75.40    6.01
   8  -1 -10   78.75    5.83
   8   1 -10   78.77    5.57
   8  -1  -9  433.06   25.13
   8  -1  -9  449.43   24.91
   8   1  -9  456.45   24.59
   8  -1  -8   40.75    3.77
   8  -1  -8   48.07    4.21
   8   1  -8   37.79    3.52
  -8  -1   7   51.39    4.28
   8  -1  -7   50.35    4.37
   8   1  -7   53.57    4.24
   8  -1  -7   54.97    4.66
   8  -1  -6    5.28    0.99
   8  -1  -6    4.35    1.45
  -8  -1   6    7.06    1.53
   8  -1  -6    5.29    1.39
   8   1  -6    4.86    1.28
  -8   1   5  232.17   14.17
  -8  -1   5  232.58   13.95
   8  -1  -5  233.23   14.40
   8  -1  -5  219.22   14.03
   8   1  -5  235.83   13.92
   8  -1  -5  263.40   13.40
  -8   1   4  227.59   13.82
  -8  -1   4  227.59   13.62
   8  -1  -4  238.32   13.88
   8   1  -4  245.55   13.76
   8  -1  -4  212.01   13.02
   8  -1  -4  265.06   14.39
   8  -1  -3    6.69    1.70
  -8   1   3    5.44    1.60
  -8  -1   3    4.13    1.27
   8  -1  -3    6.40    1.44
   8  -1  -3    5.06    1.27
   8   1  -3    5.68    1.35
  -8   1   2  526.74   27.62
  -8  -1   2  509.53   27.37
   8  -1  -2  467.17   27.41
   8   1  -2  495.94   27.40
   8  -1  -1    0.71    1.00
  -8   1   1    2.00    1.22
  -8  -1   1    1.09    1.08
   8   1  -1    2.61    1.23
   8  -1   0   34.66    3.57
  -8   1   0   32.89    3.27
  -8  -1   0   30.80    3.21
   8  -1   1 1170.25   59.30
  -8   1  -1 1090.50   58.79
  -8  -1  -1 1089.57   58.76
   8  -1   2  109.10    7.59
  -8   1  -2   93.10    7.05
  -8  -1  -2  113.42    7.35
   8  -1   3    8.18    1.75
  -8   1  -3    8.90    1.81
  -8  -1  -3   10.82    1.92
   8  -1   3   10.13    1.88
   8  -1   4  210.22   12.52
  -8  -1  -4  185.50   11.93
   8  -1   5    2.24    1.42
  -8  -1  -5    2.77    1.29
   8  -1   6    5.46    1.64
  -8   1  -6    2.95    1.59
   8  -1   7    6.54    1.62
  -8   1  -7    5.33    1.79
  -8  -1  -7    5.67    1.76
  -8  -1  -8   39.13    4.25
  -8   1  -8   41.30    4.19
   8  -1   9   10.72    2.26
  -8   1  -9   18.17    2.68
   8  -1  10  370.35   22.11
   8  -1  11    2.03    1.78
   8  -1  12  286.28   18.19
   8  -1  13   38.53    4.80
   8  -1  14   15.62    3.36
   8  -1  15   43.38    5.54
   8  -1  16   88.50    8.33
   8  -1  17    8.72    3.18
   8  -1  18    3.86    2.79
   8  -1  19    4.09    2.96
   8  -2 -24    3.26    1.93
  -8  -2  23   17.69    3.91
  -8   2  23   27.04    4.52
   8  -2 -23   30.31    3.75
  -8  -2  22    3.95    2.57
  -8   2  22    4.59    2.67
   8  -2 -22    2.00    1.67
  -8  -2  21   31.83    4.47
   8  -2 -21   20.50    3.24
  -8   2  21   29.11    4.45
   8   2 -21   29.21    2.81
  -8  -2  20   -0.80    1.66
   8  -2 -20    1.16    1.58
  -8  -2  20    4.93    2.09
  -8   2  20    1.22    2.20
   8   2 -20    0.43    1.06
  -8   2  20   -0.52    1.91
  -8  -2  19    1.11    1.56
   8  -2 -19   -0.38    1.45
  -8  -2  19   -1.19    1.96
   8   2 -19    0.22    1.08
  -8   2  19    1.78    2.13
  -8   2  19    0.98    1.76
  -8  -2  18   12.01    2.33
   8  -2 -18   16.08    2.60
   8   2 -18   13.85    1.93
  -8  -2  18   13.81    3.14
  -8   2  18   15.43    3.23
  -8   2  18   16.86    3.06
  -8  -2  17   14.99    2.44
   8  -2 -17   22.70    3.06
   8   2 -17   19.11    2.25
  -8  -2  17   21.57    3.55
  -8   2  17   16.48    3.20
  -8   2  17   18.73    3.06
   8  -2 -16   47.12    4.39
  -8  -2  16   57.60    5.57
   8   2 -16   47.16    3.69
  -8   2  16   49.28    5.08
  -8   2  16   53.04    4.83
  -8  -2  15    1.35    0.96
   8  -2 -15   -2.48    1.59
  -8  -2  15    3.60    1.75
  -8   2  15    3.58    1.57
   8   2 -15    0.22    0.96
  -8   2  15   -0.37    1.30
  -8  -2  14   18.17    2.01
   8  -2 -14   19.14    2.65
   8   2 -14   19.35    2.21
  -8  -2  14   20.46    3.23
  -8   2  14   17.37    2.98
  -8   2  14   18.81    2.77
  -8  -2  13   62.67    5.56
  -8   2  13   51.26    5.27
   8  -2 -13   50.28    4.57
   8   2 -13   52.74    4.04
  -8   2  13   59.05    4.75
  -8  -2  13   46.84    3.48
   8   2 -12    3.31    1.66
   8  -2 -12    1.83    1.17
   8  -2 -12    2.99    1.30
  -8  -2  12    4.26    1.80
   8   2 -12    4.40    1.19
  -8   2  12    7.53    1.88
  -8   2  12    2.69    1.37
  -8  -2  12    1.47    0.48
   8  -2 -11    4.59    1.50
   8   2 -11    5.62    1.76
   8  -2 -11    4.90    1.65
   8   2 -11    4.46    1.23
  -8   2  11    8.45    1.79
   8  -2 -10    8.69    1.83
   8   2 -10    5.55    1.86
   8  -2 -10   10.38    2.11
   8   2 -10    7.06    1.39
   8   2  -9   38.16    4.09
   8  -2  -9   47.01    4.36
   8  -2  -9   46.20    4.12
   8   2  -9   46.61    3.70
   8   2  -8    0.34    1.30
   8  -2  -8    2.72    1.33
  -8  -2   8    2.00    1.17
   8  -2  -8    1.89    1.11
   8   2  -8    3.27    1.14
   8  -2  -7   85.42    5.67
  -8  -2   7   87.54    5.93
   8  -2  -7   77.74    6.10
   8   2  -7   76.39    5.69
   8   2  -7   88.15    6.38
   8  -2  -7   86.26    6.35
  -8  -2   6   61.69    4.69
   8  -2  -6   64.51    5.10
   8   2  -6   58.79    4.64
   8  -2  -6   65.25    4.64
   8   2  -6   62.93    5.21
   8  -2  -6   60.22    5.12
  -8  -2   5   31.01    2.87
   8   2  -5   26.83    3.07
   8  -2  -5   25.48    3.01
   8  -2  -5   25.98    3.04
   8   2  -5   25.52    2.67
   8  -2  -5   24.13    2.60
  -8   2   4  107.35    7.35
  -8  -2   4  101.09    6.86
   8  -2  -4   91.34    7.06
   8   2  -4   99.01    6.89
   8  -2  -4  110.00    6.96
   8   2  -4  100.74    7.27
   8  -2  -4  112.09    7.48
  -8   2   3  483.58   26.85
  -8  -2   3  470.74   26.44
   8  -2  -3  440.74   26.67
   8   2  -3  531.56   27.24
   8  -2  -3  530.13   27.20
   8  -2  -3  468.72   26.52
  -8   2   2    0.91    1.21
  -8  -2   2   -0.52    1.02
   8  -2  -1  258.23   15.92
  -8   2   1  279.58   15.80
  -8  -2   1  261.50   15.41
   8  -2   0   48.65    4.46
  -8   2   0   51.41    4.41
  -8  -2   0   53.42    4.29
   8  -2   1  174.13   11.25
  -8   2  -1  170.98   11.02
  -8  -2  -1  185.97   11.01
   8   2   2  121.46    8.50
   8  -2   2  115.82    8.44
  -8   2  -2  118.02    8.25
  -8  -2  -2  130.46    8.28
   8  -2   2  137.14    8.57
   8   2   3   88.65    6.40
   8  -2   3   79.97    6.20
  -8  -2  -3   83.21    5.99
   8  -2   3   74.27    5.98
   8   2   4  136.64    9.89
  -8  -2  -4  144.97    9.68
   8  -2   4  156.44   10.00
   8   2   5   31.85    3.47
   8  -2   5   22.83    3.01
  -8   2  -5   31.62    3.35
  -8  -2  -5   32.80    3.38
   8   2   6    3.13    1.37
  -8   2  -6    0.67    1.24
  -8  -2  -6    0.64    1.16
  -8  -2  -7  165.65   11.17
  -8   2  -7  168.32   11.19
   8   2   7  183.89   11.54
   8  -2   7  169.88   11.32
  -8   2  -7  170.85   11.01
  -8  -2  -8   16.20    2.72
  -8   2  -8   14.01    2.58
   8   2   8   22.09    3.01
   8  -2   8   19.88    2.93
  -8   2  -8   21.39    2.90
   8   2   9  433.59   26.32
   8  -2   9  433.27   26.37
  -8   2  -9  511.33   26.28
   8   2  10  104.75    8.05
   8  -2  10   95.65    7.76
   8   2  11   33.40    4.15
   8  -2  11   25.02    3.82
   8   2  12   78.22    6.96
   8  -2  12   73.41    6.79
   8   2  13  102.33    8.65
   8  -2  13  109.45    8.73
   8   2  14  119.50   10.18
   8  -2  14  156.61   11.07
   8   2  15  108.24    9.13
   8  -2  15   98.68    8.93
   8   2  16    4.81    2.61
   8  -2  16    1.36    2.24
   8   2  17    6.62    3.14
   8  -2  17    6.56    3.05
   8   2  18   10.11    3.40
   8  -2  18    8.51    3.05
   8   2  19  117.04   11.03
   8  -2  19  134.76   11.54
   8  -3 -25   -0.90    2.19
   8  -3 -24   53.08    5.67
  -8  -3  23   -1.36    3.06
  -8   3  23   -0.67    2.81
   8  -3 -23    0.89    1.84
  -8  -3  22   -0.66    2.37
   8  -3 -22    1.75    1.86
  -8   3  22   -0.65    2.54
   8  -3 -21    5.62    2.09
  -8  -3  21    4.46    2.55
  -8   3  21    3.16    2.41
   8  -3 -20    1.27    1.58
  -8  -3  20    0.62    1.97
  -8   3  20    6.11    2.75
   8   3 -20    3.93    1.05
  -8   3  20    6.07    2.44
   8  -3 -19    1.67    1.67
  -8  -3  19    0.60    1.96
  -8   3  19   -0.59    2.13
   8   3 -19    0.32    0.88
  -8   3  19   -0.52    1.71
   8  -3 -18    0.41    1.31
   8   3 -18    0.84    0.86
  -8  -3  18   -0.57    1.95
  -8   3  18   -0.57    2.26
  -8   3  18    0.49    2.01
   8  -3 -17   55.27    5.09
  -8  -3  17   59.05    5.85
  -8   3  17   53.06    5.70
   8   3 -17   54.63    3.85
  -8   3  17   39.28    4.86
  -8  -3  16    5.57    1.55
  -8  -3  16    6.93    2.55
   8  -3 -16   10.67    2.34
  -8   3  16    9.51    2.45
   8   3 -16    9.22    1.47
  -8   3  16    8.40    2.20
   8  -3 -15   98.71    7.66
   8   3 -15  107.40    6.59
  -8  -3  15  118.75    8.73
  -8   3  15  118.77    8.69
  -8   3  15   89.72    7.67
  -8  -3  15   99.79    6.66
   8  -3 -14   89.73    6.84
   8   3 -14   95.19    5.85
  -8   3  14   95.90    7.12
  -8  -3  14   95.89    7.61
  -8   3  14  108.69    7.90
  -8  -3  14   74.53    5.46
  -8  -3  13    8.66    1.14
  -8  -3  13    8.75    2.31
  -8   3  13    9.18    2.40
   8  -3 -13    8.19    2.00
   8   3 -13    8.97    1.45
  -8   3  13   10.80    2.21
   8  -3 -12  396.92   23.29
  -8  -3  12  388.19   23.91
  -8   3  12  404.46   23.98
   8   3 -12  392.70   22.18
  -8   3  12  424.18   23.38
   8   3 -12  440.55   23.57
   8  -3 -12  422.72   23.47
   8  -3 -11   65.07    5.65
   8   3 -11   81.60    5.13
  -8   3  11   70.93    5.71
   8   3 -11   68.84    5.74
   8  -3 -11   66.70    5.66
   8   3 -10   71.55    5.52
   8  -3 -10   56.08    5.16
   8  -3 -10   58.24    5.17
   8   3 -10   65.59    4.63
   8  -3  -9    1.74    1.16
   8   3  -9    5.46    1.72
   8   3  -9    4.40    1.25
   8  -3  -9    4.43    1.51
   8   3  -8    9.85    2.02
   8  -3  -8   10.85    2.10
   8  -3  -8   12.49    1.96
  -8  -3   8    8.88    1.65
   8  -3  -8    8.91    1.91
   8   3  -8   11.01    1.69
   8  -3  -7    0.58    0.93
  -8  -3   7    1.40    0.99
   8  -3  -7    0.34    1.00
   8   3  -7   -0.66    1.33
   8  -3  -7    0.33    1.18
  -8  -3   6  134.30    8.31
   8  -3  -6  134.46    8.88
   8  -3  -6  122.68    8.56
   8   3  -6  135.35    8.93
   8  -3  -6  128.89    8.80
   8   3  -5  263.09   15.14
   8  -3  -5  274.34   15.23
  -8  -3   5  251.72   14.47
   8  -3  -5  280.62   15.37
  -8  -3   4   47.23    3.74
   8  -3  -4   38.88    3.82
   8   3  -4   39.19    3.92
   8  -3  -4   37.51    3.79
   8  -3  -4   42.16    3.86
   8   3  -3   82.26    6.00
  -8  -3   3   64.68    5.21
   8  -3  -3   77.23    5.87
   8  -3  -3   77.31    5.81
  -8   3   2    5.17    1.54
   8  -3  -2    6.72    1.65
  -8  -3   2    8.46    1.61
   8   3  -2    6.94    1.11
  -8   3   1   25.32    3.00
   8   3  -1   20.64    2.72
   8  -3  -1   17.24    2.58
  -8  -3   1   21.44    2.52
   8   3  -1   25.71    2.27
  -8   3   0   13.36    2.21
   8   3   0   18.70    2.42
   8  -3   0   19.37    2.55
  -8  -3   0   15.76    2.19
   8  -3   0   13.58    2.22
   8   3   1  179.16   11.22
   8  -3   1  176.02   11.19
  -8  -3  -1  165.34   10.72
   8  -3   1  183.22   11.20
   8   3   2   28.88    3.21
   8  -3   2   24.63    2.99
  -8  -3  -2   28.67    3.03
   8  -3   2   26.29    3.04
   8   3   3  268.79   15.66
   8  -3   3  260.28   15.59
  -8  -3  -3  259.57   15.24
   8  -3   3  244.86   15.32
   8   3   4   -0.72    1.37
   8  -3   4   -0.36    1.11
  -8   3  -4   -0.33    1.07
  -8  -3  -4   -0.30    1.18
   8  -3   4    2.06    1.37
   8   3   5    7.52    1.93
   8  -3   5    7.89    1.90
  -8   3  -5    7.60    1.72
  -8  -3  -5    7.24    1.71
   8  -3   5    6.62    1.66
   8   3   6    3.13    1.38
   8  -3   6    5.86    1.82
  -8   3  -6    2.03    1.35
  -8  -3  -6    0.98    1.21
   8  -3   6    1.80    1.54
  -8  -3  -7   14.45    2.63
  -8   3  -7   14.28    2.50
   8   3   7   13.57    2.40
   8  -3   7   18.36    2.78
  -8   3  -7   19.89    2.73
  -8  -3  -7   16.57    2.44
  -8  -3  -8    7.77    2.06
  -8   3  -8   13.38    2.55
   8   3   8   10.67    2.23
   8  -3   8    8.91    2.18
  -8   3  -8    7.80    2.01
   8   3   9   14.89    2.93
   8  -3   9   20.19    3.10
  -8   3  -9   17.21    2.80
   8   3  10  121.45    9.26
   8  -3  10  126.81    9.26
   8   3  11    9.30    2.53
   8  -3  11   10.24    2.43
   8   3  12   33.59    4.54
   8  -3  12   32.21    4.41
   8   3  13   -0.57    1.69
   8  -3  13    2.84    1.93
   8   3  14   72.01    7.06
   8  -3  14   71.28    7.03
   8   3  15   42.82    5.43
   8  -3  15   41.79    5.47
   8   3  16   -1.38    2.63
   8  -3  16    2.05    2.17
   8   3  17    0.74    2.43
   8  -3  17    1.46    2.32
   8   3  18   18.82    4.25
   8  -3  18   15.57    3.84
   8   3  19   29.29    5.26
   8  -3  19   19.81    4.54
   8  -3  21    1.40    2.59
   8  -4 -25   -1.45    1.84
   8  -4 -24   16.41    3.20
  -8  -4  23    2.72    2.39
  -8   4  23    3.37    2.56
   8  -4 -23    2.39    1.95
   8  -4 -22   12.78    2.70
  -8  -4  22   12.52    3.27
  -8   4  22   10.43    3.04
   8  -4 -21   16.82    3.09
  -8  -4  21   10.84    3.16
  -8   4  21   18.93    3.87
   8  -4 -20    1.38    1.70
  -8  -4  20   -0.62    2.28
  -8   4  20    1.22    2.20
  -8   4  20    1.76    2.12
   8  -4 -19   -0.45    1.54
  -8  -4  19    2.38    2.15
  -8   4  19    1.76    2.23
  -8   4  19    1.12    1.96
   8  -4 -18    8.43    2.31
  -8  -4  18    7.44    2.50
  -8   4  18    7.48    2.46
  -8   4  18    2.82    2.06
   8  -4 -17   76.63    6.43
  -8  -4  17   73.37    6.86
  -8   4  17   73.07    6.88
  -8   4  17   71.65    6.72
   8  -4 -16   18.82    3.09
  -8  -4  16   20.22    3.46
  -8   4  16   21.60    3.49
  -8   4  16   16.73    3.11
   8  -4 -15    6.31    2.07
  -8  -4  15    3.60    1.97
  -8   4  15    7.66    2.35
  -8   4  15    4.21    1.80
  -8   4  14   65.99    5.99
   8  -4 -14   52.89    5.22
  -8   4  14   54.73    5.47
  -8  -4  14   70.50    6.17
  -8  -4  13  122.59    7.58
   8  -4 -13  137.94    9.49
  -8  -4  13  164.98   10.37
  -8   4  13  141.99   10.05
  -8   4  13  161.01   10.03
   8   4 -12    4.87    1.94
   8  -4 -12    2.23    1.48
  -8  -4  12    2.34    1.32
   8  -4 -12    1.19    1.54
  -8   4  12   -1.24    1.57
   8  -4 -11  147.17   10.28
   8   4 -11  153.82   10.18
   8  -4 -11  161.90   10.27
   8  -4 -10   15.37    2.53
   8   4 -10   16.16    2.53
   8  -4 -10   12.29    2.33
  -8  -4   9   84.52    5.82
   8   4  -9   78.92    6.41
   8  -4  -9  102.43    6.99
   8  -4  -9   83.22    6.45
   8  -4  -8   96.43    7.34
   8   4  -8   99.60    7.21
   8  -4  -8  107.67    7.39
  -8  -4   8  106.59    6.65
   8  -4  -8   85.86    7.09
   8  -4  -7    4.33    1.59
  -8  -4   7    7.34    1.47
   8   4  -7    4.59    1.58
   8  -4  -7    9.53    1.99
   8  -4  -7    5.88    1.65
   8  -4  -6   80.89    6.46
  -8  -4   6   87.01    5.85
   8   4  -6   90.11    6.44
   8  -4  -6   84.25    6.37
   8  -4  -6   82.50    6.49
   8   4  -5  126.09    8.62
   8  -4  -5  121.29    8.56
   8  -4  -5  126.17    8.73
  -8  -4   5  124.55    8.05
   8  -4  -5  138.71    8.97
  -8  -4   4   74.78    5.45
   8   4  -4   80.09    5.97
   8  -4  -4   71.33    5.77
   8  -4  -4   82.71    6.26
   8   4  -3   42.14    3.96
   8  -4  -3   44.46    4.10
  -8  -4   3   40.68    3.58
   8  -4  -3   36.41    3.99
   8   4  -2   59.72    5.09
   8  -4  -2   65.34    5.25
  -8  -4   2   62.31    4.70
   8  -4  -2   55.86    5.28
   8   4  -2   58.40    4.04
   8   4  -1   61.12    5.19
   8  -4  -1   60.40    5.21
   8  -4  -1   67.71    5.40
  -8  -4   1   63.08    4.85
  -8   4   1   64.75    5.33
   8   4  -1   63.16    4.55
   8   4   0   62.73    5.22
   8  -4   0   59.49    5.15
   8  -4   0   58.55    5.16
  -8  -4   0   66.27    5.00
   8   4   0   70.00    4.92
   8   4   1   95.93    6.69
   8   4   1   96.15    7.00
   8  -4   1   87.27    6.86
   8  -4   1  110.49    7.29
  -8  -4  -1   90.17    6.60
   8   4   2   29.77    3.26
   8  -4   2   24.84    3.08
   8  -4   2   33.77    3.43
  -8  -4  -2   28.31    3.07
  -8   4  -3  192.70   11.88
   8   4   3  179.17   11.81
   8  -4   3  186.42   11.88
   8  -4   3  188.64   11.89
  -8  -4  -3  188.32   11.61
  -8   4  -4  232.87   14.54
   8   4   4  230.25   14.61
   8  -4   4  261.19   14.88
   8  -4   4  253.95   14.74
  -8  -4  -4  228.34   14.31
   8   4   5   21.09    2.74
   8  -4   5   12.05    2.27
  -8   4  -5   11.79    2.31
   8  -4   5   20.10    2.69
  -8  -4  -5   12.60    2.34
  -8   4  -6  290.85   17.81
   8   4   6  308.58   18.24
   8  -4   6  301.28   18.15
  -8  -4  -6  285.26   17.65
   8  -4   6  337.43   18.19
  -8  -4  -7    8.39    2.04
  -8   4  -7   12.80    2.46
   8   4   7   14.78    2.35
  -8   4  -7   12.79    2.36
   8  -4   7   11.81    2.17
   8  -4   7   16.05    2.43
  -8   4  -8  117.84    8.40
  -8  -4  -8  112.14    8.31
  -8   4  -8  110.42    8.07
   8   4   8  120.76    8.59
   8  -4   8  114.22    8.46
   8   4   9   22.22    3.31
   8  -4   9   23.44    3.34
   8   4  10   99.58    8.10
   8  -4  10  110.00    8.35
   8   4  11   41.93    4.79
   8  -4  11   43.93    4.93
   8   4  12   64.29    6.12
   8  -4  12   52.88    5.72
   8   4  13  162.06   12.02
   8  -4  13  171.28   12.12
   8   4  14    1.23    2.33
   8  -4  14   -0.61    2.12
   8   4  15    0.65    2.22
   8  -4  15   -1.29    2.63
   8   4  16   93.92    8.76
   8  -4  16   88.50    8.52
   8   4  17  102.68    9.56
   8  -4  17  112.77    9.96
   8   4  18   51.64    6.63
   8  -4  18   43.08    6.06
   8   4  19   -1.68    2.58
   8  -4  19   -0.83    2.81
   8  -4  20    1.50    2.29
   8  -4  21   21.32    4.52
   8  -5 -26   13.53    3.04
   8  -5 -25    3.12    2.34
   8  -5 -24   -1.55    2.36
  -8  -5  23   -0.68    2.45
  -8   5  23    2.02    2.49
  -8  -5  22    7.24    3.28
  -8   5  22    7.17    2.95
  -8   5  21   -0.63    2.20
  -8  -5  20    1.85    1.89
  -8   5  20    1.21    1.99
   8  -5 -19    4.36    2.07
  -8  -5  19    7.69    2.93
  -8   5  19    1.81    2.06
  -8   5  19    3.50    2.33
  -8  -5  18   33.05    4.64
  -8   5  18   30.41    4.49
   8  -5 -18   39.60    4.54
  -8   5  18   39.50    4.97
   8  -5 -17   11.69    2.78
  -8  -5  17   12.10    3.19
  -8   5  17   11.42    2.87
  -8   5  17   11.19    2.75
   8  -5 -16   24.33    3.61
  -8  -5  16   26.51    3.91
  -8   5  16   27.30    4.00
  -8   5  16   31.70    4.28
  -8   5  15   20.42    3.41
   8  -5 -15   16.61    2.98
  -8   5  15   23.68    3.62
  -8  -5  15   15.93    3.17
  -8  -5  14   69.49    6.62
   8  -5 -14   84.39    6.71
  -8   5  14   86.93    7.06
  -8   5  14   70.13    6.73
  -8  -5  13    0.97    1.49
   8  -5 -13    0.43    1.43
  -8  -5  13    2.85    0.81
  -8   5  13    2.41    1.88
  -8   5  13    1.92    1.87
   8  -5 -12   17.31    2.70
   8  -5 -12   11.89    2.53
  -8   5  12   19.29    3.21
  -8  -5  12   13.98    1.35
   8  -5 -11   39.98    4.30
   8   5 -11   36.20    3.99
   8  -5 -11   41.93    4.12
   8  -5 -10    1.63    1.71
   8   5 -10    3.05    1.63
   8  -5 -10    4.04    1.70
   8  -5  -9    2.16    1.38
  -8  -5   9    3.45    1.22
   8  -5  -9    3.63    1.65
   8   5  -9    2.68    1.56
   8  -5  -9    1.33    1.68
   8  -5  -8  327.99   19.98
  -8  -5   8  353.86   18.86
   8   5  -8  334.98   19.63
   8  -5  -8  342.69   19.69
   8  -5  -8  329.01   20.30
   8  -5  -7   67.16    5.88
  -8  -5   7   72.27    5.13
   8   5  -7   80.74    6.00
   8  -5  -7   73.33    5.81
   8  -5  -7   77.25    6.40
   8  -5  -6   16.30    2.60
  -8  -5   6   19.06    2.19
   8   5  -6   14.79    2.50
   8  -5  -6   13.81    2.27
   8  -5  -6   16.33    2.80
   8   5  -5   90.53    6.67
   8  -5  -5   85.38    6.61
  -8  -5   5   84.20    6.02
   8  -5  -5  108.20    7.54
   8  -5  -4    6.80    1.86
  -8  -5   4    5.75    1.43
   8  -5  -4   11.49    2.28
   8   5  -4    7.83    1.73
   8  -5  -3   66.54    5.36
  -8  -5   3   61.18    4.82
   8  -5  -3   63.20    5.79
   8   5  -3   68.45    5.41
   8   5  -2   -0.36    0.92
   8  -5  -2    0.36    1.13
   8  -5  -2    1.93    1.31
  -8  -5   2    0.51    1.08
   8  -5  -2    2.36    1.61
   8   5  -2    0.96    0.92
   8   5  -1    2.81    1.12
   8  -5  -1    2.44    1.23
   8  -5  -1    1.15    1.23
  -8  -5   1    5.33    1.38
   8   5  -1    3.30    1.14
   8   5   0  150.70    9.63
   8  -5   0  138.09    9.54
   8  -5   0  148.79    9.83
  -8  -5   0  136.59    9.12
   8   5   0  148.06    9.26
   8   5   1   31.61    3.43
   8  -5   1   31.70    3.49
   8  -5   1   31.21    3.58
  -8  -5  -1   33.76    3.40
   8   5   1   32.88    3.48
  -8   5  -2  449.92   24.53
   8   5   2  431.73   24.37
   8  -5   2  449.08   24.52
   8  -5   2  393.62   24.30
  -8  -5  -2  422.54   24.01
   8   5   2  438.95   24.43
   8   5   3   27.76    3.53
   8   5   3   34.64    3.47
   8  -5   3   28.61    3.34
  -8   5  -3   24.96    3.40
   8  -5   3   28.77    3.39
  -8  -5  -3   28.69    3.25
   8   5   4   44.28    4.53
  -8   5  -4   44.54    4.35
   8   5   4   46.12    4.34
   8  -5   4   43.27    4.27
   8  -5   4   43.53    4.30
  -8  -5  -4   46.69    4.22
  -8   5  -5   46.62    4.48
   8   5   5   39.69    4.19
   8  -5   5   45.74    4.34
   8  -5   5   48.68    4.41
  -8  -5  -5   38.68    3.99
   8   5   6   77.56    6.10
   8  -5   6   64.76    5.81
  -8   5  -6   76.35    6.08
   8  -5   6   77.82    6.05
  -8  -5  -6   67.00    5.75
  -8   5  -7  154.56   10.60
   8   5   7  155.94   10.73
   8  -5   7  163.39   10.83
   8  -5   7  168.16   10.74
  -8  -5  -8    2.37    1.61
  -8   5  -8   -0.80    1.67
  -8   5  -8    0.38    1.50
   8   5   8    5.61    1.94
   8  -5   8    0.43    1.50
   8  -5   8    0.77    1.39
   8   5   9    0.46    1.50
   8  -5   9    3.18    1.77
   8   5  10   60.88    5.81
   8  -5  10   52.22    5.35
   8   5  11    1.03    1.76
   8  -5  11    1.03    1.45
   8   5  12   43.32    5.03
   8  -5  12   35.90    4.71
   8   5  13    8.72    2.79
   8  -5  13   10.39    2.98
   8   5  14   27.84    4.31
   8  -5  14   17.17    3.77
   8   5  15    7.28    2.83
   8  -5  15    5.23    2.62
   8   5  16   -1.41    2.47
   8  -5  16    1.40    2.14
   8   5  17   36.06    5.62
   8  -5  17   51.12    6.13
   8   5  18   15.95    3.87
   8  -5  18   18.18    4.17
   8   5  19   -1.69    2.77
   8  -5  19   -1.67    2.93
   8  -5  20   37.38    6.08
   8  -5  21   12.36    3.82
  -8  -6  22    3.94    2.68
  -8   6  22    1.94    2.85
  -8  -6  21   31.00    4.74
  -8   6  21   31.80    4.85
  -8  -6  20   15.25    3.48
  -8   6  20    7.22    2.98
  -8  -6  19    8.82    2.87
  -8   6  19   12.20    3.05
  -8  -6  18   -1.70    2.50
  -8   6  18   -0.56    2.38
  -8  -6  17  107.60    8.38
  -8   6  17   97.44    8.06
  -8   6  16    3.16    2.17
   8  -6 -16    6.33    2.13
  -8  -6  16   10.59    2.72
  -8   6  16    8.17    2.50
  -8  -6  15   46.76    5.17
   8  -6 -15   49.72    5.20
  -8   6  15   49.62    5.26
  -8   6  15   45.85    5.33
  -8   6  14    7.95    2.30
   8  -6 -14    8.43    2.39
  -8  -6  14   10.46    2.60
  -8  -6  14    5.87    1.39
  -8   6  14   11.01    2.75
   8  -6 -13    0.92    1.51
  -8   6  13    2.15    1.88
  -8  -6  13    1.27    0.92
   8  -6 -12  288.69   16.00
  -8   6  12  277.13   16.48
   8   6 -11   20.95    2.99
   8  -6 -11   25.32    3.20
   8  -6 -11   23.01    3.30
  -8  -6  11   19.30    1.79
   8  -6 -10   36.48    4.38
  -8  -6  10   36.71    3.10
   8  -6 -10   42.11    4.28
   8   6 -10   42.14    3.93
   8  -6 -10   49.44    4.15
  -8  -6  10   33.16    2.38
   8  -6  -9    1.00    1.53
   8  -6  -9    0.85    1.45
  -8  -6   9    3.29    1.14
   8   6  -9    3.31    1.54
   8  -6  -9    1.64    1.37
   8  -6  -8   56.70    5.48
   8   6  -8   65.43    5.39
   8  -6  -8   70.17    5.47
  -8  -6   8   67.00    4.68
   8  -6  -8   68.76    6.26
   8  -6  -7    7.97    2.31
   8   6  -7   16.05    2.42
   8  -6  -7    9.74    2.07
   8  -6  -7   15.46    2.60
  -8  -6   7   10.91    1.76
   8   6  -6    4.44    1.54
   8  -6  -6    3.14    1.40
  -8  -6   6    3.59    1.25
   8  -6  -6    4.46    2.03
   8  -6  -5    3.22    1.59
  -8  -6   5    4.40    1.35
   8   6  -5    5.17    1.73
   8  -6  -5    5.94    2.03
   8   6  -4   36.45    3.90
   8  -6  -4   44.32    4.05
  -8  -6   4   47.01    3.74
   8  -6  -4   41.75    4.68
   8  -6  -3  203.49   13.11
   8  -6  -3  219.93   13.50
  -8  -6   3  207.96   12.48
   8   6  -3  233.30   13.20
   8  -6  -3  193.11   12.82
   8  -6  -3  219.51   14.21
   8   6  -2   37.57    3.78
   8  -6  -2   39.42    3.85
   8  -6  -2   31.14    3.73
   8   6  -2   42.67    3.94
   8  -6  -2   41.56    3.83
  -8  -6   2   32.50    3.27
   8   6  -2   31.78    3.13
   8  -6  -2   34.11    4.39
   8  -6  -1   78.60    6.07
   8  -6  -1   79.34    6.40
  -8  -6   1   76.69    5.69
   8  -6  -1   76.96    7.08
   8   6  -1   82.88    6.19
   8   6  -1   75.45    5.71
   8   6   0  203.15   12.73
   8  -6   0  205.49   12.73
   8  -6   0  195.54   12.94
  -8  -6   0  196.69   12.25
   8   6   0  219.15   12.68
   8   6   1   59.29    5.10
   8  -6   1   62.71    5.25
   8  -6   1   52.77    5.22
  -8  -6  -1   66.99    5.10
   8   6   1   71.05    5.53
   8   6   2    6.20    1.90
   8   6   2    4.49    1.48
   8  -6   2    2.42    1.15
   8  -6   2    2.76    1.62
  -8  -6  -2    4.90    1.66
  -8   6  -3  105.36    8.09
   8   6   3  106.78    7.95
   8  -6   3  115.18    8.08
   8  -6   3  115.62    8.30
  -8  -6  -3  120.34    8.04
   8   6   3  128.74    8.74
   8   6   4    6.78    2.19
  -8   6  -4    3.07    2.03
   8   6   4    4.72    1.73
   8  -6   4    5.46    1.68
   8  -6   4    5.79    1.81
  -8  -6  -4    5.37    1.80
   8   6   5   -0.49    1.60
  -8   6  -5    1.93    1.60
   8   6   5    0.38    1.15
   8  -6   5   -0.38    1.32
   8  -6   5    0.78    1.28
   8   6   6  154.17   11.47
  -8   6  -6  172.44   10.93
   8   6   6  169.62   10.83
   8  -6   6  154.29   10.65
   8  -6   6  152.91   10.57
   8   6   7   23.82    3.85
  -8   6  -7   18.82    2.98
   8   6   7   18.40    2.87
   8  -6   7   26.95    3.29
   8  -6   7   30.72    3.52
   8   6   8   11.19    3.03
   8   6   8   11.68    2.60
   8  -6   8   10.79    2.38
   8  -6   8   18.64    2.64
   8   6   9    2.76    1.62
   8  -6   9    2.30    1.71
   8  -6   9    3.20    1.74
   8   6  10   75.66    6.47
   8  -6  10   61.86    6.10
   8   6  11    2.59    1.87
   8  -6  11    2.06    1.76
   8   6  12   -0.55    1.81
   8  -6  12    0.55    1.85
   8   6  13   86.59    7.59
   8  -6  13   69.20    7.09
   8   6  14    4.99    2.45
   8  -6  14   11.16    3.14
   8   6  15   26.65    4.66
   8  -6  15   32.35    4.92
   8   6  16   45.38    5.91
   8  -6  16   40.91    5.85
   8   6  17    9.83    3.36
   8  -6  17    6.03    2.67
   8   6  18    2.40    2.81
   8  -6  18   -0.80    2.71
   8   6  19    2.56    2.99
   8  -6  19    6.02    3.35
   8  -6  20   43.91    6.79
   8  -6  21   37.36    6.29
   8  -6  22   -0.90    3.23
  -8  -7  22   15.58    3.52
  -8   7  22   13.44    3.60
  -8   7  21   -1.24    2.17
  -8  -7  21    0.63    2.55
  -8  -7  20    9.07    3.22
  -8   7  20    3.59    2.45
  -8  -7  19   79.33    7.66
  -8   7  19   91.13    8.00
  -8  -7  18    5.06    2.31
  -8   7  18    7.27    2.53
  -8   7  17   -1.08    2.21
  -8  -7  17    0.55    2.17
  -8  -7  16   22.72    3.70
  -8   7  16   20.55    3.58
  -8  -7  15    2.05    1.90
  -8  -7  15    3.69    1.51
  -8   7  15    2.47    2.29
  -8   7  15    5.11    2.18
   8  -7 -14    8.40    2.51
  -8   7  14    7.86    2.79
  -8  -7  14    6.62    1.59
   8  -7 -13    4.84    2.03
  -8   7  13    4.77    2.22
  -8  -7  13    4.16    1.33
   8  -7 -12   29.81    3.93
  -8  -7  12   33.22    2.95
   8  -7 -11  110.83    8.53
   8   7 -11  122.55    8.15
   8  -7 -11  121.19    8.08
  -8  -7  11  101.44    6.81
  -8  -7  10    5.98    1.21
   8  -7 -10    6.24    2.28
   8  -7 -10    3.67    1.63
  -8  -7  10    5.69    1.25
   8   7 -10    4.35    1.78
   8  -7 -10    8.23    2.03
   8  -7  -9   29.14    3.25
   8  -7  -9   29.90    4.25
  -8  -7   9   27.38    2.56
   8  -7  -9   28.71    3.62
   8   7  -9   26.65    3.18
  -8  -7   9   22.84    2.27
   8   7  -8   64.01    5.26
   8  -7  -8   72.14    5.42
   8  -7  -8   63.48    5.72
  -8  -7   8   58.12    4.43
   8  -7  -8   61.20    6.33
   8   7  -7   74.40    6.09
   8  -7  -7   85.77    6.30
  -8  -7   7   84.70    5.62
   8  -7  -7   82.38    7.36
   8   7  -6    0.64    1.27
   8  -7  -6    0.62    1.22
  -8  -7   6    2.23    1.23
   8  -7  -6    3.38    2.09
  -8  -7   5  204.83   11.97
   8   7  -5  201.51   12.45
   8  -7  -5  197.11   12.42
   8  -7  -5  213.23   14.13
   8   7  -4   35.88    3.79
   8  -7  -4   43.72    4.02
   8  -7  -4   46.51    4.58
  -8  -7   4   38.98    3.58
   8  -7  -4   50.76    5.28
   8   7  -3    5.47    1.65
   8   7  -3    4.69    1.48
   8  -7  -3    2.85    1.19
   8  -7  -3    1.58    1.35
   8  -7  -3    4.19    1.68
  -8  -7   3    3.80    1.37
   8  -7  -3    3.49    1.98
   8   7  -2   14.35    2.26
   8   7  -2   12.20    2.19
   8  -7  -2   13.19    2.15
   8  -7  -2    8.78    2.15
   8  -7  -2    9.70    2.08
   8   7  -2    9.92    1.95
  -8  -7   2   14.12    2.17
   8  -7  -2   10.70    2.83
   8   7  -1   95.92    6.83
   8  -7  -1   87.24    6.71
   8  -7  -1   84.21    7.05
  -8  -7   1   88.97    6.45
   8  -7  -1   96.16    8.23
   8   7  -1   98.80    6.91
   8  -7   0   24.65    2.90
   8   7   0   21.09    2.78
   8  -7   0   28.30    3.43
   8  -7   0   22.37    3.92
  -8  -7   0   17.10    2.51
   8   7   0   20.44    2.84
   8   7   1    7.79    1.87
   8  -7   1    9.58    1.91
   8  -7   1   10.94    2.37
  -8  -7  -1    3.05    1.39
   8   7   1    6.20    1.89
   8   7   2  120.14    8.26
   8  -7   2  113.33    8.17
   8  -7   2  134.22    8.95
  -8  -7  -2  108.60    8.05
   8   7   2  128.67    8.99
   8   7   3    0.35    1.19
   8  -7   3    3.16    1.49
   8  -7   3    1.64    1.52
   8   7   3    0.46    1.65
   8   7   4   58.15    5.23
   8  -7   4   69.51    5.48
   8  -7   4   58.09    5.43
   8   7   4   66.51    6.12
   8   7   5  190.08   11.81
   8  -7   5  166.92   11.54
   8  -7   5  197.14   12.04
   8   7   5  169.77   12.47
   8   7   6   95.95    6.99
   8  -7   6   82.94    6.69
   8  -7   6   85.03    6.84
   8   7   6   87.25    7.71
   8   7   7  133.58   10.07
   8  -7   7  147.24   10.27
   8  -7   7  160.85   10.39
   8   7   7  169.71   11.69
   8   7   8    6.86    2.50
   8   7   8    9.97    2.07
   8  -7   8    3.04    1.71
   8  -7   8    4.02    1.69
   8   7   9   19.56    3.04
   8  -7   9   10.30    2.45
   8  -7   9   12.91    2.56
   8   7  10   15.67    2.91
   8  -7  10   16.71    3.17
   8   7  11    3.64    1.89
   8  -7  11    5.21    2.18
   8   7  12   23.20    3.81
   8  -7  12   18.78    3.45
   8   7  13   -2.94    2.50
   8  -7  13   -1.77    2.40
   8   7  14   13.19    3.40
   8  -7  14   13.20    3.40
   8   7  15   -0.67    2.42
   8  -7  15    0.67    2.28
   8   7  16    2.85    2.78
   8  -7  16    0.71    2.27
   8   7  17   39.64    6.01
   8  -7  17   59.21    6.80
   8   7  18   15.30    4.00
   8  -7  18   15.24    3.87
   8  -7  19    8.36    3.55
   8  -7  20    0.94    3.30
   8  -7  21    0.95    3.52
  -8   8  22   29.25    4.65
  -8  -8  22   28.24    4.53
  -8  -8  21    4.96    2.65
  -8   8  21    7.36    2.96
  -8  -8  20    0.60    2.16
  -8   8  20    4.75    2.42
  -8  -8  19   -0.58    1.90
  -8   8  19    0.58    2.13
  -8  -8  18   -0.56    1.90
  -8   8  18   -0.56    1.78
  -8  -8  17   -1.63    2.30
  -8  -8  17    2.24    1.71
  -8   8  17    1.08    2.16
  -8   8  16    1.05    1.94
  -8  -8  16    2.10    2.09
  -8  -8  16    1.38    1.43
  -8  -8  15   13.47    2.35
  -8  -8  14   22.75    2.77
   8  -8 -13   40.13    4.73
  -8  -8  13   44.33    3.90
   8  -8 -12   72.10    6.69
  -8  -8  12   82.78    5.79
   8  -8 -11   25.70    3.23
   8  -8 -11   25.34    4.11
  -8  -8  11   23.33    2.19
   8  -8 -11   27.23    3.67
   8   8 -11   33.05    3.65
  -8  -8  11   20.68    2.59
   8  -8 -10   77.25    6.37
  -8  -8  10   62.96    4.50
   8   8 -10   58.00    5.43
   8  -8 -10   74.28    5.69
  -8  -8  10   68.32    4.97
   8  -8 -10   87.35    7.66
   8  -8  -9   35.27    4.86
   8  -8  -9   28.65    3.98
  -8  -8   9   42.88    3.17
   8   8  -9   36.72    3.89
   8  -8  -9   41.79    3.90
  -8  -8   9   33.89    3.22
   8  -8  -8    7.54    2.27
  -8  -8   8    3.35    1.24
  -8  -8   8    5.58    1.30
   8   8  -8    2.52    1.48
   8  -8  -8    2.79    1.43
   8  -8  -7    9.47    2.72
  -8  -8   7    8.89    1.61
   8   8  -7    7.49    1.94
   8  -8  -7    8.93    1.99
   8   8  -6    2.82    1.29
   8  -8  -6    4.02    1.63
  -8  -8   6    2.00    1.09
   8  -8  -6    6.30    2.21
   8  -8  -5    7.58    2.09
   8   8  -5    6.10    1.65
   8  -8  -5    4.52    1.56
  -8  -8   5    6.37    1.48
   8  -8  -5    5.68    2.53
   8  -8  -4   86.62    6.50
   8  -8  -4   70.00    6.43
  -8  -8   4   84.90    5.83
   8  -8  -4   81.36    7.68
   8   8  -4   82.54    6.16
   8  -8  -4   83.34    6.18
   8   8  -3   81.67    6.50
   8   8  -3   85.51    6.34
   8  -8  -3   91.64    6.59
   8  -8  -3   83.04    6.90
   8  -8  -3   81.40    6.24
  -8  -8   3   83.06    6.02
   8  -8  -3   88.66    7.95
   8   8  -2   31.39    3.46
   8  -8  -2   33.61    3.61
   8  -8  -2   33.69    3.95
   8   8  -2   41.93    3.83
   8  -8  -2   35.48    3.55
  -8  -8   2   32.47    3.32
   8  -8  -2   26.85    4.43
   8   8  -1    9.66    2.00
   8  -8  -1   12.47    2.18
   8  -8  -1   11.70    2.34
   8  -8  -1   13.63    2.21
   8   8  -1    9.29    2.10
   8  -8  -1    8.06    2.68
  -8  -8   1   13.49    2.16
   8   8  -1   12.01    2.23
   8   8   0    2.00    1.33
   8  -8   0    1.01    1.34
   8  -8   0    3.49    1.78
   8  -8   0    0.69    1.77
  -8  -8   0    3.04    1.57
   8   8   0    1.20    1.48
   8  -8   1   27.41    3.16
   8   8   1   21.93    2.99
   8  -8   1   35.86    3.89
   8   8   1   28.82    3.78
   8  -8   2   45.79    4.21
   8   8   2   40.88    4.03
   8  -8   2   48.75    4.69
   8   8   2   36.69    4.52
   8   8   3   72.55    5.93
   8  -8   3   72.17    5.94
   8  -8   3   94.40    6.87
   8   8   3   71.33    6.74
   8   8   4    3.22    1.55
   8  -8   4    3.25    1.57
   8  -8   4    3.39    1.65
   8   8   4    1.05    1.74
   8   8   5  115.91    8.96
   8  -8   5  136.13    9.28
   8  -8   5  152.89    9.78
   8   8   5  139.57   10.44
   8   8   6  134.93    9.39
   8  -8   6  132.85    9.37
   8  -8   6  144.31    9.74
   8   8   6  131.73   10.48
   8   8   7   14.96    3.48
   8   8   7   16.74    2.78
   8  -8   7   17.68    2.78
   8  -8   7   13.69    2.54
   8   8   8    2.62    2.36
   8   8   8    5.22    1.99
   8  -8   8    3.09    1.80
   8  -8   8   -0.41    1.68
   8   8   9   55.83    5.33
   8  -8   9   58.98    5.49
   8  -8   9   49.06    4.99
   8   8  10    5.38    2.07
   8  -8  10    9.87    2.36
   8  -8  10    7.08    2.06
   8   8  11  120.80    8.98
   8  -8  11   99.41    8.58
   8   8  12   -2.21    2.65
   8  -8  12    0.55    2.36
   8   8  13   17.08    3.53
   8  -8  13   10.69    2.97
   8   8  14   10.73    3.31
   8  -8  14   12.13    3.21
   8   8  15   17.51    3.92
   8  -8  15   21.06    3.99
   8   8  16   92.48    8.72
   8  -8  16   80.94    8.40
   8   8  17    9.17    3.28
   8  -8  17    9.18    3.35
   8   8  18   20.18    4.81
   8  -8  18   22.64    4.57
   8  -8  18   18.52    4.79
   8  -8  19   10.95    4.18
  -8   9  22   -0.63    2.78
  -8  -9  21    6.13    2.88
  -8   9  21    9.78    3.09
  -8   9  20    0.59    2.14
  -8  -9  20    1.78    2.31
  -8  -9  19    0.57    2.01
  -8   9  19    1.15    2.13
  -8   9  18    0.56    2.17
  -8  -9  18   -0.56    2.31
  -8   9  17   -2.69    2.85
  -8  -9  17    0.40    1.84
  -8  -9  17    0.54    2.66
  -8  -9  16    9.14    2.26
  -8  -9  15   34.23    3.82
  -8  -9  14   41.83    4.25
  -8  -9  13  135.55    9.14
   8  -9 -12   17.18    3.22
  -8  -9  12   17.47    2.64
   8  -9 -11    0.70    1.97
   8  -9 -11    1.02    1.67
   8   9 -11    2.95    1.69
   8  -9 -11   -0.32    1.24
  -8  -9  11    0.62    1.20
   8   9 -10   27.77    3.37
   8  -9 -10   28.28    3.30
   8  -9 -10   27.27    4.62
  -8  -9  10   25.94    2.39
  -8  -9  10   30.96    3.26
  -8  -9   9    1.76    1.03
   8  -9  -9    0.70    2.05
   8   9  -9    1.92    1.44
   8  -9  -9    0.93    1.29
  -8  -9   9    1.25    0.89
   8  -9  -8   44.68    5.96
  -8  -9   8   48.10    3.73
   8   9  -8   49.67    4.31
   8  -9  -8   43.33    4.15
  -8  -9   8   46.86    4.09
  -8  -9   7  101.78    6.77
   8   9  -7   98.57    6.86
   8  -9  -7  102.15    6.91
   8  -9  -7   77.22    7.16
  -8  -9   7   88.20    6.16
   8  -9  -7  100.71    8.99
   8  -9  -6   47.34    4.74
   8   9  -6   36.28    3.86
   8  -9  -6   45.92    4.04
  -8  -9   6   42.56    3.57
   8  -9  -6   32.83    4.98
   8   9  -5    5.46    1.63
   8  -9  -5    3.28    1.56
   8  -9  -5    4.15    1.85
  -8  -9   5    6.49    1.49
   8  -9  -5    4.85    2.22
   8   9  -4    1.06    1.28
   8  -9  -4   -0.35    1.39
   8  -9  -4   -0.91    1.50
   8   9  -4    0.89    1.31
   8  -9  -4    1.76    1.30
  -8  -9   4   -1.02    1.24
   8  -9  -4   -1.40    2.06
   8  -9  -3   52.68    4.50
   8   9  -3   59.39    4.81
   8  -9  -3   54.97    4.66
   8  -9  -3   40.18    4.70
  -8  -9   3   51.65    4.32
   8  -9  -3   42.34    5.92
   8   9  -3   52.81    4.54
   8   9  -2  230.95   13.81
   8  -9  -2  232.17   13.79
   8  -9  -2  225.33   14.47
   8   9  -2  226.60   13.68
   8  -9  -2  234.03   13.69
  -8  -9   2  212.25   13.39
   8  -9  -2  221.37   15.97
   8  -9  -1    2.19    1.30
   8   9  -1    0.33    1.36
   8  -9  -1    0.33    1.25
   8  -9  -1    0.45    1.31
   8   9  -1    2.57    1.34
   8   9  -1    3.42    1.66
   8  -9  -1    1.47    2.07
  -8  -9   1    2.11    1.47
   8   9   0   15.22    2.31
   8  -9   0    9.42    2.09
   8  -9   0   12.90    2.67
   8  -9   0   12.77    3.31
   8   9   0   12.16    2.56
   8   9   0   13.46    2.37
   8   9   1   82.50    6.30
   8  -9   1   86.43    6.35
   8  -9   1   86.21    7.02
   8  -9   1   66.51    7.87
   8   9   1   96.18    7.46
   8   9   2   59.33    4.95
   8  -9   2   54.95    4.85
   8  -9   2   52.90    5.36
   8   9   2   54.77    5.76
   8   9   3  354.18   20.39
   8  -9   3  352.65   20.35
   8  -9   3  330.90   20.96
   8   9   3  382.88   21.98
   8   9   4   11.35    2.28
   8  -9   4    9.97    2.10
   8  -9   4    8.82    2.37
   8   9   4   12.99    2.89
   8   9   5   18.96    2.78
   8  -9   5   19.53    2.75
   8  -9   5   20.40    3.05
   8   9   5   22.03    3.92
   8   9   6    0.77    1.39
   8  -9   6    2.72    1.65
   8  -9   6    0.86    1.36
   8   9   6    1.26    2.14
   8   9   7   17.93    2.85
   8  -9   7   17.34    2.81
   8  -9   7   13.28    2.72
   8   9   8   24.99    3.44
   8  -9   8   21.61    3.27
   8  -9   8   23.65    3.25
   8   9   9   26.68    4.03
   8  -9   9   30.66    4.15
   8   9  10   14.13    2.96
   8  -9  10   18.21    3.13
   8  -9  10   13.02    2.63
   8   9  11   26.47    4.08
   8  -9  11   24.65    3.92
   8   9  12    1.66    1.88
   8  -9  12    5.04    2.24
   8   9  13    2.37    2.31
   8  -9  13    3.01    2.34
   8   9  14    8.85    3.18
   8  -9  14   13.46    3.40
   8   9  15   41.68    5.71
   8  -9  15   51.90    6.15
   8   9  16    0.72    2.52
   8  -9  16    6.52    3.31
   8   9  17   -1.52    2.58
   8  -9  17    0.77    2.53
   8  -9  17    1.02    2.99
   8   9  18   17.72    4.47
   8  -9  18   18.04    4.44
  -8 -10  21   19.38    3.83
  -8  10  21   23.72    4.18
  -8  10  20    0.59    2.40
  -8 -10  20    4.11    2.49
  -8 -10  19   -1.14    2.26
  -8  10  19   -1.14    2.47
  -8 -10  18   -2.73    2.37
  -8 -10  16    2.11    1.87
  -8 -10  15   26.60    3.55
  -8 -10  14    9.46    2.17
  -8 -10  13   23.30    3.34
   8 -10 -12   -1.09    1.96
  -8 -10  12   -0.75    1.59
   8 -10 -11   95.59    7.07
  -8 -10  11   95.29    7.38
  -8 -10  10    0.73    1.31
   8 -10 -10    3.06    2.25
   8  10 -10    2.20    1.52
   8 -10 -10    4.24    1.75
  -8 -10   9    2.15    1.49
   8 -10  -9   -0.76    1.94
   8  10  -9    0.32    1.32
   8 -10  -9    0.93    1.34
   8 -10  -8    0.77    1.96
  -8 -10   8    3.93    1.56
   8  10  -8    4.25    1.51
   8 -10  -8    1.49    1.59
   8 -10  -8    2.35    1.35
  -8 -10   8    4.38    1.26
   8 -10  -7    9.23    2.97
  -8 -10   7   10.41    2.24
   8 -10  -7   12.17    2.64
   8  10  -7   11.09    2.04
   8 -10  -7    9.99    2.06
  -8 -10   7   11.11    1.77
   8 -10  -6   32.52    3.34
   8 -10  -6   28.68    3.85
  -8 -10   6   31.03    3.09
   8  10  -6   27.93    3.28
   8 -10  -6   36.77    5.35
   8 -10  -5  210.26   12.92
   8 -10  -5  199.88   13.54
   8  10  -5  200.40   12.54
   8 -10  -5  204.40   12.55
  -8 -10   5  203.41   12.24
   8  10  -5  222.31   13.10
   8 -10  -5  222.93   15.60
   8  10  -4   51.66    4.70
   8 -10  -4   59.31    4.84
   8 -10  -4   55.54    5.36
   8  10  -4   52.80    4.66
   8 -10  -4   63.87    4.83
  -8 -10   4   57.16    4.57
   8 -10  -4   42.42    5.95
   8  10  -3   11.97    2.13
   8 -10  -3   10.23    1.94
   8 -10  -3   13.95    2.68
   8  10  -3    8.12    1.96
   8 -10  -3   11.19    2.04
  -8 -10   3   11.06    2.10
   8 -10  -3   17.81    3.76
   8  10  -2   14.49    2.47
   8  10  -2   19.07    2.58
   8 -10  -2   19.38    2.63
   8 -10  -2   17.53    3.12
   8 -10  -2   21.85    2.74
  -8 -10   2   18.63    2.68
   8 -10  -2   12.61    3.47
   8 -10  -1   63.87    5.25
   8 -10  -1   65.91    5.93
   8  10  -1   67.35    5.41
   8 -10  -1   66.29    5.28
   8 -10  -1   65.96    7.34
   8  10  -1   64.10    5.23
   8  10   0   24.60    2.89
   8 -10   0   25.75    2.95
   8 -10   0   26.04    3.01
   8 -10   0   15.60    3.02
   8  10   0   23.70    3.79
   8 -10   0   21.07    4.23
   8  10   0   22.77    3.01
   8  10   1   16.22    2.70
   8  10   1   15.76    2.42
   8 -10   1   18.31    2.54
   8 -10   1   13.81    2.78
   8 -10   1   15.72    3.88
   8  10   1   20.61    3.43
   8  10   2    0.65    1.20
   8 -10   2    0.32    1.35
   8 -10   2    2.32    1.77
   8 -10   2    4.25    2.50
   8  10   2    1.11    1.88
   8  10   3   89.92    6.72
   8 -10   3   88.17    6.70
   8 -10   3   88.71    7.38
   8  10   3  103.32    8.51
   8  10   4   97.56    7.10
   8 -10   4   93.68    7.03
   8 -10   4  101.97    7.85
   8  10   4   93.80    8.51
   8  10   5  200.65   12.69
   8 -10   5  204.05   12.72
   8 -10   5  197.69   13.19
   8  10   5  202.70   14.50
   8  10   6    5.70    1.85
   8 -10   6    4.26    1.94
   8 -10   6    7.96    2.24
   8  10   7    2.87    1.79
   8 -10   7    5.78    2.03
   8 -10   7    5.28    2.16
   8  10   8   39.45    4.95
   8  10   8   28.38    3.89
   8 -10   8   33.45    4.11
   8 -10   8   42.38    4.45
   8  10   9   45.97    5.35
   8  10   9   53.25    5.18
   8 -10   9   56.24    5.33
   8 -10   9   39.19    4.59
   8  10  10   -1.45    1.79
   8 -10  10   -1.47    1.87
   8 -10  10    1.29    1.63
   8  10  11    1.55    2.15
   8 -10  11   -0.53    2.04
   8 -10  11   -0.86    1.89
   8  10  12    1.11    1.95
   8 -10  12    6.20    2.40
   8  10  13   70.28    7.07
   8 -10  13   72.95    7.09
   8  10  14   35.33    5.07
   8 -10  14   32.81    4.89
   8  10  15   -0.67    2.56
   8 -10  15    2.73    2.72
   8  10  16   10.72    3.44
   8 -10  16   15.99    3.96
   8  10  17    8.34    3.32
   8 -10  17   11.62    3.81
  -8 -11  21   -0.60    2.37
  -8 -11  15    6.79    2.42
  -8 -11  14    0.88    1.68
  -8 -11  13   53.77    5.31
   8 -11 -12   10.76    3.55
  -8 -11  12    9.47    2.37
  -8 -11  11   14.96    2.80
   8 -11 -11   10.81    3.38
  -8 -11  10   25.72    3.63
   8 -11 -10   26.59    4.89
   8  11 -10   28.58    3.24
   8 -11 -10   29.42    3.28
   8 -11  -9   87.92    7.95
   8  11  -9  106.64    7.18
   8 -11  -9   96.22    6.93
  -8 -11   9   95.46    7.69
   8 -11  -9  112.64    9.97
   8 -11  -8    1.66    2.23
   8  11  -8    1.20    1.35
  -8 -11   8   -0.42    1.71
   8 -11  -8    0.58    1.30
   8 -11  -8   -0.52    1.52
   8 -11  -7   23.45    5.02
  -8 -11   7   22.34    3.33
   8  11  -7   21.55    2.85
   8 -11  -7   25.17    2.89
   8 -11  -7   28.67    3.92
  -8 -11   6   -0.42    1.53
   8  11  -6   -0.35    1.39
   8 -11  -6    0.33    1.27
   8 -11  -6    1.48    1.62
   8  11  -6   -1.11    1.54
   8 -11  -6    0.81    1.17
  -8 -11   6    0.23    1.05
   8 -11  -6   -0.84    2.24
   8  11  -5    4.32    1.68
   8 -11  -5    3.84    1.62
   8 -11  -5    4.87    2.03
   8  11  -5    5.82    1.69
   8 -11  -5    2.98    1.45
  -8 -11   5    4.29    1.50
   8 -11  -5    1.67    2.25
   8  11  -4    0.95    1.37
   8 -11  -4    4.36    2.01
   8 -11  -4   -0.31    1.31
  -8 -11   4   -0.80    1.35
   8  11  -4   -0.28    1.23
   8 -11  -4   -0.84    2.24
   8 -11  -4    0.55    1.40
   8  11  -3    1.41    1.44
   8  11  -3    1.84    1.46
   8 -11  -3    6.66    1.75
   8 -11  -3    3.28    1.65
   8 -11  -3    2.88    1.69
  -8 -11   3    5.19    1.67
   8 -11  -3    5.89    2.77
   8 -11  -2   28.81    3.03
   8  11  -2   19.91    2.76
   8 -11  -2   20.86    3.38
   8  11  -2   20.56    2.71
   8 -11  -2   26.65    2.97
   8 -11  -2   18.03    4.28
   8  11  -1   -0.88    1.76
   8  11  -1   -0.30    1.38
   8 -11  -1   -0.29    1.32
   8 -11  -1    1.88    1.70
   8 -11  -1   -0.57    1.61
   8 -11  -1   -1.73    2.43
   8 -11   0   -0.58    1.42
   8  11   0   -0.30    1.32
   8 -11   0    1.48    1.33
   8 -11   0   -0.94    1.87
   8 -11   0   -0.87    2.33
   8  11   0    0.60    1.60
   8 -11   1  156.37   10.34
   8  11   1  158.95   10.36
   8 -11   1  170.13   10.48
   8 -11   1  175.28   11.49
   8  11   1  165.20   12.10
   8 -11   1  149.52   13.14
   8  11   1  169.62   10.58
   8  11   2   44.12    4.11
   8 -11   2   51.51    4.31
   8 -11   2   37.22    4.67
   8 -11   2   41.48    6.15
   8  11   2   42.95    5.46
   8  11   3   17.94    2.67
   8 -11   3   15.06    2.47
   8 -11   3   21.42    3.28
   8 -11   3   15.71    4.10
   8  11   3   18.85    3.76
   8  11   4  221.58   13.51
   8 -11   4  235.89   13.60
   8 -11   4  190.24   13.98
   8  11   4  228.68   15.63
   8  11   5    2.12    1.45
   8 -11   5    1.07    1.52
   8 -11   5    6.03    2.19
   8  11   6   34.17    5.15
   8  11   6   34.63    3.80
   8 -11   6   33.23    3.94
   8 -11   6   30.48    4.01
   8  11   7    0.60    2.32
   8  11   7    0.40    1.69
   8 -11   7   -0.40    1.74
   8 -11   7    0.45    1.52
   8  11   8    5.70    2.73
   8  11   8    9.30    2.50
   8 -11   8   11.11    2.47
   8 -11   8    8.50    2.35
   8  11   9   82.47    7.46
   8 -11   9   97.06    7.84
   8  11  10   -0.48    1.96
   8 -11  10    0.49    1.90
   8 -11  10    0.44    1.78
   8  11  11    3.60    2.29
   8 -11  11    3.16    2.11
   8 -11  11    8.62    2.36
   8  11  12   -0.55    2.09
   8 -11  12   -0.56    2.56
   8 -11  12   -0.44    1.70
   8  11  13    0.59    2.06
   8 -11  13    2.40    2.23
   8  11  14    1.88    2.33
   8 -11  14    1.91    2.36
   8  11  15   11.98    3.45
   8 -11  15   12.86    3.69
   8  11  16    0.71    2.47
   8 -11  16    0.72    2.74
   8  11  17    9.01    3.45
   8 -11  17    6.88    3.33
  -8 -12  13   11.21    2.83
   8 -12 -12    0.89    2.27
  -8 -12  12    0.97    1.92
   8 -12 -11  125.51   11.79
  -8 -12  11  130.28    9.69
  -8 -12  10    1.92    1.78
   8 -12 -10    3.59    2.95
   8 -12 -10    2.80    2.07
   8  12 -10    1.41    1.46
  -8 -12   9   17.61    3.16
   8 -12  -9   17.91    4.30
   8 -12  -9   11.92    2.78
   8  12  -9   13.46    2.33
   8 -12  -8   40.99    5.15
   8  12  -8   49.07    4.27
  -8 -12   8   48.87    5.21
   8 -12  -7    9.95    3.38
   8  12  -7    7.60    1.96
  -8 -12   7    8.68    2.35
   8  12  -7    7.56    1.98
   8 -12  -7    9.30    1.93
   8 -12  -7    8.30    2.57
  -8 -12   6    5.33    2.30
   8  12  -6    1.62    1.33
   8  12  -6    2.59    1.44
   8 -12  -6    3.93    1.53
   8 -12  -6    2.04    1.89
   8 -12  -6    2.71    2.43
   8 -12  -5    0.87    1.15
   8  12  -5   -0.92    1.35
   8 -12  -5    2.50    1.95
   8  12  -5   -0.52    1.43
   8 -12  -5    0.90    2.30
   8  12  -4   51.38    4.45
   8  12  -4   63.31    4.77
   8 -12  -4   43.70    5.20
   8 -12  -4   60.75    4.66
  -8 -12   4   47.63    4.45
   8 -12  -4   55.70    7.19
   8 -12  -3  106.74    8.21
   8  12  -3  102.84    7.09
   8 -12  -3   98.33    6.94
   8  12  -3   99.24    6.96
   8 -12  -3   97.27    9.86
   8  12  -2   -1.87    1.67
   8  12  -2    0.85    1.20
   8 -12  -2    1.35    1.08
   8 -12  -2   -0.97    1.75
   8 -12  -2   -0.91    2.57
   8  12  -1   37.92    3.62
   8 -12  -1   41.94    3.64
   8 -12  -1   27.00    4.03
   8  12  -1   38.42    3.71
   8 -12  -1   47.30    6.44
   8  12   0    0.57    1.74
   8  12   0    3.99    1.43
   8 -12   0    3.05    1.31
   8 -12   0    0.96    1.52
   8 -12   0    0.93    2.25
   8 -12   1   39.20    4.69
   8  12   1   41.94    3.95
   8 -12   1   45.17    4.01
   8  12   1   43.15    4.07
   8  12   1   44.21    5.65
   8 -12   1   40.48    6.36
   8  12   2   30.54    3.27
   8 -12   2   31.88    3.24
   8 -12   2   30.98    4.13
   8 -12   2   32.57    5.61
   8  12   2   27.07    3.31
   8  12   3   39.45    3.85
   8 -12   3   43.18    4.83
   8 -12   3   35.91    3.72
   8 -12   3   34.11    5.82
   8  12   4   17.31    2.64
   8 -12   4   14.40    2.49
   8 -12   4   19.72    3.26
   8 -12   4    9.93    3.95
   8  12   5    5.62    1.73
   8 -12   5    5.55    1.84
   8 -12   5    4.27    2.07
   8 -12   5    8.11    3.35
   8  12   6    4.78    1.91
   8 -12   6    3.68    1.72
   8 -12   6    4.67    2.04
   8  12   7    2.33    1.60
   8 -12   7    5.48    2.11
   8 -12   8   41.36    4.54
   8  12   8   39.02    4.45
   8 -12   8   39.60    4.55
   8  12   9   18.19    3.01
   8 -12   9   11.66    2.69
   8 -12   9   15.76    3.01
   8  12  10    5.25    2.18
   8 -12  10    9.18    2.53
   8 -12  10   11.10    2.62
   8  12  11    7.15    2.38
   8 -12  11   10.85    2.64
   8 -12  11   10.95    2.46
   8  12  12   -1.10    2.03
   8 -12  12   -0.55    2.52
   8 -12  12    1.75    1.78
   8  12  13   -0.58    2.15
   8 -12  13   -0.59    2.24
   8  12  14   -1.24    2.74
   8  12  15   56.45    6.55
   8  12  16    7.06    3.41
   8  12  17    0.75    2.61
  -8 -13  12   -0.54    2.09
   8 -13 -12   -0.95    2.81
  -8 -13  11    2.67    2.53
   8 -13 -11    0.96    2.58
   8 -13 -11    3.59    2.27
  -8 -13  10   15.47    3.34
   8 -13 -10   17.31    4.38
   8 -13 -10   11.04    2.83
  -8 -13   9   18.11    3.49
   8 -13  -9   16.34    4.50
   8 -13  -9   21.92    3.79
   8 -13  -8    3.86    3.07
  -8 -13   8    5.90    2.20
   8  13  -8    3.00    1.54
   8 -13  -8    6.61    2.39
   8 -13  -7    2.91    2.73
  -8 -13   7    0.54    2.06
   8  13  -7    6.25    1.79
   8 -13  -7    5.89    2.28
   8 -13  -6    0.97    2.74
  -8 -13   6    1.09    1.90
   8  13  -6    0.29    1.22
   8 -13  -6   -0.27    1.09
   8 -13  -6    0.52    1.94
   8  13  -5    0.56    1.29
   8 -13  -5   -0.26    1.14
   8 -13  -5    0.51    1.64
   8 -13  -5   -1.94    2.33
   8  13  -4    0.54    1.22
   8 -13  -4    0.25    1.25
   8 -13  -4   -1.02    1.73
   8 -13  -4   -1.94    2.33
   8 -13  -3   11.19    1.88
   8  13  -3    7.92    1.82
   8 -13  -3    7.55    2.38
   8 -13  -3    6.81    3.81
   8  13  -2   14.89    2.21
   8 -13  -2   10.77    1.91
   8 -13  -2   11.91    2.77
   8 -13  -2    9.78    3.48
   8  13  -1    4.74    1.54
   8 -13  -1    5.45    1.54
   8 -13  -1    3.45    1.89
   8 -13  -1    6.95    3.27
   8  13   0   -0.27    1.39
   8 -13   0    2.27    1.27
   8 -13   0    3.90    2.27
   8 -13   0    3.00    2.81
   8 -13   1   47.91    5.17
   8  13   1   47.77    4.21
   8 -13   1   50.84    4.29
   8 -13   1   56.37    7.39
   8  13   2    0.28    1.25
   8 -13   2    2.19    1.32
   8 -13   2   -0.49    1.82
   8 -13   2   -1.01    2.85
   8  13   3    1.80    1.35
   8 -13   3    5.59    1.64
   8 -13   3    1.48    1.79
   8 -13   3    4.11    2.76
   8  13   4    3.48    1.52
   8 -13   4    8.95    1.93
   8 -13   4    5.91    2.23
   8 -13   4    7.31    3.33
   8  13   5    1.67    1.56
   8 -13   5    3.40    2.07
   8 -13   5    2.12    2.85
   8  13   6    9.25    2.20
   8 -13   6   11.47    2.74
   8 -13   6   12.93    4.22
   8  13   7   31.93    3.78
   8 -13   7   24.78    3.75
   8 -13   8   52.39    5.13
   8  13   8   37.55    4.47
   8  13   9    2.64    1.75
   8 -13   9    0.46    1.91
   8  13  10   26.89    3.97
   8 -13  10   25.57    3.78
   8  13  11    2.02    1.92
   8 -13  11    3.11    2.07
   8  13  12    3.24    2.45
   8 -13  12   10.10    2.58
   8 -14 -12   49.76    7.40
   8 -14 -11   -1.02    3.01
  -8 -14  10    1.17    2.10
   8 -14 -10    2.05    2.76
   8 -14  -9    3.08    2.76
  -8 -14   9    0.59    2.18
   8 -14  -9    5.25    2.38
  -8 -14   8    4.13    2.30
   8  14  -8    3.83    1.50
   8 -14  -8    0.57    1.81
  -8 -14   7    8.33    2.84
   8  14  -7   12.40    2.12
   8 -14  -7    7.74    2.80
  -8 -14   6   43.04    5.70
   8 -14  -6   51.72    5.65
   8  14  -6   50.86    4.33
   8  14  -5   17.08    2.31
   8 -14  -5   13.74    3.12
   8 -14  -5   15.60    4.74
   8  14  -4    9.40    1.87
   8 -14  -4    7.32    2.43
   8 -14  -4    7.28    3.87
   8  14  -3   37.02    3.46
   8 -14  -3   37.12    4.66
   8 -14  -3   41.34    6.61
   8 -14  -2    1.52    1.55
   8  14  -2   -0.47    1.60
   8 -14  -2    3.13    2.94
   8 -14  -1    8.07    2.44
   8  14  -1    5.50    1.64
   8 -14  -1    3.15    2.84
   8 -14   0   -1.49    1.74
   8  14   0    1.71    1.17
   8 -14   0    3.19    2.99
   8 -14   1    4.48    2.25
   8  14   1    3.80    1.32
   8 -14   1    4.28    3.15
   8  14   2  111.98    7.27
   8 -14   2  130.22   11.91
   8  14   3    1.13    1.52
   8 -14   3    0.50    1.91
   8 -14   3   -1.08    2.75
   8 -14   4   10.05    2.67
   8 -14   4    6.58    3.63
   8 -14   5    4.97    2.24
   8 -14   5    1.11    2.83
   8 -14   6   17.55    3.22
   8 -14   6   16.76    4.54
   8 -14   7   -0.48    1.76
   8 -14   8   -1.41    2.03
   8 -14   9    5.12    2.21
   8 -14  10    0.45    1.76
   8 -15  -9    5.45    3.60
   8 -15  -8   -1.09    2.78
  -8 -15   8    1.28    2.44
   8 -15  -7   -1.10    3.35
  -8 -15   7    2.58    2.26
   8 -15  -6   13.27    4.07
  -8 -15   6   19.49    3.79
   8 -15  -5   14.37    4.24
   8 -15  -5   10.86    2.87
   8 -15  -4   44.56    5.16
   8 -15  -4   51.94    7.59
   8 -15  -3    0.53    1.85
   8 -15  -3    4.41    3.25
   8 -15  -2    8.31    2.57
   8 -15  -2    7.74    3.89
   8 -15  -1   18.00    3.34
   8 -15  -1   13.38    4.42
   8 -15   0    2.54    1.78
   8 -15   0    4.47    3.00
   8 -15   1   14.22    3.00
   8 -15   1   11.35    4.36
   8 -15   2   37.61    4.83
   8 -15   2   52.31    7.47
   8 -15   3    9.22    2.65
   8 -15   4   -0.51    1.79
   8 -15   5    4.56    2.44
   8 -15   6    1.49    1.97
   8 -15   7    1.45    1.88
   8 -15   8    1.42    2.17
   8 -15   9   -1.41    2.00
   8 -16   1    5.18    2.30
   8 -16   2    4.66    2.34
   8 -16   3   10.43    2.88
   8 -16   4    9.36    2.80
   8 -16   5   19.53    3.60
   8 -16   6   -1.00    1.91
   8 -16   7    1.96    2.28
   9   0 -22    2.91    1.58
  -9   0  22    1.37    2.25
   9   0 -21   -0.32    1.47
  -9   0  21   -3.98    2.93
   9   0 -20   90.10    6.78
  -9   0  20   95.23    8.59
  -9   0  19    1.25    1.76
   9   0 -19   -0.32    1.38
   9   0 -18   12.98    2.31
  -9   0  18   18.77    3.48
  -9   0  18   12.19    2.17
   9   0 -17   -0.63    1.29
  -9   0  17    0.59    2.19
  -9   0  17    0.29    1.09
  -9   0  16   34.59    4.46
   9   0 -16   33.67    3.47
  -9   0  16   24.07    2.90
   9   0 -15    0.94    1.38
  -9   0  15   -0.23    1.03
  -9   0  15   -1.69    1.97
   9   0 -14    4.01    1.56
  -9   0  14    1.35    0.97
   9   0 -13    1.54    1.20
   9   0 -12  182.94   11.40
   9   0 -11    0.30    1.15
   9   0 -10  139.52    9.62
   9   0 -10  140.03    9.14
   9   0  -9   -0.77    1.34
   9   0  -9   -0.30    1.14
   9   0  -8   31.18    3.31
   9   0  -8   38.35    3.89
   9   0  -7    0.90    1.02
   9   0  -7    0.37    1.34
   9   0  -6   44.10    4.30
  -9   0   6   40.12    3.93
   9   0  -6   41.44    3.83
   9   0  -5    0.37    1.29
  -9   0   5   -3.10    1.39
   9   0  -5   -0.31    1.05
   9   0  -4    1.85    1.37
  -9   0   4    1.84    1.28
   9   0  -4    0.62    1.06
   9   0  -4    2.22    0.71
  -9   0   3    0.31    1.11
   9   0  -3    0.37    1.26
   9   0  -3   -0.17    0.59
   9   0  -3    0.95    0.76
   9   0  -2    1.20    1.07
  -9   0   2    2.76    1.30
   9   0  -2    0.32    0.99
   9   0  -1   -0.39    1.06
  -9   0   1    0.92    1.17
   9   0  -1    0.33    0.92
   9   0   0   24.15    3.12
  -9   0   0   24.06    2.96
   9   0   0   29.72    3.16
   9   0   1    1.56    1.19
  -9   0  -1   -0.32    1.22
   9   0   2  162.08    9.92
  -9   0  -2  122.36    9.05
   9   0   3    0.80    1.27
  -9   0  -3    0.34    1.18
   9   0   4   90.69    7.20
  -9   0  -4   98.65    7.08
   9   0   5   -1.67    1.28
   9   0   6   16.89    2.74
   9   0   7    2.25    1.38
   9   0   8  137.79    9.88
   9   0   9   -0.49    1.54
   9   0  10   97.68    7.92
   9   0  11   -0.54    1.66
   9   0  12   57.66    5.94
   9   0  13   -3.02    2.35
   9   0  14   56.61    6.19
   9   0  15    2.02    2.22
   9   0  16   12.80    3.48
   9   0  17   -0.75    2.64
   9   0  18   21.62    4.59
   9  -1 -23   10.29    2.33
   9  -1 -22    5.11    1.88
  -9  -1  22    8.21    2.92
  -9  -1  21   -0.66    2.18
   9  -1 -21    0.36    1.54
   9   1 -21    0.85    1.29
  -9  -1  20   34.80    5.26
   9  -1 -20   37.93    4.01
   9   1 -20   35.25    3.60
   9  -1 -19   50.88    4.84
  -9  -1  19   45.02    5.93
   9   1 -19   58.24    4.66
  -9   1  19   57.54    5.29
   9  -1 -18   25.78    3.19
   9   1 -18   24.44    2.91
  -9  -1  18   26.10    4.17
  -9   1  18   25.76    3.40
  -9  -1  18   26.79    3.07
   9  -1 -17    1.37    1.40
   9   1 -17    1.97    1.28
  -9  -1  17   -0.59    1.88
  -9   1  17    0.68    1.39
  -9  -1  17    1.27    1.08
  -9  -1  16   27.72    3.93
   9  -1 -16   20.80    2.84
   9   1 -16   19.59    2.54
  -9   1  16   20.00    2.75
  -9  -1  16   17.04    2.16
  -9  -1  15   93.00    8.21
   9  -1 -15  105.26    7.29
   9   1 -15  106.56    6.96
  -9   1  15   94.12    6.87
  -9  -1  15   95.37    6.17
  -9  -1  14   11.51    2.79
   9  -1 -14   10.01    2.08
   9   1 -14   11.92    2.01
  -9  -1  14    7.85    1.17
  -9   1  14    9.48    1.70
   9  -1 -13   60.69    5.20
   9   1 -13   66.78    5.04
   9  -1 -12  339.70   19.45
   9   1 -12  331.38   18.97
   9  -1 -11   40.14    4.06
   9   1 -11   49.89    4.05
   9  -1 -10   24.81    2.96
   9   1 -10   23.78    2.68
   9  -1 -10   19.91    2.98
   9  -1  -9    0.38    1.38
   9  -1  -9   -0.33    0.96
   9   1  -9   -0.28    0.92
   9  -1  -8  166.84   10.70
   9   1  -8  162.61   10.38
   9  -1  -8  173.32   11.04
  -9  -1   7   92.20    6.57
   9  -1  -7   87.18    6.56
   9   1  -7   87.85    6.36
   9  -1  -7   93.37    6.93
   9  -1  -6  116.49    8.22
  -9  -1   6  107.96    7.73
   9  -1  -6  108.21    7.84
   9   1  -6  122.29    7.85
   9  -1  -6  116.02    6.80
  -9   1   5   98.13    7.26
  -9  -1   5   94.97    7.06
   9  -1  -5  102.14    7.52
   9  -1  -5  106.02    7.39
   9   1  -5  106.69    7.20
   9  -1  -5  106.20    6.43
   9  -1  -4    8.13    1.87
  -9   1   4    4.87    1.60
  -9  -1   4    5.00    1.50
   9  -1  -4    7.17    1.77
   9   1  -4    3.94    1.34
   9  -1  -4    4.48    1.09
   9  -1  -3    0.37    1.22
  -9   1   3    0.64    1.12
  -9  -1   3    0.59    1.22
   9  -1  -3   -0.33    1.09
   9  -1  -3    1.14    0.84
   9   1  -3    0.31    0.98
   9  -1  -2  200.78   12.68
  -9   1   2  189.80   12.13
  -9  -1   2  187.40   11.92
   9  -1  -2  195.78   12.20
   9   1  -2  206.36   12.24
   9  -1  -1  111.53    8.05
  -9   1   1  111.80    7.71
  -9  -1   1   94.26    7.34
   9  -1   0    1.56    1.14
  -9   1   0    1.93    1.23
  -9  -1   0   -0.31    1.16
   9  -1   1    8.21    1.96
  -9   1  -1    8.11    1.80
  -9  -1  -1   11.20    2.05
   9  -1   2   16.24    2.56
  -9   1  -2   17.82    2.54
  -9  -1  -2   14.01    2.29
   9  -1   3   61.53    5.26
  -9   1  -3   53.92    4.87
  -9  -1  -3   59.79    5.00
   9  -1   4  161.55   10.38
  -9  -1  -4  141.61    9.79
   9  -1   5    2.92    1.47
  -9  -1  -5    4.12    1.55
   9  -1   6   90.08    7.22
   9  -1   7    3.14    1.44
   9  -1   8   29.19    3.74
   9  -1   9    1.46    1.65
   9  -1  10   45.00    4.89
   9  -1  12   54.16    5.76
   9  -1  13   37.98    5.02
   9  -1  14    0.63    2.09
   9  -1  15  114.91    9.82
   9  -1  16   66.23    7.28
   9  -1  17   -1.51    2.64
   9  -1  18    4.81    2.82
   9  -2 -24   50.72    5.13
   9  -2 -23   10.28    2.50
   9  -2 -22    1.63    1.80
  -9  -2  22    2.74    2.78
  -9   2  22   -1.36    2.71
  -9  -2  21    1.99    2.40
  -9   2  21    5.28    2.75
   9  -2 -21    3.64    1.86
   9   2 -21    3.83    1.42
  -9  -2  20    1.29    2.39
  -9   2  20   -0.64    2.18
   9  -2 -20    3.20    1.83
   9   2 -20   -0.23    1.34
   9  -2 -19    6.68    2.02
  -9  -2  19    3.13    2.21
  -9   2  19    7.47    2.86
   9   2 -19    7.28    1.69
  -9   2  19    3.96    2.00
   9  -2 -18    8.13    2.14
  -9  -2  18    1.82    1.94
   9   2 -18    3.56    1.31
  -9   2  18    4.83    2.41
  -9   2  18    4.13    1.80
  -9  -2  18    3.69    1.56
   9  -2 -17    8.40    2.13
   9   2 -17    7.45    1.67
  -9   2  17    7.35    2.11
  -9  -2  17    5.93    2.22
  -9  -2  17    6.35    1.46
  -9   2  17    9.43    2.77
  -9   2  16   54.66    5.77
   9  -2 -16   51.94    4.82
  -9  -2  16   41.68    5.33
   9   2 -16   47.54    4.03
  -9   2  16   52.09    4.79
  -9  -2  16   50.18    3.75
   9  -2 -15   35.53    3.81
  -9   2  15   32.01    4.40
  -9  -2  15   46.29    5.00
   9   2 -15   38.61    3.26
  -9  -2  15   28.70    2.41
  -9   2  15   28.80    3.43
  -9  -2  14  145.15   10.03
   9  -2 -14  113.30    8.44
   9   2 -14  123.00    7.91
  -9   2  14  133.49    9.71
  -9   2  14  115.16    8.33
   9  -2 -13  178.32   11.36
   9   2 -13  171.47   10.56
   9  -2 -12    0.36    1.17
   9   2 -12    0.26    1.04
   9  -2 -11    5.67    1.74
   9   2 -11    8.52    1.67
   9  -2 -10    0.35    1.35
   9   2 -10    1.04    1.17
   9  -2 -10    2.67    1.41
   9  -2  -9   61.53    5.26
   9   2  -9   65.12    5.56
   9  -2  -9   59.32    5.43
   9   2  -9   66.89    4.96
  -9  -2   8   11.41    2.17
   9   2  -8   12.30    2.38
   9  -2  -8   16.76    2.70
   9  -2  -8    8.84    1.97
   9   2  -8   13.10    2.06
   9  -2  -7    1.94    1.05
  -9  -2   7   -0.28    1.32
   9  -2  -7    1.76    1.30
   9   2  -7    0.74    1.44
   9  -2  -7    1.48    1.25
   9   2  -7   -0.55    1.10
   9   2  -6  299.61   17.97
   9  -2  -6  306.70   18.00
  -9  -2   6  301.48   17.38
   9  -2  -6  284.49   17.68
   9   2  -6  280.84   17.25
   9  -2  -6  335.05   17.16
  -9  -2   5   42.28    3.94
   9   2  -5   51.71    4.53
   9  -2  -5   43.06    4.25
   9  -2  -5   48.43    4.32
   9   2  -5   45.96    4.01
   9  -2  -5   40.66    3.64
  -9   2   4   -0.34    1.16
  -9  -2   4    1.41    1.20
   9  -2  -4    1.73    1.31
   9  -2  -4    0.26    0.96
   9   2  -4    1.85    1.18
   9  -2  -4    1.11    1.04
  -9   2   3  237.58   14.19
  -9  -2   3  225.96   13.78
   9  -2  -3  243.81   14.27
   9   2  -3  215.44   14.21
   9  -2  -3  232.24   14.34
   9  -2  -3  238.71   13.87
   9  -2  -2    3.59    1.44
  -9   2   2    0.34    1.46
  -9  -2   2    1.19    1.16
   9  -2  -2    0.35    0.98
   9   2  -1  213.21   13.03
   9  -2  -1  195.16   12.81
  -9   2   1  199.72   12.58
  -9  -2   1  200.38   12.35
   9   2   0   43.39    4.14
   9  -2   0   35.82    3.93
  -9   2   0   37.78    3.92
  -9  -2   0   39.68    3.81
   9   2   1    1.57    1.10
   9  -2   1    1.96    1.33
  -9   2  -1    0.68    1.31
  -9  -2  -1   -0.63    1.16
   9   2   2  149.55   10.53
   9  -2   2  160.16   10.74
  -9   2  -2  157.05   10.41
  -9  -2  -2  154.52   10.21
   9  -2   2  180.30   10.80
   9   2   3   15.59    2.38
   9  -2   3   12.76    2.26
  -9  -2  -3   13.73    2.32
   9  -2   3   14.05    2.39
   9   2   4  164.33   11.05
   9  -2   4  164.19   11.05
  -9  -2  -4  168.52   10.74
   9  -2   4  165.48   10.95
   9   2   5  356.39   21.04
   9  -2   5  355.60   21.00
  -9  -2  -5  356.36   20.57
   9   2   6   20.85    3.02
   9  -2   6   17.35    2.85
   9   2   7   48.81    4.84
   9  -2   7   44.18    4.69
   9   2   8   47.94    4.84
   9  -2   8   49.20    4.94
   9   2   9   36.12    4.17
   9  -2   9   23.39    3.57
   9   2  10    2.06    1.86
   9  -2  10    2.56    1.85
   9   2  11   60.81    6.25
   9  -2  11   75.25    6.66
   9   2  12   68.79    6.72
   9  -2  12   68.37    6.68
   9   2  13    7.90    2.87
   9  -2  13   13.28    2.99
   9   2  14   34.53    4.90
   9  -2  14   34.91    4.87
   9   2  15   83.30    8.26
   9  -2  15   84.65    8.05
   9   2  16   -0.72    2.51
   9  -2  16   -0.71    2.83
   9   2  17    0.76    2.75
   9  -2  17   -6.05    3.22
   9   2  18   -0.81    2.99
   9  -2  18    0.80    2.54
   9  -3 -24    4.51    2.25
   9  -3 -23    9.86    2.55
  -9  -3  22   41.73    5.90
   9  -3 -22   46.24    5.00
  -9   3  22   55.64    6.40
  -9  -3  21   41.87    5.56
  -9   3  21   38.21    5.22
   9  -3 -21   43.59    4.77
  -9  -3  20    9.04    3.18
   9  -3 -20    7.41    2.10
  -9   3  20    5.11    2.64
   9   3 -20    9.80    1.53
   9  -3 -19    0.43    1.51
  -9  -3  19   -0.63    2.31
  -9   3  19    2.48    2.35
   9   3 -19    1.12    0.98
  -9   3  19   -0.97    1.94
   9  -3 -18    2.98    1.77
  -9  -3  18   -3.05    2.37
   9   3 -18    4.50    1.21
  -9   3  18   -0.60    2.12
  -9   3  18    0.46    1.56
  -9  -3  17    1.76    1.07
  -9  -3  17    1.78    1.89
  -9   3  17    3.54    2.40
   9  -3 -17    1.68    1.71
   9   3 -17    2.04    1.11
  -9   3  17    4.36    1.85
   9  -3 -16    5.37    1.91
  -9  -3  16    5.22    2.37
  -9   3  16    8.05    2.50
   9   3 -16    4.43    1.29
  -9   3  16    7.41    2.14
  -9  -3  16    4.67    1.08
   9  -3 -15   34.08    3.98
  -9   3  15   40.97    4.77
  -9  -3  15   34.49    4.65
   9   3 -15   36.78    3.22
  -9   3  15   37.36    4.10
   9  -3 -14   12.74    2.46
  -9   3  14   12.78    2.40
   9   3 -14   10.56    1.83
   9  -3 -13   58.96    5.36
   9   3 -13   62.33    4.62
   9  -3 -12  259.29   16.31
   9   3 -12  278.80   15.51
   9  -3 -11   52.69    4.72
   9   3 -11   46.90    3.96
   9  -3 -10    9.07    2.12
   9   3 -10   14.84    2.08
  -9  -3   9   52.49    4.23
   9  -3  -9   43.54    4.49
   9   3  -9   46.74    4.62
   9  -3  -9   47.10    4.63
   9   3  -9   45.57    3.98
   9  -3  -8   93.91    6.28
  -9  -3   8   84.33    6.03
   9  -3  -8   67.72    6.24
   9   3  -8   85.60    6.66
   9  -3  -8   89.74    6.66
  -9  -3   7   32.38    3.23
   9  -3  -7   28.42    3.58
   9   3  -7   35.50    3.79
   9  -3  -7   36.90    3.77
   9  -3  -7   34.34    3.38
   9  -3  -6    1.21    1.17
   9   3  -6   -0.37    1.38
   9  -3  -6    1.11    1.37
  -9  -3   6    0.27    1.15
   9  -3  -6    1.13    1.36
  -9  -3   5    8.44    1.67
   9  -3  -5    3.00    1.51
   9   3  -5    5.54    1.70
   9  -3  -5    4.04    1.66
   9  -3  -5    3.09    1.41
  -9  -3   4  102.85    7.07
   9  -3  -4  114.51    7.78
   9   3  -4   93.47    7.38
   9  -3  -4  104.70    7.61
   9  -3  -4  100.33    7.26
  -9   3   3  145.98   10.29
  -9  -3   3  151.83    9.99
   9   3  -3  163.34   10.66
   9  -3  -3  157.55   10.52
   9  -3  -3  179.24   10.82
   9  -3  -3  161.51   10.38
   9   3  -2  333.49   20.30
  -9   3   2  333.82   20.08
   9  -3  -2  354.26   20.46
  -9  -3   2  376.42   19.91
   9   3  -2  340.65   18.60
   9   3  -1    1.36    0.96
   9   3  -1    2.39    1.17
   9  -3  -1    2.75    1.42
  -9   3   1    0.35    1.28
  -9  -3   1   -1.50    1.44
   9   3   0   17.22    2.59
   9  -3   0   17.89    2.64
  -9   3   0   14.49    2.55
  -9  -3   0   18.31    2.51
   9   3   1   78.55    6.40
  -9   3  -1   78.70    6.35
   9  -3   1   85.99    6.55
  -9  -3  -1   79.34    6.07
   9  -3   1   83.20    6.40
   9   3   2   37.60    3.89
   9  -3   2   36.35    3.89
  -9  -3  -2   31.22    3.40
   9  -3   2   29.18    3.48
   9   3   3   52.49    4.80
   9  -3   3   46.56    4.57
  -9  -3  -3   49.14    4.42
   9  -3   3   42.15    4.36
   9   3   4   60.34    5.28
   9  -3   4   52.78    5.11
  -9  -3  -4   56.17    5.01
   9  -3   4   67.91    5.42
   9   3   5  124.69    8.94
   9  -3   5  122.75    8.95
   9  -3   5  124.31    8.83
   9   3   6    1.74    1.52
   9  -3   6   -0.87    1.56
   9   3   7   -1.36    1.49
   9  -3   7    0.91    1.28
   9   3   8   29.85    3.82
   9  -3   8   30.69    3.85
   9   3   9    2.95    1.96
   9  -3   9   -0.49    1.76
   9   3  10    2.07    1.64
   9  -3  10    0.51    1.80
   9   3  11   -0.55    1.69
   9  -3  11    0.55    1.68
   9   3  12    2.31    2.09
   9  -3  12    4.02    2.07
   9   3  13    4.89    2.51
   9  -3  13   10.31    2.80
   9   3  14  128.53   10.39
   9  -3  14  124.62   10.21
   9   3  15    2.72    2.65
   9  -3  15   -4.04    2.92
   9   3  16    5.06    2.81
   9  -3  16    2.14    2.65
   9   3  17    3.85    2.93
   9  -3  17    6.08    3.10
   9   3  18   13.01    3.75
   9  -3  18   20.89    4.29
   9  -4 -25  132.33    9.97
   9  -4 -24    8.25    2.57
   9  -4 -23   36.30    4.65
  -9  -4  22   11.63    3.40
  -9   4  22   10.83    3.46
   9  -4 -22   14.88    3.04
  -9  -4  21   -1.99    2.88
   9  -4 -21    0.48    1.85
  -9   4  21   -3.28    2.84
   9  -4 -20    0.47    1.74
  -9  -4  20   -3.86    2.56
   9  -4 -19   19.44    3.29
  -9  -4  19   18.13    3.63
  -9   4  19   14.28    3.49
  -9   4  18   -0.60    1.99
   9  -4 -18   -0.46    1.97
  -9   4  18   -1.01    1.82
  -9  -4  18    1.22    1.94
  -9  -4  17    8.74    1.47
   9  -4 -17    6.29    2.16
  -9  -4  17    4.76    2.51
  -9   4  17    8.25    2.43
  -9   4  17   12.11    2.60
  -9  -4  16    0.12    0.70
  -9  -4  16    0.58    1.84
  -9   4  16   -0.57    2.07
   9  -4 -16   -0.44    1.60
  -9   4  16    0.93    1.68
   9  -4 -15   67.84    6.04
  -9  -4  15   70.87    6.64
  -9   4  15   60.44    5.95
  -9   4  15   68.04    6.58
   9  -4 -14   19.45    3.18
  -9   4  14   21.78    3.31
   9  -4 -13   -0.42    1.30
   9  -4 -12    3.34    1.63
   9  -4 -11    1.24    1.52
   9  -4 -10  160.56   10.80
  -9  -4   9  145.63    9.08
   9  -4  -9  127.84    9.59
   9   4  -9  154.74    9.93
   9  -4  -9  145.86    9.82
   9  -4  -8    7.61    2.01
   9   4  -8    9.33    2.29
   9  -4  -8    9.31    2.24
  -9  -4   8    6.14    1.63
   9  -4  -8    6.39    1.95
  -9  -4   7   77.72    5.58
   9  -4  -7   74.90    6.23
   9   4  -7   71.81    5.98
   9  -4  -7   76.46    6.08
   9  -4  -7   76.73    6.09
  -9  -4   6   74.76    5.47
   9  -4  -6   78.66    6.23
   9  -4  -6   78.68    6.06
   9   4  -6   68.46    5.91
   9  -4  -6   68.01    5.91
  -9  -4   5    2.15    1.17
   9  -4  -5    1.60    1.45
   9   4  -5    4.45    1.54
   9  -4  -5    0.73    1.08
   9  -4  -5    1.50    1.31
  -9  -4   4  251.33   14.71
   9  -4  -4  227.31   15.26
   9   4  -4  247.69   15.26
   9  -4  -4  267.71   15.37
   9  -4  -4  260.99   15.50
  -9  -4   3    0.57    1.12
   9   4  -3    3.37    1.74
   9  -4  -3    0.41    1.25
   9  -4  -3    1.85    1.44
   9   4  -2  176.89   11.51
   9  -4  -2  185.25   11.56
  -9  -4   2  170.34   10.80
   9  -4  -2  184.49   11.82
   9   4  -2  165.52    9.82
  -9   4   1   16.85    2.69
   9   4  -1   18.58    2.60
   9  -4  -1   17.17    2.50
  -9  -4   1   18.37    2.50
   9   4  -1   16.56    2.11
  -9   4   0  212.53   13.02
   9   4   0  179.95   12.71
   9  -4   0  202.41   12.96
  -9  -4   0  205.02   12.51
   9  -4   0  206.66   13.00
   9   4   0  218.04   12.32
   9   4   1  130.45    8.78
   9   4   1  137.53    9.35
   9  -4   1  128.37    9.22
  -9  -4  -1  139.49    8.97
   9  -4   1  133.37    9.29
   9   4   2   14.96    2.45
   9  -4   2   11.06    2.25
  -9  -4  -2   10.69    2.12
   9  -4   2    9.03    2.18
  -9   4  -3 1155.49   63.44
   9   4   3 1160.89   63.59
   9  -4   3 1252.53   63.82
  -9  -4  -3 1184.84   63.23
   9  -4   3 1221.59   63.69
   9   4   4    1.22    1.25
   9  -4   4   -0.41    1.25
  -9  -4  -4    1.03    1.57
   9  -4   4   -0.40    1.21
   9   4   5    0.42    1.47
   9  -4   5    2.52    1.60
   9  -4   5    0.40    1.31
   9   4   6   60.47    5.32
   9  -4   6   51.29    4.92
   9  -4   6   42.83    4.70
   9   4   7  224.72   14.10
   9  -4   7  209.35   13.96
   9   4   8   29.04    3.73
   9  -4   8   29.44    3.81
   9   4   9   12.81    2.78
   9  -4   9   12.26    2.54
   9   4  10   15.07    3.02
   9  -4  10   10.34    2.56
   9   4  11   83.38    7.11
   9  -4  11   66.52    6.59
   9   4  12   90.88    8.02
   9  -4  12   86.17    7.83
   9   4  13   74.33    6.91
   9  -4  13   56.65    6.39
   9   4  14   69.24    7.23
   9  -4  14   74.46    7.35
   9   4  15   37.55    5.22
   9  -4  15   31.23    5.06
   9   4  16   -2.18    2.76
   9  -4  16   -1.44    2.94
   9   4  17    5.43    3.04
   9  -4  17    9.97    3.40
   9  -5 -25    4.19    2.64
   9  -5 -24    9.92    3.05
   9  -5 -23    8.86    2.90
   9  -5 -22    0.52    2.06
  -9  -5  22    0.68    2.32
  -9   5  22   -0.67    2.22
   9  -5 -21    9.21    2.64
  -9  -5  21   10.58    3.44
  -9   5  21    3.93    2.81
   9  -5 -20    3.03    2.05
  -9  -5  20    2.57    2.18
  -9   5  20   -1.28    2.54
   9  -5 -19   -0.50    1.79
  -9  -5  19   -0.63    2.26
  -9   5  19   -0.62    2.36
  -9   5  18  133.63   10.64
   9  -5 -18  140.06   10.13
  -9   5  18  118.37   10.19
  -9  -5  18  148.88   10.90
  -9   5  17    4.12    2.18
   9  -5 -17    2.41    2.05
  -9  -5  17    3.56    2.37
  -9   5  17    2.15    2.09
  -9  -5  16   13.07    1.54
   9  -5 -16   19.93    3.18
  -9   5  16   14.32    3.31
  -9  -5  16   13.00    1.51
  -9   5  16   18.70    3.29
  -9  -5  16   22.57    3.81
   9  -5 -15    6.04    2.23
  -9   5  15    9.58    2.56
   9  -5 -14   -0.46    1.46
  -9   5  14    0.49    1.73
   9  -5 -13    5.88    1.94
   9  -5 -12   17.92    3.04
   9  -5 -11    2.65    1.80
  -9  -5  10   11.33    1.80
   9  -5 -10    9.97    2.31
   9  -5  -9    2.59    1.80
  -9  -5   9    2.65    1.18
   9  -5  -9    0.86    1.41
   9   5  -9    1.48    1.64
   9  -5  -9    2.59    1.57
   9   5  -8    9.30    2.29
   9  -5  -8    6.46    1.87
   9  -5  -8    7.76    2.12
  -9  -5   8    8.38    1.61
   9  -5  -8    8.90    2.08
   9  -5  -7   12.17    2.57
   9   5  -7   15.60    2.53
  -9  -5   7   13.99    2.10
   9  -5  -7   12.58    2.47
   9  -5  -7   15.07    2.52
   9  -5  -6  248.55   16.62
  -9  -5   6  281.35   15.92
   9   5  -6  280.37   16.64
   9  -5  -6  291.24   17.15
   9  -5  -6  278.13   16.58
   9   5  -5   83.71    6.34
   9  -5  -5   72.41    6.11
  -9  -5   5   72.71    5.60
   9  -5  -5   82.16    6.64
   9   5  -4    9.18    2.13
   9  -5  -4   14.51    2.40
  -9  -5   4   11.13    1.95
   9  -5  -4   12.30    2.57
   9   5  -3    4.46    1.58
   9   5  -3    3.70    1.26
   9  -5  -3    3.60    1.32
   9  -5  -3    5.51    1.66
  -9  -5   3    0.85    1.23
   9  -5  -3    0.47    1.33
   9   5  -2  228.25   15.00
   9  -5  -2  267.89   15.33
  -9  -5   2  234.43   14.38
   9  -5  -2  236.38   15.62
   9   5  -2  243.64   13.70
   9   5  -2  259.30   15.20
   9   5  -1   43.01    4.17
   9  -5  -1   39.75    4.04
   9  -5  -1   40.73    4.21
  -9  -5   1   38.90    3.74
   9   5  -1   37.09    3.43
   9   5   0  117.34    8.72
   9  -5   0  122.10    8.81
   9  -5   0  131.79    9.07
  -9  -5   0  121.06    8.36
   9   5   0  134.77    8.43
   9   5   1   47.85    4.40
   9  -5   1   40.94    4.24
   9  -5   1   37.99    4.21
  -9  -5  -1   46.30    4.10
   9   5   1   36.45    3.92
   9   5   2    0.74    1.26
   9   5   2    0.39    1.16
   9  -5   2   -0.40    1.26
   9  -5   2   -0.41    1.30
  -9  -5  -2    0.33    1.39
   9   5   3   98.48    7.23
   9  -5   3   89.60    7.05
   9  -5   3   82.68    6.96
  -9  -5  -3   91.53    6.79
   9   5   3   91.42    7.19
   9   5   4    9.73    2.35
   9   5   4   10.18    2.25
   9  -5   4   13.48    2.46
   9  -5   4   10.22    2.31
   9   5   5   58.87    5.47
   9  -5   5   57.84    5.42
   9  -5   5   64.30    5.53
   9   5   6    0.44    1.57
   9  -5   6    1.75    1.34
   9  -5   6    2.49    1.69
   9   5   7    2.26    1.40
   9  -5   7    4.51    1.72
   9  -5   7    6.34    1.88
   9   5   8   42.27    4.80
   9  -5   8   46.02    4.78
   9   5   9  159.76   11.25
   9  -5   9  156.46   11.23
   9   5  10    7.88    2.52
   9  -5  10    9.44    2.59
   9   5  11   16.80    3.42
   9  -5  11   18.88    3.42
   9   5  12    3.51    2.33
   9  -5  12    2.32    2.42
   9   5  13   30.17    4.39
   9  -5  13   29.94    4.69
   9   5  14    3.26    2.48
   9  -5  14    3.88    2.86
   9   5  15   18.63    4.09
   9  -5  15   36.33    5.17
   9   5  16    7.33    3.22
   9  -5  16   15.95    3.79
   9   5  17   -2.33    2.47
   9  -5  17   -0.77    2.36
   9  -5  21   28.16    5.51
   9  -6 -25   10.59    3.22
   9  -6 -24   -0.56    2.17
   9  -6 -23    9.97    2.83
   9  -6 -22   17.57    3.38
  -9   6  22   17.47    3.93
   9  -6 -21    1.09    1.90
  -9  -6  21   -2.65    2.75
  -9   6  21   -1.31    3.10
  -9   6  20   -1.27    2.48
   9  -6 -20    0.54    2.04
  -9  -6  20   -0.64    2.50
   9  -6 -19   13.76    2.97
  -9  -6  19   10.01    2.97
  -9   6  19   11.17    3.13
   9  -6 -18   19.33    3.45
  -9  -6  18   20.10    3.71
  -9   6  18   16.93    3.50
   9  -6 -17   23.13    3.67
  -9   6  17   24.09    4.02
  -9  -6  17   30.25    4.44
  -9  -6  17   21.42    2.37
  -9   6  17   27.64    4.17
   9  -6 -16   15.65    3.18
  -9   6  16   22.33    3.81
  -9  -6  16   12.97    1.74
   9  -6 -15    2.48    1.74
  -9   6  15    1.69    1.85
  -9  -6  15    1.94    0.64
   9  -6 -14    7.78    2.30
   9  -6 -13   15.75    3.03
   9  -6 -12   12.71    2.67
   9  -6 -11   17.23    2.96
   9  -6 -10    5.49    1.97
  -9  -6  10    7.36    1.51
   9  -6 -10    6.90    2.02
   9  -6  -9   -0.50    1.64
  -9  -6   9    1.62    1.11
   9  -6  -9    4.08    1.72
   9   6  -9   -0.37    1.55
   9  -6  -9    1.45    1.31
   9  -6  -8    4.98    1.91
   9  -6  -8    6.72    2.10
  -9  -6   8    6.18    1.59
   9   6  -8    9.18    2.20
   9  -6  -8    3.65    1.83
   9  -6  -7  255.28   17.46
  -9  -6   7  275.24   16.44
   9   6  -7  310.52   17.49
   9  -6  -7  315.77   17.50
   9  -6  -7  308.96   18.39
  -9  -6   6   38.50    3.58
   9   6  -6   39.96    4.11
   9  -6  -6   40.81    4.13
   9  -6  -6   39.34    4.69
   9   6  -5   -0.37    1.49
   9  -6  -5    1.81    1.44
  -9  -6   5    1.62    1.25
   9  -6  -5   -1.52    1.49
   9   6  -4  125.23    8.25
   9  -6  -4  110.99    8.02
  -9  -6   4  108.16    7.51
   9  -6  -4  100.72    8.59
   9   6  -3    6.16    1.74
   9  -6  -3    9.22    1.92
   9  -6  -3    4.00    1.91
   9   6  -3    6.62    1.85
  -9  -6   3    6.76    1.65
   9  -6  -3    5.07    1.71
   9  -6  -3    4.79    2.00
   9   6  -2   50.32    4.72
   9  -6  -2   46.38    4.50
   9   6  -2   54.82    4.79
   9  -6  -2   48.30    4.80
   9  -6  -2   49.22    4.59
  -9  -6   2   41.34    4.03
   9   6  -2   41.64    3.65
   9  -6  -2   42.08    5.01
   9   6  -1   60.39    5.53
   9  -6  -1   71.83    5.76
   9  -6  -1   74.33    6.10
  -9  -6   1   65.53    5.25
   9  -6  -1   66.33    6.59
   9   6  -1   63.46    5.10
   9   6   0    2.71    1.24
   9  -6   0    1.96    1.41
   9  -6   0    1.31    1.39
  -9  -6   0    2.50    1.46
   9   6   0    2.53    1.32
   9   6   1  272.09   16.90
   9  -6   1  290.68   17.29
   9  -6   1  283.40   16.99
  -9  -6  -1  268.99   16.47
   9   6   1  291.18   16.88
   9   6   2   16.15    2.70
   9   6   2   15.97    2.61
   9  -6   2   12.95    2.33
   9  -6   2   11.09    2.47
  -9  -6  -2   11.40    2.25
   9   6   3  188.29   11.89
   9  -6   3  176.61   11.72
   9  -6   3  170.34   11.81
   9   6   3  182.27   12.12
   9   6   4  115.98    8.55
   9  -6   4  121.50    8.63
   9  -6   4  123.47    8.80
   9   6   4  110.24    8.87
   9   6   5   12.79    2.86
   9   6   5    9.65    2.32
   9  -6   5    9.28    2.24
   9  -6   5   11.48    2.32
   9   6   6   77.65    7.21
   9   6   6   74.29    6.45
   9  -6   6   83.74    6.71
   9  -6   6   76.16    6.46
   9   6   7    5.81    2.33
   9   6   7    4.49    1.76
   9  -6   7    4.50    1.73
   9  -6   7    5.58    1.88
   9   6   8   -1.85    2.28
   9   6   8   -0.47    1.65
   9  -6   8    0.47    1.33
   9  -6   8    0.87    1.48
   9   6   9    7.45    2.21
   9  -6   9    4.97    1.82
   9   6  10   -1.06    1.74
   9  -6  10    5.31    2.11
   9   6  11   38.83    4.85
   9  -6  11   37.73    4.88
   9   6  12    0.59    1.80
   9  -6  12   -1.17    2.05
   9   6  13    5.55    2.54
   9  -6  13    8.63    2.79
   9   6  14   10.45    3.08
   9  -6  14   10.39    3.12
   9   6  15    0.69    2.20
   9  -6  15   -0.69    2.42
   9   6  16   -2.95    3.32
   9  -6  16    0.74    2.66
   9   6  17   14.88    4.19
   9  -6  17    8.55    3.14
   9  -6  20   -1.81    2.88
   9  -6  21    0.92    3.57
   9  -7 -23    4.12    2.56
   9  -7 -22    0.58    2.04
  -9   7  21   75.90    7.38
   9  -7 -21   55.44    6.35
  -9  -7  21   58.66    6.66
   9  -7 -20    1.14    2.17
  -9  -7  20    6.42    2.89
  -9   7  20    2.55    2.30
  -9   7  19    0.62    2.63
   9  -7 -19    3.92    2.28
  -9  -7  19   -0.62    2.85
   9  -7 -18    7.72    2.60
  -9   7  18   10.24    3.05
  -9  -7  18    7.89    2.66
   9  -7 -17    2.71    2.01
   9  -7 -16    4.80    2.27
  -9  -7  16    1.62    1.01
   9  -7 -15   64.46    6.03
  -9  -7  15   50.43    3.68
  -9  -7  14    9.20    1.14
   9  -7 -14   12.34    2.77
   9  -7 -13   59.98    5.84
   9  -7 -12   15.33    3.04
   9  -7 -11  135.29    9.93
   9  -7 -10   11.34    2.80
  -9  -7  10    8.61    1.59
   9  -7 -10    6.73    2.13
   9  -7  -9    7.91    2.53
   9  -7  -9   13.36    2.71
  -9  -7   9   15.48    1.98
   9  -7  -9   12.81    2.45
   9  -7  -8   77.18    6.47
   9   7  -8   73.79    5.85
   9  -7  -8   62.19    5.65
  -9  -7   8   74.42    5.20
   9  -7  -8   70.13    6.78
  -9  -7   7   45.93    3.93
   9   7  -7   47.87    4.55
   9  -7  -7   41.99    4.35
   9  -7  -7   51.26    5.59
  -9  -7   6   71.69    5.42
   9   7  -6   82.89    6.18
   9  -7  -6   66.95    5.82
   9  -7  -6   76.01    6.98
  -9  -7   5   98.67    6.79
   9  -7  -5  103.03    8.44
   9   7  -5   95.93    7.25
   9  -7  -5   97.53    7.25
   9   7  -4   25.27    3.13
   9  -7  -4   24.11    3.01
   9  -7  -4   16.43    2.92
   9   7  -4   16.35    2.72
  -9  -7   4   18.38    2.48
   9  -7  -4   23.24    2.93
   9  -7  -4   16.38    3.41
   9   7  -3  367.35   21.58
   9  -7  -3  414.53   21.83
   9  -7  -3  389.30   22.03
   9   7  -3  374.08   21.36
  -9  -7   3  341.49   20.64
   9  -7  -3  358.66   21.20
   9  -7  -3  350.12   22.67
   9   7  -2    6.71    1.79
   9   7  -2    7.81    1.87
   9  -7  -2    5.83    1.64
   9  -7  -2    6.92    1.82
   9  -7  -2    3.70    1.82
  -9  -7   2    4.17    1.48
   9  -7  -2    3.69    2.11
   9   7  -1   39.14    3.96
   9  -7  -1   38.19    3.94
   9   7  -1   47.02    4.31
   9  -7  -1   30.45    4.15
  -9  -7   1   35.24    3.69
   9   7  -1   38.71    3.78
   9  -7  -1   36.28    4.82
   9   7   0  106.21    7.68
   9  -7   0  113.01    7.85
   9  -7   0  112.44    8.23
  -9  -7   0   84.51    7.04
   9  -7   0  122.80    9.60
   9   7   0  100.90    7.52
   9   7   1  131.46    8.87
   9  -7   1  117.97    8.70
  -9  -7  -1  112.94    8.37
   9   7   1  119.80    8.84
   9   7   2   39.38    4.10
   9  -7   2   32.70    3.90
   9  -7   2   43.49    4.52
   9   7   2   50.34    4.91
   9   7   3   17.28    2.75
   9  -7   3   17.46    2.87
   9  -7   3   17.31    2.93
   9   7   3   16.62    2.96
   9   7   4    2.04    1.74
   9   7   4    4.04    1.69
   9  -7   4    4.09    1.78
   9  -7   4    1.33    1.46
   9   7   5   15.76    3.41
   9   7   5   19.23    3.01
   9  -7   5   24.03    3.17
   9  -7   5   18.64    3.06
   9   7   6   40.92    5.28
   9   7   6   46.78    4.76
   9  -7   6   45.21    4.67
   9  -7   6   43.39    4.58
   9   7   7   26.39    4.32
   9   7   7   26.49    3.63
   9  -7   7   28.90    3.86
   9  -7   7   32.77    3.93
   9   7   8   88.67    7.31
   9  -7   8   89.68    7.38
   9  -7   8   83.86    7.04
   9   7   8   90.32    8.34
   9   7   9    0.50    1.75
   9  -7   9    1.01    1.71
   9  -7   9   -0.45    1.48
   9   7  10   -0.53    1.97
   9  -7  10    1.07    1.97
   9   7  11   48.94    5.53
   9  -7  11   42.87    5.23
   9   7  12   -1.76    2.05
   9  -7  12   -0.59    2.28
   9   7  13    5.58    2.70
   9  -7  13    6.83    2.76
   9   7  14    3.94    2.50
   9  -7  14    3.95    2.74
   9   7  15   28.60    4.97
   9  -7  15   21.70    4.55
   9   7  16    0.74    2.44
   9  -7  16    2.97    2.75
   9   7  17    7.06    3.21
   9  -7  17    4.72    2.85
   9  -8 -21    3.07    2.45
  -9  -8  21    3.28    2.50
  -9   8  21    3.27    2.55
  -9  -8  20   -1.28    2.48
   9  -8 -20    0.61    2.24
  -9   8  20   -0.64    2.48
   9  -8 -19   11.91    2.97
  -9  -8  19    8.66    2.98
  -9   8  19   15.39    3.48
   9  -8 -18   -1.75    2.28
   9  -8 -17    0.57    1.95
   9  -8 -16   26.90    4.07
   9  -8 -15   29.16    4.10
  -9  -8  15   16.57    2.10
   9  -8 -14   24.34    3.85
  -9  -8  14   24.46    2.40
   9  -8 -13   19.03    3.60
  -9  -8  13   20.38    2.03
  -9  -8  12    0.12    0.72
   9  -8 -12   -2.07    1.96
   9  -8 -11  107.82    9.14
   9  -8 -11  101.02    8.28
   9  -8 -10    8.22    2.71
   9  -8 -10    6.00    2.20
  -9  -8  10    8.07    1.49
   9  -8  -9    5.68    2.15
   9  -8  -9    0.49    1.63
  -9  -8   9    4.08    1.28
   9  -8  -8    7.61    2.48
  -9  -8   8    4.87    1.37
   9   8  -8    3.86    1.75
   9  -8  -8    2.77    1.60
   9  -8  -7   91.33    6.79
  -9  -8   7   89.95    6.12
   9  -8  -7  105.76    8.52
   9   8  -6    4.93    1.94
   9  -8  -6    7.93    1.92
  -9  -8   6    5.66    1.55
   9  -8  -6    8.95    2.73
   9  -8  -5  178.45   12.26
  -9  -8   5  180.30   11.07
   9   8  -5  183.61   11.66
   9  -8  -5  175.93   11.47
   9  -8  -5  194.51   13.51
   9   8  -4    1.79    1.64
   9   8  -4    2.04    1.47
   9  -8  -4    4.00    1.44
   9  -8  -4    4.20    1.54
   9  -8  -4   -0.94    1.69
  -9  -8   4    0.28    1.29
   9  -8  -4   -0.65    1.66
   9   8  -3  281.50   17.29
   9  -8  -3  288.28   17.25
   9   8  -3  303.83   17.21
   9  -8  -3  284.06   17.71
   9  -8  -3  304.09   17.13
  -9  -8   3  266.22   16.51
   9  -8  -3  278.61   18.84
   9   8  -2   16.87    2.58
   9  -8  -2   20.27    2.69
   9  -8  -2   10.88    2.68
   9   8  -2   18.22    2.72
   9  -8  -2   20.21    2.74
  -9  -8   2   16.78    2.49
   9  -8  -2   12.84    3.26
   9   8  -1    3.79    1.48
   9  -8  -1    5.76    1.79
   9  -8  -1    6.58    1.73
   9  -8  -1    0.48    1.68
  -9  -8   1    2.20    1.42
   9   8  -1    0.36    1.40
   9  -8  -1   -0.70    1.87
   9   8  -1    4.16    1.82
   9   8   0   60.88    5.51
   9  -8   0   71.51    5.72
   9  -8   0   56.89    5.80
  -9  -8   0   69.88    5.53
   9  -8   0   67.01    7.15
   9   8   0   66.16    5.81
   9   8   1    7.53    1.87
   9  -8   1    6.48    1.94
   9  -8   1    9.50    2.34
   9   8   1    3.95    1.86
   9   8   2   86.37    6.54
   9  -8   2   72.41    6.20
   9  -8   2   83.36    6.91
   9   8   2   77.59    6.94
   9   8   3  196.17   12.84
   9  -8   3  190.01   12.81
   9  -8   3  213.08   13.43
   9   8   3  215.38   13.80
   9   8   4   29.66    3.56
   9  -8   4   21.06    3.12
   9  -8   4   25.16    3.50
   9   8   4   23.45    3.83
   9   8   5   -0.58    1.85
   9   8   5    0.83    1.62
   9  -8   5   -0.42    1.74
   9  -8   5    0.91    1.45
   9   8   6  181.92   12.07
   9  -8   6  182.52   12.07
   9  -8   6  183.14   12.28
   9   8   6  178.43   13.25
   9   8   7    5.85    2.67
   9   8   7    7.18    2.11
   9  -8   7    5.43    2.09
   9  -8   7    7.69    2.26
   9   8   8    2.36    1.84
   9  -8   8    2.86    1.72
   9  -8   8    3.18    1.60
   9   8   9  103.23    8.22
   9  -8   9   94.22    8.03
   9  -8   9  102.76    7.96
   9  -8  10   43.03    5.13
   9   8  10   40.06    4.94
   9  -8  10   42.59    4.71
   9   8  11    2.78    2.17
   9  -8  11    2.80    2.18
   9   8  12    1.76    2.06
   9  -8  12    8.86    2.61
   9   8  13   72.25    7.25
   9  -8  13   76.84    7.58
   9   8  14   -1.32    2.37
   9  -8  14    2.65    2.58
   9   8  15   11.95    3.47
   9  -8  15    8.49    3.10
   9   8  16    0.74    2.43
   9  -8  16    3.73    2.69
   9   8  17   12.60    4.01
  -9   9  21    0.65    2.58
   9  -9 -19   31.49    4.72
   9  -9 -18   32.70    4.69
   9  -9 -17   35.06    4.82
   9  -9 -16    3.54    2.41
   9  -9 -15    6.33    2.51
   9  -9 -14  192.39   12.22
  -9  -9  14  147.12    9.58
   9  -9 -13   28.25    4.21
  -9  -9  13   33.92    3.06
  -9  -9  12   20.59    2.28
   9  -9 -12   21.10    3.65
  -9  -9  11    4.40    1.29
   9  -9 -11    8.36    2.85
   9  -9 -11    3.18    2.02
   9  -9 -10   25.15    4.33
   9  -9 -10   23.35    3.65
   9  -9  -9    9.76    3.04
  -9  -9   9    6.74    1.41
   9  -9  -8   -2.11    2.23
  -9  -9   8   -0.46    1.02
   9   9  -8    0.34    1.48
   9  -9  -8   -0.67    1.28
   9  -9  -7    6.35    2.75
  -9  -9   7    1.97    1.36
   9   9  -7    2.73    1.67
   9  -9  -7    3.36    1.69
   9  -9  -6   84.30    7.26
   9   9  -6   90.99    6.72
   9  -9  -6   93.92    6.69
  -9  -9   6   74.70    5.93
   9  -9  -6   91.97    8.67
   9   9  -5  105.01    7.82
   9  -9  -5  104.97    7.72
   9  -9  -5  100.31    8.11
  -9  -9   5  101.68    7.01
   9   9  -5   97.62    7.39
   9  -9  -5  103.27    7.37
   9  -9  -5   99.16    9.19
   9   9  -4   13.82    2.37
   9  -9  -4   12.81    2.24
   9  -9  -4    6.31    2.26
   9   9  -4   11.28    2.23
  -9  -9   4    8.78    1.96
   9  -9  -4   14.82    2.23
   9  -9  -4   12.16    3.26
   9   9  -3  168.54   10.89
   9  -9  -3  174.89   10.88
   9   9  -3  163.15   10.92
   9  -9  -3  164.74   10.92
   9  -9  -3  154.64   11.42
  -9  -9   3  168.36   10.49
   9  -9  -3  163.34   12.96
   9   9  -2  169.70   10.82
   9  -9  -2  164.37   10.77
   9  -9  -2  172.96   11.50
   9   9  -2  163.10   10.71
   9  -9  -2  159.75   10.58
  -9  -9   2  150.20   10.27
   9  -9  -2  167.84   12.90
   9   9  -1   46.39    4.37
   9  -9  -1   43.76    4.28
   9  -9  -1   53.84    5.23
  -9  -9   1   31.39    3.82
   9   9  -1   44.42    4.67
   9   9  -1   44.10    4.39
   9  -9  -1   39.35    5.54
   9  -9  -1   45.98    4.29
   9   9   0  239.61   14.92
   9  -9   0  233.29   14.85
   9  -9   0  253.04   15.82
   9   9   0  265.95   15.34
   9  -9   0  254.42   15.07
   9  -9   0  217.97   16.86
   9   9   0  243.22   15.46
   9   9   1   11.77    2.21
   9  -9   1   10.39    2.34
   9  -9   1   11.28    2.67
   9  -9   1   16.84    4.08
   9   9   1   15.28    2.82
   9   9   2  182.10   12.55
   9  -9   2  211.99   12.87
   9  -9   2  208.01   13.50
   9   9   2  209.28   13.80
   9   9   3    6.92    2.04
   9  -9   3    7.77    2.11
   9  -9   3    6.74    2.37
   9   9   3    6.02    2.39
   9   9   4   26.13    3.29
   9  -9   4   21.74    3.12
   9  -9   4   19.87    3.42
   9   9   4   16.87    3.72
   9   9   5    6.90    2.14
   9  -9   5    8.62    2.19
   9  -9   5    9.37    2.43
   9   9   5   11.06    3.07
   9   9   6   16.94    2.99
   9  -9   6   18.47    3.01
   9  -9   6   19.74    3.29
   9   9   6   22.76    4.06
   9   9   7    5.79    2.01
   9  -9   7    4.05    1.89
   9  -9   7    3.26    1.95
   9   9   8   99.76    8.07
   9  -9   8  107.15    8.28
   9  -9   8   96.39    7.88
   9   9   9    5.47    2.12
   9  -9   9    7.03    2.27
   9  -9   9    1.85    1.90
   9   9  10   -1.05    1.99
   9  -9  10   -0.53    1.96
   9  -9  10    0.47    1.68
   9   9  11    9.92    2.92
   9  -9  11   16.75    3.21
   9   9  12   33.27    4.70
   9  -9  12   37.11    5.02
   9   9  13   71.78    7.14
   9  -9  13   64.59    7.01
   9   9  14    1.32    2.51
   9  -9  14   -2.01    2.48
   9   9  15   -0.70    2.37
   9  -9  15    3.53    2.61
   9   9  16   14.10    4.12
   9  -9  16   19.57    4.46
   9 -10 -17   -0.64    2.09
   9 -10 -16   17.36    3.75
   9 -10 -15    9.07    2.80
   9 -10 -14    0.59    2.06
  -9 -10  13   15.61    2.33
   9 -10 -13   25.90    3.93
  -9 -10  12    3.50    1.33
   9 -10 -12    6.19    2.54
  -9 -10  11    0.26    1.17
   9 -10 -11   -1.53    2.33
   9 -10 -11   -1.10    1.74
   9 -10 -10   -0.76    2.51
   9 -10  -9   33.56    5.30
   9 -10  -8   25.44    4.62
   9  10  -8   33.23    3.51
   9 -10  -8   24.87    3.28
   9 -10  -7    3.87    2.46
   9 -10  -7    1.55    1.92
   9  10  -7    3.63    1.71
  -9 -10   7    3.43    1.33
   9 -10  -7    4.85    1.77
   9  10  -6  122.60    8.61
   9 -10  -6  112.39    8.33
   9 -10  -6  101.63    8.72
   9  10  -6  112.13    8.10
   9 -10  -6  125.91    8.28
  -9 -10   6  119.28    7.72
   9 -10  -6  112.51   10.34
   9  10  -5    4.35    1.91
   9 -10  -5   -0.65    1.76
   9  10  -5    1.19    1.51
   9 -10  -5    1.15    1.49
   9 -10  -5    2.51    2.13
  -9 -10   5    5.75    1.73
   9 -10  -5    0.77    2.07
   9  10  -4   19.60    2.96
   9 -10  -4   22.96    3.00
   9  10  -4   19.49    2.86
   9 -10  -4   23.47    3.55
   9 -10  -4   21.21    2.79
  -9 -10   4   21.43    2.73
   9 -10  -4   12.57    3.62
   9  10  -3   72.04    5.90
   9 -10  -3   75.97    5.95
   9 -10  -3   68.73    6.43
  -9 -10   3   71.95    5.66
   9 -10  -3   65.74    7.64
   9  10  -3   73.81    5.91
   9 -10  -3   73.52    5.86
   9  10  -2   15.60    2.51
   9 -10  -2   15.61    2.53
   9  10  -2   14.27    2.47
   9 -10  -2    7.93    2.47
   9 -10  -2   11.12    2.40
  -9 -10   2   14.76    2.49
   9 -10  -2   10.52    3.43
   9  10  -1  162.32   10.74
   9 -10  -1  172.49   10.86
   9 -10  -1  177.71   11.72
   9  10  -1  158.37   10.74
   9 -10  -1  158.82   10.64
   9 -10  -1  156.26   12.96
   9  10   0   20.64    2.96
   9 -10   0   21.38    2.92
   9 -10   0   22.49    3.33
   9 -10   0   18.15    3.36
   9  10   0   24.76    3.66
   9 -10   0   24.27    4.51
   9  10   0   20.26    3.14
   9  10   1    2.15    1.67
   9 -10   1   -0.36    1.50
   9  10   1    0.77    2.05
   9 -10   1    3.02    1.96
   9 -10   1    1.71    2.18
   9  10   1    0.52    1.89
   9  10   2  285.52   17.34
   9 -10   2  271.04   17.25
   9 -10   2  313.21   18.44
   9 -10   2  290.10   20.42
   9  10   2  317.52   18.88
   9  10   3   70.40    5.81
   9 -10   3   64.27    5.72
   9 -10   3   75.63    6.48
   9  10   3   68.16    6.96
   9  10   4   21.33    3.10
   9 -10   4   19.43    3.01
   9 -10   4   21.97    3.42
   9  10   4   29.26    4.74
   9  10   5    8.79    2.28
   9 -10   5    9.31    2.43
   9 -10   5    6.74    2.25
   9  10   6   11.30    2.55
   9 -10   6   16.96    2.84
   9 -10   6   11.53    2.79
   9  10   7    3.99    1.90
   9 -10   7    6.30    2.04
   9 -10   7    4.31    2.05
   9  10   8   14.11    2.99
   9 -10   8   14.15    2.97
   9 -10   8   18.84    3.25
   9  10   9   25.56    3.81
   9 -10   9   23.90    3.64
   9 -10   9   25.97    3.74
   9  10  10    3.10    2.33
   9 -10  10    3.15    2.00
   9 -10  10    1.87    1.86
   9  10  11    1.64    2.08
   9 -10  11    2.22    2.31
   9 -10  11    0.95    1.80
   9  10  12   11.04    3.02
   9 -10  12   12.40    3.26
   9  10  13   42.61    5.50
   9 -10  13   34.77    5.16
   9  10  14   -0.66    2.43
   9 -10  14   -2.00    2.88
   9  10  15    5.56    3.07
   9 -10  15    1.41    2.62
   9  10  16   -0.74    2.87
   9 -10  16    0.75    2.85
   9 -11 -15    0.63    2.27
   9 -11 -14   20.25    3.83
   9 -11 -13   67.08    6.77
   9 -11 -12  114.41   10.29
   9 -11 -12   90.22    8.36
  -9 -11  11   14.11    2.50
   9 -11 -11    9.94    3.28
  -9 -11  10   34.69    3.70
   9 -11 -10   33.13    5.36
   9 -11  -9    4.98    2.74
   9 -11  -8    4.19    2.85
   9 -11  -8    1.07    1.76
   9 -11  -7  105.94    7.88
   9 -11  -7  112.15    8.75
   9 -11  -7  110.65   10.32
   9  11  -7  114.08    7.70
   9 -11  -7   95.57    7.42
   9  11  -6   21.14    3.03
   9 -11  -6   18.21    2.72
   9 -11  -6   12.00    2.80
   9  11  -6   15.78    2.59
   9 -11  -6   18.54    2.92
   9 -11  -6   18.56    4.02
   9  11  -5  100.48    7.18
   9 -11  -5   91.46    6.95
   9 -11  -5   92.09    7.72
   9  11  -5   88.14    6.73
   9 -11  -5   84.76    6.62
  -9 -11   5   99.91    6.63
   9 -11  -5   70.85    8.53
   9  11  -4   16.44    2.88
   9 -11  -4   23.56    3.14
   9  11  -4   22.90    3.12
   9 -11  -4   25.93    3.17
   9 -11  -4   25.00    3.73
  -9 -11   4   23.85    2.91
   9 -11  -4   25.50    4.76
   9  11  -3    4.93    1.69
   9 -11  -3    5.90    1.64
   9  11  -3    5.73    1.90
   9 -11  -3    6.07    2.21
   9 -11  -3    4.65    1.67
  -9 -11   3    7.05    1.95
   9 -11  -3    5.15    2.74
   9  11  -2  151.51    9.83
   9 -11  -2  155.26    9.85
   9 -11  -2  152.19   10.71
   9 -11  -2  132.88   12.38
   9  11  -2  137.77    9.61
   9 -11  -2  143.25    9.64
   9  11  -1   29.04    3.30
   9 -11  -1   24.35    3.11
   9 -11  -1   24.18    3.63
   9  11  -1   22.89    3.24
   9 -11  -1   24.91    3.21
   9 -11  -1   26.60    5.21
   9  11   0   18.56    3.10
   9  11   0   20.91    2.90
   9 -11   0   26.90    3.20
   9 -11   0   23.89    3.17
   9 -11   0   25.02    3.68
   9 -11   0   18.81    4.38
   9  11   1   10.29    2.46
   9  11   1   10.79    2.22
   9 -11   1    8.34    2.13
   9 -11   1    2.05    2.07
   9 -11   1    5.54    1.93
   9 -11   1    3.65    3.12
   9  11   2   -0.36    1.28
   9 -11   2    0.71    1.24
   9 -11   2   -1.02    1.51
   9  11   2   -0.39    1.80
   9 -11   2   -0.93    2.51
   9  11   2   -1.21    2.18
   9  11   3   -0.37    1.43
   9 -11   3    0.36    1.45
   9 -11   3    1.53    1.83
   9 -11   3    1.91    2.30
   9  11   3    0.63    2.29
   9  11   4   19.93    2.99
   9 -11   4   15.84    2.75
   9 -11   4   14.06    2.95
   9 -11   4   14.71    4.16
   9  11   5    1.18    1.57
   9 -11   5    0.40    1.65
   9 -11   5    4.45    1.97
   9  11   6    0.42    1.73
   9 -11   6    1.68    1.67
   9 -11   6    1.46    1.85
   9  11   7    3.52    2.01
   9 -11   7   -0.44    1.86
   9 -11   7    1.95    1.90
   9  11   8    3.67    2.08
   9 -11   8    7.42    2.31
   9 -11   8    6.76    2.19
   9  11   9    4.35    2.25
   9 -11   9   11.72    2.76
   9 -11   9   12.91    2.85
   9  11  10   16.90    3.38
   9 -11  10   15.48    3.29
   9 -11  10   15.22    3.07
   9  11  11    1.63    2.17
   9 -11  11   -0.55    2.14
   9 -11  11    0.48    1.72
   9  11  12   -0.58    2.35
   9 -11  12   -0.59    2.00
   9  11  13    6.14    2.59
   9 -11  13   12.42    3.11
   9  11  14   70.17    7.37
   9 -11  14   67.62    7.36
   9  11  15    7.60    3.31
   9 -11  15   12.61    3.60
   9  11  16   24.04    4.79
   9 -12 -13   21.18    3.93
   9 -12 -12   33.66    5.79
   9 -12 -11    0.89    2.63
   9 -12 -10   -3.57    2.94
  -9 -12  10    2.33    1.54
   9 -12 -10    0.57    2.01
   9 -12  -9    3.59    2.76
   9 -12  -9    6.72    2.44
   9 -12  -8    7.38    2.00
   9 -12  -8    7.15    2.46
   9 -12  -7   18.21    4.27
   9  12  -7   22.25    3.11
   9  12  -7   21.97    2.94
   9 -12  -7   14.58    2.56
   9 -12  -7   17.34    3.42
   9  12  -6    4.36    1.75
   9 -12  -6    6.47    1.81
   9 -12  -6    4.28    2.09
   9  12  -6    1.19    1.42
   9 -12  -6    3.65    2.69
   9  12  -5   39.26    3.95
   9 -12  -5   33.25    3.68
   9 -12  -5   42.68    4.91
   9  12  -5   29.68    3.49
   9 -12  -5   31.14    5.67
   9  12  -4    1.70    1.60
   9 -12  -4    6.53    1.99
   9 -12  -4    8.34    2.44
   9  12  -4    5.14    1.70
   9 -12  -4    5.48    3.11
   9  12  -3   49.37    4.45
   9 -12  -3   48.32    4.40
   9 -12  -3   39.83    4.82
   9  12  -3   51.29    4.46
   9 -12  -3   45.40    6.74
   9  12  -2    4.24    1.71
   9 -12  -2    2.20    1.47
   9  12  -2    3.37    1.67
   9 -12  -2    1.02    1.63
   9 -12  -2    7.47    3.07
   9  12  -1   11.38    2.18
   9 -12  -1   13.27    2.31
   9 -12  -1    7.71    2.49
   9  12  -1    6.99    2.07
   9  12   0   -0.99    1.60
   9  12   0   -1.33    2.11
   9 -12   0    0.52    1.64
   9 -12   0    1.92    2.70
   9  12   1   24.33    3.47
   9  12   1   28.46    3.35
   9 -12   1   30.20    3.35
   9 -12   1   28.72    3.99
   9 -12   1   25.19    5.00
   9  12   2   52.71    4.77
   9 -12   2   61.77    4.90
   9 -12   2   44.37    5.20
   9 -12   2   37.54    6.54
   9  12   2   52.01    4.90
   9  12   3    2.31    1.79
   9  12   3    0.35    1.33
   9 -12   3    1.04    1.32
   9 -12   3    0.52    1.76
   9 -12   3    4.03    3.20
   9  12   4   22.69    3.06
   9 -12   4   19.22    2.95
   9 -12   4   16.36    3.24
   9  12   5   38.75    4.41
   9 -12   5   47.85    4.82
   9 -12   5   54.89    5.47
   9  12   6    2.85    1.83
   9 -12   6    3.22    1.78
   9 -12   6    2.48    1.84
   9  12   7    5.97    2.24
   9 -12   7    8.51    2.32
   9 -12   7   11.37    2.75
   9  12   8   22.43    3.45
   9 -12   8   25.13    3.66
   9 -12   8   20.67    3.49
   9  12   9    3.81    2.21
   9 -12   9   -0.95    2.14
   9 -12   9    3.87    1.97
   9  12  10   -0.50    1.91
   9 -12  10   -1.01    2.19
   9 -12  10    0.96    1.83
   9  12  11    2.16    2.10
   9 -12  11    2.17    2.06
   9 -12  11    1.43    1.94
   9  12  12    1.72    2.06
   9  12  13   -0.61    2.84
   9  12  14    5.17    2.53
   9  12  15    7.49    3.03
   9 -13 -12   62.59    8.08
   9 -13 -11    9.56    3.84
   9 -13 -10   21.12    4.79
   9 -13 -10   19.56    3.77
   9 -13  -9   47.18    6.90
   9  13  -9   34.55    4.03
   9 -13  -9   36.37    4.92
   9 -13  -8   16.45    4.37
   9  13  -8   18.19    2.89
   9 -13  -8   20.90    3.52
   9  13  -7   11.16    2.21
   9 -13  -7   11.66    2.87
   9 -13  -6    6.86    3.33
   9  13  -6    2.33    1.56
   9 -13  -6    3.29    1.98
   9  13  -5    3.25    1.52
   9 -13  -5    0.54    1.72
   9  13  -4   59.21    4.89
   9 -13  -4   46.75    5.33
   9 -13  -4   44.15    6.97
   9  13  -3    8.01    2.06
   9 -13  -3    4.74    2.17
   9 -13  -3    8.91    4.04
   9  13  -2   95.58    6.93
   9 -13  -2   95.96    8.08
   9 -13  -2  100.73   10.36
   9  13  -1    6.76    1.82
   9 -13  -1    5.22    2.09
   9 -13  -1    1.01    2.45
   9  13   0   -3.43    1.78
   9 -13   0   -1.04    1.83
   9 -13   0    2.04    2.60
   9  13   1    1.26    1.59
   9 -13   1    1.59    1.86
   9 -13   1    4.13    3.04
   9  13   2    2.93    1.53
   9 -13   2    6.87    2.38
   9 -13   2    7.29    3.54
   9  13   3   43.70    4.45
   9 -13   3   58.24    5.62
   9 -13   3   44.55    7.00
   9  13   4    3.58    1.73
   9 -13   4    1.56    1.98
   9 -13   4    5.38    3.17
   9  13   5    3.74    1.89
   9 -13   5    3.59    2.27
   9 -13   5    6.55    3.47
   9  13   6   73.16    6.46
   9 -13   6   89.35    7.56
   9 -13   6   87.76    9.98
   9  13   7    1.24    1.69
   9 -13   7   -1.00    1.65
   9 -13   7    2.25    3.31
   9  13   8   17.58    3.11
   9 -13   8   10.97    2.77
   9  13   9    8.40    2.78
   9 -13   9    0.97    2.08
   9  13  10   10.98    2.84
   9 -13  10   18.96    3.43
   9 -13  11    3.83    2.16
   9 -14 -12   -2.02    3.09
   9 -14 -11    2.04    3.00
   9 -14 -10   35.85    6.30
   9 -14  -9   22.60    5.50
   9 -14  -8   15.49    4.62
   9 -14  -7   38.59    7.19
   9 -14  -6    8.40    3.71
   9 -14  -6   10.68    2.83
   9 -14  -5    4.96    2.26
   9 -14  -5    3.15    3.22
   9 -14  -4   15.73    3.14
   9 -14  -4   21.06    4.89
   9 -14  -3   26.83    4.04
   9 -14  -3   36.76    6.54
   9 -14  -2   13.25    2.97
   9 -14  -2   16.99    4.57
   9 -14  -1   10.08    2.56
   9 -14  -1   11.79    3.79
   9 -14   0   21.68    3.68
   9 -14   0   16.31    5.32
   9 -14   1   77.45    7.09
   9 -14   1   66.85    8.74
   9 -14   2   45.52    5.19
   9 -14   2   36.42    6.71
   9 -14   3   45.31    5.19
   9 -14   3   43.35    7.11
   9 -14   4    1.06    1.85
   9 -14   4   -1.13    2.53
   9 -14   5   17.20    3.54
   9 -14   6    5.12    2.43
   9 -14   7    4.04    2.16
   9 -14   8    1.01    1.87
   9 -14   9   -0.99    1.92
   9 -14  10   -0.98    1.99
   9 -15  -4   25.75    5.62
   9 -15   1    0.55    1.85
   9 -15   2   12.47    3.02
   9 -15   3   20.50    3.78
   9 -15   4    7.48    2.59
   9 -15   5    0.53    1.96
   9 -15   6    1.55    1.87
   9 -15   7   -0.51    2.12
 -10   0  21   -0.70    2.15
  10   0 -21   -0.69    1.47
 -10   0  20   55.04    6.53
  10   0 -20   52.84    4.89
  10   0 -19   10.33    2.16
 -10   0  19    0.67    2.44
  10   0 -18  114.98    8.12
 -10   0  18  116.61    9.73
  10   0 -17    0.34    1.38
 -10   0  17    0.64    2.03
  10   0 -16    8.15    1.91
  10   0 -15   -1.01    1.49
  10   0 -14   61.20    5.15
  10   0 -13   -0.33    1.17
  10   0 -12  289.14   17.01
  10   0 -11   -0.33    1.19
  10   0 -10   36.35    3.75
  10   0  -9    0.33    1.26
  10   0  -8  311.61   18.19
  10   0  -7   -0.68    1.32
 -10   0   6  102.71    7.60
  10   0  -6  108.28    7.62
  10   0  -5    1.62    1.38
 -10   0   5   -0.69    1.37
  10   0  -5   -0.69    1.09
 -10   0   4  222.21   13.37
  10   0  -4  220.93   13.40
  10   0  -4  203.56   11.77
  10   0  -4  246.00   13.97
  10   0  -3    2.22    1.64
 -10   0   3   -1.72    1.52
  10   0  -3    0.41    1.39
  10   0  -3    0.53    0.74
  10   0  -3   -0.36    1.24
 -10   0   2    4.80    1.65
  10   0  -2    2.88    1.43
  10   0  -1   -1.31    1.61
 -10   0   1    0.69    1.49
  10   0  -1    0.74    1.22
  10   0   0   14.69    2.57
 -10   0   0   11.47    2.28
  10   0   1    2.18    1.28
 -10   0  -1   -0.35    1.37
  10   0   2  149.52   10.40
  10   0   3   -0.44    1.30
  10   0   4   20.62    3.15
  10   0   5   -0.46    1.24
  10   0   6    0.48    1.46
  10   0   7    0.49    1.45
  10   0   8   19.38    3.27
  10   0   9   -0.53    1.79
  10   0  10  394.03   23.77
  10   0  11   -1.16    1.91
  10   0  12   63.75    6.67
  10   0  13    0.64    2.18
  10   0  14   16.87    3.72
  10   0  15    2.12    2.25
  10   0  16   18.60    4.15
  10  -1 -22   14.59    2.81
 -10  -1  21    2.11    2.74
  10  -1 -21    2.29    1.81
  10   1 -21    1.48    1.55
 -10  -1  20   25.49    4.53
  10  -1 -20   22.40    3.19
  10   1 -20   22.42    2.92
  10  -1 -19   48.03    4.68
  10   1 -19   48.27    4.29
 -10  -1  19   41.80    5.79
  10  -1 -18   21.10    2.98
 -10  -1  18   18.47    3.97
  10   1 -18   19.54    2.70
 -10  -1  17    0.64    2.24
  10  -1 -17    0.38    1.32
  10   1 -17   -0.60    1.50
 -10   1  17    0.56    1.19
  10  -1 -16   12.30    2.39
  10   1 -16   15.14    2.33
  10  -1 -15   84.26    6.47
  10   1 -15   75.94    5.89
  10  -1 -14   17.26    2.82
  10   1 -14   23.06    2.76
  10  -1 -13   -0.37    1.24
  10   1 -13    0.91    1.39
  10  -1 -12   76.79    6.09
  10   1 -12   75.09    5.76
  10  -1 -11  253.08   15.16
  10   1 -11  244.28   14.77
  10  -1 -10    3.94    1.62
  10   1 -10    3.45    1.37
  10  -1  -9  479.36   26.68
  10   1  -9  468.69   26.37
  10  -1  -8    0.36    1.21
  10   1  -8    2.54    1.37
 -10  -1   7   33.35    3.67
  10  -1  -7   34.47    3.68
  10   1  -7   36.62    3.63
  10  -1  -6   16.63    1.59
 -10  -1   6   14.30    2.46
  10  -1  -6    9.62    2.07
  10   1  -6    9.57    2.09
 -10   1   5   38.31    4.15
 -10  -1   5   36.99    3.94
  10  -1  -5   40.51    4.40
  10  -1  -5   42.28    4.16
  10   1  -5   39.18    3.95
  10  -1  -5   49.79    3.38
  10  -1  -4    0.41    1.70
 -10   1   4    2.88    1.51
 -10  -1   4    3.97    1.62
  10  -1  -4    4.75    1.59
  10   1  -4    2.74    1.49
  10  -1  -4    5.96    1.27
  10  -1  -3   33.56    3.82
 -10   1   3   35.23    3.74
 -10  -1   3   37.16    3.66
  10  -1  -3   35.48    4.04
  10  -1  -3   37.28    3.81
  10   1  -3   29.49    2.32
  10  -1  -3   30.39    3.03
  10   1  -3   33.90    3.52
  10  -1  -2   32.23    3.70
 -10  -1   2   32.92    3.50
 -10   1   2   25.35    3.30
  10  -1  -2   33.05    3.59
  10  -1  -1  544.56   30.84
 -10   1   1  541.96   30.41
 -10  -1   1  532.38   30.25
  10  -1  -1  569.50   30.61
  10  -1   0    6.47    1.69
 -10   1   0    2.51    1.37
 -10  -1   0    2.77    1.48
  10  -1   0    6.08    1.89
  10  -1   1   31.49    3.86
 -10  -1  -1   32.33    3.66
  10  -1   2   75.95    6.41
  10  -1   3  127.50    9.24
  10  -1   4    6.28    2.14
  10  -1   5  189.53   12.71
  10  -1   6    0.95    1.22
  10  -1   7    8.87    2.48
  10  -1   8  150.32   10.78
  10  -1   9   30.05    4.02
  10  -1  10    1.10    1.69
  10  -1  11   26.14    4.19
  10  -1  12   25.99    4.28
  10  -1  13    0.64    2.32
  10  -1  14    2.02    2.75
  10  -1  15   53.76    6.43
  10  -1  16   47.51    6.45
  10  -2 -23   -0.83    2.09
  10  -2 -22    0.83    1.84
 -10  -2  21   23.99    4.40
 -10   2  21   25.24    4.57
  10  -2 -21   22.28    3.35
  10  -2 -20   27.87    3.84
 -10  -2  20   36.55    5.03
 -10   2  20   26.09    4.52
  10   2 -20   31.57    3.21
 -10   2  19   12.06    3.33
  10  -2 -19   11.40    2.49
  10   2 -19   13.03    2.13
 -10  -2  19   18.21    3.77
 -10   2  18    9.84    3.09
  10  -2 -18    8.49    2.28
  10   2 -18    9.04    1.92
  10  -2 -17   -0.80    1.40
  10   2 -17   -0.27    1.17
 -10   2  17    0.34    1.37
  10  -2 -16   27.74    3.57
  10   2 -16   26.55    2.94
  10  -2 -15   16.52    2.70
  10   2 -15   16.12    2.30
  10  -2 -14    0.79    1.50
  10   2 -14    3.37    1.35
  10  -2 -13   57.04    5.15
  10   2 -13   57.79    4.69
  10  -2 -12    1.18    1.53
  10   2 -12   -0.29    1.09
  10  -2 -11    2.34    1.45
  10   2 -11    4.10    1.52
  10  -2 -10   11.67    2.45
  10   2 -10   13.75    2.25
  10  -2  -9    5.03    1.93
  10   2  -9    5.76    1.67
 -10  -2   8  116.95    7.95
  10  -2  -8  107.88    8.11
  10   2  -8  116.44    7.88
  10  -2  -7  152.85    9.32
 -10  -2   7  163.91   10.19
  10  -2  -7  151.10   10.33
  10   2  -7  155.28   10.03
  10  -2  -6    6.09    1.32
 -10  -2   6    2.87    1.62
  10  -2  -6    4.56    1.53
  10   2  -6    3.93    1.61
  10   2  -5    7.72    2.26
  10  -2  -5    4.86    1.81
 -10  -2   5    5.11    1.63
  10  -2  -5    7.96    1.98
  10  -2  -5    6.84    1.53
 -10   2   4   76.86    6.13
 -10  -2   4   75.84    5.84
  10  -2  -4   75.94    6.07
  10  -2  -4   68.26    5.40
  10   2  -4   71.17    6.32
  10  -2  -4   80.95    6.42
  10   2  -3   33.73    3.95
  10  -2  -3   33.07    3.92
 -10   2   3   32.96    3.82
 -10  -2   3   35.17    3.63
  10  -2  -3   38.85    4.11
  10  -2  -3   34.61    3.75
  10   2  -3   32.88    3.97
  10  -2  -3   29.03    3.21
  10   2  -2  164.58   11.49
  10  -2  -2  160.67   11.45
 -10   2   2  164.21   11.12
 -10  -2   2  189.35   11.13
  10  -2  -2  174.44   11.30
  10   2  -1  190.81   12.75
  10  -2  -1  218.95   13.04
 -10   2   1  194.91   12.41
 -10  -2   1  181.19   12.12
  10   2   0   13.00    2.40
  10  -2   0   13.80    2.36
  10   2   1  153.02   10.79
  10  -2   1  152.82   10.81
 -10  -2  -1  170.69   10.59
  10   2   2    1.32    1.35
  10  -2   2    6.59    1.94
  10   2   3    1.33    1.55
  10  -2   3    1.33    1.30
  10  -2   3    0.83    1.54
  10   2   4   63.70    5.78
  10  -2   4   66.88    5.93
  10   2   5  100.20    7.64
  10  -2   5   86.81    7.35
  10   2   6    3.82    1.78
  10  -2   6    5.74    2.04
  10   2   7    1.48    1.52
  10  -2   7    5.92    2.14
  10   2   8    3.06    1.68
  10  -2   8    1.02    1.50
  10   2   9  133.21   10.06
  10  -2   9  133.55   10.02
  10   2  10   22.74    3.78
  10  -2  10   21.02    3.53
  10   2  11   11.10    2.70
  10  -2  11    5.82    2.30
  10   2  12   -0.62    2.11
  10  -2  12    1.24    2.23
  10   2  13   -0.65    2.39
  10  -2  13    1.93    2.32
  10   2  14   12.90    3.30
  10  -2  14   18.23    3.92
  10   2  15   46.36    6.11
  10  -2  15   45.36    5.99
  10   2  16    0.75    2.78
  10  -2  16    0.75    3.10
  10  -3 -23   15.96    3.08
  10  -3 -22  105.72    8.37
 -10  -3  21   58.00    6.93
  10  -3 -21   59.96    5.60
 -10   3  21   46.98    6.25
  10  -3 -20   12.53    2.75
 -10  -3  20    3.46    2.66
 -10   3  20   10.97    3.22
  10  -3 -19   64.64    5.72
 -10  -3  19   56.04    6.59
 -10   3  19   52.89    6.24
  10   3 -19   54.51    4.31
 -10   3  18   11.74    3.31
  10  -3 -18    9.62    2.42
 -10  -3  18    5.92    2.94
  10   3 -18    8.82    1.69
  10  -3 -17    3.03    1.77
  10   3 -17    2.82    1.19
  10  -3 -16    0.86    1.41
  10   3 -16    3.18    1.32
  10  -3 -15    0.85    1.64
  10   3 -15    0.50    1.00
  10  -3 -14   97.36    7.36
  10   3 -14   89.01    6.37
  10  -3 -13  104.61    8.20
  10   3 -13  115.80    7.51
  10  -3 -12   85.50    6.72
  10   3 -12   76.20    5.77
  10  -3 -11   -0.41    1.36
  10   3 -11    0.57    1.11
  10  -3 -10   30.84    3.76
 -10  -3   9   55.30    4.81
  10  -3  -9   61.27    5.50
  10  -3  -8   78.51    5.64
 -10  -3   8   64.96    5.55
  10  -3  -8   77.84    6.28
 -10  -3   7   70.38    5.35
  10  -3  -7   63.34    5.74
  10  -3  -7   60.68    5.02
  10  -3  -6    9.41    1.88
 -10  -3   6   10.77    1.97
  10  -3  -6   10.62    2.31
 -10  -3   5   34.30    3.52
  10  -3  -5   30.50    3.72
  10  -3  -5   30.50    3.36
 -10  -3   4   12.87    2.20
  10  -3  -4   15.71    2.68
  10   3  -4    8.52    2.26
  10  -3  -4   10.10    2.45
  10  -3  -4   14.09    2.29
  10   3  -3   50.39    4.84
  10  -3  -3   39.68    4.45
  10   3  -3   54.27    5.03
 -10  -3   3   48.16    4.33
  10  -3  -3   43.67    4.61
  10  -3  -3   48.66    4.72
  10  -3  -3   39.31    4.15
  10   3  -2  133.70    9.43
  10  -3  -2  134.26    9.45
 -10  -3   2  137.27    8.91
  10  -3  -2  124.28    9.05
  10   3  -2  127.07    7.54
  10   3  -1  105.07    7.91
  10  -3  -1  107.81    7.95
 -10  -3   1  110.28    7.53
  10   3  -1   94.57    6.49
  10   3   0  110.21    8.07
  10  -3   0  101.34    7.89
 -10  -3   0  101.82    7.53
  10   3   1    0.44    1.29
  10  -3   1    0.88    1.49
  10  -3   1    2.05    1.52
  10   3   2   36.87    4.12
  10  -3   2   34.26    4.02
  10  -3   2   27.95    3.83
  10   3   3   16.84    2.87
  10  -3   3   11.09    2.39
  10  -3   3   13.84    2.51
  10   3   4  221.51   13.62
  10  -3   4  205.91   13.37
  10  -3   4  190.23   13.14
  10   3   5  114.68    8.24
  10  -3   5   92.75    7.90
  10   3   6   70.26    6.30
  10  -3   6   70.31    6.29
  10   3   7    2.98    1.85
  10  -3   7    4.47    1.99
  10   3   8    9.16    2.43
  10  -3   8    5.59    2.10
  10   3   9   61.62    6.08
  10  -3   9   60.38    6.01
  10   3  10    0.56    1.77
  10  -3  10    2.77    1.94
  10   3  11   -1.18    2.06
  10  -3  11   -2.35    2.17
  10  -3  12   50.76    5.78
  10   3  12   45.58    5.69
  10   3  13   16.86    3.74
  10  -3  13   22.57    4.25
  10   3  14   -0.68    2.52
  10  -3  14    0.68    2.43
  10   3  15   13.63    3.57
  10  -3  15    3.56    2.52
  10   3  16    9.05    3.31
  10  -3  16   12.00    3.53
  10  -4 -24    1.48    2.44
  10  -4 -23   -0.49    2.04
  10  -4 -22    1.95    2.23
  10  -4 -21    4.36    2.30
 -10  -4  21    2.12    2.41
 -10   4  21    1.40    2.38
 -10  -4  20   25.56    4.47
 -10   4  20   21.22    4.35
  10  -4 -20   23.12    3.67
  10  -4 -19   61.98    6.07
 -10  -4  19   59.43    6.79
 -10   4  19   68.76    7.15
  10  -4 -18    2.82    2.00
  10  -4 -17   47.88    5.18
  10  -4 -16   19.34    3.26
  10  -4 -15   10.94    2.45
  10  -4 -14   29.26    3.83
  10  -4 -13    1.78    1.56
  10  -4 -12    4.83    1.77
  10  -4 -11   31.98    3.99
  10  -4 -10   56.60    5.34
 -10  -4   9    0.29    1.51
  10  -4  -9    1.31    1.39
 -10  -4   8   64.92    5.03
  10  -4  -8   73.01    5.54
  10  -4  -7    3.64    1.59
 -10  -4   7    2.37    1.37
  10  -4  -7    6.12    2.01
 -10  -4   6    0.60    1.37
  10  -4  -6   -0.44    1.39
  10  -4  -6   -0.75    1.31
 -10  -4   5  121.43    8.39
  10  -4  -5  118.01    9.02
  10  -4  -5  141.64    9.10
 -10  -4   4   30.13    3.50
  10  -4  -4   36.20    4.08
  10   4  -4   38.54    4.06
  10  -4  -4   41.73    4.15
  10  -4  -4   38.09    4.09
  10   4  -3  299.12   17.34
  10   4  -3  260.26   17.20
  10  -4  -3  272.82   17.29
  10  -4  -3  296.77   17.27
 -10  -4   3  264.97   16.51
  10  -4  -3  304.71   17.41
  10   4  -2    4.02    1.57
  10  -4  -2    2.19    1.44
 -10  -4   2    2.64    1.66
  10  -4  -2    1.36    1.49
  10   4  -2    1.77    0.80
  10   4  -1  110.64    8.47
  10  -4  -1  108.13    8.37
 -10  -4   1  115.44    7.98
  10   4  -1  116.18    7.27
  10   4   0  104.89    8.29
  10  -4   0  109.32    8.34
 -10  -4   0  109.25    7.84
  10  -4   0  122.39    8.50
  10   4   0  110.97    7.43
  10   4   1   85.56    6.97
  10  -4   1   87.27    6.95
  10  -4   1   78.35    6.73
  10   4   1   86.16    6.40
  10   4   2  256.89   15.78
  10   4   2  242.12   16.10
  10  -4   2  277.18   16.45
  10  -4   2  274.09   16.30
  10   4   3   10.63    2.20
  10  -4   3   12.44    2.39
  10  -4   3    9.98    2.28
  10   4   4   15.78    2.83
  10  -4   4   11.77    2.51
  10  -4   4   10.48    2.34
  10   4   5    5.11    2.06
  10  -4   5    5.12    1.78
  10  -4   5    3.11    1.70
  10   4   6   -0.48    1.41
  10  -4   6    0.96    1.41
  10  -4   6    0.46    1.69
  10  -4   7   37.78    4.35
  10   4   7   27.95    3.93
  10   4   8    1.02    1.67
  10  -4   8   -1.02    1.84
  10   4   9    1.07    1.70
  10  -4   9    5.33    2.27
  10   4  10   11.19    2.92
  10  -4  10   13.39    3.10
  10   4  11   -0.59    1.95
  10  -4  11    2.96    2.13
  10   4  12   14.93    3.62
  10  -4  12   13.63    3.52
  10   4  13   11.07    3.50
  10  -4  13   12.30    3.44
  10   4  14   15.69    3.77
  10  -4  14   18.99    4.08
  10   4  15    7.20    2.95
  10  -4  15    7.14    2.87
  10   4  16    0.76    3.09
  10  -4  16   -1.51    3.07
  10  -5 -24   42.21    5.22
  10  -5 -23    3.68    2.53
  10  -5 -22    5.23    2.41
 -10   5  21   -1.40    2.59
  10  -5 -21   -0.52    1.87
  10  -5 -20   78.95    7.20
 -10  -5  20   90.53    8.42
 -10   5  20   71.64    7.93
  10  -5 -19    4.09    2.38
 -10  -5  19    0.67    2.73
  10  -5 -18   19.72    3.42
  10  -5 -17   -0.50    1.64
  10  -5 -16  217.52   14.32
  10  -5 -15   32.06    4.20
  10  -5 -14    3.35    1.95
  10  -5 -13   33.21    4.14
  10  -5 -12   29.03    3.85
  10  -5 -11   28.70    3.77
 -10  -5  10   99.41    6.98
  10  -5 -10  104.14    8.01
  10  -5  -9    2.56    1.54
 -10  -5   9    0.28    1.16
  10  -5  -9    1.37    1.46
  10  -5  -8   25.33    3.50
 -10  -5   8   21.58    2.66
  10  -5  -8   16.37    2.98
  10  -5  -7    3.49    1.71
 -10  -5   7    3.45    1.50
 -10  -5   6   97.50    7.01
  10  -5  -6  100.96    7.90
  10  -5  -6  101.05    7.81
 -10  -5   5   14.36    2.32
  10  -5  -5   11.98    2.56
  10  -5  -5   21.45    3.09
  10  -5  -4   -0.44    1.24
 -10  -5   4    0.32    1.23
  10  -5  -4   -0.47    1.49
  10   5  -3    1.37    1.34
  10  -5  -3    0.44    1.35
  10  -5  -3   -2.02    2.00
 -10  -5   3   -0.32    1.28
  10  -5  -3   -0.48    1.48
  10   5  -2   62.75    5.76
  10  -5  -2   62.28    5.64
 -10  -5   2   63.80    5.30
  10  -5  -2   58.80    5.59
  10  -5  -2   61.83    6.00
  10   5  -2   63.98    4.28
  10   5  -1    5.68    1.94
  10  -5  -1    5.18    1.78
 -10  -5   1    6.00    1.83
  10  -5  -1    5.38    1.96
  10  -5  -1    4.37    1.93
  10   5  -1    5.09    1.36
  10   5   0   42.22    4.54
  10  -5   0   43.56    4.60
 -10  -5   0   41.21    4.18
  10  -5   0   45.04    4.70
  10   5   0   45.20    4.02
  10   5   1   59.08    5.63
  10  -5   1   64.33    5.74
  10  -5   1   64.85    5.74
  10   5   1   61.91    5.31
  10   5   2   29.19    3.66
  10   5   2   31.98    3.95
  10  -5   2   36.01    4.02
  10  -5   2   23.86    3.54
  10   5   3   72.77    6.43
  10  -5   3   70.42    6.42
  10   5   3   74.87    6.52
  10   5   4   33.24    4.25
  10   5   4   27.52    3.70
  10  -5   4   31.76    3.84
  10  -5   4   33.84    4.02
  10   5   5    1.01    1.60
  10   5   5    0.46    1.37
  10  -5   5   -0.47    1.32
  10  -5   5    1.36    1.64
  10   5   6    9.58    2.33
  10  -5   6    8.66    2.34
  10  -5   6    4.13    1.94
  10   5   7    5.46    2.08
  10  -5   7    5.96    2.04
  10  -5   7    2.36    1.80
  10   5   8    0.51    1.62
  10  -5   8   -0.51    1.51
  10   5   9   93.76    7.88
  10  -5   9   88.81    7.76
  10   5  10   28.63    4.16
  10  -5  10   22.50    3.92
  10   5  11   56.75    5.96
  10  -5  11   49.09    5.88
  10   5  12   30.53    4.59
  10  -5  12   29.23    4.43
  10   5  13  156.40   11.78
  10  -5  13  140.82   11.40
  10   5  14   32.27    5.08
  10  -5  14   25.26    4.42
  10   5  15   -0.72    2.87
  10  -5  15   -0.72    2.36
  10   5  16    9.14    3.20
  10  -5  16    7.59    3.25
  10  -6 -23    2.22    2.27
  10  -6 -22    3.32    2.49
  10  -6 -21    1.10    2.14
  10  -6 -20    0.54    1.91
 -10  -6  20    0.69    2.53
  10  -6 -19   34.51    4.59
  10  -6 -18    2.13    2.17
  10  -6 -17  114.46    9.11
  10  -6 -16    4.18    2.04
  10  -6 -15    0.52    1.75
  10  -6 -14    1.02    1.83
  10  -6 -13    1.50    1.70
  10  -6 -12   11.84    2.75
  10  -6 -11   17.61    3.21
  10  -6 -10   12.80    2.58
 -10  -6  10    7.82    1.73
  10  -6 -10    6.79    2.26
  10  -6  -9    3.97    1.94
 -10  -6   9    2.41    1.34
  10  -6  -9    5.27    2.12
  10  -6  -8    3.98    1.69
 -10  -6   8    1.10    1.32
  10  -6  -8    1.91    1.77
  10  -6  -7    1.01    1.60
 -10  -6   7    1.40    1.22
  10  -6  -7    1.43    1.40
  10  -6  -6    2.87    1.87
 -10  -6   6    5.28    1.56
  10  -6  -6    1.52    1.56
 -10  -6   5  131.54    9.22
  10  -6  -5  170.89   11.07
  10   6  -4    3.24    1.68
  10  -6  -4    6.22    1.89
 -10  -6   4    1.26    1.39
  10  -6  -4    3.72    1.98
  10   6  -3   15.39    2.72
  10  -6  -3   18.00    2.87
 -10  -6   3   13.75    2.29
  10  -6  -3   13.68    3.04
  10   6  -2  196.23   13.01
  10  -6  -2  199.60   12.93
  10  -6  -2  231.29   13.60
 -10  -6   2  201.67   12.32
  10   6  -2  178.18   11.30
  10  -6  -2  207.93   13.81
  10   6  -1    4.33    1.91
  10  -6  -1    1.72    1.37
  10  -6  -1    1.89    1.71
 -10  -6   1   -1.00    1.45
  10  -6  -1    2.41    2.04
  10   6  -1    1.04    1.08
  10   6   0   17.40    2.81
  10  -6   0   16.57    2.91
  10  -6   0   17.78    2.95
  10   6   0   18.69    2.64
  10   6   1   33.73    3.97
  10  -6   1   34.39    4.09
  10  -6   1   47.43    4.64
  10   6   1   31.85    3.85
  10   6   2   -0.84    1.55
  10   6   2   -1.30    1.43
  10  -6   2    0.44    1.53
  10  -6   2   -0.47    1.54
  10   6   3   77.62    6.58
  10  -6   3   76.42    6.51
  10  -6   3   73.05    6.58
  10   6   3   83.06    6.94
  10   6   4   37.29    4.45
  10  -6   4   34.59    3.98
  10   6   4   28.34    3.73
  10  -6   4   27.43    3.79
  10   6   5   14.45    2.99
  10   6   5    8.36    2.22
  10  -6   5   10.74    2.53
  10  -6   5   10.29    2.44
  10   6   6    5.73    2.43
  10   6   6    3.36    1.73
  10  -6   6    2.91    1.80
  10  -6   6   -0.47    1.70
  10   6   7    3.05    2.59
  10   6   7    1.47    1.77
  10  -6   7    3.95    1.83
  10  -6   7    0.47    1.66
  10   6   8    1.93    2.18
  10   6   8   -0.51    1.74
  10  -6   8   -0.52    1.96
  10  -6   8    1.46    1.65
  10   6   9    1.07    1.64
  10  -6   9   -1.08    2.29
  10   6  10    5.09    2.33
  10  -6  10    9.68    2.88
  10   6  11   19.14    3.57
  10  -6  11   12.59    3.23
  10   6  12   -3.74    2.49
  10  -6  12   -0.62    2.25
  10   6  13   -1.31    2.22
  10  -6  13   -0.65    2.42
  10   6  14    5.51    2.89
  10  -6  14    8.95    3.43
  10   6  15   13.09    3.62
  10  -6  15   15.21    3.55
  10  -7 -22   28.22    4.39
  10  -7 -21   19.26    3.70
  10  -7 -20    5.18    2.36
  10  -7 -19    2.28    2.06
  10  -7 -18   24.14    3.89
  10  -7 -17   -0.55    1.94
  10  -7 -16   16.40    3.35
  10  -7 -15   -1.62    1.84
  10  -7 -14   34.72    4.58
  10  -7 -13   24.73    3.79
  10  -7 -12   21.24    3.63
  10  -7 -11   -1.02    1.74
  10  -7 -10    2.24    1.85
 -10  -7  10    3.46    1.25
  10  -7 -10    2.03    1.78
  10  -7  -9    1.69    1.85
 -10  -7   9    0.26    1.03
  10  -7  -9    2.51    1.85
  10  -7  -8    1.69    1.73
 -10  -7   8    0.27    1.09
  10  -7  -8    1.99    1.74
  10  -7  -7    1.71    1.75
  10  -7  -7   -1.48    1.63
 -10  -7   7   -0.28    1.16
 -10  -7   6   31.19    3.31
  10  -7  -6   28.23    4.26
  10  -7  -5   17.73    2.98
 -10  -7   5   21.31    2.72
  10  -7  -5   18.02    3.38
  10   7  -4    0.92    1.41
  10  -7  -4    0.44    1.46
 -10  -7   4   -0.62    1.50
  10  -7  -4   -1.78    1.67
  10   7  -3   90.75    7.33
  10  -7  -3   87.92    7.20
  10  -7  -3  102.37    7.86
 -10  -7   3   91.18    6.79
  10  -7  -3   86.18    8.07
  10   7  -2   28.70    3.67
  10  -7  -2   30.13    3.75
 -10  -7   2   29.73    3.53
  10  -7  -2   40.96    5.13
  10   7  -1   63.64    6.01
  10  -7  -1   77.73    6.42
  10  -7  -1   84.89    6.89
  10  -7  -1   65.81    7.08
  10   7  -1   75.23    5.69
  10   7   0   27.99    3.60
  10  -7   0   26.00    3.63
  10  -7   0   29.98    3.95
  10  -7   0   33.87    4.86
  10   7   0   31.04    3.51
  10   7   1   23.18    3.35
  10  -7   1   17.74    3.14
  10  -7   1   21.86    3.39
  10   7   1   25.98    3.39
  10   7   2    7.74    2.15
  10  -7   2   10.43    2.46
  10  -7   2    6.75    2.18
  10   7   2   14.24    2.74
  10   7   3   55.12    5.24
  10  -7   3   46.51    5.00
  10  -7   3   60.82    5.68
  10   7   3   54.50    5.56
  10   7   4  176.08   12.27
  10  -7   4  185.01   12.37
  10  -7   4  181.74   12.58
  10   7   4  199.76   13.19
  10   7   5  105.18    8.40
  10  -7   5  107.94    8.55
  10  -7   5  121.60    8.89
  10   7   5  114.70    9.23
  10   7   6   28.93    4.35
  10   7   6   23.38    3.59
  10  -7   6   20.68    3.45
  10  -7   6   22.19    3.48
  10   7   7    1.92    2.49
  10   7   7    0.49    1.91
  10  -7   7    0.99    1.63
  10  -7   7    1.45    1.83
  10   7   8    0.51    1.80
  10  -7   8    3.61    2.06
  10  -7   8    2.44    1.90
  10   7   9   13.42    2.99
  10  -7   9   12.99    2.87
  10   7  10   15.98    3.33
  10  -7  10   19.02    3.64
  10   7  11  130.07   10.09
  10  -7  11  120.26    9.91
  10   7  12    0.62    2.05
  10  -7  12   -1.25    2.06
  10   7  13   -0.65    2.88
  10  -7  13   -0.66    2.62
  10   7  14   11.71    3.37
  10  -7  14   13.11    3.67
  10  -7  15    0.73    2.77
  10  -8 -20   31.69    4.79
  10  -8 -19   -0.60    2.40
  10  -8 -18    7.70    2.78
  10  -8 -17   -1.16    2.04
  10  -8 -16    1.14    1.94
  10  -8 -15   22.00    3.84
  10  -8 -14    1.67    2.00
  10  -8 -13    1.10    1.74
  10  -8 -12    0.54    1.72
  10  -8 -11   80.98    7.91
  10  -8 -11   94.53    7.73
  10  -8 -10   53.04    5.64
  10  -8 -10   55.14    6.17
  10  -8  -9   46.81    5.14
 -10  -8   9   43.59    3.91
  10  -8  -9   49.63    5.69
  10  -8  -8    5.06    2.16
  10  -8  -8    2.06    1.81
 -10  -8   8    3.69    1.39
  10  -8  -7    7.67    2.62
 -10  -8   7    5.91    1.69
 -10  -8   6   46.22    4.35
  10  -8  -6   68.82    6.74
  10   8  -5   -2.32    2.12
  10  -8  -5    0.44    1.25
 -10  -8   5    0.30    1.40
  10  -8  -5    0.65    1.83
  10   8  -4   63.34    5.45
  10  -8  -4   56.42    5.17
  10  -8  -4   48.51    5.30
 -10  -8   4   48.41    4.53
  10  -8  -4   40.29    5.68
  10   8  -3    3.47    1.38
  10  -8  -3    3.86    1.71
  10  -8  -3   -0.52    1.81
 -10  -8   3   -0.32    1.44
  10  -8  -3   -0.68    1.91
  10   8  -2  146.08    9.89
  10  -8  -2  133.38    9.64
  10  -8  -2  131.58   10.12
  10  -8  -2  140.79   11.13
  10   8  -1    3.83    1.71
  10  -8  -1    5.56    1.93
  10  -8  -1    5.13    2.23
  10   8  -1    3.39    1.64
  10  -8  -1    2.15    2.29
  10   8   0  135.61    9.64
  10  -8   0  138.33    9.75
  10  -8   0  144.37   10.26
  10  -8   0  140.59   11.39
  10   8   0  128.28    9.34
  10   8   1   32.00    3.83
  10  -8   1   24.79    3.50
  10  -8   1   31.46    4.09
  10  -8   1   36.57    5.44
  10   8   1   23.98    3.63
  10   8   2   56.76    5.34
  10  -8   2   62.14    5.48
  10  -8   2   55.06    5.55
  10   8   2   46.41    5.40
  10   8   3   -0.43    1.47
  10  -8   3    0.44    1.54
  10  -8   3   -0.50    1.63
  10   8   3    0.52    1.96
  10   8   4   18.23    3.05
  10  -8   4   19.41    3.10
  10  -8   4   11.95    2.69
  10   8   4   14.07    3.16
  10   8   5   38.13    4.27
  10  -8   5   22.37    3.72
  10  -8   5   33.85    4.32
  10   8   5   30.13    4.49
  10   8   6    3.20    2.31
  10   8   6    1.41    1.64
  10  -8   6    0.48    1.94
  10  -8   6    0.99    1.57
  10   8   7   43.42    5.05
  10  -8   7   55.02    5.48
  10  -8   7   50.57    5.33
  10   8   8   12.77    2.80
  10  -8   8   16.56    3.10
  10  -8   8   13.82    2.90
  10   8   9   55.11    5.84
  10  -8   9   57.50    5.97
  10  -8   9   52.05    5.61
  10   8  10   -2.28    2.32
  10  -8  10    0.57    2.06
  10   8  11    9.48    2.99
  10  -8  11    3.59    2.80
  10   8  12    3.10    2.36
  10  -8  12    3.13    2.61
  10   8  13    1.96    2.55
  10  -8  13    1.98    2.50
  10   8  14    7.58    2.96
  10  -8  14   11.12    3.62
  10   8  15    1.46    2.47
  10  -8  15   -2.21    2.93
  10  -9 -18   -0.62    1.91
  10  -9 -17    7.96    2.78
  10  -9 -16   66.11    6.88
  10  -9 -15   27.10    4.17
  10  -9 -14    1.73    2.08
  10  -9 -13   19.32    3.62
  10  -9 -12    4.49    2.35
  10  -9 -11   14.46    3.55
  10  -9 -11    8.32    2.72
  10  -9 -10   35.34    5.22
  10  -9 -10   43.13    4.94
  10  -9  -9    2.08    2.36
  10  -9  -9    1.61    1.99
  10  -9  -8    4.20    2.31
  10  -9  -7   14.85    3.69
 -10  -9   7   15.97    2.51
  10   9  -6   17.20    3.08
  10  -9  -6   19.89    3.19
 -10  -9   6   17.44    2.55
  10  -9  -6   23.49    4.25
  10   9  -5   52.66    5.12
  10  -9  -5   49.49    5.00
  10  -9  -5   51.08    5.34
 -10  -9   5   41.83    4.19
  10  -9  -5   50.62    6.21
  10   9  -4    6.53    1.99
  10  -9  -4    9.77    2.50
  10  -9  -4    7.79    2.64
 -10  -9   4    7.47    1.98
  10  -9  -4    5.81    2.64
  10   9  -3   36.43    4.04
  10  -9  -3   31.48    3.88
  10  -9  -3   33.63    4.28
  10  -9  -3   23.25    4.61
  10   9  -2   18.02    2.89
  10  -9  -2   20.22    3.01
  10  -9  -2   19.59    3.42
  10  -9  -2   10.65    3.22
  10   9  -1   12.48    2.52
  10  -9  -1   14.18    2.70
  10  -9  -1   11.14    2.77
  10  -9  -1   10.09    3.15
  10   9   0    0.41    1.68
  10  -9   0   -1.25    1.80
  10  -9   0    0.53    2.10
  10  -9   0   -0.80    2.36
  10   9   1    2.06    1.70
  10  -9   1    7.51    2.14
  10  -9   1    5.22    2.23
  10  -9   1    9.95    3.60
  10   9   2   26.35    3.48
  10  -9   2   21.24    3.26
  10  -9   2   20.14    3.54
  10  -9   2   29.31    5.16
  10   9   3   11.56    2.57
  10  -9   3   11.76    2.53
  10  -9   3   17.41    3.17
  10   9   3   10.03    2.87
  10   9   4   25.05    3.52
  10  -9   4   26.83    3.68
  10  -9   4   18.82    3.39
  10   9   4   23.18    4.12
  10   9   5    3.61    1.81
  10  -9   5    5.46    1.98
  10  -9   5    1.53    1.95
  10   9   6   -0.46    1.81
  10  -9   6   -0.94    1.84
  10  -9   6   -0.51    1.72
  10   9   7    0.48    1.59
  10  -9   7   -0.49    1.62
  10  -9   7   -0.50    1.66
  10   9   8    8.14    2.50
  10  -9   8    4.14    2.13
  10  -9   8    6.56    2.44
  10   9   9    1.62    2.06
  10  -9   9    1.64    1.86
  10  -9   9   -0.50    1.91
  10   9  10   49.45    5.57
  10  -9  10   45.44    5.68
  10  -9  10   48.69    5.43
  10   9  11   17.65    3.59
  10  -9  11   20.24    3.80
  10   9  12    0.62    2.46
  10  -9  12   -0.63    2.25
  10   9  13   37.72    5.38
  10  -9  13   46.86    5.89
  10   9  14   17.21    3.98
  10  -9  14   18.85    4.25
  10   9  15    2.19    2.70
  10 -10 -16    8.16    2.95
  10 -10 -15    3.69    2.51
  10 -10 -14    5.40    2.51
  10 -10 -13    0.59    1.87
  10 -10 -12    1.74    2.09
  10 -10 -11   12.06    3.52
  10 -10 -11    4.57    2.45
  10 -10 -10   10.60    3.32
  10 -10 -10   10.12    2.99
  10 -10  -9    2.28    2.14
  10 -10  -8   -0.77    2.06
  10 -10  -7   50.42    6.28
  10 -10  -7   39.71    4.53
  10 -10  -7   41.64    5.01
  10  10  -6   -1.36    2.00
  10 -10  -6   -0.43    2.00
  10 -10  -6   -0.54    1.64
  10 -10  -6   -0.78    2.65
  10  10  -5   17.40    3.05
  10 -10  -5   14.63    2.74
  10 -10  -5   10.09    2.74
 -10 -10   5   17.72    2.60
  10 -10  -5   16.39    3.83
  10  10  -4    2.10    1.63
  10 -10  -4    0.41    1.48
  10 -10  -4   -1.06    2.12
 -10 -10   4   -0.63    1.51
  10 -10  -4    1.59    2.70
  10  10  -3  215.49   14.38
  10 -10  -3  241.98   14.65
  10 -10  -3  240.81   15.35
  10 -10  -3  224.28   16.67
  10  10  -2    6.52    2.18
  10 -10  -2    5.69    1.91
  10 -10  -2    9.74    2.85
  10 -10  -2    2.47    2.90
  10  10  -1    1.21    1.61
  10 -10  -1    4.03    1.75
  10 -10  -1    0.54    1.65
  10 -10  -1   -0.84    2.14
  10  10   0   20.42    3.18
  10 -10   0   24.09    3.30
  10 -10   0   29.08    4.06
  10 -10   0   23.27    4.55
  10  10   1   10.09    2.40
  10 -10   1    9.77    2.32
  10 -10   1   10.75    3.07
  10 -10   1    8.85    3.31
  10  10   2    0.82    1.56
  10 -10   2    1.66    1.93
  10 -10   2    3.19    2.26
  10 -10   2    0.91    2.56
  10  10   3    0.84    1.59
  10 -10   3   -0.85    1.57
  10 -10   3   -0.52    1.78
  10 -10   3    2.83    3.30
  10  10   4   40.11    4.52
  10 -10   4   41.64    4.53
  10 -10   4   45.76    5.05
  10  10   5   17.66    2.97
  10 -10   5   10.27    2.50
  10 -10   5   16.61    3.17
  10  10   6    4.59    2.18
  10 -10   6    5.59    2.28
  10 -10   6    3.11    1.98
  10  10   7   12.95    2.87
  10 -10   7   14.19    2.89
  10 -10   7   12.26    2.92
  10  10   8   25.46    3.88
  10 -10   8   29.51    4.18
  10 -10   8   28.21    4.05
  10  10   9    7.95    2.84
  10 -10   9   10.73    2.91
  10 -10   9    6.12    2.37
  10  10  10   -1.11    2.45
  10 -10  10   -0.56    2.33
  10 -10  10    1.54    2.35
  10  10  11   15.13    3.52
  10 -10  11   16.55    3.67
  10  10  12    0.61    2.93
  10 -10  12    3.12    2.48
  10  10  13   -1.29    2.69
  10 -10  13   -2.63    2.49
  10  10  14    4.13    3.00
  10 -10  14    6.98    3.03
  10 -11 -13    3.05    2.08
  10 -11 -12    3.25    3.08
  10 -11 -12    2.39    2.49
  10 -11 -11   24.57    4.68
  10 -11 -10    4.93    3.05
  10 -11  -9    1.65    2.53
  10 -11  -8   29.23    5.09
  10 -11  -8   26.93    3.53
  10 -11  -8   23.46    3.82
  10 -11  -7   11.83    3.49
  10  11  -7   13.43    2.56
  10 -11  -7   12.98    2.68
  10 -11  -7    7.74    2.46
  10  11  -6    7.73    2.26
  10 -11  -6    6.91    2.09
  10 -11  -6    7.66    2.50
  10  11  -5    7.81    2.31
  10 -11  -5    6.36    1.88
  10 -11  -5    5.41    2.32
  10 -11  -5    9.38    3.49
  10  11  -4  105.96    7.75
  10 -11  -4  102.25    7.67
  10 -11  -4  105.94    8.46
  10 -11  -4   78.42    9.30
  10  11  -3    5.15    1.66
  10 -11  -3    8.99    2.24
  10 -11  -3    0.54    1.95
  10 -11  -3    4.36    2.78
  10  11  -2    5.08    1.78
  10 -11  -2    4.62    1.79
  10 -11  -2    8.17    2.42
  10 -11  -2    8.95    3.50
  10  11  -1  113.12    8.46
  10 -11  -1  113.61    8.43
  10 -11  -1  136.15    9.76
  10 -11  -1  113.59   11.01
  10  11   0   64.58    5.66
  10 -11   0   71.36    5.87
  10 -11   0   61.05    6.37
  10 -11   0   68.06    8.06
  10  11   1   -0.39    1.67
  10 -11   1   -1.18    1.56
  10 -11   1    0.55    1.74
  10 -11   1   -0.94    2.65
  10  11   2    1.60    1.63
  10 -11   2   -0.40    1.56
  10 -11   2   -0.54    2.25
  10 -11   2    2.89    2.45
  10  11   3    8.22    2.31
  10 -11   3    5.70    2.04
  10 -11   3    5.35    2.30
  10 -11   3    6.92    3.37
  10  11   4  155.23   10.85
  10 -11   4  171.60   11.03
  10 -11   4  152.31   11.33
  10 -11   4  152.41   13.86
  10  11   5   29.08    3.76
  10 -11   5   27.02    3.76
  10 -11   5   23.17    3.87
  10  11   6   14.47    2.93
  10 -11   6   16.87    3.08
  10 -11   6   15.84    3.27
  10  11   7   15.34    3.15
  10 -11   7   17.42    3.28
  10 -11   7   21.94    3.72
  10  11   8    7.97    2.71
  10 -11   8    7.01    2.48
  10 -11   8   10.38    2.71
  10  11   9    9.91    2.75
  10 -11   9    3.67    2.37
  10 -11   9    5.69    2.46
  10  11  10    2.18    2.03
  10 -11  10    6.62    2.44
  10 -11  10    1.03    1.91
  10  11  11   23.51    3.89
  10 -11  11   23.86    4.12
  10 -11  11   22.40    3.73
  10  11  12   33.99    4.98
  10 -11  12   28.82    4.64
  10  11  13   -0.65    2.58
  10 -11  13    1.96    2.48
  10  11  14   -1.36    2.82
  10 -11  14    0.68    2.73
  10 -12 -12   33.19    5.80
  10 -12 -11   22.07    4.93
  10 -12 -10   23.98    5.15
  10 -12  -9   -0.89    2.62
  10 -12  -9    0.41    1.68
  10 -12  -9    0.58    1.92
  10 -12  -8   -0.90    2.54
  10  12  -8   -1.76    1.83
  10 -12  -8    0.40    1.45
  10 -12  -8   -0.57    1.75
  10 -12  -7    6.38    3.01
  10  12  -7    5.46    1.94
  10 -12  -7    8.90    2.15
  10 -12  -7    1.69    1.93
  10  12  -6   32.06    3.86
  10 -12  -6   28.39    3.61
  10 -12  -6   37.89    4.73
  10 -12  -6   36.69    6.01
  10  12  -5    6.24    1.94
  10 -12  -5    5.63    2.12
  10 -12  -5    9.92    2.67
  10 -12  -5   11.09    3.86
  10  12  -4   -1.53    2.32
  10 -12  -4   -0.37    2.09
  10 -12  -4   -0.55    1.86
  10 -12  -4    1.85    2.83
  10  12  -3   17.60    2.88
  10 -12  -3   14.48    2.58
  10 -12  -3   17.00    3.22
  10 -12  -3   11.30    3.75
  10  12  -2    8.88    2.36
  10 -12  -2   10.73    2.38
  10 -12  -2    8.25    2.61
  10 -12  -2   14.27    4.15
  10  12  -1   39.82    4.30
  10 -12  -1   43.17    4.40
  10 -12  -1   36.22    4.80
  10 -12  -1   53.39    7.11
  10  12   0   22.00    3.26
  10 -12   0   16.07    2.86
  10 -12   0   22.23    3.82
  10 -12   0   24.64    5.05
  10  12   1   42.69    4.55
  10 -12   1   47.86    4.70
  10 -12   1   49.89    5.49
  10 -12   1   47.86    7.07
  10  12   2   -0.39    1.43
  10 -12   2    1.89    1.57
  10 -12   2   -0.55    2.05
  10 -12   2    2.04    2.87
  10  12   3    8.63    2.31
  10 -12   3    6.96    2.00
  10 -12   3    4.37    2.34
  10 -12   3    5.20    2.94
  10  12   4   22.39    3.18
  10 -12   4   15.69    2.81
  10 -12   4   16.73    3.34
  10 -12   4   23.30    5.33
  10  12   5   -0.42    1.48
  10 -12   5    0.84    1.79
  10 -12   5    0.53    2.31
  10 -12   5    1.09    3.06
  10  12   6   20.61    3.33
  10 -12   6   16.42    3.14
  10 -12   6   20.76    3.63
  10  12   7   19.08    3.25
  10 -12   7   18.90    3.30
  10 -12   7   18.05    3.47
  10  12   8    3.41    2.28
  10 -12   8    6.28    2.37
  10 -12   8    5.22    2.36
  10  12   9    7.15    2.70
  10 -12   9    8.87    2.83
  10  12  10    6.99    2.53
  10 -12  10    9.80    2.83
  10  12  11   -1.13    2.36
  10 -12  11   -0.52    2.11
  10  12  12    9.63    3.27
  10  12  13   -0.64    2.29
  10 -13 -12   -0.93    2.63
  10 -13 -11    1.89    3.31
  10 -13 -10    9.52    3.65
  10  13 -10    9.26    2.36
  10 -13  -9    0.96    3.25
  10  13  -9   -0.85    1.66
  10 -13  -8    4.83    3.28
  10  13  -8    2.43    1.83
  10 -13  -7   10.73    3.76
  10  13  -7   13.54    2.60
  10 -13  -6   19.69    4.91
  10  13  -6   19.89    2.97
  10 -13  -6   19.32    3.52
  10 -13  -5   38.17    4.98
  10 -13  -5   36.70    6.27
  10  13  -4   13.99    2.54
  10 -13  -4   10.55    2.66
  10 -13  -4   15.91    4.44
  10  13  -3    1.05    1.61
  10 -13  -3   -0.56    2.05
  10 -13  -3   -1.01    2.70
  10  13  -2   -1.40    1.62
  10 -13  -2   -1.11    2.10
  10 -13  -2    1.01    2.98
  10  13  -1    3.86    1.89
  10 -13  -1    3.38    2.04
  10 -13  -1    5.15    2.91
  10  13   0   -1.42    2.13
  10 -13   0   -0.56    1.96
  10 -13   0    1.04    2.51
  10  13   1   -0.36    1.84
  10 -13   1    1.12    2.24
  10 -13   1    2.12    2.98
  10  13   2    4.03    1.76
  10 -13   2    9.53    2.71
  10 -13   2    7.50    3.53
  10  13   3    1.90    1.81
  10 -13   3    5.52    2.53
  10 -13   3    9.82    3.83
  10  13   4    9.88    2.28
  10 -13   4    4.37    2.48
  10 -13   4    7.75    3.78
  10  13   5   21.73    3.29
  10 -13   5   17.81    3.43
  10 -13   5   12.37    4.26
  10  13   6   15.97    3.07
  10 -13   6   16.67    3.33
  10  13   7    8.57    2.57
  10 -13   7    8.05    2.65
  10  13   8  120.41    9.48
  10 -13   8  130.66    9.87
  10 -13   9   12.06    3.08
  10 -14 -10   -1.02    2.86
  10 -14  -9   38.83    6.73
  10 -14  -8    8.24    3.73
  10 -14  -7    2.09    3.20
  10 -14  -6   18.99    5.23
  10 -14  -5   -2.12    3.48
  10 -14  -4    9.58    3.97
  10 -14  -3    7.41    3.73
  10 -14  -2    7.52    3.89
  10 -14  -1   46.84    7.38
  10 -14   0   50.99    7.62
  10 -14   1    8.94    4.05
  11   0 -21   -0.36    1.68
  11   0 -20   91.08    7.00
  11   0 -19    0.36    1.51
  11   0 -18   36.98    3.98
  11   0 -17    1.45    1.51
  11   0 -16   39.62    4.18
  11   0 -15   -1.08    1.50
  11   0 -14   13.29    2.51
  11   0 -13    0.36    1.29
  11   0 -12    3.59    1.71
  11   0 -11   -1.45    1.48
  11   0 -10  498.08   27.93
  11   0  -9    2.58    1.47
  11   0  -8    0.37    1.22
  11   0  -7    0.74    1.34
  11   0  -6   30.20    3.61
  11   0  -5   -0.38    1.38
  11   0  -4   63.73    5.48
  11   0  -4   62.04    3.94
  11   0  -3    1.46    1.37
  11   0  -3   -0.18    0.71
  11   0  -3   -0.79    1.42
  11   0  -2   45.33    4.75
  11   0  -2   42.11    4.38
  11   0  -1    0.48    1.14
  11   0   0  113.32    8.61
  11   0   1   -1.44    1.53
  11   0   2   11.10    2.49
  11   0   3   -1.95    1.66
  11   0   4   16.26    3.13
  11   0   5   -1.01    1.55
  11   0   6  115.78    9.05
  11   0   7   -1.07    2.19
  11   0   8   86.86    7.60
  11   0   9   -1.71    2.05
  11   0  10    8.32    2.70
  11   0  11    0.62    1.90
  11   0  12   13.15    3.46
  11   0  13    0.68    2.17
  11   0  14   10.70    3.25
  11  -1 -21   22.70    3.51
  11  -1 -20   24.68    3.44
  11   1 -20   21.37    3.03
  11  -1 -19   53.51    5.26
  11   1 -19   57.06    4.97
  11  -1 -18    3.21    1.81
  11   1 -18    5.21    1.82
  11  -1 -17   73.86    6.04
  11   1 -17   62.36    5.38
  11  -1 -16   -0.80    1.69
  11   1 -16    5.63    1.76
  11   1 -15   42.68    4.07
  11  -1 -15   33.61    3.99
  11  -1 -14    4.31    1.75
  11   1 -14    6.40    1.78
  11  -1 -13   48.42    4.95
  11   1 -13   63.10    5.05
  11  -1 -12    1.16    1.44
  11   1 -12    2.05    1.42
  11  -1 -11    8.12    2.10
  11   1 -11    9.24    2.04
  11  -1 -10   -0.77    1.57
  11   1 -10    4.14    1.71
  11  -1  -9   93.81    7.03
  11   1  -9   85.07    6.64
  11  -1  -8    2.33    1.36
  11   1  -8    1.43    1.64
 -11  -1   7   61.10    5.44
  11  -1  -7   67.85    5.61
  11   1  -7   58.16    5.18
 -11  -1   6   -0.74    1.50
  11  -1  -6   -0.40    1.42
  11   1  -6    0.37    1.28
 -11  -1   5   26.37    3.24
  11  -1  -5   21.05    3.11
  11   1  -5   21.79    3.01
  11  -1  -5   23.72    2.25
  11  -1  -4   40.71    4.45
  11  -1  -4   31.14    3.80
  11   1  -4   34.08    3.82
  11  -1  -4   35.85    3.08
  11  -1  -3   29.13    3.73
  11  -1  -3   31.23    3.70
  11  -1  -3   27.42    2.82
  11   1  -3   25.34    2.05
  11  -1  -2   14.89    2.77
  11  -1  -2   13.59    2.55
  11  -1  -1   16.15    2.66
  11  -1  -1    9.55    2.26
  11  -1   0   37.06    4.20
  11  -1   0   30.31    3.78
  11  -1   1  166.09   11.47
  11  -1   2   78.18    6.70
  11  -1   3    7.78    2.26
  11  -1   4    3.94    1.79
  11  -1   5   96.10    7.86
  11  -1   6   42.81    4.86
  11  -1   7   61.73    6.06
  11  -1   8    7.75    2.38
  11  -1   9  107.69    8.93
  11  -1  10   70.74    6.86
  11  -1  11    7.45    2.66
  11  -1  12   11.84    3.36
  11  -1  13   -0.68    2.59
  11  -1  14   43.52    6.10
  11  -2 -22   50.27    5.25
  11  -2 -21   23.31    3.54
  11  -2 -20   11.45    2.73
  11  -2 -19   42.07    4.70
  11   2 -19   42.75    4.00
  11  -2 -18    4.79    2.07
  11   2 -18    5.25    1.70
  11  -2 -17    2.16    1.84
  11   2 -17    4.77    1.65
  11  -2 -16    4.71    1.84
  11   2 -16    5.47    1.61
  11  -2 -15   20.95    3.37
  11   2 -15   30.24    3.24
  11  -2 -14   24.31    3.38
  11   2 -14   24.76    3.00
  11  -2 -13    0.42    1.34
  11   2 -13    0.96    1.27
  11  -2 -12    2.53    1.83
  11   2 -12    3.90    1.52
  11  -2 -11   -0.42    1.55
  11   2 -11    0.33    1.22
  11  -2 -10    0.83    1.50
  11   2 -10    1.33    1.47
  11  -2  -9    6.62    2.02
  11   2  -9    7.18    1.78
 -11  -2   8    0.36    1.46
  11  -2  -8    0.82    1.48
  11   2  -8    0.35    1.46
 -11  -2   7  100.19    7.26
  11  -2  -7   92.99    7.37
  11   2  -7   93.72    7.12
  11  -2  -6    9.14    1.64
 -11  -2   6    8.52    2.15
  11  -2  -6    5.76    1.89
 -11  -2   5   42.18    4.40
  11  -2  -5   47.40    4.73
  11  -2  -5   45.67    3.86
  11   2  -4  135.70   10.10
  11  -2  -4  139.38   10.09
 -11  -2   4  124.99    9.24
  11  -2  -4  135.63    9.69
  11  -2  -4  155.86    9.09
  11   2  -3   75.79    6.91
  11  -2  -3   89.12    7.18
  11  -2  -3   83.38    6.81
  11  -2  -3   83.36    6.15
  11   2  -2    0.45    0.83
  11   2  -2    0.97    1.24
  11  -2  -2    3.34    1.95
  11  -2  -2    0.70    1.26
  11  -2  -2    2.54    1.68
  11   2  -1    5.28    1.66
  11  -2  -1    7.12    2.00
  11  -2  -1    7.30    2.06
  11   2   0   12.43    2.52
  11  -2   0   18.56    3.09
  11   2   1   19.34    3.11
  11  -2   1   17.80    2.95
  11   2   2  130.02    9.12
  11  -2   2  106.01    8.68
  11   2   3   35.59    4.24
  11  -2   3   40.92    4.62
  11   2   4    0.49    1.39
  11  -2   4   -0.99    1.78
  11   2   5  153.49   10.88
  11  -2   5  147.91   10.84
  11   2   6   73.69    6.79
  11  -2   6   77.41    6.87
  11   2   7    7.53    2.40
  11  -2   7    7.00    1.97
  11   2   8    5.53    2.27
  11  -2   8    7.18    2.32
  11   2   9    8.57    2.73
  11  -2   9    6.28    2.25
  11   2  10   -0.60    1.96
  11  -2  10    2.38    2.14
  11   2  11   11.84    3.32
  11  -2  11   12.45    3.23
  11   2  12   11.89    3.26
  11  -2  12   19.12    3.95
  11   2  13   33.56    5.14
  11  -2  13   43.09    5.63
  11  -2  14   57.23    6.89
  11   2  14   51.65    6.34
  11  -3 -23    2.81    2.15
  11  -3 -22    0.47    1.82
  11  -3 -21   20.51    3.45
  11  -3 -20   75.15    6.67
  11  -3 -19   12.43    2.81
  11  -3 -18    0.46    1.78
  11   3 -18    1.57    1.31
  11  -3 -17   15.52    2.95
  11   3 -17   14.65    2.29
  11  -3 -16    4.10    1.98
  11   3 -16    3.93    1.58
  11  -3 -15   47.24    5.02
  11   3 -15   48.46    4.24
  11  -3 -14   75.67    6.46
  11   3 -14   68.39    5.52
  11  -3 -13   -0.45    1.72
  11   3 -13    1.24    1.44
  11  -3 -12   17.54    3.09
  11  -3 -11   12.60    2.64
  11  -3 -10   62.88    5.82
 -11  -3   9   -0.68    1.42
  11  -3  -9   -1.34    1.46
 -11  -3   8    1.72    1.43
  11  -3  -8   -0.44    1.40
  11  -3  -7    6.53    1.64
 -11  -3   7    6.16    1.92
  11  -3  -7    8.35    2.17
  11  -3  -6    0.30    1.02
 -11  -3   6   -0.69    1.71
  11  -3  -6    1.31    1.44
 -11  -3   5   14.93    2.68
  11  -3  -5   17.45    2.91
  11  -3  -5   18.77    2.58
  11   3  -4   25.62    3.62
  11  -3  -4   21.23    3.25
 -11  -3   4   24.05    3.19
  11  -3  -4   24.01    3.37
  11  -3  -4   24.87    3.06
  11   3  -3   59.72    5.70
  11  -3  -3   46.81    5.13
  11  -3  -3   61.73    5.50
  11  -3  -3   53.80    4.92
  11   3  -2   28.71    3.75
  11  -3  -2   28.00    3.76
  11  -3  -2   27.56    3.67
  11  -3  -2   25.13    3.33
  11   3  -2   27.88    2.18
  11   3  -1    5.29    1.35
  11   3  -1    9.62    2.18
  11  -3  -1    4.26    1.87
  11   3   0    3.29    1.36
  11   3   0    2.41    1.69
  11  -3   0   -0.48    1.52
  11   3   1   20.82    3.25
  11  -3   1   17.36    3.00
  11  -3   2   35.35    4.18
  11   3   2   27.17    3.91
  11  -3   2   36.03    4.14
  11   3   3   23.92    3.67
  11  -3   3   25.39    3.62
  11  -3   3   20.97    3.36
  11   3   4   50.57    5.30
  11  -3   4   46.16    5.10
  11  -3   4   57.97    5.47
  11   3   5   -2.03    1.73
  11  -3   5    1.53    1.62
  11   3   6   19.33    3.47
  11  -3   6   23.54    3.53
  11   3   7   10.27    2.75
  11  -3   7   15.16    3.01
  11   3   8   95.94    8.01
  11  -3   8   87.76    7.82
  11   3   9   12.60    2.89
  11  -3   9    2.29    2.25
  11   3  10   29.90    4.66
  11  -3  10   37.03    4.84
  11   3  11   60.15    6.45
  11  -3  11   56.38    6.34
  11   3  12   49.23    5.85
  11  -3  12   36.52    5.30
  11   3  13    2.75    2.55
  11  -3  13    2.06    2.10
  11   3  14   20.15    4.29
  11  -3  14   17.21    3.92
  11  -4 -23   17.46    3.53
  11  -4 -22   13.94    3.16
  11  -4 -21   31.25    4.28
  11  -4 -20    9.85    2.59
  11  -4 -19    2.94    2.13
  11  -4 -18   17.98    3.25
  11  -4 -17    0.48    1.69
  11  -4 -16    2.89    1.88
  11  -4 -15    4.78    2.08
  11  -4 -14    3.32    1.94
  11  -4 -13   21.78    3.40
  11  -4 -12   -1.43    1.57
  11  -4 -11  111.49    8.66
  11  -4 -10   26.51    3.71
 -11  -4   9   77.47    6.16
  11  -4  -9   83.41    6.91
  11  -4  -8   16.50    2.54
 -11  -4   8   14.21    2.37
  11  -4  -8   11.77    2.63
  11  -4  -7    1.44    1.36
 -11  -4   7   -0.34    1.39
  11  -4  -7   -0.94    1.60
 -11  -4   6    0.34    1.43
  11  -4  -6    0.93    1.58
  11  -4  -6    4.09    1.58
 -11  -4   5   18.65    2.86
  11  -4  -5   28.31    3.57
  11  -4  -5   18.07    2.91
  11   4  -4    7.59    2.09
  11  -4  -4    7.74    2.00
 -11  -4   4    6.56    1.84
  11  -4  -4    5.54    2.18
  11  -4  -4    7.74    2.05
  11   4  -3  101.06    8.03
  11  -4  -3  103.97    8.02
  11  -4  -3   97.55    7.77
  11  -4  -3   92.55    7.53
  11   4  -2   38.38    4.38
  11  -4  -2   46.82    4.65
  11  -4  -2   44.85    4.60
  11   4  -2   32.66    2.52
  11   4  -1    2.40    1.59
  11  -4  -1    3.79    1.57
  11   4  -1    4.14    1.17
  11   4   0  131.80    9.77
  11  -4   0  119.80    9.52
  11   4   0  143.90    8.81
  11   4   1   15.54    2.57
  11   4   1   17.91    2.98
  11  -4   1   17.33    2.96
  11  -4   1   18.20    3.06
  11   4   2    9.63    2.10
  11   4   2   11.63    2.71
  11  -4   2    7.25    2.19
  11  -4   2    9.46    2.49
  11   4   3   56.04    5.54
  11  -4   3   53.68    5.50
  11  -4   3   54.61    5.45
  11   4   4   17.87    3.10
  11  -4   4   16.45    3.14
  11  -4   4   15.89    3.04
  11   4   5   10.68    2.48
  11  -4   5    7.66    2.41
  11  -4   5    6.42    2.09
  11   4   6    2.09    1.60
  11  -4   6    0.52    1.54
  11   4   7   32.59    4.38
  11  -4   7   33.13    4.52
  11   4   8    2.76    1.87
  11  -4   8   -0.55    1.88
  11   4   9   10.35    2.72
  11  -4   9   10.39    2.99
  11   4  10    9.00    2.83
  11  -4  10   10.81    3.02
  11   4  11   70.03    7.11
  11  -4  11   68.34    7.15
  11   4  12   25.35    4.26
  11  -4  12   27.87    4.53
  11   4  13   20.72    4.33
  11  -4  13   22.72    4.24
  11   4  14    8.67    3.27
  11  -4  14    6.47    3.31
  11  -5 -24   37.73    4.86
  11  -5 -23    3.72    2.31
  11  -5 -22   61.01    6.22
  11  -5 -21   11.10    2.89
  11  -5 -20    2.11    2.15
  11  -5 -19    3.66    2.09
  11  -5 -18   55.93    5.90
  11  -5 -17   13.34    2.90
  11  -5 -16   33.56    4.31
  11  -5 -15   -0.50    1.76
  11  -5 -14    4.00    2.26
  11  -5 -13   56.86    5.69
  11  -5 -12   52.47    5.50
  11  -5 -11    5.44    2.12
 -11  -5  10    5.29    1.72
  11  -5 -10    8.43    2.37
  11  -5  -9   15.00    2.71
 -11  -5   9   17.67    2.66
  11  -5  -9   18.45    3.20
  11  -5  -8   22.43    3.25
 -11  -5   8   17.30    2.64
  11  -5  -8   25.33    3.63
  11  -5  -7    0.43    1.37
 -11  -5   7    0.32    1.32
  11  -5  -7    1.49    1.63
 -11  -5   6   16.74    2.61
  11  -5  -6   22.25    3.37
  11  -5  -6   21.13    3.17
  11  -5  -5   12.04    2.61
 -11  -5   5   17.46    2.56
  11  -5  -5   11.30    2.63
  11  -5  -5    5.42    2.07
  11   5  -4   10.18    2.65
  11  -5  -4    8.71    2.43
 -11  -5   4   12.27    2.30
  11  -5  -4   13.21    2.78
  11  -5  -4   10.83    2.43
  11   5  -3    0.50    1.69
  11  -5  -3    3.36    1.78
  11  -5  -3    1.48    1.73
  11   5  -2    8.72    2.31
  11  -5  -2    2.37    1.79
  11   5  -2    7.50    1.10
  11  -5  -2    7.83    2.45
  11   5  -1    4.32    1.92
  11  -5  -1    2.85    1.86
  11  -5  -1    6.73    2.29
  11   5  -1    3.00    1.15
  11   5   0   45.85    5.01
  11  -5   0   44.19    4.88
  11  -5   0   49.21    5.25
  11   5   0   54.07    4.46
  11   5   1   31.54    3.57
  11   5   1   29.34    3.90
  11  -5   1   26.44    3.79
  11  -5   1   33.72    4.12
  11   5   2    3.64    1.87
  11   5   2    6.25    2.18
  11  -5   2    9.19    2.38
  11  -5   2    4.85    2.00
  11   5   3   11.74    2.64
  11   5   3    9.22    2.41
  11  -5   3    5.86    2.20
  11  -5   3    9.81    2.57
  11   5   4   18.29    3.22
  11   5   4   25.78    3.59
  11  -5   4   14.48    2.87
  11  -5   4   17.77    3.19
  11   5   5   44.58    5.17
  11   5   5   39.21    4.74
  11  -5   5   43.13    4.82
  11  -5   5   38.29    4.56
  11   5   6    9.08    2.59
  11   5   6    7.33    2.39
  11  -5   6    5.79    2.28
  11  -5   6   13.25    2.80
  11   5   7   17.28    3.43
  11  -5   7   18.97    3.50
  11   5   8   86.92    7.54
  11  -5   8   75.12    7.21
  11   5   9    0.58    1.96
  11  -5   9    2.32    2.20
  11   5  10   13.25    3.36
  11  -5  10   10.28    2.87
  11   5  11   36.27    5.11
  11  -5  11   32.59    4.98
  11   5  12   -0.66    2.53
  11  -5  12   -3.97    2.87
  11   5  13   15.21    3.79
  11  -5  13   24.21    4.42
  11   5  14    9.39    3.32
  11  -5  14    6.49    2.90
  11  -6 -22    2.81    2.19
  11  -6 -21   18.97    3.64
  11  -6 -20    1.67    2.21
  11  -6 -19    9.91    2.85
  11  -6 -18    0.55    1.97
  11  -6 -17    2.17    2.06
  11  -6 -16    9.68    2.51
  11  -6 -15   38.30    4.90
  11  -6 -14   16.85    3.31
  11  -6 -13   27.09    4.02
  11  -6 -12   30.56    4.18
  11  -6 -11    2.07    2.24
  11  -6 -10   45.23    5.04
 -11  -6  10   39.62    4.05
  11  -6 -10   55.00    5.35
  11  -6  -9   28.30    3.81
 -11  -6   9   22.15    2.91
  11  -6  -9   19.07    3.33
  11  -6  -8    1.96    1.51
 -11  -6   8    2.18    1.38
  11  -6  -8    5.21    2.17
  11  -6  -7   39.06    4.76
 -11  -6   7   40.20    3.96
  11  -6  -7   38.87    4.63
 -11  -6   6   12.69    2.21
  11  -6  -6   10.38    2.67
  11  -6  -6    9.14    2.43
  11   6  -5   14.45    2.98
  11  -6  -5   20.31    3.06
 -11  -6   5   15.25    2.46
  11  -6  -5   16.50    3.19
  11  -6  -5   10.88    2.79
  11   6  -4   54.27    5.55
  11  -6  -4   59.25    5.52
  11  -6  -4   46.91    5.45
  11   6  -3    6.40    2.17
  11  -6  -3    9.50    2.10
  11  -6  -3    8.36    2.58
  11   6  -2   43.52    4.75
  11  -6  -2   43.10    4.60
  11  -6  -2   35.58    4.77
  11   6  -1   79.07    6.92
  11  -6  -1   89.69    7.10
  11  -6  -1   85.78    7.23
  11  -6  -1   71.89    7.28
  11   6  -1   75.09    5.56
  11   6   0    6.25    2.01
  11  -6   0    9.12    2.45
  11  -6   0    9.55    2.45
  11  -6   0    9.84    2.88
  11   6   0   10.74    2.07
  11   6   1   98.73    8.03
  11  -6   1   95.74    7.99
  11  -6   1  113.28    8.46
  11   6   1   98.35    7.51
  11   6   2    1.92    1.63
  11  -6   2    4.35    1.80
  11  -6   2    1.52    1.78
  11   6   2    3.43    1.75
  11   6   3   26.76    3.76
  11   6   3   20.34    3.34
  11  -6   3   23.55    3.60
  11  -6   3   26.67    3.80
  11   6   4   33.20    4.48
  11   6   4   36.18    4.37
  11  -6   4   34.60    4.35
  11  -6   4   36.04    4.44
  11   6   5    5.05    2.26
  11   6   5    7.11    2.31
  11  -6   5    6.16    2.25
  11  -6   5    8.67    2.55
  11   6   6    1.20    2.10
  11   6   6    2.09    1.66
  11  -6   6   -0.53    2.16
  11  -6   6    1.54    1.80
  11   6   7   38.25    5.30
  11   6   7   43.45    4.94
  11  -6   7   37.25    4.59
  11  -6   7   39.88    4.81
  11   6   8   -1.11    1.94
  11  -6   8    5.59    2.51
  11   6   9   20.20    3.67
  11  -6   9   23.27    3.76
  11   6  10   -0.60    1.99
  11  -6  10   -0.61    2.14
  11   6  11   17.31    3.65
  11  -6  11   13.54    3.42
  11   6  12   17.91    3.97
  11  -6  12   24.67    4.44
  11   6  13   -0.69    2.50
  11  -6  13   -2.09    2.89
  11   6  14    8.69    3.50
  11  -7 -20    4.70    2.30
  11  -7 -19   16.86    3.63
  11  -7 -18   -0.58    1.96
  11  -7 -17    6.27    2.76
  11  -7 -16   49.06    5.59
  11  -7 -15   34.01    4.48
  11  -7 -14    1.10    1.99
  11  -7 -13    3.82    2.13
  11  -7 -12   34.58    4.46
  11  -7 -11   -0.53    1.98
  11  -7 -10   11.53    2.89
  11  -7 -10   10.14    2.70
  11  -7  -9   39.24    4.74
  11  -7  -9   29.20    4.21
 -11  -7   8    7.28    1.87
  11  -7  -8    6.37    2.46
  11  -7  -7    9.67    2.77
 -11  -7   7   10.93    2.09
  11  -7  -7    6.43    2.41
  11  -7  -6    2.42    2.06
 -11  -7   6    5.54    1.80
  11  -7  -6    2.30    2.02
  11   7  -5   -0.51    1.86
  11  -7  -5    4.37    2.06
 -11  -7   5    6.79    1.94
  11  -7  -5    0.59    1.73
  11   7  -4   14.49    2.90
  11  -7  -4   11.51    2.40
  11  -7  -4    7.20    2.39
  11   7  -3    4.84    1.71
  11  -7  -3    2.37    1.85
  11  -7  -3    2.14    2.19
  11  -7  -3    6.85    2.75
  11   7  -2  162.76   11.42
  11  -7  -2  160.78   11.37
  11  -7  -2  170.49   11.80
  11  -7  -2  162.09   12.31
  11   7  -1   10.98    2.76
  11  -7  -1   16.20    2.99
  11  -7  -1   12.10    2.79
  11  -7  -1   10.78    2.98
  11  -7   0   40.89    4.58
  11   7   0   34.62    4.34
  11  -7   0   36.06    4.56
  11  -7   0   29.78    4.70
  11   7   1   60.54    5.73
  11  -7   1   49.51    5.42
  11  -7   1   60.85    5.90
  11   7   2   13.29    2.76
  11  -7   2    9.60    2.64
  11  -7   2   10.48    2.73
  11   7   3   20.74    3.30
  11  -7   3   24.96    3.71
  11   7   4    1.97    1.62
  11  -7   4    1.51    1.60
  11  -7   4    1.04    1.65
  11   7   5   19.71    3.38
  11  -7   5   22.59    3.72
  11  -7   5   20.93    3.60
  11   7   6    5.22    2.23
  11  -7   6    4.75    2.25
  11  -7   6    3.67    2.05
  11   7   7   -1.60    2.17
  11  -7   7    2.70    1.95
  11  -7   7   -2.64    2.15
  11   7   8    1.11    2.05
  11  -7   8   -0.56    2.38
  11  -7   8    2.16    2.19
  11   7   9   21.94    3.72
  11  -7   9   14.61    3.45
  11   7  10   -0.61    2.13
  11  -7  10    5.54    2.56
  11   7  11   62.28    7.09
  11  -7  11   78.91    7.60
  11   7  12   -3.31    2.98
  11  -7  12   -2.00    2.66
  11   7  13   -1.38    2.69
  11  -7  13   -0.70    2.89
  11  -8 -18    3.63    2.58
  11  -8 -17    1.79    2.38
  11  -8 -16    0.59    2.07
  11  -8 -15   13.40    3.12
  11  -8 -14   24.67    4.12
  11  -8 -13   10.24    2.86
  11  -8 -12   26.99    4.14
  11  -8 -11    1.22    2.01
  11  -8 -11    2.78    2.06
  11  -8 -10   44.37    5.86
  11  -8 -10   59.47    5.95
  11  -8  -9   13.01    3.21
  11  -8  -9   10.42    2.97
  11  -8  -8    6.88    2.51
  11  -8  -8    5.47    2.30
  11  -8  -7   23.58    4.12
 -11  -8   7   19.80    2.81
  11   8  -6    1.04    1.89
  11  -8  -6    8.23    2.30
 -11  -8   6    6.86    1.92
  11  -8  -6    7.72    2.85
  11   8  -5   -0.51    1.88
  11  -8  -5    0.48    1.63
  11  -8  -5    1.30    1.92
  11   8  -4   11.26    2.73
  11  -8  -4    6.59    2.41
  11  -8  -4    9.97    2.70
  11  -8  -4    8.65    2.92
  11   8  -3    1.43    1.62
  11  -8  -3    0.47    1.73
  11  -8  -3   -0.55    1.87
  11  -8  -3    0.69    1.94
  11   8  -2   26.95    3.68
  11  -8  -2   25.05    3.66
  11  -8  -2   21.47    3.78
  11  -8  -2   27.58    4.67
  11   8  -1   46.17    5.08
  11  -8  -1   47.22    5.20
  11  -8  -1   60.52    5.92
  11  -8  -1   54.34    6.46
  11   8   0  201.68   13.69
  11  -8   0  218.21   13.88
  11  -8   0  209.16   14.18
  11  -8   0  206.32   15.37
  11  -8   1   41.06    4.62
  11   8   1   34.04    4.36
  11  -8   1   47.28    5.18
  11  -8   1   45.70    6.17
  11   8   2   14.58    2.94
  11  -8   2   13.39    2.87
  11  -8   2   14.46    2.96
  11   8   3   14.36    3.09
  11  -8   3   13.16    2.83
  11  -8   3   14.02    3.05
  11   8   4   75.33    6.62
  11  -8   4   85.15    6.94
  11   8   5   -0.50    1.81
  11  -8   5   -1.03    1.95
  11  -8   5   -0.53    1.69
  11   8   6   16.88    3.35
  11  -8   6   21.35    3.54
  11  -8   6   21.48    3.62
  11   8   7    3.18    2.06
  11  -8   7    1.62    2.05
  11  -8   7    0.53    1.92
  11   8   8   11.59    3.13
  11  -8   8   17.37    3.58
  11  -8   8    8.12    2.90
  11   8   9   68.76    6.79
  11  -8   9   69.90    7.02
  11   8  10   19.57    4.02
  11  -8  10   31.47    4.59
  11   8  11   36.01    5.09
  11  -8  11   40.91    5.48
  11   8  12    9.23    3.12
  11  -8  12    0.67    2.72
  11   8  13   15.15    3.77
  11  -8  13   22.33    4.33
  11  -9 -15   14.58    3.38
  11  -9 -14   -0.60    2.09
  11  -9 -13    4.12    2.41
  11  -9 -12    7.56    2.73
  11  -9 -11   -0.67    2.22
  11  -9 -11    1.15    2.01
  11  -9 -10   12.26    3.32
  11  -9 -10   10.79    2.87
  11  -9  -9    3.42    2.47
  11  -9  -9    1.69    2.08
  11  -9  -8   -0.69    2.35
  11  -9  -7    2.12    2.61
  11   9  -7    0.52    2.02
  11  -9  -7   -0.48    2.08
  11   9  -6   32.04    4.25
  11  -9  -6   25.78    3.87
  11  -9  -6   30.59    4.87
  11   9  -5   -2.46    2.36
  11  -9  -5    0.47    1.91
  11  -9  -5   -0.56    1.92
  11   9  -4    0.48    2.17
  11  -9  -4    2.32    1.58
  11  -9  -4    1.70    2.04
  11  -9  -4    0.73    2.16
  11   9  -3    1.86    1.73
  11  -9  -3    4.64    1.89
  11  -9  -3    1.13    1.99
  11  -9  -3    0.75    2.13
  11   9  -2  150.96   11.02
  11  -9  -2  163.42   11.20
  11  -9  -2  161.48   11.75
  11  -9  -2  163.05   12.87
  11   9  -1   60.48    5.94
  11  -9  -1   62.93    5.89
  11  -9  -1   63.96    6.43
  11  -9  -1   70.60    7.68
  11   9   0   32.31    4.15
  11  -9   0   38.31    4.38
  11  -9   0   31.26    4.63
  11  -9   0   42.69    6.02
  11   9   1    0.91    1.81
  11  -9   1   -0.46    1.80
  11  -9   1    2.21    2.15
  11  -9   1   -0.85    2.51
  11   9   2    0.93    1.67
  11  -9   2   -0.47    1.70
  11  -9   2    0.55    1.86
  11  -9   2   -0.89    2.72
  11   9   3    5.68    2.38
  11  -9   3    5.29    2.21
  11  -9   3    1.65    1.69
  11   9   4  163.80   11.54
  11  -9   4  158.85   11.47
  11  -9   4  175.03   12.15
  11   9   5    4.46    2.04
  11  -9   5    5.02    2.32
  11  -9   5    9.31    2.48
  11   9   6    9.13    2.78
  11  -9   6   10.83    2.76
  11  -9   6   14.17    3.12
  11   9   7    4.21    2.29
  11  -9   7    1.61    2.28
  11  -9   7    7.11    2.63
  11   9   8   -1.64    2.33
  11  -9   8   -1.68    2.64
  11  -9   8   -1.08    2.16
  11   9   9    8.70    2.80
  11  -9   9   11.24    3.11
  11  -9   9   15.43    3.45
  11   9  10    1.20    2.34
  11  -9  10    9.77    2.98
  11   9  11   50.71    5.85
  11  -9  11   35.01    5.31
  11   9  12   39.14    5.22
  11  -9  12   21.24    4.23
  11 -10 -13   27.38    4.30
  11 -10 -12   38.38    5.06
  11 -10 -11    3.69    2.43
  11 -10 -11    0.59    2.07
  11 -10 -10   35.80    5.50
  11 -10 -10   21.63    4.01
  11 -10  -9   13.50    3.72
  11 -10  -8    3.79    2.60
  11 -10  -8   10.97    2.80
  11 -10  -7   23.20    4.40
  11  10  -7   24.36    3.80
  11 -10  -7   19.43    3.36
  11  10  -6   22.01    3.59
  11 -10  -6   18.52    3.25
  11 -10  -6   24.42    3.89
  11 -10  -6   20.25    4.42
  11  10  -5   99.30    7.82
  11 -10  -5   94.97    7.56
  11 -10  -5   86.15    7.94
  11 -10  -5   88.05    9.05
  11  10  -4    2.76    2.11
  11 -10  -4    2.27    2.04
  11 -10  -4    2.31    1.97
  11 -10  -4    5.58    2.71
  11  10  -3    9.58    2.65
  11 -10  -3    5.44    2.30
  11 -10  -3    7.49    2.79
  11 -10  -3    6.53    2.96
  11  10  -2    4.05    2.13
  11 -10  -2    3.59    1.91
  11 -10  -2    1.73    1.84
  11 -10  -2    0.84    2.57
  11  10  -1   -0.45    2.24
  11 -10  -1   -0.45    1.86
  11 -10  -1   -0.58    2.07
  11 -10  -1    5.15    3.18
  11 -10   0   46.87    4.81
  11  10   0   36.82    4.40
  11 -10   0   36.98    4.94
  11 -10   0   37.80    5.99
  11  10   1   27.76    3.77
  11 -10   1   27.17    3.67
  11 -10   1   27.75    4.09
  11 -10   1   26.33    5.13
  11  10   2   -0.45    1.68
  11 -10   2   -0.92    1.84
  11 -10   2   -0.56    1.90
  11  10   3    4.64    2.05
  11 -10   3    1.88    1.88
  11 -10   3    5.57    2.41
  11 -10   3    0.97    2.62
  11  10   4   14.75    2.93
  11 -10   4   20.66    3.36
  11 -10   4   11.73    3.06
  11  10   5   33.36    4.25
  11 -10   5   36.82    4.47
  11 -10   5   27.94    4.33
  11  10   6   93.28    8.29
  11 -10   6  122.53    8.94
  11 -10   6  105.16    8.76
  11  10   7   19.26    3.42
  11 -10   7   11.10    2.97
  11 -10   7   15.47    3.34
  11  10   8   58.62    6.20
  11 -10   8   54.68    6.09
  11 -10   8   61.57    6.20
  11  10   9   -1.71    2.42
  11 -10   9   -1.15    2.49
  11 -10   9   -2.76    2.35
  11  10  10   15.41    3.60
  11 -10  10   13.24    3.31
  11  10  11   12.34    3.32
  11 -10  11   10.65    3.20
  11  10  12    0.65    2.40
  11 -10  12   -0.66    2.23
  11 -11 -11    3.21    2.89
  11 -11 -10    4.05    3.16
  11 -11  -9   60.83    5.89
  11 -11  -9   66.07    7.53
  11 -11  -8    2.47    2.43
  11  11  -8    3.01    1.91
  11 -11  -8    0.93    1.85
  11 -11  -7    7.57    3.22
  11  11  -7    8.69    2.47
  11 -11  -7   10.37    2.58
  11 -11  -7    8.10    2.50
  11 -11  -6    1.77    1.77
  11 -11  -6    2.31    2.35
  11 -11  -6   -0.85    2.60
  11  11  -5   40.62    4.69
  11 -11  -5   39.36    4.62
  11 -11  -5   42.62    5.28
  11 -11  -5   53.10    6.93
  11  11  -4   -0.45    2.31
  11 -11  -4    0.87    2.25
  11 -11  -4    2.91    2.10
  11 -11  -4    0.87    2.86
  11  11  -3   -3.52    2.30
  11 -11  -3   -1.29    2.22
  11 -11  -3    2.34    2.05
  11 -11  -3   -1.76    2.59
  11  11  -2   37.25    4.49
  11 -11  -2   33.82    4.31
  11 -11  -2   40.38    4.96
  11 -11  -2   40.74    6.11
  11  11  -1   49.37    4.97
  11 -11  -1   47.73    4.96
  11 -11  -1   38.96    5.23
  11 -11  -1   34.18    6.08
  11  11   0   17.24    3.12
  11 -11   0   15.93    2.99
  11 -11   0   21.43    3.77
  11 -11   0   25.40    4.95
  11  11   1    0.44    1.74
  11 -11   1    4.82    2.07
  11 -11   1   -1.15    2.24
  11 -11   1    5.79    3.17
  11  11   2    1.33    1.60
  11 -11   2    2.22    1.89
  11 -11   2   -0.57    2.17
  11 -11   2    2.97    2.52
  11  11   3   61.52    6.32
  11 -11   3   70.73    6.41
  11 -11   3   85.95    7.49
  11 -11   3   86.48    9.48
  11  11   4   99.63    8.03
  11 -11   4  104.82    8.22
  11 -11   4   99.87    8.64
  11 -11   4  110.35   11.08
  11  11   5   18.55    3.39
  11 -11   5   17.67    3.12
  11 -11   5   18.67    3.49
  11  11   6   20.70    3.58
  11 -11   6   13.88    3.20
  11 -11   6   22.45    3.81
  11  11   7    2.07    2.36
  11 -11   7   -1.05    1.98
  11 -11   7   -0.56    2.12
  11  11   8   -1.08    2.20
  11 -11   8    2.70    2.29
  11 -11   8   -0.56    2.27
  11  11   9   15.63    3.50
  11 -11   9   19.71    3.75
  11 -11   9   17.08    3.46
  11  11  10   15.70    3.36
  11 -11  10    7.62    2.73
  11  11  11   -1.22    2.26
  11 -11  11   -1.23    2.71
  11  11  12    4.47    2.88
  11 -11  12    5.17    2.86
  11 -12 -12   -0.85    2.71
  11 -12 -11   47.60    6.73
  11 -12 -10    2.62    2.87
  11 -12  -9   -0.88    2.48
  11  12  -9    0.49    1.82
  11 -12  -9    0.44    1.81
  11 -12  -8   26.72    5.15
  11  12  -8   28.81    3.88
  11 -12  -8   25.54    3.66
  11 -12  -7    2.72    3.54
  11  12  -7    5.42    2.09
  11 -12  -7    8.90    2.33
  11  12  -6    9.67    2.50
  11 -12  -6   10.44    2.41
  11 -12  -6   12.82    4.22
  11  12  -5   12.55    2.89
  11 -12  -5   14.10    2.89
  11 -12  -5   10.46    2.86
  11 -12  -5   13.89    3.98
  11  12  -4   14.46    3.05
  11 -12  -4   14.67    2.95
  11 -12  -4   15.25    3.26
  11  12  -3   -3.76    2.75
  11 -12  -3   -2.02    2.40
  11 -12  -3    2.36    2.01
  11 -12  -3    1.89    2.54
  11  12  -2   24.33    3.61
  11 -12  -2   19.63    3.32
  11 -12  -2   28.30    4.25
  11 -12  -2   17.36    4.48
  11  12  -1   61.03    5.66
  11 -12  -1   55.29    5.40
  11 -12  -1   68.43    6.51
  11 -12  -1   48.70    7.48
  11  12   0   17.05    3.20
  11 -12   0   18.00    3.01
  11 -12   0   15.91    3.39
  11 -12   0   17.15    4.45
  11  12   1   10.53    2.73
  11 -12   1   12.43    2.69
  11 -12   1   15.13    3.31
  11 -12   1   18.39    4.87
  11  12   2    1.73    1.84
  11 -12   2    2.11    1.76
  11 -12   2    1.15    2.19
  11  12   3   12.59    2.68
  11 -12   3    7.72    2.41
  11 -12   3    6.86    2.88
  11  12   4    6.73    2.42
  11 -12   4    8.85    2.47
  11 -12   4    9.66    2.84
  11 -12   4    9.83    3.73
  11  12   5    6.04    2.25
  11 -12   5    5.97    2.23
  11 -12   5    7.42    2.63
  11 -12   5    7.84    3.82
  11  12   6   12.64    2.99
  11  12   7   -0.51    1.87
  11  12   8    1.05    2.18
  11  12   9    4.36    2.50
  11  12  10    2.86    2.38
  11  12  11   -0.60    2.69
  11 -13 -12    5.47    3.56
  11 -13 -11   42.61    6.57
  11  13 -11   34.42    4.58
  11 -13 -10    2.81    3.38
  11  13 -10    0.48    2.14
  11 -13  -9   -0.95    2.66
  11  13  -9   -0.46    1.65
  11 -13  -8   25.81    5.24
  11  13  -8   26.18    3.68
  11 -13  -7   -0.97    2.61
  11  13  -7    0.85    1.61
  11 -13  -6   -2.95    3.23
  11  13  -6    0.42    2.03
  11  13  -5   12.61    2.88
  11 -13  -5   12.90    4.43
  11  13  -4   13.56    2.93
  11 -13  -4   12.01    4.13
  11  13  -3    9.42    2.56
  11 -13  -3    9.13    3.58
  11  13  -2    8.24    2.44
  11 -13  -2    8.23    3.73
  11  13  -1   -2.36    2.55
  11 -13  -1    1.04    3.20
  11  13   0   75.18    6.46
  11 -13   0   77.89    9.38
  11  13   1   -0.81    2.09
  11 -13   1    1.09    3.32
  11  13   2    1.22    1.87
  11 -13   2    3.29    2.64
  11  13   3    4.21    2.03
  11  13   4   -2.61    2.56
  12   0 -20    3.04    1.94
  12   0 -19   -0.38    1.75
  12   0 -18    7.31    2.22
  12   0 -17    0.38    1.60
  12   0 -16   31.27    3.79
  12   0 -15    0.39    1.51
  12   0 -14  239.74   14.87
  12   0 -13   -0.39    1.57
  12   0 -12    5.14    1.92
  12   0 -11   -1.19    1.43
  12   0 -10  296.43   17.84
  12   0  -9    0.80    1.73
  12   0  -8  123.72    8.88
  12   0  -7    2.47    1.82
  12   0  -6   46.65    4.72
  12   0  -5   -2.10    1.39
  12   0  -4   97.88    7.48
  12   0  -4  104.22    7.09
  12   0  -3   -0.53    1.48
  12   0  -3    0.44    1.35
  12   0  -3   -0.17    0.86
  12   0  -2    0.52    1.46
  12   0  -1    3.62    1.59
  12   0   0  246.53   15.96
  12   0   1    0.53    1.73
  12   0   2    7.91    2.49
  12   0   3   -0.53    1.91
  12   0   4    4.85    2.21
  12   0   5   -0.55    1.55
  12   0   6   15.30    3.39
  12   0   7    0.58    1.85
  12   0   8   17.33    3.48
  12   0   9   -0.61    2.38
  12   0  10  114.63    9.68
  12   0  11   -2.65    2.46
  12   0  12    2.79    2.59
  12  -1 -20   14.32    2.82
  12  -1 -19  142.05    9.73
  12   1 -19  127.33    9.14
  12  -1 -18    7.14    2.26
  12   1 -18    8.52    2.27
  12  -1 -17    4.61    2.15
  12   1 -17    6.09    1.97
  12  -1 -16   13.34    2.86
  12   1 -16   14.81    2.61
  12  -1 -15    0.83    1.66
  12   1 -15   -0.36    1.38
  12  -1 -14   16.21    2.84
  12   1 -14   19.35    2.83
  12  -1 -13   90.12    7.04
  12   1 -13   83.13    6.70
  12  -1 -12    5.82    2.07
  12   1 -12    4.12    1.73
  12  -1 -11  190.06   12.42
  12   1 -11  190.43   12.26
  12  -1 -10    1.68    1.55
  12   1 -10    0.38    1.35
  12  -1  -9   -0.42    1.44
  12   1  -9    2.33    1.61
  12   1  -8   38.77    4.09
  12  -1  -8   30.22    3.83
  12  -1  -7    5.12    1.96
  12   1  -7    1.20    1.41
  12  -1  -6   17.11    2.83
  12   1  -6    5.34    1.96
  12  -1  -5    2.64    0.96
  12  -1  -5    2.63    1.95
  12  -1  -5    6.51    2.19
  12   1  -5    3.80    1.73
  12  -1  -4   56.48    5.38
  12  -1  -4   49.77    4.97
  12  -1  -4   40.26    3.45
  12  -1  -3  137.02    8.82
  12  -1  -3  126.65    8.24
  12  -1  -3  137.30    6.96
  12  -1  -2  193.69   12.70
  12  -1  -2  177.90   11.23
  12  -1  -2  178.82   12.19
  12  -1  -1   81.94    6.99
  12  -1  -1   76.30    6.71
  12  -1   0   41.26    4.91
  12  -1   1   17.31    3.15
  12  -1   2  144.93   10.64
  12  -1   3    3.19    1.92
  12  -1   4  129.37    9.97
  12  -1   5    7.72    2.64
  12  -1   6    3.40    2.36
  12  -1   7   16.29    3.38
  12  -1   8   69.38    6.80
  12  -1   9    6.74    2.87
  12  -1  10   44.62    5.82
  12  -1  11    0.66    2.32
  12  -1  12   11.87    3.56
  12  -2 -21    1.38    1.99
  12  -2 -20    0.92    1.95
  12  -2 -19   10.99    2.78
  12  -2 -18   -0.46    1.78
  12   2 -18    3.24    1.65
  12  -2 -17   -0.46    1.82
  12   2 -17   -0.99    1.56
  12  -2 -16    3.18    2.01
  12   2 -16    3.02    1.79
  12  -2 -15   54.43    5.24
  12   2 -15   42.34    4.33
  12  -2 -14   94.24    7.22
  12   2 -14   74.65    6.27
  12  -2 -13    4.03    2.01
  12   2 -13    0.70    1.50
  12  -2 -12   30.19    4.02
  12   2 -12   34.89    3.83
  12  -2 -11   14.17    2.76
  12   2 -11   18.37    2.74
  12  -2 -10    0.44    1.50
  12   2 -10    1.13    1.46
  12  -2  -9   13.71    2.78
  12   2  -9   15.07    2.71
  12  -2  -8   56.75    5.44
  12  -2  -7  166.37   11.39
  12  -2  -6   45.55    5.02
  12  -2  -6   52.67    3.96
  12   2  -5   17.94    3.10
  12  -2  -5   14.64    2.98
  12  -2  -5    9.96    2.52
  12  -2  -5   12.41    1.90
  12   2  -4  144.07   10.50
  12  -2  -4  149.70   10.56
  12  -2  -4  137.93    9.91
  12  -2  -4  130.63    8.76
  12   2  -3    3.20    1.81
  12  -2  -3    1.56    1.47
  12  -2  -3    1.38    1.61
  12  -2  -3   -0.61    1.15
  12   2  -2   15.78    1.79
  12   2  -2   15.17    2.89
  12  -2  -2   25.72    3.56
  12  -2  -2   24.02    2.99
  12  -2  -2   20.94    3.22
  12   2  -1    2.08    1.53
  12  -2  -1    2.06    1.80
  12  -2  -1   -1.41    1.64
  12   2   0   52.65    5.24
  12  -2   0   47.38    5.08
  12  -2   0   34.79    4.47
  12   2   1    1.58    1.90
  12  -2   1    2.62    1.67
  12  -2   2   47.95    5.02
  12   2   2   32.77    4.46
  12   2   3  120.75    9.58
  12  -2   3  133.82    9.87
  12   2   4    0.54    1.72
  12  -2   4    1.08    1.78
  12   2   5    9.40    2.54
  12  -2   5   12.72    2.79
  12   2   6    0.57    2.04
  12  -2   6    0.57    1.93
  12   2   7   -1.16    2.15
  12  -2   7    2.34    1.79
  12   2   8   84.11    7.72
  12  -2   8   80.59    7.66
  12   2   9   76.82    7.33
  12  -2   9   74.43    7.36
  12   2  10   -2.56    2.54
  12  -2  10    1.91    2.17
  12   2  11   17.95    3.92
  12  -2  11   14.62    3.66
  12   2  12   17.55    3.72
  12  -2  12    7.72    3.26
  12  -3 -22   14.35    3.44
  12  -3 -21    0.49    1.97
  12  -3 -20  110.57    8.95
  12  -3 -19    9.34    2.71
  12  -3 -18   16.14    3.27
  12  -3 -17   10.25    2.54
  12  -3 -16    7.79    2.51
  12  -3 -15   -1.45    1.70
  12  -3 -14   10.59    2.79
  12  -3 -13    6.73    2.30
  12  -3 -12   36.69    4.44
  12  -3 -11   12.33    2.83
  12  -3 -10   28.89    3.93
  12  -3  -9   48.82    5.12
  12  -3  -8   75.46    6.57
  12  -3  -7   65.07    5.93
  12  -3  -7   58.31    4.80
  12  -3  -6    5.83    1.65
  12  -3  -6    7.04    2.24
  12   3  -5    1.65    1.81
  12  -3  -5   -0.52    1.83
  12  -3  -5    1.42    1.61
  12  -3  -5   -0.31    1.18
  12   3  -4    2.19    1.92
  12  -3  -4    3.66    1.99
  12  -3  -4    4.29    1.86
  12  -3  -4    3.68    1.51
  12   3  -3    9.64    2.68
  12  -3  -3   16.05    2.94
  12  -3  -3   11.02    2.44
  12  -3  -3   10.65    2.24
  12   3  -2    1.58    1.67
  12  -3  -2   -0.51    1.95
  12  -3  -2    2.87    1.82
  12  -3  -2    4.07    1.66
  12   3  -1    4.71    2.05
  12  -3  -1    3.09    2.02
  12  -3  -1    5.82    2.23
  12   3   0    7.39    2.35
  12  -3   0   17.21    3.18
  12   3   1   75.85    6.86
  12  -3   1   69.57    6.56
  12   3   2   78.19    6.89
  12  -3   2   68.95    6.59
  12   3   3   -0.53    1.81
  12  -3   3    1.06    1.86
  12  -3   3   -1.55    1.70
  12   3   4    8.66    2.52
  12  -3   4   10.30    2.76
  12   3   5   45.95    5.38
  12  -3   5   54.33    5.67
  12   3   6    3.40    2.10
  12  -3   6   -0.57    1.87
  12   3   7   -0.59    1.86
  12  -3   7    1.76    2.00
  12   3   8   17.85    3.60
  12  -3   8   10.14    2.85
  12   3   9    2.46    2.22
  12  -3   9    1.85    2.03
  12   3  10   27.53    4.48
  12  -3  10   29.48    4.81
  12   3  11   24.67    4.12
  12  -3  11   20.05    3.89
  12   3  12    0.70    2.32
  12  -3  12    3.53    2.61
  12  -4 -22   -0.52    2.41
  12  -4 -21   -0.52    2.07
  12  -4 -20    9.84    2.68
  12  -4 -19    0.52    1.87
  12  -4 -18    0.52    1.91
  12  -4 -17    7.74    2.39
  12  -4 -16   17.02    3.33
  12  -4 -15   12.32    2.89
  12  -4 -14   -0.51    1.68
  12  -4 -13   38.25    4.63
  12  -4 -12    0.51    1.98
  12  -4 -11    1.51    1.72
  12  -4 -10   12.61    2.75
  12  -4  -9    2.50    1.90
  12  -4  -8    6.69    1.74
  12  -4  -8    8.99    2.50
  12  -4  -7    2.09    1.45
  12  -4  -7    2.48    1.68
  12  -4  -6    0.37    1.24
  12  -4  -6    0.49    1.57
  12   4  -5   24.48    3.63
  12  -4  -5   18.28    3.06
  12  -4  -5   16.29    3.17
  12  -4  -5   18.13    2.81
  12   4  -4   52.21    5.65
  12  -4  -4   69.66    6.02
  12  -4  -4   58.97    5.79
  12  -4  -4   47.32    4.97
  12   4  -3  192.06   13.27
  12  -4  -3  211.37   13.54
  12  -4  -3  176.54   12.90
  12  -4  -3  199.21   12.84
  12   4  -2   23.29    3.61
  12  -4  -2   28.25    3.85
  12  -4  -2   21.43    3.37
  12  -4  -1   43.92    4.90
  12  -4  -1   39.91    4.85
  12   4   0   86.60    7.28
  12  -4   0   73.62    6.86
  12   4   1   68.94    6.38
  12  -4   1   60.67    6.11
  12  -4   1   69.55    6.46
  12   4   2   44.24    5.07
  12  -4   2   39.50    5.07
  12  -4   2   46.71    4.99
  12   4   3    7.43    2.44
  12  -4   3    3.19    2.13
  12  -4   3    2.60    1.88
  12   4   4   18.95    3.35
  12  -4   4   16.29    3.09
  12   4   5   50.95    5.61
  12  -4   5   57.92    6.04
  12   4   6   93.13    7.62
  12  -4   6   68.48    7.07
  12   4   7  106.03    8.72
  12  -4   7   94.03    8.45
  12   4   8   11.91    3.07
  12  -4   8   15.56    3.55
  12   4   9   30.86    4.59
  12  -4   9   29.81    4.58
  12   4  10   -0.64    2.11
  12  -4  10    0.64    2.12
  12   4  11    0.67    2.42
  12  -4  11    0.67    2.56
  12   4  12   38.96    5.47
  12  -4  12   38.30    5.54
  12  -5 -22   22.84    4.03
  12  -5 -21   41.84    5.18
  12  -5 -20   62.85    6.45
  12  -5 -19   29.19    4.39
  12  -5 -18   62.31    6.34
  12  -5 -17    1.07    2.03
  12  -5 -16   33.67    4.45
  12  -5 -15    5.88    2.42
  12  -5 -14    1.07    2.09
  12  -5 -13    2.15    2.09
  12  -5 -12   11.23    2.86
  12  -5 -11   25.59    3.82
  12  -5 -10   15.96    3.23
  12  -5  -9   45.09    4.79
 -12  -5   9   51.53    4.84
  12  -5  -9   48.63    5.39
  12  -5  -8    1.23    1.48
  12  -5  -8    0.53    1.85
  12  -5  -7   20.14    3.11
  12  -5  -7   12.05    2.96
  12  -5  -6    1.56    1.76
  12  -5  -6    2.61    1.98
  12  -5  -6    0.87    1.69
  12   5  -5   19.61    3.60
  12  -5  -5   25.08    3.77
  12  -5  -5   29.57    4.00
  12  -5  -5   22.24    3.38
  12   5  -4    3.83    1.99
  12  -5  -4    4.67    2.18
  12  -5  -4   10.35    2.73
  12  -5  -4    6.07    1.88
  12   5  -3   15.46    3.14
  12  -5  -3   16.40    2.93
  12  -5  -3   14.88    2.99
  12   5  -2  124.48    9.50
  12  -5  -2  135.55    9.66
  12  -5  -2  110.16    9.24
  12   5  -1    2.63    1.73
  12  -5  -1   -1.56    2.02
  12  -5  -1    1.13    1.59
  12   5   0   22.71    3.64
  12  -5   0   23.02    3.58
  12  -5   0   29.38    4.18
  12   5   1    2.11    1.91
  12  -5   1    3.68    2.24
  12  -5   1    5.25    2.19
  12  -5   2   42.25    4.94
  12   5   2   38.49    4.75
  12  -5   2   38.73    4.77
  12   5   3    4.78    2.22
  12  -5   3    2.14    2.09
  12  -5   3    3.20    2.13
  12   5   4   13.53    2.91
  12  -5   4   13.62    2.77
  12  -5   4   11.29    3.00
  12   5   5    1.67    2.00
  12  -5   5   -0.56    1.78
  12  -5   5    0.55    2.03
  12   5   6   -2.27    2.11
  12  -5   6   -1.72    2.75
  12   5   7  180.51   12.85
  12  -5   7  176.31   12.78
  12   5   8  105.65    9.22
  12  -5   8  109.51    9.18
  12   5   9   34.73    4.80
  12  -5   9   24.95    4.49
  12   5  10    3.86    2.56
  12  -5  10   -1.30    2.20
  12   5  11   -0.68    2.22
  12  -5  11    2.04    2.52
  12  -6 -19    4.52    2.72
  12  -6 -18   -0.56    2.03
  12  -6 -17   -0.56    1.96
  12  -6 -16   22.93    3.80
  12  -6 -15    2.77    2.11
  12  -6 -14   48.60    5.62
  12  -6 -13   32.16    4.47
  12  -6 -12   -1.67    2.26
  12  -6 -11    2.23    2.17
  12  -6 -10   18.30    3.55
  12  -6  -9   10.39    2.69
  12  -6  -9   11.65    2.92
  12  -6  -8    8.61    2.34
  12  -6  -8    1.66    1.77
  12  -6  -7   28.98    3.95
  12  -6  -7   24.84    4.02
  12   6  -6    5.12    2.38
  12  -6  -6    1.56    1.84
  12  -6  -6    6.03    2.34
  12  -6  -6    5.52    2.26
  12   6  -5   23.00    3.87
  12  -6  -5   22.36    3.77
  12  -6  -5   20.20    3.60
  12  -6  -5   27.11    3.84
  12   6  -4   -1.64    2.17
  12  -6  -4   -2.58    2.15
  12  -6  -4   -2.14    1.98
  12   6  -3    7.99    2.37
  12  -6  -3    3.60    2.07
  12  -6  -3   10.64    2.91
  12   6  -2    8.94    2.44
  12  -6  -2    9.26    2.58
  12  -6  -2    6.44    2.47
  12   6  -1   -0.53    1.79
  12  -6  -1    1.56    1.71
  12  -6  -1    0.54    1.90
  12  -6  -1   -0.62    2.05
  12   6   0    0.52    1.89
  12  -6   0    3.12    2.07
  12  -6   0    4.36    2.12
  12  -6   0    3.34    1.97
  12   6   1   30.89    4.15
  12  -6   1   30.25    4.23
  12  -6   1   26.72    4.07
  12   6   2   22.02    3.71
  12  -6   2   17.90    3.39
  12  -6   2   22.80    3.61
  12   6   3    4.78    2.13
  12  -6   3    3.75    2.00
  12  -6   3    6.03    2.47
  12   6   4   16.79    3.39
  12  -6   4   21.88    3.72
  12  -6   4   24.75    3.80
  12   6   5    1.11    1.76
  12  -6   5    2.80    2.28
  12  -6   5   -0.55    2.10
  12   6   6    5.69    2.73
  12  -6   6   12.13    3.13
  12  -6   6    9.60    2.95
  12   6   7   78.33    7.41
  12  -6   7   86.61    7.71
  12   6   8    2.98    2.27
  12  -6   8    3.02    2.30
  12   6   9   34.06    4.92
  12  -6   9   50.78    5.93
  12   6  10    8.38    2.87
  12  -6  10    7.84    2.96
  12   6  11   -0.68    2.31
  12  -6  11    3.44    2.48
  12  -7 -17   27.45    4.52
  12  -7 -16    4.64    2.66
  12  -7 -15    1.73    2.14
  12  -7 -14    3.45    2.25
  12  -7 -13   33.14    4.68
  12  -7 -12   -0.57    1.87
  12  -7 -11   14.85    3.27
  12  -7 -10   -0.53    1.75
  12  -7 -10    2.87    2.12
  12  -7  -9   31.25    4.51
  12  -7  -9   42.50    5.12
  12  -7  -8  101.37    8.63
  12  -7  -8   94.82    8.17
  12  -7  -7   30.22    4.49
  12  -7  -7   26.51    4.09
  12  -7  -7   33.83    4.59
  12   7  -6   12.50    2.89
  12  -7  -6    6.27    2.55
  12  -7  -6    5.71    2.37
  12  -7  -6   12.50    2.97
  12   7  -5   74.05    7.00
  12  -7  -5   57.59    6.31
  12  -7  -5   80.90    7.29
  12   7  -4   -0.54    2.09
  12  -7  -4    0.51    2.30
  12  -7  -4   -1.79    2.09
  12   7  -3    1.58    1.96
  12  -7  -3    0.51    2.17
  12  -7  -3    2.50    1.99
  12   7  -2   41.95    4.90
  12  -7  -2   34.09    4.51
  12  -7  -2   35.24    4.70
  12  -7  -2   38.99    5.29
  12   7  -1   20.40    3.58
  12  -7  -1   22.34    3.64
  12  -7  -1   21.22    3.74
  12  -7  -1   13.68    3.53
  12   7   0   12.44    3.04
  12  -7   0   15.08    3.24
  12  -7   0   12.89    3.10
  12  -7   0   19.45    3.84
  12   7   1   43.44    4.85
  12  -7   1   45.91    5.04
  12  -7   1   38.28    4.98
  12  -7   1   29.17    5.02
  12   7   2   40.98    4.91
  12  -7   2   37.31    4.68
  12  -7   2   49.51    5.38
  12   7   3    0.53    1.90
  12  -7   3    0.54    1.88
  12  -7   3    5.03    2.18
  12   7   4   25.87    3.95
  12  -7   4   22.47    3.79
  12  -7   4   25.96    4.20
  12   7   5  125.60   10.07
  12  -7   5  136.56   10.35
  12  -7   5  138.59   10.38
  12   7   6   -0.56    2.35
  12  -7   6    0.57    2.43
  12  -7   6    1.70    2.26
  12   7   7   62.75    6.48
  12  -7   7   63.22    6.41
  12  -7   7   61.93    6.37
  12   7   8   31.06    4.69
  12  -7   8   37.62    5.03
  12  -7   9   54.72    6.29
  12   7   9   44.59    5.68
  12   7  10    0.65    2.21
  12  -7  10    0.66    2.31
  12   7  11   16.95    3.79
  12  -7  11   25.34    4.47
  12  -8 -15    8.97    2.86
  12  -8 -14   20.77    3.65
  12  -8 -13   18.93    3.85
  12  -8 -12    6.48    2.57
  12  -8 -11    9.95    2.81
  12  -8 -10   14.93    3.42
  12  -8 -10   10.56    3.01
  12  -8  -9    3.62    2.46
  12  -8  -9   -1.18    2.18
  12  -8  -8    4.89    2.52
  12  -8  -8    9.45    2.77
  12  -8  -7    2.50    2.06
  12   8  -7    0.57    1.95
  12  -8  -7    4.17    2.31
  12  -8  -7    4.12    2.24
  12   8  -6   -0.56    2.08
  12  -8  -6   -0.52    2.06
  12  -8  -6   -1.27    1.95
  12   8  -5    1.09    2.17
  12  -8  -5    1.02    2.21
  12  -8  -5    2.57    2.25
  12   8  -4    4.24    2.46
  12  -8  -4    2.04    1.94
  12  -8  -4    1.33    1.88
  12   8  -3   22.89    3.71
  12  -8  -3   19.92    3.52
  12  -8  -3   18.61    3.68
  12  -8  -3   21.45    3.99
  12   8  -2    0.52    1.92
  12  -8  -2    0.51    2.00
  12  -8  -2   -0.58    1.96
  12  -8  -2    1.43    2.11
  12   8  -1    5.14    2.24
  12  -8  -1   10.25    2.86
  12  -8  -1    1.15    1.90
  12  -8  -1    7.41    3.03
  12   8   0    4.09    2.30
  12  -8   0    1.02    1.95
  12  -8   0    4.59    2.34
  12  -8   0    7.01    3.11
  12   8   1   86.29    7.62
  12  -8   1   87.04    7.64
  12  -8   1  100.54    8.15
  12  -8   1   79.34    8.71
  12   8   2    0.52    1.97
  12  -8   2    4.19    2.23
  12  -8   2    8.66    2.69
  12  -8   2   12.10    3.82
  12   8   3   18.88    3.49
  12  -8   3   20.27    3.71
  12  -8   3   29.37    4.38
  12   8   4   -1.07    1.87
  12  -8   4    1.09    2.01
  12  -8   4   -2.30    2.48
  12   8   5   16.44    3.40
  12  -8   5   20.68    3.66
  12  -8   5   21.94    3.74
  12   8   6   -0.56    2.49
  12  -8   6    0.57    2.10
  12  -8   6    2.87    2.18
  12   8   7    4.01    2.53
  12  -8   7    0.58    2.16
  12  -8   7    1.74    2.15
  12   8   8    1.19    2.31
  12  -8   8    4.24    2.67
  12   8   9   11.12    3.23
  12  -8   9    8.85    3.12
  12   8  10    2.60    2.47
  12  -8  10   -0.66    2.64
  12  -9 -12    0.60    1.99
  12  -9 -11   18.26    3.73
  12  -9 -11   15.05    3.26
  12  -9 -10   33.80    5.19
  12  -9 -10   26.91    4.24
  12  -9  -9   42.81    5.64
  12  -9  -9   33.99    5.00
  12   9  -8   79.20    7.04
  12  -9  -8   58.61    6.33
  12  -9  -8   78.78    7.32
  12  -9  -8   60.96    6.96
  12  -9  -7   -0.69    2.20
  12   9  -7   -0.56    2.14
  12  -9  -7   -1.03    2.27
  12   9  -6    6.55    2.56
  12  -9  -6    7.13    2.35
  12  -9  -6    7.04    3.01
  12   9  -5    0.53    2.15
  12  -9  -5    0.51    2.01
  12  -9  -5    0.71    2.19
  12   9  -4    1.55    2.19
  12  -9  -4    4.53    2.18
  12  -9  -4    1.80    2.10
  12  -9  -4   -2.19    2.24
  12  -9  -3   44.56    4.97
  12   9  -3   40.57    4.88
  12  -9  -3   39.98    5.20
  12  -9  -3   34.65    5.55
  12   9  -2   -0.51    2.45
  12  -9  -2    2.02    2.10
  12  -9  -2    0.59    2.14
  12  -9  -2   -0.78    2.88
  12   9  -1  115.94    8.84
  12  -9  -1   98.74    8.39
  12  -9  -1  104.31    8.95
  12  -9  -1  118.41   10.58
  12   9   0    2.50    2.09
  12  -9   0    8.58    2.64
  12  -9   0    1.17    2.11
  12  -9   0    0.84    2.26
  12   9   1   44.65    5.29
  12  -9   1   49.45    5.39
  12  -9   1   49.05    5.56
  12  -9   1   51.49    6.99
  12   9   2   78.22    7.11
  12  -9   2   87.52    7.40
  12  -9   2   75.19    7.32
  12  -9   2   70.25    8.51
  12   9   3    7.78    2.63
  12  -9   3   17.39    3.25
  12  -9   3   10.00    2.97
  12  -9   3   16.24    4.33
  12   9   4    0.53    1.90
  12  -9   4   -1.08    2.15
  12  -9   4    1.17    2.04
  12   9   5    0.54    1.94
  12  -9   5   -3.29    2.71
  12  -9   5    1.75    2.05
  12   9   6    6.05    2.39
  12  -9   6    3.36    2.30
  12  -9   6    6.44    2.73
  12   9   7   31.83    4.36
  12  -9   7   23.20    4.04
  12  -9   7   25.01    4.23
  12   9   8    2.36    2.56
  12  -9   8    1.20    2.46
  12  -9   8    7.09    2.71
  12   9   9    0.62    2.63
  12  -9   9    1.90    2.22
  12   9  10   21.16    4.14
  12  -9  10   21.49    4.24
  12 -10 -10    7.25    3.44
  12 -10  -9   11.73    3.59
  12  10  -9   14.31    3.19
  12 -10  -9   13.87    3.07
  12 -10  -8   46.08    6.09
  12  10  -8   44.33    5.37
  12 -10  -8   40.42    4.87
  12 -10  -7   16.72    4.05
  12  10  -7   15.18    3.25
  12 -10  -7   15.09    3.12
  12  10  -6    2.61    2.13
  12 -10  -6    1.49    2.06
  12 -10  -6   -0.61    2.27
  12 -10  -6    6.17    3.07
  12  10  -5   -0.51    2.08
  12 -10  -5    1.97    2.00
  12 -10  -5    3.67    2.38
  12 -10  -5   -0.78    2.31
  12  10  -4   16.15    3.14
  12 -10  -4    7.32    2.83
  12 -10  -4   12.02    3.54
  12  10  -3    2.00    2.00
  12 -10  -3    1.48    1.97
  12 -10  -3    1.22    2.14
  12  10  -2    2.95    2.09
  12 -10  -2   -0.49    2.13
  12 -10  -2    1.21    2.35
  12 -10  -2   -0.85    2.40
  12  10  -1   -1.47    2.15
  12 -10  -1   -1.47    2.53
  12 -10  -1   -1.20    2.23
  12 -10  -1    0.87    2.46
  12  10   0   40.88    4.99
  12 -10   0   42.35    5.00
  12 -10   0   45.44    5.61
  12 -10   0   47.44    6.64
  12  10   1   22.62    3.77
  12 -10   1   18.95    3.60
  12 -10   1   23.17    4.20
  12 -10   1   18.58    4.72
  12  10   2   88.44    7.64
  12 -10   2   88.83    7.60
  12 -10   2   87.89    8.10
  12 -10   2  100.14   10.16
  12  10   3    5.08    2.25
  12 -10   3    6.19    2.60
  12 -10   3    1.79    2.28
  12 -10   3    2.00    3.19
  12  10   4    2.60    1.99
  12 -10   4    6.31    2.41
  12 -10   4    4.16    2.43
  12 -10   4    8.32    3.86
  12  10   5   11.57    3.00
  12 -10   5    5.35    2.53
  12 -10   5   11.79    3.16
  12  10   6   60.34    6.26
  12 -10   6   68.01    6.59
  12  10   7    3.37    2.44
  12 -10   7    2.86    2.33
  12  10   8    8.22    3.00
  12 -10   8   12.58    3.30
  12  10   9    3.67    2.50
  12 -10   9    1.86    2.42
  12  10  10    1.26    2.27
  12 -11 -10    0.79    2.32
  12 -11 -10   -1.01    2.14
  12 -11  -9   41.46    6.04
  12  11  -9   50.99    5.51
  12 -11  -9   31.08    4.51
  12 -11  -8   -0.81    2.17
  12  11  -8   -1.07    1.87
  12 -11  -8   -0.49    1.86
  12 -11  -7    4.13    2.91
  12  11  -7    9.81    2.82
  12 -11  -7    4.34    2.02
  12  11  -6    4.53    2.24
  12 -11  -6    7.15    2.51
  12 -11  -6    7.56    3.36
  12  11  -5   -1.48    2.34
  12 -11  -5   -4.78    2.63
  12 -11  -5    0.85    2.51
  12  11  -4   -1.95    2.69
  12 -11  -4   -1.43    2.59
  12 -11  -4   -0.86    2.54
  12  11  -3   32.16    4.34
  12 -11  -3   29.77    4.23
  12 -11  -3   29.31    5.61
  12  11  -2   45.92    5.16
  12 -11  -2   45.13    5.13
  12 -11  -2   49.89    6.78
  12  11  -1   25.91    3.89
  12 -11  -1   13.62    3.13
  12 -11  -1   28.08    5.25
  12  11   0   13.28    3.23
  12 -11   0   10.43    2.68
  12 -11   0    3.84    3.19
  12  11   1   -0.48    2.34
  12 -11   1   -0.48    1.92
  12 -11   1    3.93    2.89
  12  11   2    4.87    2.09
  12 -11   2    7.82    2.51
  12 -11   2    4.06    3.12
  12  11   3   11.93    2.80
  12 -11   3    5.47    2.35
  12 -11   3    9.43    3.80
  12  11   4    3.01    2.34
  12 -11   4    3.03    2.24
  12 -11   4    3.24    3.44
  12  11   5    0.52    2.06
  12 -11   5    3.65    2.39
  12  11   6   23.97    3.85
  12 -11   6   14.54    3.46
  12  11   7   -1.11    2.05
  12 -11   7    0.56    2.19
  12  11   8    0.58    2.21
  12 -11   8    4.66    2.32
  12  11   9    2.39    2.33
  12 -11   9    1.20    2.56
  12  12 -11    0.56    2.11
  12 -12 -10    7.66    3.33
  12  12 -10    5.96    2.50
  12 -12  -9   -1.72    2.93
  12  12  -9    3.66    1.98
  12 -12  -8   11.36    3.59
  12  12  -8    8.53    2.49
  12 -12  -7   -0.89    3.03
  12  12  -7   -0.49    1.86
  12 -12  -6    1.81    2.78
  12  12  -6    5.76    2.65
  12  12  -5    7.58    2.53
  12 -12  -5   18.43    4.46
  12  12  -4   13.00    3.17
  12 -12  -4   13.05    4.16
  12  12  -3    2.74    2.33
  12 -12  -3    5.70    3.03
  12  12  -2   34.00    4.40
  12 -12  -2   41.73    6.59
  12  12  -1    2.28    2.26
  12 -12  -1    6.00    3.70
  12  12   0    9.64    2.72
  12 -12   0   10.22    3.91
  12  12   1   -0.93    1.97
  12 -12   1   -1.04    3.07
  12  12   2   10.41    2.68
  12 -12   2    8.52    4.08
  12  12   3    2.85    1.98
  12 -12   3    1.10    2.95
  12  12   4   13.22    2.93
  12  12   5    2.02    2.27
  12  12   6    3.14    2.09
  12  12   7   12.07    3.15
  12  12   8    3.38    2.49
  12  12   9    0.58    2.67
  12 -13  -9    0.93    3.04
  12 -13  -8   41.31    6.47
  12 -13  -7    8.64    4.26
  12 -13  -6    0.98    3.21
  12 -13  -5   -0.99    3.02
  12 -13  -4   10.02    4.20
  12 -13  -3    1.01    3.21
  12  13  -2   -0.43    2.38
  12 -13  -2    1.03    2.91
  12 -13  -1    6.33    3.82
  13   0 -19    0.82    1.91
  13   0 -18    0.41    1.82
  13   0 -17    1.25    1.66
  13   0 -16   74.14    6.47
  13   0 -15    0.84    1.59
  13   0 -14   58.14    5.51
  13   0 -13    0.42    1.64
  13   0 -12   -2.55    2.07
  13   0 -11   -0.43    1.67
  13   0 -10    6.07    2.10
  13   0  -9   -1.32    1.71
  13   0  -8    4.43    2.00
  13   0  -7   -1.34    1.52
  13   0  -6  147.25   11.33
  13   0  -6  161.60   10.95
  13   0  -5    1.15    2.01
  13   0  -5   -0.93    1.76
  13   0  -4   17.58    3.35
  13   0  -4   21.45    3.31
  13   0  -3    3.91    2.02
  13   0  -2   10.05    2.60
  13   0  -1    2.81    2.03
  13   0   0   27.16    4.11
  13   0   1   -1.13    1.92
  13   0   2    5.11    2.27
  13   0   3    0.57    1.76
  13   0   4    1.75    2.28
  13   0   5   -0.60    2.15
  13   0   6    0.61    1.80
  13   0   7   -0.63    2.26
  13   0   8    4.48    2.44
  13   0   9   -1.97    2.49
  13  -1 -19   -1.75    2.24
  13  -1 -18   19.37    3.31
  13   1 -18   21.03    3.25
  13  -1 -17    4.40    2.05
  13   1 -17    0.77    1.71
  13  -1 -16    2.21    2.05
  13   1 -16    0.39    1.60
  13  -1 -15    0.44    1.68
  13   1 -15    0.79    1.62
  13  -1 -14   46.76    5.03
  13   1 -14   50.16    4.89
  13  -1 -13    1.34    1.86
  13   1 -13   -0.81    1.75
  13  -1 -12   46.34    4.83
  13   1 -12   43.81    4.59
  13  -1 -11   42.06    4.67
  13   1 -11   36.78    4.20
  13  -1 -10    7.71    2.36
  13   1 -10   10.48    2.51
  13  -1  -9   -0.45    1.49
  13   1  -9    0.43    1.54
  13  -1  -8   42.11    4.76
  13   1  -8   45.78    4.79
  13  -1  -7   18.96    3.26
  13   1  -7   18.32    3.06
  13  -1  -6  121.80    9.43
  13  -1  -6  111.03    8.74
  13  -1  -5    4.54    1.87
  13  -1  -5    1.42    1.76
  13  -1  -4    0.56    1.72
  13  -1  -4   -0.48    1.51
  13  -1  -3    8.32    2.40
  13  -1  -3   10.73    2.56
  13  -1  -2   29.98    4.13
  13  -1  -2   29.53    3.21
  13  -1  -2   31.99    4.16
  13  -1  -1   16.78    3.33
  13  -1   0   29.89    4.36
  13  -1   1   27.69    4.36
  13  -1   2   -1.13    2.26
  13  -1   3   20.03    3.68
  13  -1   4   23.96    4.00
  13  -1   5   11.93    3.02
  13  -1   6  141.61   11.05
  13  -1   7   87.34    8.12
  13  -1   8   10.24    3.12
  13  -1   9    8.55    3.09
  13  -2 -20   10.91    2.76
  13  -2 -19   -2.37    2.17
  13  -2 -18   29.32    4.07
  13  -2 -17   37.80    4.75
  13   2 -17   32.77    3.91
  13  -2 -16    4.25    2.05
  13   2 -16    3.34    1.88
  13  -2 -15   -0.47    2.16
  13   2 -15    1.52    1.70
  13  -2 -14   -0.47    1.79
  13   2 -14    2.71    1.74
  13  -2 -13   36.24    4.49
  13   2 -13   31.27    3.85
  13  -2 -12    6.58    2.32
  13   2 -12    7.68    2.20
  13  -2 -11   29.73    3.95
  13  -2 -10    0.48    1.76
  13  -2  -9   12.93    2.83
  13  -2  -8    0.96    1.78
  13  -2  -7  130.62    9.69
  13   2  -6    1.77    1.94
  13  -2  -6   -1.12    2.08
  13  -2  -6    2.41    1.78
  13   2  -5    5.87    2.51
  13  -2  -5    4.51    2.56
  13  -2  -5    9.78    2.58
  13   2  -4   10.42    2.74
  13  -2  -4    7.27    2.43
  13  -2  -4   12.87    2.86
  13   2  -3   -1.14    2.05
  13  -2  -3   -0.55    2.20
  13  -2  -3    0.50    1.79
  13  -2  -3    1.76    1.24
  13   2  -2    6.21    2.32
  13  -2  -2    6.08    2.22
  13  -2  -2    5.08    1.75
  13  -2  -2    7.53    2.31
  13   2  -1    2.27    1.99
  13  -2  -1    3.91    1.97
  13  -2  -1    4.76    1.79
  13  -2  -1    4.11    1.96
  13   2   0   18.82    3.54
  13  -2   0   18.60    3.47
  13  -2   0   16.32    3.16
  13   2   1    4.55    2.34
  13  -2   1    8.46    2.64
  13   2   2    2.86    2.00
  13  -2   2    2.84    2.11
  13   2   3  125.80    9.62
  13  -2   3  110.54    9.35
  13   2   4   15.23    3.47
  13  -2   4   17.54    3.50
  13   2   5   42.43    5.22
  13  -2   5   34.65    4.99
  13   2   6   -0.61    2.43
  13  -2   6   -1.22    2.60
  13   2   7   28.30    4.46
  13  -2   7   22.71    4.07
  13   2   8    1.91    2.36
  13  -2   8   -0.64    2.60
  13   2   9    2.63    2.74
  13  -2   9    3.95    2.74
  13  -3 -21   -0.51    2.38
  13  -3 -20    3.08    2.27
  13  -3 -19    2.56    2.22
  13  -3 -18    5.11    2.51
  13  -3 -17    3.56    2.03
  13  -3 -16    9.12    2.62
  13  -3 -15   28.80    4.17
  13  -3 -14   44.91    5.10
  13  -3 -13    3.00    2.04
  13  -3 -12   45.49    5.09
  13  -3 -11    2.49    1.90
  13  -3 -10   12.95    2.97
  13  -3  -9    9.96    2.52
  13  -3  -8   -0.50    1.75
  13  -3  -7   18.70    3.24
  13   3  -6    9.57    2.86
  13  -3  -6    5.59    2.32
  13  -3  -6   10.17    2.51
  13   3  -5   46.30    5.62
  13  -3  -5   45.41    5.45
  13  -3  -5   54.07    5.51
  13   3  -4   -1.17    1.85
  13  -3  -4    0.56    2.16
  13  -3  -4    1.02    1.67
  13  -3  -4    0.97    1.26
  13   3  -3   14.85    3.11
  13  -3  -3    4.96    2.30
  13  -3  -3   11.86    2.75
  13  -3  -3   10.79    2.26
  13   3  -2   -1.14    2.05
  13  -3  -2    2.21    1.81
  13  -3  -2    1.04    1.77
  13  -3  -2    1.60    1.63
  13   3  -1    4.57    2.10
  13  -3  -1    8.40    2.60
  13  -3  -1    7.20    2.17
  13   3   0   -0.57    1.82
  13  -3   0    2.25    2.03
  13   3   1    6.86    2.38
  13  -3   1    1.13    1.74
  13   3   2   -0.57    1.88
  13  -3   2    0.57    1.81
  13   3   3   12.66    3.19
  13  -3   3   11.48    2.82
  13   3   4   -2.93    2.49
  13  -3   4    0.59    1.93
  13   3   5   44.37    5.21
  13  -3   5   31.19    4.63
  13   3   6  162.88   12.09
  13  -3   6  156.97   11.88
  13   3   7    1.26    2.58
  13  -3   7   -4.42    3.13
  13   3   8   -0.64    1.88
  13  -3   8   -1.92    2.49
  13   3   9   35.59    5.06
  13  -3   9   37.01    5.11
  13  -4 -21   -2.17    2.57
  13  -4 -20    1.09    2.26
  13  -4 -19   58.22    6.25
  13  -4 -18    3.25    2.26
  13  -4 -17   12.98    3.05
  13  -4 -16   15.07    3.16
  13  -4 -15    0.54    1.83
  13  -4 -14   29.51    4.34
  13  -4 -13   12.27    2.93
  13  -4 -12    0.53    1.86
  13  -4 -11   32.90    4.50
  13  -4 -10   22.15    3.78
  13  -4  -9   14.19    2.95
  13  -4  -8    2.10    1.95
  13  -4  -7    4.20    2.32
  13   4  -6   27.87    4.29
  13  -4  -6   23.46    3.66
  13  -4  -6   26.39    3.94
  13   4  -5    4.19    2.22
  13  -4  -5    2.78    1.84
  13  -4  -5    5.86    2.31
  13   4  -4   84.65    7.56
  13  -4  -4   80.71    7.22
  13  -4  -4   87.26    7.30
  13  -4  -4   67.93    6.25
  13   4  -3   22.45    3.74
  13  -4  -3   18.21    3.44
  13  -4  -3   23.59    3.68
  13  -4  -3   26.27    3.47
  13   4  -2    1.71    2.05
  13  -4  -2    2.21    1.88
  13  -4  -2   -1.07    1.76
  13  -4  -2    0.92    1.56
  13   4  -1  154.02   11.05
  13  -4  -1  159.69   11.14
  13  -4  -1  125.39   10.26
  13   4   0   15.46    3.07
  13  -4   0   10.67    2.94
  13   4   1   16.01    3.40
  13  -4   1   18.11    3.70
  13   4   2    9.17    2.75
  13  -4   2    9.69    2.77
  13  -4   2    7.83    2.68
  13   4   3   12.12    3.01
  13  -4   3    8.09    2.85
  13  -4   3    7.44    2.57
  13   4   4    0.59    1.93
  13  -4   4   -1.18    2.00
  13   4   5   27.63    4.31
  13  -4   5   26.52    4.32
  13   4   6   24.54    4.27
  13  -4   6   27.11    4.45
  13   4   7   42.21    5.35
  13  -4   7   44.85    5.73
  13   4   8   76.74    7.51
  13  -4   8   75.89    7.48
  13   4   9    9.26    3.26
  13  -4   9    8.65    3.13
  13  -5 -19   30.83    4.51
  13  -5 -18    1.14    2.37
  13  -5 -17    1.70    2.10
  13  -5 -16    3.97    2.65
  13  -5 -15    2.27    2.16
  13  -5 -14    3.39    2.15
  13  -5 -13   10.12    2.87
  13  -5 -12  144.62   10.98
  13  -5 -11    6.71    2.66
  13  -5 -10    0.56    2.31
  13  -5  -9   41.70    5.11
  13  -5  -8   38.12    4.92
  13   5  -7   24.64    4.04
  13  -5  -7   20.56    3.74
  13  -5  -7   22.59    3.71
  13   5  -6   23.19    3.97
  13  -5  -6   13.96    3.26
  13  -5  -6   24.19    3.86
  13   5  -5    7.16    2.60
  13  -5  -5    2.22    2.07
  13  -5  -5    4.40    2.15
  13  -5  -5    6.56    2.21
  13   5  -4   60.15    6.20
  13  -5  -4   50.47    5.70
  13  -5  -4   58.74    6.05
  13  -5  -4   56.94    5.52
  13   5  -3   36.92    4.68
  13  -5  -3   26.95    4.13
  13  -5  -3   32.95    4.42
  13  -5  -3   24.48    3.64
  13   5  -2   44.74    5.33
  13  -5  -2   46.67    5.36
  13  -5  -2   45.36    5.11
  13   5  -1    8.60    2.76
  13  -5  -1   10.09    2.79
  13  -5  -1   13.56    3.23
  13   5   0   39.30    4.83
  13  -5   0   33.14    4.62
  13  -5   0   29.59    4.56
  13   5   1   19.94    3.58
  13  -5   1   19.73    3.76
  13  -5   1   15.35    3.50
  13   5   2    0.57    1.88
  13  -5   2   -2.85    2.00
  13  -5   2   -1.14    1.99
  13   5   3    7.52    2.72
  13  -5   3    8.12    2.63
  13  -5   3    7.50    2.62
  13   5   4    1.18    1.88
  13  -5   4    6.50    2.61
  13  -5   4    4.71    2.70
  13   5   5   13.79    3.23
  13  -5   5   16.30    3.33
  13   5   6   24.54    4.19
  13  -5   6   24.18    4.33
  13   5   7   65.23    6.79
  13  -5   7   64.95    6.97
  13   5   8   14.09    3.52
  13  -5   8   16.15    3.64
  13   5   9    0.66    2.39
  13  -5   9    0.67    2.12
  13  -6 -16   12.46    3.33
  13  -6 -15    7.69    2.95
  13  -6 -14    5.30    2.36
  13  -6 -13   10.01    2.96
  13  -6 -12    0.59    1.93
  13  -6 -11   77.78    7.44
  13  -6 -10   29.86    4.48
  13  -6  -9    9.88    2.92
  13  -6  -8   35.91    4.79
  13   6  -7   -1.24    2.04
  13  -6  -7    3.34    2.06
  13  -6  -7    4.62    2.55
  13   6  -6   -1.22    2.32
  13  -6  -6   -0.56    2.21
  13  -6  -6   -1.15    2.23
  13   6  -5    3.58    2.28
  13  -6  -5    3.86    2.40
  13  -6  -5    5.74    2.39
  13  -6  -5    3.02    1.87
  13   6  -4   22.67    4.05
  13  -6  -4   35.75    4.58
  13  -6  -4   20.08    3.69
  13  -6  -4   29.96    4.14
  13   6  -3   -1.15    2.63
  13  -6  -3   -3.30    2.47
  13  -6  -3   -0.56    1.96
  13   6  -2   -1.72    2.28
  13  -6  -2   -0.56    2.12
  13  -6  -2   -1.17    2.05
  13   6  -1   40.61    5.05
  13  -6  -1   35.34    4.71
  13  -6  -1   39.38    5.24
  13   6   0   10.81    3.13
  13  -6   0   11.26    3.06
  13  -6   0   12.72    3.02
  13  -6   0   20.07    3.95
  13   6   1   16.99    3.42
  13  -6   1   19.22    3.52
  13  -6   1   15.21    3.77
  13  -6   1   11.65    3.15
  13   6   2  113.55    9.11
  13  -6   2  111.77    9.20
  13  -6   2  109.32    9.17
  13   6   3    1.15    2.08
  13  -6   3   -1.16    2.26
  13  -6   3    1.76    2.12
  13   6   4    0.59    1.93
  13  -6   4   -0.59    2.08
  13  -6   4   -0.59    2.47
  13   6   5   32.30    4.67
  13  -6   5   27.24    4.52
  13  -6   5   27.84    4.63
  13   6   6    0.62    2.22
  13  -6   6   -0.62    2.42
  13   6   7    6.83    2.69
  13  -6   7    0.63    2.08
  13   6   8   24.31    4.07
  13  -6   8   19.46    3.94
  13  -7 -13   -3.66    2.27
  13  -7 -12   68.08    7.00
  13  -7 -11   31.65    4.53
  13  -7 -10    3.04    2.58
  13  -7  -9   44.75    5.48
  13   7  -8    1.89    2.33
  13  -7  -8   -0.56    2.16
  13  -7  -8    0.60    2.18
  13   7  -7   19.86    4.03
  13  -7  -7   11.71    3.22
  13  -7  -7   19.78    3.62
  13   7  -6   22.95    4.13
  13  -7  -6   16.61    3.41
  13  -7  -6   23.36    3.97
  13  -7  -6   11.67    3.08
  13   7  -5  109.48    9.11
  13  -7  -5  122.14    9.06
  13  -7  -5   98.64    8.83
  13  -7  -5   91.16    8.46
  13   7  -4   -1.74    2.78
  13  -7  -4    0.55    2.08
  13  -7  -4    0.59    1.87
  13   7  -3   29.15    4.28
  13  -7  -3   21.56    3.88
  13  -7  -3   30.90    4.53
  13   7  -2   17.69    3.45
  13  -7  -2   17.27    3.51
  13  -7  -2   20.18    3.76
  13  -7  -2   19.54    3.83
  13   7  -1   -1.13    2.35
  13  -7  -1   -2.78    2.46
  13  -7  -1    0.60    1.83
  13  -7  -1   -2.73    2.25
  13   7   0   17.47    3.46
  13  -7   0   20.08    3.83
  13  -7   0   16.78    3.49
  13  -7   0   15.26    3.75
  13   7   1   25.30    4.17
  13  -7   1   23.06    3.97
  13  -7   1   19.66    3.80
  13  -7   1   27.15    4.81
  13   7   2   16.98    3.62
  13  -7   2   29.13    4.19
  13  -7   2   23.96    4.07
  13   7   3   47.00    5.38
  13  -7   3   32.57    4.78
  13  -7   3   41.60    5.28
  13   7   4   71.40    7.05
  13  -7   4   61.64    6.81
  13  -7   4   68.18    6.92
  13   7   5   32.77    4.77
  13  -7   5   38.77    5.00
  13  -7   5   27.36    4.51
  13   7   6    9.75    2.88
  13  -7   6    8.01    2.82
  13  -7   6   14.87    3.41
  13   7   7    9.29    3.00
  13  -7   7    7.57    2.96
  13   7   8    8.96    2.99
  13  -7   8   16.93    3.59
  13  -8 -10   -0.62    2.05
  13  -8  -9   10.52    2.98
  13  -8  -9   10.00    2.95
  13   8  -8   28.11    4.40
  13  -8  -8   19.46    3.63
  13  -8  -8   30.39    4.61
  13   8  -7   17.16    3.70
  13  -8  -7   22.59    3.81
  13  -8  -7   17.43    3.64
  13   8  -6   13.70    3.39
  13  -8  -6    9.29    3.05
  13  -8  -6    6.77    2.95
  13  -8  -6    9.96    3.03
  13   8  -5    0.58    2.70
  13  -8  -5   -3.28    2.62
  13  -8  -5   -0.64    2.30
  13   8  -4   11.97    2.93
  13  -8  -4   10.93    2.97
  13  -8  -4   15.72    3.70
  13   8  -3   -2.28    2.51
  13  -8  -3   -0.55    2.30
  13  -8  -3    1.22    2.07
  13  -8  -3    0.68    2.39
  13   8  -2   24.25    4.02
  13  -8  -2   19.88    3.59
  13  -8  -2   16.41    3.57
  13  -8  -2   20.70    4.01
  13   8  -1    1.12    2.47
  13  -8  -1    4.43    2.58
  13  -8  -1    3.66    2.32
  13  -8  -1   -0.75    2.28
  13   8   0   18.28    3.66
  13  -8   0   18.89    3.57
  13  -8   0   23.92    4.12
  13  -8   0   17.28    4.28
  13   8   1   -0.55    2.35
  13  -8   1    1.12    2.07
  13  -8   1    1.84    2.33
  13  -8   1    0.83    2.44
  13   8   2   36.99    5.00
  13  -8   2   46.02    5.26
  13  -8   2   44.98    5.57
  13  -8   2   43.08    6.48
  13   8   3    0.57    2.05
  13  -8   3    4.06    2.46
  13  -8   3   -0.61    2.21
  13   8   4    2.31    2.31
  13  -8   4    1.77    2.13
  13   8   5   -1.19    2.37
  13  -8   5    1.21    2.24
  13   8   6   73.01    7.39
  13  -8   6   86.22    7.89
  13   8   7    3.08    2.56
  13  -8   7    2.52    2.46
  13   9  -9   -0.63    2.38
  13  -9  -9   -0.55    2.30
  13   9  -8    6.15    2.96
  13  -9  -8    1.65    2.19
  13   9  -7   26.89    4.57
  13  -9  -7   23.37    4.06
  13   9  -6   48.55    5.57
  13  -9  -6   43.77    5.26
  13  -9  -6   33.77    5.27
  13   9  -5   40.29    5.10
  13  -9  -5   32.85    4.88
  13  -9  -5   41.68    5.76
  13  -9  -4   49.54    5.72
  13   9  -4   40.44    5.13
  13  -9  -4   31.16    5.14
  13   9  -3   78.01    7.10
  13  -9  -3   88.99    8.44
  13   9  -2    0.55    2.14
  13  -9  -2   -1.09    2.85
  13  -9  -2    2.36    2.59
  13   9  -1   -1.09    2.41
  13  -9  -1   -1.63    2.61
  13  -9  -1    3.25    3.08
  13   9   0  138.03   10.37
  13  -9   0  140.14   10.41
  13  -9   0  120.40   11.56
  13   9   1    4.93    2.48
  13  -9   1    7.75    2.87
  13  -9   1    6.19    3.29
  13   9   2    0.55    2.30
  13  -9   2    0.56    2.08
  13  -9   2   -0.93    2.73
  13   9   3    6.74    2.80
  13  -9   3    7.44    2.55
  13  -9   3    7.82    3.63
  13   9   4   24.02    4.06
  13  -9   4   22.88    3.88
  13   9   5    6.41    2.64
  13  -9   5    7.09    2.81
  13   9   6    2.96    2.36
  13  -9   6    3.03    2.57
  13   9   7   -0.61    2.54
  13  -9   7   -0.63    2.49
  13  10 -10   59.91    6.31
  13 -10 -10   40.02    5.21
  13  10  -9   -0.61    2.07
  13 -10  -9   -0.54    2.01
  13  10  -8   -0.59    2.02
  13 -10  -8    5.38    2.42
  13  10  -7    1.15    1.88
  13 -10  -7   -1.06    2.30
  13  10  -6    0.56    2.29
  13 -10  -6   -2.64    2.73
  13  10  -5   31.03    4.50
  13 -10  -5   26.04    4.19
  13 -10  -5   23.98    4.89
  13  10  -4   14.26    3.46
  13 -10  -4   20.22    3.76
  13 -10  -4   24.39    4.63
  13  10  -3   -1.08    2.79
  13 -10  -3   -1.59    2.88
  13 -10  -3   -0.82    2.50
  13  10  -2   15.53    3.44
  13 -10  -2   14.79    3.33
  13 -10  -2   18.50    4.42
  13  10  -1   55.80    5.92
  13 -10  -1   44.96    5.56
  13 -10  -1   58.57    7.33
  13  10   0   14.90    3.46
  13 -10   0   18.22    3.49
  13 -10   0   19.92    4.63
  13  10   1   31.61    4.52
  13 -10   1   29.29    4.33
  13 -10   1   25.37    5.26
  13  10   2    0.54    2.12
  13 -10   2    0.55    2.19
  13 -10   2   -3.92    3.22
  13  10   3   12.14    3.14
  13 -10   3   19.66    3.69
  13 -10   3   20.43    5.27
  13  10   4    8.42    2.76
  13 -10   4    5.68    2.62
  13 -10   4    4.28    3.41
  13  10   5    3.98    2.42
  13 -10   5    1.16    2.15
  13 -10   5    8.92    4.13
  13  10   6    0.59    2.17
  13 -10   6    2.39    2.38
  13 -11 -12    1.08    2.15
  13  11 -11    1.85    2.28
  13 -11 -11    1.08    2.04
  13  11 -10    2.41    2.23
  13 -11 -10    1.06    2.07
  13  11  -9   16.93    3.71
  13 -11  -9   11.55    2.94
  13  11  -8    0.56    2.04
  13 -11  -8    3.10    2.20
  13  11  -7    2.21    2.20
  13 -11  -7    0.51    2.05
  13  11  -6   16.78    3.47
  13 -11  -6   14.94    3.40
  13  11  -5    3.76    2.33
  13 -11  -5    1.54    2.63
  13 -11  -5    6.72    3.20
  13  11  -4   39.08    5.01
  13 -11  -4   41.86    5.06
  13 -11  -4   38.46    6.11
  13  11  -3   -1.56    2.58
  13 -11  -3   -4.06    2.86
  13 -11  -3   -1.76    2.59
  13  11  -2   -3.62    2.75
  13 -11  -2   -6.60    2.90
  13 -11  -2    2.72    3.18
  13  11  -1   27.26    4.17
  13 -11  -1   41.02    4.95
  13 -11  -1   41.54    6.50
  13  11   0    0.52    2.49
  13 -11   0   -0.52    2.33
  13 -11   0    0.97    2.73
  13  11   1    3.67    2.28
  13 -11   1    6.29    2.65
  13 -11   1    6.00    3.90
  13  11   2    2.12    2.16
  13 -11   2    4.79    2.22
  13 -11   2    2.07    3.05
  13  11   3    2.16    1.84
  13 -11   3    2.70    2.30
  13 -11   3    2.14    3.52
  13  11   4    2.72    2.07
  13 -11   4    0.55    1.98
  13  11   5    7.25    2.85
  13 -11   5   13.52    3.18
  13  12 -11    3.53    2.55
  13  12 -10   27.36    4.44
  13  12  -9   16.46    3.52
  13  12  -8   26.85    4.28
  13  12  -7   30.51    4.31
  13  12  -6   -1.56    2.66
  13  12  -5    2.56    2.22
  13 -12  -5    4.54    2.99
  13  12  -4   -0.50    2.22
  13 -12  -4   -0.93    2.94
  13  12  -3    0.50    2.03
  13 -12  -3    0.95    2.54
  13  12  -2    0.50    2.14
  13 -12  -2    4.87    3.09
  13  12  -1    5.96    2.52
  13 -12  -1    7.98    3.71
  13  12   0    0.50    2.22
  13 -12   0   -2.07    3.63
  13  12   1   55.21    5.81
  13  12   2   -1.03    2.31
  13  12   3   12.93    3.02
  13  12   4   18.02    3.60
  13  12   5   17.94    3.54
  14   0 -18   46.42    4.98
  14   0 -17    0.44    1.72
  14   0 -16   -1.34    1.73
  14   0 -15    0.45    1.83
  14   0 -14   47.97    5.19
  14   0 -13    2.29    2.06
  14   0 -12  119.04    9.03
  14   0 -11    3.25    2.37
  14   0 -10   92.57    7.80
  14   0  -9   -0.47    1.84
  14   0  -8    6.26    2.33
  14   0  -7    1.23    1.88
  14   0  -7   -0.49    1.91
  14   0  -6    9.81    2.92
  14   0  -6   15.07    3.17
  14   0  -5   -0.61    2.25
  14   0  -4    7.17    2.66
  14   0  -3   -2.99    2.27
  14   0  -2    3.60    2.23
  14   0  -1    0.60    1.99
  14   0   0    1.81    1.92
  14   0   1   -0.61    2.07
  14   0   2   15.90    3.42
  14   0   3   -0.62    2.22
  14   0   4   24.49    4.11
  14   0   5    0.64    2.24
  14   0   6   68.01    7.11
  14  -1 -18    3.28    2.26
  14  -1 -17   12.71    2.90
  14   1 -17   13.77    2.89
  14  -1 -16   48.73    5.44
  14   1 -16   57.34    5.43
  14  -1 -15    4.27    2.13
  14   1 -15    1.28    2.27
  14  -1 -14    0.48    2.02
  14   1 -14    3.04    1.88
  14  -1 -13   68.94    6.62
  14   1 -13   84.17    6.80
  14  -1 -12   20.97    3.65
  14   1 -12   19.22    3.25
  14  -1 -11    5.30    2.22
  14   1 -11    6.82    2.30
  14  -1 -10   10.69    2.74
  14   1 -10   12.53    2.74
  14  -1  -9   52.10    5.51
  14  -1  -8   -1.98    2.15
  14  -1  -7   63.59    6.41
  14  -1  -7   54.37    5.76
  14  -1  -6   69.72    6.91
  14  -1  -6   67.92    6.44
  14  -1  -5   -1.20    2.10
  14  -1  -5    2.05    1.95
  14  -1  -4   -2.96    2.46
  14  -1  -4    2.10    1.78
  14  -1  -3   -0.59    2.31
  14  -1  -2    0.60    2.09
  14  -1  -1   37.30    5.03
  14  -1   0   13.26    3.31
  14  -1   1   43.68    5.52
  14  -1   2   15.27    3.49
  14  -1   3   -1.23    2.40
  14  -1   4   43.29    5.38
  14  -1   5    5.13    2.57
  14  -1   6   21.59    4.08
  14  -2 -19    0.49    2.13
  14  -2 -18   -1.48    2.21
  14  -2 -17    9.38    2.85
  14  -2 -16   -1.98    2.15
  14  -2 -15   11.45    2.83
  14  -2 -14    0.50    1.99
  14  -2 -13    5.03    2.27
  14  -2 -12    4.04    2.15
  14  -2 -11    6.59    2.50
  14  -2 -10   11.69    2.76
  14  -2  -9    1.02    1.73
  14  -2  -8    6.66    2.44
  14   2  -7    1.90    2.22
  14  -2  -7    4.19    2.34
  14  -2  -7    3.10    2.20
  14   2  -6   63.03    6.69
  14  -2  -6   63.66    6.42
  14  -2  -6   56.50    5.98
  14   2  -5  143.56   11.38
  14  -2  -5  153.14   11.36
  14  -2  -5  152.11   11.01
  14   2  -4   11.58    3.23
  14  -2  -4   14.72    3.32
  14  -2  -4   15.93    3.17
  14   2  -3   15.79    3.45
  14  -2  -3   15.33    3.24
  14  -2  -3   10.79    2.83
  14   2  -2    4.86    2.37
  14  -2  -2    3.57    2.21
  14  -2  -2    1.10    1.82
  14   2  -1    6.11    2.71
  14  -2  -1    4.81    2.56
  14   2   0   13.42    3.36
  14  -2   0   15.61    3.57
  14   2   1   30.00    4.47
  14  -2   1   31.45    4.80
  14   2   2    6.76    2.89
  14  -2   2    8.54    2.91
  14   2   3   11.15    3.02
  14  -2   3   10.50    3.11
  14   2   4   30.26    4.56
  14  -2   4   28.28    4.42
  14   2   5  171.93   12.48
  14  -2   5  152.36   12.13
  14   2   6   24.94    4.56
  14  -2   6   28.21    4.72
  14  -3 -20   -1.04    2.22
  14  -3 -19    1.05    2.35
  14  -3 -18   -1.57    2.31
  14  -3 -17    7.35    2.59
  14  -3 -16   55.07    5.90
  14  -3 -15   18.88    3.50
  14  -3 -14    4.20    2.49
  14  -3 -13   28.38    4.08
  14  -3 -12   -0.53    1.89
  14  -3 -11    3.70    2.02
  14  -3 -10    2.66    2.26
  14  -3  -9   -1.60    2.13
  14  -3  -8   42.98    5.10
  14   3  -7  100.85    8.82
  14  -3  -7   92.35    8.33
  14  -3  -7   95.34    8.12
  14   3  -6    3.83    2.71
  14  -3  -6    4.76    2.33
  14  -3  -6    4.31    2.20
  14   3  -5    3.14    2.39
  14  -3  -5    2.95    2.25
  14  -3  -5    6.54    2.46
  14   3  -4    5.54    2.67
  14  -3  -4    0.59    2.06
  14  -3  -4    5.51    2.48
  14   3  -3   29.97    4.43
  14  -3  -3   23.50    4.00
  14  -3  -3   21.61    3.77
  14   3  -2   -1.23    2.65
  14  -3  -2    0.59    2.02
  14  -3  -2    0.56    1.89
  14   3  -1    0.61    2.27
  14  -3  -1   -1.80    2.10
  14  -3  -1    5.68    2.46
  14   3   0   57.54    6.34
  14  -3   0   56.46    6.08
  14  -3   0   51.13    5.96
  14   3   1   27.58    4.68
  14  -3   1   37.36    4.94
  14   3   2   33.84    4.76
  14  -3   2   31.05    4.72
  14   3   3    3.73    2.31
  14  -3   3    3.71    2.36
  14   3   4    6.31    2.48
  14  -3   4    9.45    3.10
  14   3   5    9.68    2.75
  14  -3   5   16.12    3.64
  14  -4 -17    5.02    2.47
  14  -4 -16   13.95    3.36
  14  -4 -15    2.78    2.59
  14  -4 -14   45.94    5.46
  14  -4 -13    0.55    2.05
  14  -4 -12   11.60    3.02
  14  -4 -11   35.35    4.87
  14  -4 -10    0.55    1.82
  14  -4  -9    9.44    2.75
  14  -4  -8   22.97    3.96
  14  -4  -8   24.58    3.98
  14   4  -7   10.43    3.14
  14  -4  -7    5.93    2.63
  14  -4  -7    3.94    2.21
  14   4  -6   12.84    3.39
  14  -4  -6    5.30    2.73
  14  -4  -6   11.87    3.00
  14   4  -5   17.01    4.12
  14  -4  -5   14.62    3.61
  14   4  -4   29.79    4.72
  14  -4  -4   33.39    4.68
  14  -4  -4   31.72    4.44
  14   4  -3   28.29    4.52
  14  -4  -3   28.16    4.47
  14  -4  -3   34.94    4.62
  14   4  -2   12.35    3.17
  14  -4  -2   16.66    3.56
  14  -4  -2   10.42    2.90
  14   4  -1   21.59    4.05
  14  -4  -1   20.39    3.84
  14  -4  -1   12.78    3.17
  14   4   0   -2.45    2.75
  14  -4   0    1.81    2.45
  14   4   1    0.61    2.49
  14  -4   1   -1.21    2.29
  14   4   2   14.77    3.52
  14  -4   2   23.74    4.01
  14   4   3   23.09    4.10
  14  -4   3   14.28    3.33
  14   4   4    3.80    2.37
  14  -4   4   12.02    3.06
  14   4   5    6.45    2.92
  14  -4   5    9.04    2.77
  14  -5 -14    4.68    2.44
  14  -5 -13    0.58    2.22
  14  -5 -12   15.14    3.37
  14  -5 -11    5.22    2.48
  14  -5 -10   42.86    5.33
  14  -5  -9   10.42    3.04
  14   5  -8    1.33    2.26
  14  -5  -8    3.53    2.18
  14  -5  -8   -0.58    2.25
  14   5  -7   -0.66    2.16
  14  -5  -7    0.59    2.07
  14  -5  -7   -0.58    2.09
  14   5  -6   -0.64    2.45
  14  -5  -6    2.94    2.45
  14  -5  -6    2.34    2.22
  14   5  -5   -2.52    2.34
  14  -5  -5   -1.74    2.57
  14  -5  -5   -1.18    2.35
  14   5  -4   30.57    4.73
  14  -5  -4   35.62    4.89
  14  -5  -4   37.20    4.99
  14   5  -3   54.44    6.20
  14  -5  -3   54.18    6.00
  14  -5  -3   47.63    5.82
  14   5  -2   -0.62    2.11
  14  -5  -2    0.60    2.26
  14  -5  -2    1.78    2.26
  14   5  -1   -0.62    2.51
  14  -5  -1   -1.19    2.27
  14   5   0    6.15    2.74
  14  -5   0   10.83    3.05
  14   5   1   14.11    3.40
  14  -5   1    9.09    3.11
  14  -5   1   15.12    3.43
  14   5   2    6.76    2.74
  14  -5   2    9.78    3.18
  14  -5   2    8.64    3.04
  14   5   3   36.76    4.85
  14  -5   3   25.50    4.33
  14  -5   3   28.33    4.66
  14   5   4    1.27    2.22
  14  -5   4    1.91    2.41
  14   5   5    1.93    2.32
  14  -5   5    0.65    2.27
  14  -6 -11   10.34    2.92
  14  -6 -10    4.24    2.53
  14  -6  -9    8.79    3.14
  14  -6  -9    8.45    2.89
  14   6  -8   24.80    4.40
  14  -6  -8   24.16    4.07
  14  -6  -8   25.29    4.16
  14   6  -7    1.98    2.31
  14  -6  -7   -2.93    2.54
  14  -6  -7    0.60    2.45
  14   6  -6   10.96    3.24
  14  -6  -6    7.00    2.81
  14  -6  -6   15.66    3.24
  14   6  -5   -0.63    2.14
  14  -6  -5   -3.49    2.71
  14  -6  -5   -1.21    1.93
  14   6  -4   18.04    3.68
  14  -6  -4   26.23    4.06
  14  -6  -4   23.23    4.21
  14   6  -3   -1.24    2.52
  14  -6  -3    1.18    2.01
  14  -6  -3    2.45    2.33
  14   6  -2   -1.86    2.29
  14  -6  -2    0.60    2.21
  14   6  -1    1.84    2.27
  14  -6  -1    2.98    2.38
  14   6   0   16.49    3.45
  14  -6   0   21.55    3.74
  14  -6   0    9.28    3.20
  14   6   1   -0.61    2.20
  14  -6   1    0.60    2.18
  14   6   2   22.74    4.03
  14  -6   2   17.19    3.44
  14   6   3    7.46    2.60
  14  -6   3    5.00    2.45
  14   6   4    1.90    2.16
  14  -6   4    6.38    2.66
  14   7  -9    2.04    2.64
  14  -7  -9   -0.59    2.12
  14   7  -8   -0.67    2.34
  14  -7  -8   -1.18    2.34
  14   7  -7  111.71    9.41
  14  -7  -7   94.68    8.68
  14   7  -6   -1.27    2.86
  14  -7  -6   -1.74    2.95
  14   7  -5   30.77    4.85
  14  -7  -5   38.33    5.11
  14   7  -4   -1.24    2.84
  14  -7  -4   -1.75    2.81
  14   7  -3   -1.85    2.52
  14  -7  -3   -1.18    2.79
  14   7  -2    4.91    2.51
  14  -7  -2    4.14    2.52
  14   7  -1    1.83    2.26
  14  -7  -1    2.98    2.48
  14   7   0   43.56    5.52
  14  -7   0   43.14    5.40
  14   7   1   -1.81    2.57
  14  -7   1   -1.21    2.56
  14   7   2   30.57    4.65
  14  -7   2   34.94    4.81
  14  -7   2   27.47    5.10
  14   7   3   84.81    8.22
  14  -7   3   96.94    8.65
  14  -8 -10    8.79    2.72
  14   8  -9    7.42    2.77
  14  -8  -9    8.22    2.72
  14   8  -8    6.60    2.87
  14  -8  -8    4.65    2.48
  14   8  -7    6.43    2.85
  14  -8  -7    4.62    2.61
  14   8  -6   10.06    3.08
  14  -8  -6    2.89    2.26
  14   8  -5   -0.62    2.35
  14  -8  -5   -4.04    2.50
  14   8  -4    9.82    2.91
  14  -8  -4   12.29    3.11
  14   8  -3    1.22    2.38
  14  -8  -3   -0.59    2.39
  14   8  -2    5.43    2.84
  14  -8  -2   12.37    3.23
  14   8  -1   -1.20    2.64
  14  -8  -1   -0.59    2.51
  14   8   0   15.53    3.47
  14  -8   0   10.67    3.21
  14   8   1   10.80    3.03
  14  -8   1   12.65    3.63
  14   8   2    6.05    2.59
  14  -8   2   10.40    3.14
  14  -8   2    5.29    2.92
  14   8   3   63.98    6.77
  14  -8   3   61.62    6.81
  14  -8   3   67.93    8.27
  14  -9  -9    0.58    2.08
  14   9  -8   -0.65    2.45
  14  -9  -8    2.87    2.29
  14   9  -7    3.13    2.38
  14  -9  -7   -1.14    2.06
  14   9  -6    0.62    2.28
  14  -9  -6   -1.14    2.47
  14   9  -5    7.92    2.91
  14  -9  -5    8.06    2.66
  14   9  -4    2.42    2.30
  14  -9  -4    1.16    2.31
  14   9  -3   -0.60    2.27
  14  -9  -3    0.58    2.40
  14   9  -2   17.17    3.62
  14  -9  -2   16.81    3.59
  14   9  -1   -1.18    2.12
  14  -9  -1   -0.58    2.42
  14   9   0   12.91    3.14
  14  -9   0   13.52    3.34
  14   9   1    0.59    2.13
  14  -9   1    1.19    2.47
  14   9   2    8.38    2.88
  14  -9   2   11.52    3.26
  14  -9   2   13.11    4.24
  14  -9   3   -0.99    3.25
  14  -9   4    4.19    3.09
  14  10  -7   17.68    3.62
  14 -10  -7   17.93    3.67
  14  10  -6    1.20    2.44
  14 -10  -6    3.94    2.49
  14  10  -5    2.38    2.58
  14 -10  -5    3.40    2.41
  14  10  -4   -1.18    2.45
  14 -10  -4    0.56    2.09
  14  10  -3    6.40    2.54
  14 -10  -3    6.21    2.69
  14  10  -2    2.30    2.07
  14 -10  -2    1.70    2.31
  14  10  -1    1.14    2.11
  14 -10  -1   -1.14    2.42
  14  10   0    2.30    2.14
  14 -10   0    5.18    2.77
  14 -10   3    3.12    3.18
  14 -11  -5   37.05    4.91
  14  11  -4    3.40    2.64
  14 -11  -4    1.09    2.41
  14  11  -3   -2.24    2.65
  14 -11  -3   -3.82    2.93
  14  11  -2    1.67    2.49
  14 -11  -2    0.55    2.50
  14 -11  -1   -1.65    2.65
  15   0 -16    1.42    2.09
  15   0 -15   -0.96    1.91
  15   0 -14  103.02    8.35
  15   0 -13   -1.46    2.27
  15   0 -12  122.70    9.51
  15   0 -11   -2.00    1.95
  15   0 -10   14.76    3.09
  15   0  -9   -1.04    2.16
  15   0  -6  104.91    9.17
  15   0  -5    2.54    2.09
  15   0  -4  183.93   13.44
  15   0  -3    0.64    1.79
  15   0  -2   -0.64    2.44
  15   0  -1    1.93    2.25
  15  -1 -17   58.78    5.97
  15  -1 -16   64.11    6.18
  15   1 -16   56.46    5.92
  15  -1 -15   84.70    7.56
  15   1 -15   92.09    7.66
  15  -1 -14   -0.50    1.91
  15  -1 -13   25.45    3.96
  15  -1 -12   15.91    3.41
  15  -1 -11   64.05    6.25
  15  -1 -10    0.52    2.11
  15  -1  -9   15.67    3.24
  15  -1  -8    4.25    2.27
  15  -1  -7    5.40    2.65
  15  -1  -6   -0.64    2.75
  15  -1  -6   -0.55    1.98
  15  -1  -5    2.51    2.26
  15  -1  -4   -1.26    2.61
  15  -1  -3   33.51    4.89
  15  -1  -1   37.77    5.14
  15  -2 -17    2.61    2.39
  15  -2 -16    1.58    2.23
  15  -2 -15    0.53    2.19
  15  -2 -14    2.11    2.29
  15  -2 -13    3.70    2.25
  15  -2 -12   21.21    3.68
  15  -2 -11   -0.53    2.13
  15  -2 -10   22.65    3.79
  15  -2  -9   -0.54    2.12
  15  -2  -8   43.33    5.17
  15  -2  -7   25.93    4.08
  15  -2  -6    6.27    2.85
  15  -2  -6    9.45    2.90
  15   2  -5   48.09    6.06
  15  -2  -5   47.26    5.70
  15  -2  -5   48.64    5.60
  15   2  -4   41.43    5.55
  15  -2  -4   44.22    5.51
  15  -2  -4   44.37    5.41
  15   2  -3   10.37    3.07
  15  -2  -3    6.91    2.93
  15   2  -2  127.00   10.58
  15  -2  -2  138.21   10.78
  15   2  -1    4.56    2.93
  15  -2  -1    4.46    2.60
  15  -3 -13    3.34    2.37
  15  -3 -12   23.46    4.01
  15  -3 -11    8.96    2.77
  15  -3 -10   10.12    2.91
  15  -3  -9   16.27    3.23
  15  -3  -8   23.24    3.82
  15  -3  -7    0.57    1.88
  15  -3  -6    8.67    2.90
  15   3  -5    2.63    2.63
  15  -3  -5    2.47    2.35
  15  -3  -5    6.40    2.71
  15   3  -4   17.64    3.94
  15  -3  -4   14.88    3.67
  15  -3  -4   18.69    3.61
  15   3  -3   47.13    5.84
  15  -3  -3   39.42    5.33
  15  -3  -3   46.36    5.64
  15  -3  -2    0.61    2.18
   0   0   0    0.00    0.00


TITL kato_210212_1 in P2(1)/c
REM P2(1)/c (#14 in standard setting)
CELL 0.71073  12.235442  14.261524  20.825310  90.0000  98.2478  90.0000
ZERR    4.00   0.000368   0.000394   0.000631   0.0000   0.0028   0.0000
LATT  1
SYMM -x, y+1/2,-z+1/2
SFAC C H S Cl
UNIT 176.00 104.00 4.00 24.00
TREF
HKLF 4
END
_computing_structure_solution     'SHELXT 2014/5 (Sheldrick, 2014)'
;
_shelx_hkl_checksum              96267
_olex2_submission_special_instructions 'No special instructions were received'
_oxdiff_exptl_absorpt_empirical_details
;
Empirical correction (ABSPACK) includes:
- Absorption correction using spherical harmonics
- Frame scaling
;
_oxdiff_exptl_absorpt_empirical_full_max 1.628
_oxdiff_exptl_absorpt_empirical_full_min 0.680
loop_
_space_group_symop_operation_xyz
'x, y, z'
'-x, y+1/2, -z+1/2'
'-x, -y, -z'
'x, -y-1/2, z-1/2'
loop_
_atom_site_label
_atom_site_type_symbol
_atom_site_fract_x
_atom_site_fract_y
_atom_site_fract_z
_atom_site_U_iso_or_equiv
_atom_site_adp_type
_atom_site_occupancy
_atom_site_site_symmetry_order
_atom_site_calc_flag
_atom_site_refinement_flags_posn
_atom_site_refinement_flags_adp
_atom_site_refinement_flags_occupancy
_atom_site_disorder_assembly
_atom_site_disorder_group
S0AA S 0.15248(5) 0.55782(4) 0.30523(3) 0.01674(15) Uani 1 1 d . . . . .
Cl0A Cl 0.24576(7) 0.35005(6) 0.41809(4) 0.0422(2) Uani 1 1 d . . . . .
Cl1A Cl 0.00897(7) 0.36890(7) 0.40376(4) 0.0440(2) Uani 1 1 d . . . . .
Cl2A Cl 0.94824(7) 0.28080(7) 0.58377(4) 0.0506(3) Uani 1 1 d . . . . .
Cl3A Cl 0.78658(10) 0.13192(7) 0.57197(4) 0.0540(3) Uani 1 1 d . . . . .
Cl4A Cl 0.14598(9) 0.46446(7) 0.50757(5) 0.0568(3) Uani 1 1 d . . . . .
Cl5A Cl 0.75875(10) 0.29052(7) 0.48551(6) 0.0707(4) Uani 1 1 d . . . . .
C0AA C 0.10254(19) 0.57813(16) 0.18070(11) 0.0150(5) Uani 1 1 d . . . . .
C1AA C -0.1796(2) 0.62999(17) 0.30771(12) 0.0187(5) Uani 1 1 d . . . . .
C2AA C -0.0874(2) 0.59464(16) 0.15327(12) 0.0168(5) Uani 1 1 d . . . . .
C3AA C -0.11271(19) 0.66441(17) 0.26387(12) 0.0175(5) Uani 1 1 d . . . . .
C4AA C 0.3152(2) 0.55944(16) 0.15796(12) 0.0162(5) Uani 1 1 d . . . . .
C5AA C -0.06748(19) 0.58424(17) 0.22694(12) 0.0168(5) Uani 1 1 d . . . . .
C6AA C 0.01213(19) 0.58980(16) 0.12656(12) 0.0168(5) Uani 1 1 d . . . . .
C7AA C 0.21908(19) 0.56602(16) 0.19263(12) 0.0155(5) Uani 1 1 d . . . . .
C8AA C 0.5124(2) 0.53287(17) 0.18487(13) 0.0198(5) Uani 1 1 d . . . . .
H8AA H 0.574945 0.523760 0.215317 0.024 Uiso 1 1 calc R . . . .
C9AA C 0.38020(19) 0.54311(16) 0.27294(12) 0.0164(5) Uani 1 1 d . . . . .
C0BA C -0.12560(19) 0.50006(17) 0.25251(12) 0.0181(5) Uani 1 1 d . . . . .
C1BA C 0.05688(19) 0.57602(16) 0.23726(12) 0.0160(5) Uani 1 1 d . . . . .
C2BA C 0.4097(2) 0.54617(16) 0.20411(12) 0.0170(5) Uani 1 1 d . . . . .
C3BA C 0.2561(2) 0.55439(16) 0.25777(12) 0.0161(5) Uani 1 1 d . . . . .
C4BA C -0.1881(2) 0.52776(17) 0.30023(12) 0.0186(5) Uani 1 1 d . . . . .
C5BA C 0.4320(2) 0.61895(17) 0.31965(12) 0.0177(5) Uani 1 1 d . . . . .
C6BA C 0.3240(2) 0.56011(18) 0.09228(13) 0.0202(5) Uani 1 1 d . . . . .
H6BA H 0.261763 0.568875 0.061582 0.024 Uiso 1 1 calc R . . . .
C7BA C -0.1867(2) 0.60797(18) 0.11436(13) 0.0216(5) Uani 1 1 d . . . . .
H7BA H -0.251746 0.613057 0.132349 0.026 Uiso 1 1 calc R . . . .
C8BA C -0.2475(2) 0.46169(19) 0.33027(13) 0.0228(5) Uani 1 1 d . . . . .
H8BA H -0.289586 0.479676 0.362000 0.027 Uiso 1 1 calc R . . . .
C9BA C 0.4847(2) 0.57859(19) 0.37702(13) 0.0207(5) Uani 1 1 d . . . . .
C0CA C 0.4195(2) 0.45448(17) 0.31007(13) 0.0191(5) Uani 1 1 d . . . . .
C1CA C -0.2269(2) 0.69115(19) 0.34781(13) 0.0236(5) Uani 1 1 d . . . . .
H1CA H -0.270773 0.668717 0.377391 0.028 Uiso 1 1 calc R . . . .
C2CA C 0.4778(2) 0.47626(18) 0.37045(12) 0.0199(5) Uani 1 1 d . . . . .
C3CA C -0.0955(2) 0.75944(18) 0.25769(13) 0.0221(5) Uani 1 1 d . . . . .
H3CA H -0.053298 0.782272 0.227397 0.027 Uiso 1 1 calc R . . . .
C4CA C 0.5196(2) 0.53354(18) 0.11810(14) 0.0226(5) Uani 1 1 d . . . . .
H4CA H 0.587700 0.524418 0.104194 0.027 Uiso 1 1 calc R . . . .
C5CA C -0.1883(2) 0.61380(19) 0.04692(14) 0.0251(6) Uani 1 1 d . . . . .
H5CA H -0.255108 0.621278 0.019904 0.030 Uiso 1 1 calc R . . . .
C6CA C 0.0104(2) 0.59689(18) 0.05983(12) 0.0212(5) Uani 1 1 d . . . . .
H6CA H 0.075512 0.593976 0.041749 0.025 Uiso 1 1 calc R . . . .
C7CA C -0.0913(2) 0.60850(19) 0.02047(13) 0.0240(5) Uani 1 1 d . . . . .
H7CA H -0.093621 0.612713 -0.024268 0.029 Uiso 1 1 calc R . . . .
C8CA C -0.1211(2) 0.40717(18) 0.23387(13) 0.0224(5) Uani 1 1 d . . . . .
H8CA H -0.079612 0.389128 0.201879 0.027 Uiso 1 1 calc R . . . .
C9CA C 0.4271(2) 0.54751(18) 0.07296(13) 0.0232(5) Uani 1 1 d . . . . .
H9CA H 0.433739 0.548520 0.029040 0.028 Uiso 1 1 calc R . . . .
C0DA C -0.2427(2) 0.3684(2) 0.31186(14) 0.0269(6) Uani 1 1 d . . . . .
H0DA H -0.281696 0.323510 0.331672 0.032 Uiso 1 1 calc R . . . .
C1DA C 0.5326(2) 0.6348(2) 0.42790(14) 0.0280(6) Uani 1 1 d . . . . .
H1DA H 0.567729 0.608186 0.466147 0.034 Uiso 1 1 calc R . . . .
C2DA C -0.1433(2) 0.82020(19) 0.29810(14) 0.0264(6) Uani 1 1 d . . . . .
H2DA H -0.132019 0.884442 0.295031 0.032 Uiso 1 1 calc R . . . .
C3DA C -0.1806(2) 0.34123(19) 0.26441(14) 0.0262(6) Uani 1 1 d . . . . .
H3DA H -0.178529 0.278377 0.252758 0.031 Uiso 1 1 calc R . . . .
C4DA C 0.4046(2) 0.36226(18) 0.28957(14) 0.0242(5) Uani 1 1 d . . . . .
H4DA H 0.366586 0.348158 0.248786 0.029 Uiso 1 1 calc R . . . .
C5DA C 0.5216(2) 0.4047(2) 0.41200(14) 0.0286(6) Uani 1 1 d . . . . .
H5DA H 0.561108 0.418641 0.452415 0.034 Uiso 1 1 calc R . . . .
C6DA C -0.2071(2) 0.7865(2) 0.34269(14) 0.0278(6) Uani 1 1 d . . . . .
H6DA H -0.237222 0.828246 0.369626 0.033 Uiso 1 1 calc R . . . .
C7DA C 0.4275(2) 0.71548(18) 0.31209(14) 0.0249(6) Uani 1 1 d . . . . .
H7DA H 0.393170 0.742288 0.273726 0.030 Uiso 1 1 calc R . . . .
C8DA C 0.4483(2) 0.2910(2) 0.33177(17) 0.0324(7) Uani 1 1 d . . . . .
H8DA H 0.438895 0.228606 0.319170 0.039 Uiso 1 1 calc R . . . .
C9DA C 0.4759(2) 0.7716(2) 0.36342(16) 0.0323(7) Uani 1 1 d . . . . .
H9DA H 0.473761 0.836520 0.359311 0.039 Uiso 1 1 calc R . . . .
C0EA C 0.5052(2) 0.3127(2) 0.39199(16) 0.0330(7) Uani 1 1 d . . . . .
H0EA H 0.533063 0.264546 0.419687 0.040 Uiso 1 1 calc R . . . .
C1EA C 0.5272(3) 0.7310(2) 0.42057(16) 0.0349(7) Uani 1 1 d . . . . .
H1EA H 0.558341 0.769286 0.454475 0.042 Uiso 1 1 calc R . . . .
C2EA C 0.1314(2) 0.3636(2) 0.45855(15) 0.0310(6) Uani 1 1 d . . . . .
H2EA H 0.127361 0.309037 0.486688 0.037 Uiso 1 1 calc R . . . .
C3EA C 0.8078(3) 0.2537(2) 0.56457(18) 0.0424(8) Uani 1 1 d . . . . .
H3EA H 0.766880 0.286805 0.594805 0.051 Uiso 1 1 calc R . . . .
loop_
_atom_site_aniso_label
_atom_site_aniso_U_11
_atom_site_aniso_U_22
_atom_site_aniso_U_33
_atom_site_aniso_U_23
_atom_site_aniso_U_13
_atom_site_aniso_U_12
S0AA 0.0146(3) 0.0208(3) 0.0152(3) 0.0011(2) 0.0036(2) 0.0011(2)
Cl0A 0.0305(4) 0.0453(5) 0.0531(5) 0.0021(4) 0.0146(4) -0.0012(3)
Cl1A 0.0295(4) 0.0615(5) 0.0397(5) -0.0085(4) 0.0008(3) -0.0018(3)
Cl2A 0.0301(4) 0.0752(6) 0.0431(5) -0.0220(4) -0.0068(4) 0.0122(4)
Cl3A 0.0840(7) 0.0476(5) 0.0297(4) 0.0024(3) 0.0059(4) -0.0015(4)
Cl4A 0.0570(6) 0.0522(6) 0.0562(6) -0.0251(4) -0.0093(5) 0.0107(4)
Cl5A 0.0659(7) 0.0411(5) 0.0890(8) 0.0182(5) -0.0434(6) -0.0047(4)
C0AA 0.0150(12) 0.0132(11) 0.0169(12) 0.0001(8) 0.0030(9) 0.0007(8)
C1AA 0.0146(12) 0.0222(12) 0.0188(12) -0.0007(9) 0.0009(9) 0.0010(9)
C2AA 0.0155(12) 0.0158(11) 0.0186(12) -0.0006(9) 0.0008(9) -0.0008(8)
C3AA 0.0124(11) 0.0206(12) 0.0190(12) -0.0018(9) 0.0001(9) 0.0023(8)
C4AA 0.0154(11) 0.0132(11) 0.0210(12) 0.0002(9) 0.0063(9) -0.0001(8)
C5AA 0.0125(11) 0.0179(11) 0.0206(12) -0.0007(9) 0.0041(9) 0.0008(8)
C6AA 0.0146(12) 0.0153(11) 0.0204(12) 0.0000(9) 0.0024(9) 0.0004(8)
C7AA 0.0144(11) 0.0143(11) 0.0182(12) 0.0004(8) 0.0034(9) -0.0006(8)
C8AA 0.0141(12) 0.0170(12) 0.0282(14) -0.0008(10) 0.0027(10) -0.0011(8)
C9AA 0.0125(11) 0.0177(12) 0.0187(12) -0.0001(9) 0.0015(9) 0.0007(8)
C0BA 0.0122(11) 0.0202(12) 0.0215(12) 0.0011(9) 0.0014(9) -0.0002(9)
C1BA 0.0135(11) 0.0165(11) 0.0181(12) -0.0012(9) 0.0029(9) -0.0007(8)
C2BA 0.0183(12) 0.0137(11) 0.0194(12) 0.0000(9) 0.0043(9) -0.0002(8)
C3BA 0.0149(12) 0.0165(11) 0.0172(12) 0.0012(8) 0.0030(9) 0.0016(8)
C4BA 0.0136(12) 0.0229(12) 0.0191(12) 0.0007(9) 0.0016(9) -0.0005(9)
C5BA 0.0143(11) 0.0201(12) 0.0195(12) -0.0026(9) 0.0048(9) 0.0002(9)
C6BA 0.0172(12) 0.0243(13) 0.0193(12) -0.0001(9) 0.0032(10) 0.0011(9)
C7BA 0.0167(12) 0.0219(12) 0.0258(14) -0.0002(10) 0.0016(10) 0.0001(9)
C8BA 0.0160(12) 0.0296(14) 0.0231(13) 0.0027(10) 0.0033(10) -0.0025(10)
C9BA 0.0136(12) 0.0292(14) 0.0205(13) 0.0008(10) 0.0071(10) -0.0014(9)
C0CA 0.0130(11) 0.0209(12) 0.0240(13) 0.0038(10) 0.0045(10) 0.0012(9)
C1CA 0.0183(13) 0.0299(14) 0.0239(13) -0.0013(10) 0.0073(10) 0.0032(10)
C2CA 0.0139(12) 0.0274(13) 0.0193(12) 0.0054(10) 0.0054(10) 0.0020(9)
C3CA 0.0196(13) 0.0212(13) 0.0254(13) 0.0014(10) 0.0030(10) 0.0025(9)
C4CA 0.0178(12) 0.0218(13) 0.0305(14) -0.0030(10) 0.0116(11) -0.0021(9)
C5CA 0.0197(13) 0.0258(14) 0.0276(14) -0.0009(10) -0.0042(11) 0.0008(10)
C6CA 0.0186(13) 0.0239(13) 0.0214(13) -0.0001(10) 0.0040(10) 0.0014(9)
C7CA 0.0253(14) 0.0268(14) 0.0182(13) 0.0006(10) -0.0025(10) 0.0024(10)
C8CA 0.0199(13) 0.0216(13) 0.0259(14) -0.0016(10) 0.0041(10) -0.0012(9)
C9CA 0.0233(14) 0.0264(14) 0.0216(13) -0.0021(10) 0.0086(11) -0.0006(10)
C0DA 0.0227(14) 0.0304(14) 0.0274(14) 0.0052(11) 0.0030(11) -0.0097(10)
C1DA 0.0193(13) 0.0474(18) 0.0180(13) -0.0056(11) 0.0048(10) -0.0038(11)
C2DA 0.0255(14) 0.0185(13) 0.0338(15) -0.0015(11) -0.0001(12) 0.0052(10)
C3DA 0.0251(14) 0.0212(13) 0.0321(15) -0.0012(11) 0.0033(11) -0.0056(10)
C4DA 0.0210(13) 0.0202(13) 0.0319(15) 0.0007(10) 0.0057(11) 0.0008(9)
C5DA 0.0192(13) 0.0422(17) 0.0249(14) 0.0137(12) 0.0053(11) 0.0045(11)
C6DA 0.0224(14) 0.0294(15) 0.0315(15) -0.0078(11) 0.0034(11) 0.0083(10)
C7DA 0.0224(14) 0.0204(13) 0.0324(15) 0.0001(11) 0.0050(11) -0.0001(10)
C8DA 0.0269(15) 0.0195(13) 0.053(2) 0.0085(12) 0.0147(14) 0.0036(10)
C9DA 0.0294(15) 0.0243(14) 0.0455(18) -0.0132(12) 0.0130(13) -0.0044(11)
C0EA 0.0229(14) 0.0325(16) 0.0457(18) 0.0220(13) 0.0121(13) 0.0085(11)
C1EA 0.0294(16) 0.0430(18) 0.0339(17) -0.0217(13) 0.0106(13) -0.0120(13)
C2EA 0.0303(16) 0.0307(15) 0.0323(16) -0.0020(12) 0.0052(13) 0.0003(11)
C3EA 0.0354(18) 0.0450(19) 0.045(2) -0.0169(15) 0.0004(15) 0.0047(14)
loop_
_atom_type_symbol
_atom_type_description
_atom_type_scat_dispersion_real
_atom_type_scat_dispersion_imag
_atom_type_scat_source
C C 0.0033 0.0016 'International Tables Vol C Tables 4.2.6.8 and 6.1.1.4'
H H 0.0000 0.0000 'International Tables Vol C Tables 4.2.6.8 and 6.1.1.4'
Cl Cl 0.1484 0.1585 'International Tables Vol C Tables 4.2.6.8 and 6.1.1.4'
S S 0.1246 0.1234 'International Tables Vol C Tables 4.2.6.8 and 6.1.1.4'
loop_
_exptl_crystal_face_index_h
_exptl_crystal_face_index_k
_exptl_crystal_face_index_l
_exptl_crystal_face_perp_dist
-12 14 4 0.0794
-13 -12 10 0.0464
13 -13 -4 0.1188
12 14 -10 0.1333
-10 16 7 0.1019
-1 -1 29 0.0241
10 -16 -4 0.1172
1 1 -29 0.0613
loop_
_geom_angle_atom_site_label_1
_geom_angle_atom_site_label_2
_geom_angle_atom_site_label_3
_geom_angle
_geom_angle_site_symmetry_1
_geom_angle_site_symmetry_3
_geom_angle_publ_flag
C3BA S0AA C1BA 90.10(11) . . ?
C7AA C0AA C6AA 140.6(2) . . ?
C1BA C0AA C6AA 107.8(2) . . ?
C1BA C0AA C7AA 111.6(2) . . ?
C3AA C1AA C4BA 108.6(2) . . ?
C1CA C1AA C3AA 120.3(2) . . ?
C1CA C1AA C4BA 131.1(2) . . ?
C6AA C2AA C5AA 111.6(2) . . ?
C7BA C2AA C5AA 127.4(2) . . ?
C7BA C2AA C6AA 121.0(2) . . ?
C1AA C3AA C5AA 110.8(2) . . ?
C3CA C3AA C1AA 121.1(2) . . ?
C3CA C3AA C5AA 128.2(2) . . ?
C2BA C4AA C7AA 108.1(2) . . ?
C6BA C4AA C7AA 131.7(2) . . ?
C6BA C4AA C2BA 120.1(2) . . ?
C2AA C5AA C0BA 114.3(2) . . ?
C3AA C5AA C2AA 114.6(2) . . ?
C3AA C5AA C0BA 101.10(19) . . ?
C1BA C5AA C2AA 99.39(19) . . ?
C1BA C5AA C3AA 114.7(2) . . ?
C1BA C5AA C0BA 113.5(2) . . ?
C2AA C6AA C0AA 107.5(2) . . ?
C6CA C6AA C0AA 132.6(2) . . ?
C6CA C6AA C2AA 120.0(2) . . ?
C0AA C7AA C4AA 140.8(2) . . ?
C3BA C7AA C0AA 111.5(2) . . ?
C3BA C7AA C4AA 107.7(2) . . ?
C2BA C8AA H8AA 120.9 . . ?
C2BA C8AA C4CA 118.2(2) . . ?
C4CA C8AA H8AA 120.9 . . ?
C2BA C9AA C5BA 116.39(19) . . ?
C3BA C9AA C2BA 99.54(19) . . ?
C3BA C9AA C5BA 111.65(19) . . ?
C3BA C9AA C0CA 115.32(19) . . ?
C0CA C9AA C2BA 113.59(19) . . ?
C0CA C9AA C5BA 101.08(19) . . ?
C4BA C0BA C5AA 110.8(2) . . ?
C8CA C0BA C5AA 127.9(2) . . ?
C8CA C0BA C4BA 121.2(2) . . ?
C0AA C1BA S0AA 113.33(18) . . ?
C0AA C1BA C5AA 113.7(2) . . ?
C5AA C1BA S0AA 132.87(18) . . ?
C4AA C2BA C9AA 111.3(2) . . ?
C8AA C2BA C4AA 120.8(2) . . ?
C8AA C2BA C9AA 127.8(2) . . ?
C7AA C3BA S0AA 113.46(18) . . ?
C7AA C3BA C9AA 113.3(2) . . ?
C9AA C3BA S0AA 133.18(18) . . ?
C0BA C4BA C1AA 108.6(2) . . ?
C8BA C4BA C1AA 131.1(2) . . ?
C8BA C4BA C0BA 120.2(2) . . ?
C9BA C5BA C9AA 110.5(2) . . ?
C7DA C5BA C9AA 128.6(2) . . ?
C7DA C5BA C9BA 120.8(2) . . ?
C4AA C6BA H6BA 120.4 . . ?
C4AA C6BA C9CA 119.1(2) . . ?
C9CA C6BA H6BA 120.4 . . ?
C2AA C7BA H7BA 120.6 . . ?
C2AA C7BA C5CA 118.9(2) . . ?
C5CA C7BA H7BA 120.6 . . ?
C4BA C8BA H8BA 120.7 . . ?
C0DA C8BA C4BA 118.6(2) . . ?
C0DA C8BA H8BA 120.7 . . ?
C5BA C9BA C2CA 108.4(2) . . ?
C1DA C9BA C5BA 120.4(3) . . ?
C1DA C9BA C2CA 131.1(3) . . ?
C2CA C0CA C9AA 111.0(2) . . ?
C4DA C0CA C9AA 127.8(2) . . ?
C4DA C0CA C2CA 121.2(2) . . ?
C1AA C1CA H1CA 120.8 . . ?
C6DA C1CA C1AA 118.5(2) . . ?
C6DA C1CA H1CA 120.8 . . ?
C0CA C2CA C9BA 108.8(2) . . ?
C0CA C2CA C5DA 120.0(3) . . ?
C5DA C2CA C9BA 131.1(3) . . ?
C3AA C3CA H3CA 120.9 . . ?
C3AA C3CA C2DA 118.2(2) . . ?
C2DA C3CA H3CA 120.9 . . ?
C8AA C4CA H4CA 119.5 . . ?
C9CA C4CA C8AA 120.9(2) . . ?
C9CA C4CA H4CA 119.5 . . ?
C7BA C5CA H5CA 119.8 . . ?
C7CA C5CA C7BA 120.4(2) . . ?
C7CA C5CA H5CA 119.8 . . ?
C6AA C6CA H6CA 120.7 . . ?
C6AA C6CA C7CA 118.7(2) . . ?
C7CA C6CA H6CA 120.7 . . ?
C5CA C7CA C6CA 121.1(3) . . ?
C5CA C7CA H7CA 119.5 . . ?
C6CA C7CA H7CA 119.5 . . ?
C0BA C8CA H8CA 120.9 . . ?
C0BA C8CA C3DA 118.2(2) . . ?
C3DA C8CA H8CA 120.9 . . ?
C6BA C9CA H9CA 119.6 . . ?
C4CA C9CA C6BA 120.8(3) . . ?
C4CA C9CA H9CA 119.6 . . ?
C8BA C0DA H0DA 119.5 . . ?
C3DA C0DA C8BA 121.0(2) . . ?
C3DA C0DA H0DA 119.5 . . ?
C9BA C1DA H1DA 120.6 . . ?
C1EA C1DA C9BA 118.7(3) . . ?
C1EA C1DA H1DA 120.6 . . ?
C3CA C2DA H2DA 119.5 . . ?
C6DA C2DA C3CA 121.0(3) . . ?
C6DA C2DA H2DA 119.5 . . ?
C8CA C3DA H3DA 119.6 . . ?
C0DA C3DA C8CA 120.7(3) . . ?
C0DA C3DA H3DA 119.6 . . ?
C0CA C4DA H4DA 120.8 . . ?
C0CA C4DA C8DA 118.3(3) . . ?
C8DA C4DA H4DA 120.8 . . ?
C2CA C5DA H5DA 120.6 . . ?
C0EA C5DA C2CA 118.8(3) . . ?
C0EA C5DA H5DA 120.6 . . ?
C1CA C6DA H6DA 119.5 . . ?
C2DA C6DA C1CA 120.9(2) . . ?
C2DA C6DA H6DA 119.5 . . ?
C5BA C7DA H7DA 120.8 . . ?
C5BA C7DA C9DA 118.5(3) . . ?
C9DA C7DA H7DA 120.8 . . ?
C4DA C8DA H8DA 119.8 . . ?
C0EA C8DA C4DA 120.3(3) . . ?
C0EA C8DA H8DA 119.8 . . ?
C7DA C9DA H9DA 119.8 . . ?
C1EA C9DA C7DA 120.4(3) . . ?
C1EA C9DA H9DA 119.8 . . ?
C5DA C0EA H0EA 119.3 . . ?
C8DA C0EA C5DA 121.3(3) . . ?
C8DA C0EA H0EA 119.3 . . ?
C1DA C1EA C9DA 121.2(3) . . ?
C1DA C1EA H1EA 119.4 . . ?
C9DA C1EA H1EA 119.4 . . ?
Cl0A C2EA Cl1A 111.14(17) . . ?
Cl0A C2EA Cl4A 110.45(17) . . ?
Cl0A C2EA H2EA 108.2 . . ?
Cl1A C2EA Cl4A 110.50(17) . . ?
Cl1A C2EA H2EA 108.2 . . ?
Cl4A C2EA H2EA 108.2 . . ?
Cl2A C3EA Cl3A 110.41(19) . . ?
Cl2A C3EA H3EA 108.8 . . ?
Cl3A C3EA H3EA 108.8 . . ?
Cl5A C3EA Cl2A 110.0(2) . . ?
Cl5A C3EA Cl3A 110.00(18) . . ?
Cl5A C3EA H3EA 108.8 . . ?
loop_
_geom_bond_atom_site_label_1
_geom_bond_atom_site_label_2
_geom_bond_distance
_geom_bond_site_symmetry_2
_geom_bond_publ_flag
S0AA C1BA 1.722(2) . ?
S0AA C3BA 1.716(2) . ?
Cl0A C2EA 1.745(3) . ?
Cl1A C2EA 1.749(3) . ?
Cl2A C3EA 1.751(4) . ?
Cl3A C3EA 1.766(4) . ?
Cl4A C2EA 1.757(3) . ?
Cl5A C3EA 1.750(4) . ?
C0AA C6AA 1.471(3) . ?
C0AA C7AA 1.422(3) . ?
C0AA C1BA 1.374(3) . ?
C1AA C3AA 1.400(3) . ?
C1AA C4BA 1.468(4) . ?
C1AA C1CA 1.390(4) . ?
C2AA C5AA 1.526(3) . ?
C2AA C6AA 1.412(3) . ?
C2AA C7BA 1.373(4) . ?
C3AA C5AA 1.525(3) . ?
C3AA C3CA 1.380(4) . ?
C4AA C7AA 1.469(3) . ?
C4AA C2BA 1.406(4) . ?
C4AA C6BA 1.387(4) . ?
C5AA C0BA 1.529(3) . ?
C5AA C1BA 1.510(3) . ?
C6AA C6CA 1.390(4) . ?
C7AA C3BA 1.377(3) . ?
C8AA H8AA 0.9300 . ?
C8AA C2BA 1.386(3) . ?
C8AA C4CA 1.406(4) . ?
C9AA C2BA 1.528(3) . ?
C9AA C3BA 1.515(3) . ?
C9AA C5BA 1.530(3) . ?
C9AA C0CA 1.523(3) . ?
C0BA C4BA 1.395(3) . ?
C0BA C8CA 1.384(4) . ?
C4BA C8BA 1.392(4) . ?
C5BA C9BA 1.398(4) . ?
C5BA C7DA 1.386(4) . ?
C6BA H6BA 0.9300 . ?
C6BA C9CA 1.389(4) . ?
C7BA H7BA 0.9300 . ?
C7BA C5CA 1.404(4) . ?
C8BA H8BA 0.9300 . ?
C8BA C0DA 1.388(4) . ?
C9BA C2CA 1.467(4) . ?
C9BA C1DA 1.390(4) . ?
C0CA C2CA 1.389(4) . ?
C0CA C4DA 1.387(4) . ?
C1CA H1CA 0.9300 . ?
C1CA C6DA 1.387(4) . ?
C2CA C5DA 1.394(4) . ?
C3CA H3CA 0.9300 . ?
C3CA C2DA 1.393(4) . ?
C4CA H4CA 0.9300 . ?
C4CA C9CA 1.378(4) . ?
C5CA H5CA 0.9300 . ?
C5CA C7CA 1.380(4) . ?
C6CA H6CA 0.9300 . ?
C6CA C7CA 1.398(4) . ?
C7CA H7CA 0.9300 . ?
C8CA H8CA 0.9300 . ?
C8CA C3DA 1.397(4) . ?
C9CA H9CA 0.9300 . ?
C0DA H0DA 0.9300 . ?
C0DA C3DA 1.385(4) . ?
C1DA H1DA 0.9300 . ?
C1DA C1EA 1.381(5) . ?
C2DA H2DA 0.9300 . ?
C2DA C6DA 1.383(4) . ?
C3DA H3DA 0.9300 . ?
C4DA H4DA 0.9300 . ?
C4DA C8DA 1.399(4) . ?
C5DA H5DA 0.9300 . ?
C5DA C0EA 1.382(5) . ?
C6DA H6DA 0.9300 . ?
C7DA H7DA 0.9300 . ?
C7DA C9DA 1.397(4) . ?
C8DA H8DA 0.9300 . ?
C8DA C0EA 1.380(5) . ?
C9DA H9DA 0.9300 . ?
C9DA C1EA 1.390(5) . ?
C0EA H0EA 0.9300 . ?
C1EA H1EA 0.9300 . ?
C2EA H2EA 0.9800 . ?
C3EA H3EA 0.9800 . ?
loop_
_exptl_oxdiff_crystal_face_indexfrac_h
_exptl_oxdiff_crystal_face_indexfrac_k
_exptl_oxdiff_crystal_face_indexfrac_l
_exptl_oxdiff_crystal_face_x
_exptl_oxdiff_crystal_face_y
_exptl_oxdiff_crystal_face_z
-12.3982 13.9695 3.5542 0.1879 0.0566 0.9806
-13.3124 -11.8838 10.1511 0.9575 0.2842 -0.0493
13.1188 -13.0341 -4.1726 -0.2479 -0.0744 -0.9659
12.0295 13.6113 -9.8497 -0.9460 -0.2807 0.1623
-9.9481 16.0950 7.1165 0.0043 0.1910 0.9816
-1.2576 -0.5255 29.2583 0.0256 0.9996 -0.0091
9.9442 -16.3995 -3.6696 -0.0012 -0.0724 -0.9974
0.9576 1.0240 -29.1897 -0.0256 -0.9989 0.0394
