#------------------------------------------------------------------------------
#$Date: 2024-02-04 13:34:59 +0200 (Sun, 04 Feb 2024) $
#$Revision: 289431 $
#$URL: file:///home/coder/svn-repositories/cod/cif/1/57/05/1570541.cif $
#------------------------------------------------------------------------------
#
# This file is available in the Crystallography Open Database (COD),
# http://www.crystallography.net/
#
# All data on this site have been placed in the public domain by the
# contributors.
#
data_1570541
loop_
_publ_author_name
'Hasebe, Shodai'
'Hagiwara, Yuki'
'Ueno, Takashi'
'Asahi, Toru'
'Koshima, Hideko'
_publ_section_title
;
 Negative to positive axial thermal expansion switching of an organic
 crystal: contribution to multistep photoactuation.
;
_journal_issue                   3
_journal_name_full               'Chemical science'
_journal_page_first              1088
_journal_page_last               1097
_journal_paper_doi               10.1039/d3sc04796b
_journal_volume                  15
_journal_year                    2024
_chemical_formula_moiety         'C21 H26 N2 O3'
_chemical_formula_sum            'C21 H26 N2 O3'
_chemical_formula_weight         354.44
_space_group_crystal_system      triclinic
_space_group_IT_number           2
_space_group_name_Hall           '-P 1'
_space_group_name_H-M_alt        'P -1'
_atom_sites_solution_hydrogens   geom
_atom_sites_solution_primary     dual
_audit_creation_date             2022-06-06
_audit_creation_method
;
Olex2 1.5
(compiled 2022.04.07 svn.rca3783a0 for OlexSys, GUI svn.r6498)
;
_audit_update_record
;
2023-08-31 deposited with the CCDC.	2023-12-11 downloaded from the CCDC.
;
_cell_angle_alpha                101.035(7)
_cell_angle_beta                 92.153(6)
_cell_angle_gamma                101.338(7)
_cell_formula_units_Z            2
_cell_length_a                   6.0445(9)
_cell_length_b                   10.3300(14)
_cell_length_c                   16.853(2)
_cell_measurement_reflns_used    7085
_cell_measurement_temperature    321.95
_cell_measurement_theta_max      68
_cell_measurement_theta_min      4
_cell_volume                     1009.6(2)
_computing_molecular_graphics    'Olex2 1.5 (Dolomanov et al., 2009)'
_computing_publication_material  'Olex2 1.5 (Dolomanov et al., 2009)'
_computing_structure_refinement  'SHELXL 2014/7 (Sheldrick, 2015)'
_computing_structure_solution    'SHELXT 2014/4 (Sheldrick, 2014)'
_diffrn_ambient_temperature      321.95
_diffrn_detector_area_resol_mean 10
_diffrn_measured_fraction_theta_full 0.978
_diffrn_measured_fraction_theta_max 0.973
_diffrn_measurement_device_type  RAPID
_diffrn_measurement_method       '\w scans'
_diffrn_radiation_type           CuK\a
_diffrn_radiation_wavelength     1.54187
_diffrn_reflns_av_R_equivalents  0.0685
_diffrn_reflns_av_unetI/netI     0.0726
_diffrn_reflns_Laue_measured_fraction_full 0.978
_diffrn_reflns_Laue_measured_fraction_max 0.973
_diffrn_reflns_limit_h_max       7
_diffrn_reflns_limit_h_min       -7
_diffrn_reflns_limit_k_max       12
_diffrn_reflns_limit_k_min       -12
_diffrn_reflns_limit_l_max       20
_diffrn_reflns_limit_l_min       -20
_diffrn_reflns_number            11179
_diffrn_reflns_point_group_measured_fraction_full 0.978
_diffrn_reflns_point_group_measured_fraction_max 0.973
_diffrn_reflns_theta_full        67.687
_diffrn_reflns_theta_max         68.182
_diffrn_reflns_theta_min         4.458
_exptl_absorpt_coefficient_mu    0.627
_exptl_absorpt_correction_T_max  1
_exptl_absorpt_correction_T_min  0.6498
_exptl_absorpt_correction_type   multi-scan
_exptl_absorpt_process_details   ABSCOR(Rigaku,1995)
_exptl_crystal_colour            'clear yellowish yellow'
_exptl_crystal_colour_lustre     clear
_exptl_crystal_colour_modifier   yellowish
_exptl_crystal_colour_primary    yellow
_exptl_crystal_density_diffrn    1.166
_exptl_crystal_description       prism
_exptl_crystal_F_000             380
_exptl_crystal_size_max          1
_exptl_crystal_size_mid          0.6
_exptl_crystal_size_min          0.3
_refine_diff_density_max         0.154
_refine_diff_density_min         -0.239
_refine_diff_density_rms         0.055
_refine_ls_extinction_method     none
_refine_ls_goodness_of_fit_ref   1.094
_refine_ls_hydrogen_treatment    constr
_refine_ls_matrix_type           full
_refine_ls_number_parameters     273
_refine_ls_number_reflns         3600
_refine_ls_number_restraints     72
_refine_ls_restrained_S_all      1.100
_refine_ls_R_factor_all          0.1424
_refine_ls_R_factor_gt           0.0861
_refine_ls_shift/su_max          0.000
_refine_ls_shift/su_mean         0.000
_refine_ls_structure_factor_coef Fsqd
_refine_ls_weighting_details
'w=1/[\s^2^(Fo^2^)+(0.1094P)^2^] where P=(Fo^2^+2Fc^2^)/3'
_refine_ls_weighting_scheme      calc
_refine_ls_wR_factor_gt          0.2163
_refine_ls_wR_factor_ref         0.2458
_reflns_Friedel_coverage         0.000
_reflns_number_gt                1754
_reflns_number_total             3600
_reflns_threshold_expression     'I > 2\s(I)'
_cod_data_source_file            d3sc04796b3.cif
_cod_data_source_block           48point8degC
_cod_depositor_comments
'Adding full bibliography for 1570536--1570543.cif.'
_cod_original_cell_volume        1009.6(3)
_cod_database_code               1570541
_shelx_shelxl_version_number     2014/7
_shelx_space_group_comment
;
The symmetry employed for this shelxl refinement is uniquely defined
by the following loop, which should always be used as a source of
symmetry information in preference to the above space-group names.
They are only intended as comments.
;
_olex2_refinement_description
;
1. Fixed Uiso
 At 1.2 times of:
  All C(H) groups
 At 1.5 times of:
  All C(H,H,H) groups, All O(H) groups
2. Uiso/Uaniso restraints and constraints
C00I \\sim C1 \\sim C2 \\sim C00R: within 2A with sigma of 0.04 and sigma for
terminal atoms of 0.08 within 2A
C00I \\sim C00O \\sim C00P \\sim C00Q: within 2A with sigma of 0.04 and sigma
for terminal atoms of 0.08 within 2A
3. Rigid body (RIGU) restrains
 C00I, C1, C2, C00R
 with sigma for 1-2 distances of 0.004 and sigma for 1-3 distances of 0.004
 C00I, C00O, C00P, C00Q
 with sigma for 1-2 distances of 0.004 and sigma for 1-3 distances of 0.004
4. Others
 Sof(C1)=Sof(H1A)=Sof(H1B)=Sof(H1C)=Sof(C2)=Sof(H2A)=Sof(H2B)=Sof(H2C)=
 Sof(C00R)=Sof(H00Z)=Sof(H)=Sof(HA)=1-FVAR(1)
 Sof(C00O)=Sof(H00Q)=Sof(H00R)=Sof(H00S)=Sof(C00P)=Sof(H00T)=Sof(H00U)=
 Sof(H00V)=Sof(C00Q)=Sof(H00W)=Sof(H00X)=Sof(H00Y)=FVAR(1)
5.a Aromatic/amide H refined with riding coordinates:
 C00B(H00B), C00C(H00C), C00E(H00E), C00F(H00F), C00H(H00H), C00J(H00J),
 C00K(H00K)
5.b Idealised Me refined as rotating group:
 C00L(H00A,H00D,H00G), C00M(H00I,H00L,H00M), C00N(H00N,H00O,H00P), C00O(H00Q,
 H00R,H00S), C00P(H00T,H00U,H00V), C00Q(H00W,H00X,H00Y), C1(H1A,H1B,H1C),
 C2(H2A,H2B,H2C), C00R(H00Z,H,HA)
5.c Idealised tetrahedral OH refined as rotating group:
 O001(H001)
;
_shelx_res_file
;
    shelxt_a.res created by SHELXL-2014/7

TITL shelxt_a_a.res in P-1
REM Old TITL SHELXT_a.res in P-1
REM SHELXT solution in P-1
REM R1 0.271, Rweak 0.126, Alpha 0.061, Orientation as input
REM Formula found by SHELXT: C22 O2 N2
CELL 1.54187 6.0445 10.33 16.853 101.035 92.153 101.338
ZERR 2 0.0009 0.0014 0.0024 0.007 0.006 0.007
LATT 1
SFAC C H N O
UNIT 42 52 4 6
SIMU C00I C1 C2 C00R
RIGU C00I C1 C2 C00R
RIGU C00I C00O C00P C00Q
SIMU C00I C00O C00P C00Q

L.S. 10
PLAN  5
CONF
BOND $H
list 4
fmap 2
acta
MORE -1
REM <olex2.extras>
REM <HklSrc "%.\\SHELXT_a.hkl">
REM </olex2.extras>

WGHT    0.109400
FVAR       0.92758   0.75481
O001  4    0.354056    0.399492    0.316772    11.00000    0.10810    0.07728 =
         0.09289    0.03384    0.03295    0.02058
AFIX 147
H001  2    0.276221    0.443128    0.345250    11.00000   -1.50000
AFIX   0
N002  3    0.190694    0.607183    0.381500    11.00000    0.08663    0.07954 =
         0.07614    0.01979    0.01875    0.01572
N3    3    0.154693    0.985661    0.600960    11.00000    0.13114    0.08165 =
         0.08440    0.02138    0.01230    0.02030
O8    4    0.355859    1.027700    0.597272    11.00000    0.14240    0.11186 =
         0.12468   -0.00180    0.02136   -0.01959
C005  1    0.443715    0.610138    0.274647    11.00000    0.08227    0.06616 =
         0.06613    0.01749    0.01224    0.01685
C006  1    0.462801    0.475426    0.266823    11.00000    0.08138    0.06554 =
         0.06903    0.02468    0.00677    0.01115
O007  4    0.039546    1.043259    0.647069    11.00000    0.16902    0.11346 =
         0.11686   -0.00915    0.01902    0.04773
C008  1    0.596260    0.418518    0.209622    11.00000    0.07794    0.06651 =
         0.07056    0.02005    0.00669    0.01764
C009  1    0.689241    0.637516    0.166249    11.00000    0.08582    0.06443 =
         0.07171    0.01996    0.01116    0.01603
C00A  1    0.071164    0.676359    0.440160    11.00000    0.08215    0.07401 =
         0.06865    0.02326    0.01356    0.01653
C00B  1    0.306424    0.670782    0.333667    11.00000    0.08881    0.07256 =
         0.07585    0.01810    0.01041    0.01825
AFIX  43
H00B  2    0.302205    0.761156    0.336959    11.00000   -1.20000
AFIX   0
C00C  1    0.171314    0.798832    0.489382    11.00000    0.08261    0.07291 =
         0.07635    0.02298    0.01125    0.01218
AFIX  43
H00C  2    0.319499    0.840343    0.483923    11.00000   -1.20000
AFIX   0
C00D  1    0.044649    0.857499    0.546809    11.00000    0.09773    0.06999 =
         0.06727    0.01822    0.00731    0.01689
C00E  1    0.558747    0.688056    0.224424    11.00000    0.09308    0.06090 =
         0.07506    0.02092    0.01130    0.01547
AFIX  43
H00E  2    0.546748    0.777753    0.230508    11.00000   -1.20000
AFIX   0
C00F  1    0.703597    0.502589    0.161238    11.00000    0.08809    0.06971 =
         0.07070    0.02271    0.01427    0.01911
AFIX  43
H00F  2    0.792044    0.466372    0.122424    11.00000   -1.20000
AFIX   0
C00G  1    0.622724    0.271988    0.200886    11.00000    0.09088    0.06230 =
         0.09099    0.02544    0.01064    0.01894
C00H  1   -0.148777    0.617389    0.450372    11.00000    0.09397    0.08087 =
         0.07715    0.01910    0.01407    0.00903
AFIX  43
H00H  2   -0.214846    0.534089    0.418119    11.00000   -1.20000
AFIX   0
C00I  1    0.814930    0.720285    0.110215    11.00000    0.09773    0.07208 =
         0.07707    0.02914    0.02067    0.01426
C00J  1   -0.174909    0.801523    0.556642    11.00000    0.09843    0.09428 =
         0.07730    0.02686    0.02233    0.03051
AFIX  43
H00J  2   -0.256329    0.844451    0.595416    11.00000   -1.20000
AFIX   0
C00K  1   -0.271367    0.679005    0.506948    11.00000    0.08764    0.10027 =
         0.08785    0.02322    0.01963    0.01554
AFIX  43
H00K  2   -0.420276    0.638309    0.512015    11.00000   -1.20000
AFIX   0
C00L  1    0.391485    0.175245    0.179724    11.00000    0.11721    0.06770 =
         0.12926    0.01748    0.00818    0.01183
AFIX 137
H00A  2    0.294571    0.193424    0.222513    11.00000   -1.50000
H00D  2    0.410978    0.083912    0.173428    11.00000   -1.50000
H00G  2    0.324294    0.187898    0.129996    11.00000   -1.50000
AFIX   0
C00M  1    0.730893    0.251664    0.280424    11.00000    0.12002    0.09677 =
         0.11319    0.04436   -0.00072    0.03604
AFIX 137
H00I  2    0.875345    0.312339    0.293640    11.00000   -1.50000
H00L  2    0.750804    0.160397    0.274010    11.00000   -1.50000
H00M  2    0.634064    0.269566    0.323280    11.00000   -1.50000
AFIX   0
C00N  1    0.778059    0.235161    0.133915    11.00000    0.14459    0.08666 =
         0.12723    0.03826    0.04918    0.05575
AFIX 137
H00N  2    0.713454    0.244550    0.082936    11.00000   -1.50000
H00O  2    0.793731    0.143622    0.130591    11.00000   -1.50000
H00P  2    0.924145    0.294277    0.146330    11.00000   -1.50000
AFIX   0
PART 1
C00O  1    0.766963    0.860891    0.121798    21.00000    0.18246    0.08610 =
         0.14200    0.06006    0.06143    0.03259
AFIX 137
H00Q  2    0.811741    0.907508    0.176735    21.00000   -1.50000
H00R  2    0.608037    0.855041    0.110531    21.00000   -1.50000
H00S  2    0.850703    0.909261    0.085473    21.00000   -1.50000
AFIX   0
C00P  1    0.742714    0.649314    0.021779    21.00000    0.16185    0.11103 =
         0.08382    0.04142    0.01683    0.01194
AFIX 137
H00T  2    0.826816    0.699319   -0.013742    21.00000   -1.50000
H00U  2    0.583921    0.644355    0.010844    21.00000   -1.50000
H00V  2    0.772241    0.559885    0.012927    21.00000   -1.50000
AFIX   0
C00Q  1    1.067907    0.732870    0.125956    21.00000    0.09855    0.14862 =
         0.16403    0.08029    0.01902    0.00530
AFIX 137
H00W  2    1.102171    0.644596    0.117674    21.00000   -1.50000
H00X  2    1.114705    0.779200    0.180816    21.00000   -1.50000
H00Y  2    1.146853    0.782776    0.089334    21.00000   -1.50000
AFIX   0
PART 2
C1    1    0.644813    0.776833    0.063305   -21.00000    0.11717    0.12018 =
         0.10427    0.06012    0.02192    0.01056
AFIX 137
H1A   2    0.565706    0.829494    0.101036   -21.00000   -1.50000
H1B   2    0.538237    0.703589    0.029963   -21.00000   -1.50000
H1C   2    0.724536    0.832639    0.029697   -21.00000   -1.50000
AFIX   0
C2    1    0.987207    0.851077    0.166243   -21.00000    0.10758    0.09029 =
         0.10859    0.03316    0.01285    0.01077
AFIX 137
H2A   2    1.086320    0.820930    0.201275   -21.00000   -1.50000
H2B   2    0.900956    0.907226    0.198392   -21.00000   -1.50000
H2C   2    1.075261    0.901688    0.131882   -21.00000   -1.50000
AFIX   0
C00R  1    0.960729    0.647883    0.054558   -21.00000    0.15269    0.10535 =
         0.12825    0.04084    0.06799    0.02730
AFIX 137
H00Z  2    1.012837    0.700458    0.015157   -21.00000   -1.50000
H     2    0.873865    0.561603    0.027367   -21.00000   -1.50000
HA    2    1.088414    0.635440    0.085676   -21.00000   -1.50000
AFIX   0
HKLF 4

REM  shelxt_a_a.res in P-1
REM R1 =  0.0861 for    1754 Fo > 4sig(Fo)  and  0.1424 for all    3600 data
REM    273 parameters refined using     72 restraints

END

WGHT      0.1088      0.0000

REM Highest difference peak  0.154,  deepest hole -0.239,  1-sigma level  0.055
Q1    1   0.2484  0.3565  0.1544  11.00000  0.05    0.15
Q2    1  -0.2651  0.6239  0.3726  11.00000  0.05    0.15
Q3    1   0.3882  1.1598  0.5442  11.00000  0.05    0.15
Q4    1  -0.2726  0.4525  0.4074  11.00000  0.05    0.14
Q5    1  -0.2831  0.4344  0.4722  11.00000  0.05    0.14
;
_shelx_res_checksum              473
_shelx_hkl_file
;
   0   0   2  247.84    9.72
   0   0   2  246.61    9.58
   0   0   2  249.03    9.14
   0   0   2  265.32   10.49
   0   0   2  237.74    9.40
   0   0  -2  267.64   10.71
   0   0  -2  246.63    9.59
   0   0  -2  261.00    9.79
   0   0  -2  277.18   11.74
   0   0  -2  236.40   10.26
   0   0   3 1487.85  114.12
   0   0   3 1521.49  116.52
   0   0   3 1591.63  126.17
   0   0   3 1497.19  118.19
   0   0  -3 1557.53  120.35
   0   0  -3 1466.67  118.42
   0   0  -3 1481.07  115.32
   0   0  -3 1555.00  126.20
   0   0  -3 1627.31  132.36
   0   0   4  377.37   17.95
   0   0   4  418.05   19.55
   0   0   4  382.74   20.48
   0   0   4  362.64   19.05
   0   0  -4  404.61   19.53
   0   0  -4  391.64   22.17
   0   0  -4  366.31   18.34
   0   0  -4  391.98   20.74
   0   0  -4  398.55   21.28
   0   0   5   17.57    1.55
   0   0   5   20.40    1.66
   0   0   5   18.16    2.62
   0   0   5   17.70    2.38
   0   0  -5   19.99    1.49
   0   0  -5   15.25    1.85
   0   0  -5   18.62    1.63
   0   0  -5   17.61    1.71
   0   0   6  144.76    5.85
   0   0   6  156.45    6.37
   0   0   6  153.21   10.80
   0   0   6  151.62    9.63
   0   0  -6  165.10    8.06
   0   0  -6  161.64    9.43
   0   0  -6  172.43    8.79
   0   0  -6  162.36    8.78
   0   0   7  148.72    6.23
   0   0   7  171.62    7.39
   0   0   7  149.68    9.24
   0   0   7  154.46    8.56
   0   0  -7  168.75    8.99
   0   0  -7  158.56    8.36
   0   0  -7  164.93    9.54
   0   0  -7  166.13    9.83
   0   0   8    0.82    0.49
   0   0   8    1.19    0.51
   0   0   8    2.50    1.07
   0   0   8    1.46    0.91
   0   0  -8    1.11    0.95
   0   0  -8    0.75    0.76
   0   0  -8    1.81    1.05
   0   0  -8    1.58    1.12
   0   0   9    2.07    1.03
   0   0   9    1.44    1.34
   0   0   9    2.64    1.12
   0   0  -9    1.49    1.19
   0   0  -9    2.28    0.95
   0   0  -9    3.59    2.29
   0   0  10    2.46    1.32
   0   0  10    4.01    1.66
   0   0  10    3.65    1.44
   0   0 -10    6.65    2.97
   0   0 -10    2.69    2.07
   0   0 -10    3.75    2.99
   0   0  11    3.07    1.94
   0   0 -11    4.97    2.05
   0   0 -11    4.53    2.14
   0   0  12    3.36    3.92
   0   0 -12    4.96    2.37
   0   0 -12    5.41    2.47
   0   0  13    4.41    2.68
   0   0 -13    6.80    2.65
   0   0 -13    4.52    2.77
   0   0  14    0.52    1.90
   0   0 -14    1.85    1.88
   0   0 -14    0.32    1.98
   0   0  15    1.18    2.00
   0   0 -15   -0.39    3.17
   0   0 -15    1.28    3.37
   0   0  16    2.34    1.93
   0   0 -16    0.14    3.29
   0   0 -16   -1.22    1.96
   0   0  17   13.06    7.89
   0   0 -17   24.48    5.12
   0   0 -17   17.46    5.05
   0   0  18   30.84    6.52
   0   0 -18   45.53    6.60
   0   0 -18   42.19    7.21
   0   0  19   -0.68    1.25
   0   0 -19    1.46    1.84
   0   1 -20   10.25    3.86
   0  -1  20    3.29    2.34
   0   1 -19   39.07    5.46
   0   1 -19   27.76    5.43
   0  -1  19   19.74    5.23
   0   1 -18    6.94    3.15
   0   1 -18    4.97    2.99
   0  -1  18    3.21    2.85
   0   1 -17   40.84    7.24
   0   1 -17   23.22   10.35
   0  -1  17   22.22    6.15
   0   1 -16    3.61    5.39
   0   1 -16    7.49    3.34
   0  -1  16    4.86    3.21
   0   1 -15    0.88    1.71
   0   1 -15    0.14    1.71
   0  -1  15   -0.47    1.65
   0   1 -14   10.10    3.42
   0   1 -14    7.70    3.48
   0  -1  14    6.25    5.06
   0   1 -13   36.46    5.36
   0   1 -13   27.29    5.34
   0  -1  13   23.86    4.87
   0   1 -12    0.99    1.57
   0   1 -12    0.16    2.58
   0  -1  12    0.32    1.44
   0   1 -11    4.15    2.94
   0   1 -11    1.34    1.64
   0  -1  11    1.36    1.54
   0   1 -10    0.29    1.69
   0   1 -10    0.42    0.92
   0   1 -10    0.11    1.18
   0  -1  10    0.21    1.11
   0  -1  10    1.20    1.18
   0  -1  10    0.59    1.66
   0   1  -9  160.37    9.95
   0   1  -9  163.78    9.28
   0   1  -9  123.63    7.70
   0   1  -9  168.00   11.14
   0  -1   9  157.31   14.02
   0  -1   9  148.86   10.31
   0  -1   9  153.77   12.33
   0   1  -8   99.62    6.14
   0   1  -8  101.89    5.65
   0   1  -8   85.49    4.85
   0   1  -8   98.88    6.76
   0  -1   8   93.73    3.81
   0  -1   8   94.39    6.55
   0  -1   8   88.31    6.34
   0  -1   8   92.60    7.86
   0   1  -7   33.89    3.18
   0   1  -7   40.12    2.79
   0   1  -7   37.85    2.50
   0   1  -7   32.39    2.06
   0   1  -7   37.98    4.68
   0  -1   7   30.95    1.48
   0  -1   7   37.59    2.38
   0  -1   7   34.29    3.03
   0  -1   7   34.14    2.98
   0  -1   7   34.04    2.57
   0   1  -6  489.42   26.18
   0   1  -6  471.02   26.04
   0   1  -6  477.61   25.57
   0   1  -6  409.63   22.04
   0   1  -6  420.55   24.37
   0  -1   6  418.35   20.73
   0  -1   6  449.99   22.05
   0  -1   6  438.36   25.69
   0  -1   6  399.78   24.21
   0  -1   6  407.10   23.04
   0   1  -5  303.20   15.78
   0   1  -5  304.39   14.70
   0   1  -5  311.62   14.40
   0   1  -5  275.93   12.66
   0   1  -5  301.56   14.91
   0  -1   5  262.43   11.36
   0  -1   5  279.60   12.72
   0  -1   5  304.90   18.03
   0  -1   5  277.89   14.67
   0  -1   5  276.79   13.56
   0   1  -4 2271.27  200.83
   0   1  -4 2123.41  194.19
   0   1  -4 1933.42  169.42
   0   1  -4 2206.03  196.86
   0  -1   4 1860.51  161.59
   0  -1   4 2138.85  183.67
   0  -1   4 2263.68  202.71
   0  -1   4 2026.93  184.43
   0  -1   4 1939.07  173.72
   0   1  -3 1163.98   77.81
   0   1  -3 1128.83   79.30
   0   1  -3 1074.31   72.29
   0   1  -3 1154.43   78.09
   0  -1   3 1169.47   76.51
   0  -1   3 1171.75   76.25
   0  -1   3 1240.72   84.39
   0  -1   3 1168.17   80.68
   0  -1   3 1136.01   79.69
   0   1  -2  652.84   35.78
   0   1  -2  640.30   34.47
   0   1  -2  692.22   36.41
   0   1  -2  741.99   40.41
   0   1  -2  700.79   37.48
   0  -1   2  788.55   41.00
   0  -1   2  715.88   38.22
   0  -1   2  728.47   41.37
   0  -1   2  706.08   37.98
   0   1  -1  696.65   35.72
   0   1  -1  695.85   34.03
   0   1  -1  635.67   32.49
   0   1  -1  625.21   32.64
   0  -1   1  639.20   31.66
   0  -1   1  622.37   31.60
   0  -1   1  637.83   32.72
   0  -1   1  614.04   31.22
   0   1   0 1089.83   66.45
   0   1   0 1092.22   66.49
   0   1   0 1140.66   70.95
   0   1   0 1096.26   68.98
   0  -1   0 1208.48   73.49
   0  -1   0 1157.95   71.15
   0  -1   0 1174.76   74.18
   0  -1   0 1134.73   70.15
   0   1   1  168.68    5.33
   0   1   1  157.71    5.87
   0   1   1  172.55    6.99
   0   1   1  171.27    5.95
   0  -1  -1  190.40    6.19
   0  -1  -1  162.73    4.66
   0  -1  -1  159.94    5.29
   0  -1  -1  178.91    6.23
   0  -1  -1  168.89    5.93
   0   1   2 1037.98   67.78
   0   1   2 1075.83   70.45
   0   1   2 1144.31   77.44
   0   1   2 1106.70   76.84
   0  -1  -2  985.50   63.70
   0  -1  -2 1237.29   81.25
   0  -1  -2 1140.96   76.63
   0  -1  -2 1102.71   74.77
   0   1   3  940.43   58.06
   0   1   3  932.01   61.69
   0   1   3  845.62   53.75
   0   1   3  930.63   65.14
   0   1   3  989.04   64.74
   0  -1  -3  835.92   53.09
   0  -1  -3  926.89   59.53
   0  -1  -3  976.42   67.10
   0  -1  -3  942.51   62.67
   0   1   4  378.56   17.33
   0   1   4  398.31   19.55
   0   1   4  369.08   17.68
   0   1   4  356.30   21.56
   0   1   4  355.77   20.65
   0  -1  -4  352.52   17.47
   0  -1  -4  342.43   19.15
   0  -1  -4  414.40   21.41
   0  -1  -4  397.43   21.26
   0   1   5   89.06    3.37
   0   1   5   89.82    4.04
   0   1   5   85.30    3.69
   0   1   5   83.55    6.56
   0   1   5   88.85    4.63
   0  -1  -5   91.75    4.18
   0  -1  -5   92.01    4.65
   0  -1  -5   94.83    5.12
   0  -1  -5   92.02    5.26
   0   1   6   33.49    1.56
   0   1   6   31.13    2.70
   0   1   6   32.57    1.83
   0   1   6   27.56    4.15
   0   1   6   33.32    2.47
   0  -1  -6   32.78    2.22
   0  -1  -6   32.07    2.37
   0  -1  -6   33.51    4.23
   0  -1  -6   32.74    2.90
   0   1   7  254.77   12.82
   0   1   7  264.56   13.10
   0   1   7  314.22   15.63
   0   1   7  262.37   19.80
   0   1   7  294.13   16.79
   0  -1  -7  293.13   15.94
   0  -1  -7  290.44   16.45
   0  -1  -7  289.32   17.35
   0  -1  -7  288.87   18.11
   0   1   8    1.85    0.75
   0   1   8    3.18    1.27
   0   1   8    3.26    2.29
   0   1   8    3.86    1.83
   0  -1  -8    4.33    1.73
   0  -1  -8    2.82    1.67
   0  -1  -8    2.38    1.29
   0  -1  -8    2.90    1.40
   0   1   9   88.26    6.76
   0   1   9   81.84   10.33
   0   1   9   85.01    6.17
   0  -1  -9  107.24   10.05
   0  -1  -9   88.81    6.48
   0  -1  -9   82.69    6.89
   0  -1  -9   88.56    7.64
   0   1  10   29.30    2.59
   0   1  10   24.71    4.34
   0   1  10   30.57    3.52
   0  -1 -10   37.00    3.88
   0  -1 -10   25.90    3.31
   0  -1 -10   29.36    4.06
   0  -1 -10   32.04    4.27
   0   1  11   17.57    2.18
   0   1  11   20.24    3.79
   0  -1 -11   26.26    3.49
   0  -1 -11   16.83    2.94
   0  -1 -11   21.39    3.83
   0   1  12    2.94    1.94
   0  -1 -12    1.33    1.82
   0  -1 -12    0.84    3.22
   0   1  13    3.35    2.61
   0  -1 -13    5.39    2.45
   0  -1 -13    6.11    4.43
   0   1  14    1.23    2.07
   0  -1 -14    2.37    3.11
   0  -1 -14    0.82    2.16
   0   1  15    1.62    4.95
   0  -1 -15    6.06    2.99
   0  -1 -15    4.91    3.12
   0   1  16    2.93    5.14
   0  -1 -16    7.68    3.03
   0  -1 -16    4.00    3.21
   0   1  17    1.30    2.60
   0  -1 -17    3.60    2.35
   0  -1 -17    4.43    2.57
   0   1  18    5.59    2.78
   0  -1 -18    4.61    3.65
   0   1  19    6.32    1.97
   0   1  19   -0.60    1.76
   0   2 -20   10.97    4.04
   0   2 -20    2.88    2.34
   0   2 -19   22.10    4.57
   0   2 -19   17.16    4.29
   0  -2  19   14.58    4.11
   0   2 -18    3.07    2.52
   0   2 -18    2.04    3.73
   0  -2  18    0.47    2.20
   0   2 -17   40.92   10.86
   0   2 -17   28.78    6.50
   0  -2  17   25.20    6.00
   0   2 -16   -2.03    3.64
   0   2 -16   -0.09    2.15
   0  -2  16   -1.48    3.30
   0   2 -15    0.52    2.08
   0   2 -15    1.56    2.07
   0  -2  15   -0.40    3.00
   0   2 -14   28.75    5.41
   0   2 -14   28.15    8.43
   0  -2  14   19.11    4.77
   0   2 -13    3.04    2.04
   0   2 -13    2.68    3.07
   0  -2  13   -0.49    1.78
   0   2 -12  263.98   20.74
   0   2 -12  233.78   19.45
   0  -2  12  201.75   17.89
   0   2 -11   28.71    6.96
   0   2 -11   24.40    4.01
   0  -2  11   21.47    5.98
   0   2 -10   20.38    3.05
   0   2 -10   20.10    2.63
   0   2 -10   21.45    3.32
   0  -2  10   19.47    3.34
   0  -2  10   20.82    5.18
   0  -2  10   21.84    2.96
   0   2  -9   58.59    6.58
   0   2  -9   75.38    5.69
   0   2  -9   78.51    5.12
   0   2  -9   85.56    9.26
   0  -2   9   73.17    6.11
   0  -2   9   71.85    8.70
   0  -2   9   73.31    5.50
   0   2  -8  197.67   11.14
   0   2  -8  189.62   11.16
   0   2  -8  190.22   10.38
   0   2  -8  146.25    8.75
   0   2  -8  186.15   11.13
   0  -2   8  182.33    7.96
   0  -2   8  187.27   11.74
   0  -2   8  174.34   14.66
   0  -2   8  178.50   10.70
   0   2  -7   51.14    4.56
   0   2  -7   56.03    3.60
   0   2  -7   54.22    3.25
   0   2  -7   49.07    3.26
   0   2  -7   53.00    3.67
   0  -2   7   48.37    2.84
   0  -2   7   49.02    2.54
   0  -2   7   56.00    5.87
   0  -2   7   51.68    5.83
   0  -2   7   50.50    3.50
   0   2  -6  298.06   14.98
   0   2  -6  266.92   13.72
   0   2  -6  263.16   13.06
   0   2  -6  224.67   11.24
   0   2  -6  274.64   14.19
   0  -2   6  227.24   11.46
   0  -2   6  257.78   10.79
   0  -2   6  271.98   14.76
   0  -2   6  241.08   16.65
   0  -2   6  251.67   13.32
   0   2  -5 2591.79  263.81
   0   2  -5 2467.38  247.87
   0   2  -5 2541.94  252.34
   0   2  -5 2364.84  228.13
   0   2  -5 2642.31  268.91
   0  -2   5 2276.13  225.29
   0  -2   5 2727.46  261.31
   0  -2   5 2808.47  283.53
   0  -2   5 2482.65  253.80
   0  -2   5 2569.07  258.60
   0   2  -4 2796.26  274.36
   0   2  -4 2367.38  237.34
   0   2  -4 2410.58  234.71
   0   2  -4 2416.74  233.42
   0   2  -4 2755.37  273.94
   0   2  -4 2652.71  260.12
   0  -2   4 2389.93  230.45
   0  -2   4 2689.18  256.69
   0  -2   4 2494.83  250.21
   0  -2   4 2526.09  249.11
   0   2  -3 4331.52  535.35
   0   2  -3 3711.74  464.97
   0   2  -3 3986.34  489.16
   0   2  -3 4435.85  538.25
   0   2  -3 4921.42  613.07
   0   2  -3 4757.47  592.92
   0  -2   3 4368.61  534.93
   0  -2   3 4441.83  544.16
   0  -2   3 4432.66  554.97
   0  -2   3 4747.86  588.53
   0   2  -2  392.35   18.28
   0   2  -2  361.23   16.78
   0   2  -2  356.41   15.20
   0   2  -2  361.82   17.67
   0   2  -2  354.93   16.80
   0  -2   2  374.25   17.00
   0  -2   2  364.67   16.79
   0  -2   2  374.79   18.33
   0  -2   2  344.49   16.65
   0   2  -1   16.06    1.55
   0   2  -1   17.23    0.73
   0   2  -1   18.39    0.80
   0   2  -1   17.16    1.21
   0   2  -1   15.17    1.03
   0  -2   1   16.91    1.56
   0  -2   1   17.10    1.06
   0  -2   1   16.63    1.23
   0  -2   1   15.45    1.12
   0   2   0 1421.67   98.76
   0   2   0 1323.64   92.22
   0   2   0 1386.59   99.56
   0   2   0 1294.40   92.54
   0  -2   0 1419.17   99.10
   0  -2   0 1366.20   97.98
   0  -2   0 1345.94   95.97
   0   2   1 1747.90  139.90
   0   2   1 1777.49  140.83
   0   2   1 1783.76  149.11
   0   2   1 1705.69  138.05
   0   2   1 1732.77  140.53
   0  -2  -1 1735.26  139.69
   0  -2  -1 1882.00  147.88
   0  -2  -1 1811.67  150.72
   0   2   2   16.73    1.45
   0   2   2   16.41    1.14
   0   2   2   15.36    1.38
   0   2   2   16.04    1.30
   0  -2  -2   17.48    1.16
   0  -2  -2   15.30    0.61
   0  -2  -2   14.54    1.67
   0  -2  -2   16.48    1.39
   0  -2  -2   15.70    1.33
   0   2   3  306.43   13.74
   0   2   3  301.86   16.33
   0   2   3  317.05   19.01
   0   2   3  314.42   18.22
   0  -2  -3  338.32   15.80
   0  -2  -3  334.50   16.17
   0  -2  -3  319.52   16.32
   0  -2  -3  314.43   16.36
   0   2   4   16.73    0.97
   0   2   4   17.83    1.46
   0   2   4   19.07    2.17
   0   2   4   17.48    1.81
   0   2   4   19.07    1.67
   0  -2  -4   16.61    1.48
   0  -2  -4   19.58    1.52
   0  -2  -4   18.83    1.72
   0  -2  -4   18.56    1.76
   0   2   5   71.50    3.02
   0   2   5   84.17    4.54
   0   2   5   80.09    5.38
   0   2   5   78.86    5.15
   0   2   5   87.24    6.76
   0  -2  -5   68.15    4.37
   0  -2  -5   75.72    4.13
   0  -2  -5   83.01    4.95
   0  -2  -5   80.24    6.97
   0   2   6    4.48    0.59
   0   2   6    5.50    1.60
   0   2   6    8.12    1.73
   0   2   6    5.02    1.48
   0   2   6    6.97    1.22
   0  -2  -6    8.72    1.83
   0  -2  -6    7.16    2.23
   0  -2  -6    6.17    1.40
   0  -2  -6    6.50    2.34
   0   2   7    1.07    0.65
   0   2   7    1.52    0.73
   0   2   7    1.87    0.81
   0   2   7    2.85    1.19
   0   2   7    1.39    1.00
   0  -2  -7    1.86    1.56
   0  -2  -7    2.72    1.06
   0  -2  -7    2.07    1.13
   0  -2  -7    1.18    1.95
   0   2   8   19.50    1.99
   0   2   8   13.43    2.84
   0   2   8   16.33    2.38
   0  -2  -8   20.49    2.27
   0  -2  -8   18.23    2.44
   0  -2  -8   18.20    4.19
   0  -2  -8   15.08    4.42
   0   2   9  357.58   21.81
   0   2   9  302.19   24.07
   0   2   9  349.86   27.70
   0  -2  -9  356.59   23.52
   0  -2  -9  332.48   26.77
   0  -2  -9  308.40   22.90
   0  -2  -9  332.86   30.58
   0   2  10    5.77    1.44
   0   2  10    5.51    2.33
   0  -2 -10    5.70    1.93
   0  -2 -10    7.31    2.05
   0  -2 -10    5.92    3.77
   0   2  11   20.77    2.72
   0   2  11   22.37    4.29
   0  -2 -11   27.25    3.69
   0  -2 -11   24.75    4.32
   0   2  12    7.70    4.99
   0  -2 -12    9.17    4.15
   0  -2 -12    8.10    3.17
   0   2  13   18.40    7.76
   0  -2 -13   26.60    7.13
   0  -2 -13   20.42    4.95
   0   2  14   48.06    8.77
   0  -2 -14   67.52    8.13
   0  -2 -14   62.41    9.16
   0   2  15   28.17    6.15
   0  -2 -15   34.39    6.45
   0   2  16   19.01    4.83
   0   2  17    8.60    3.37
   0   2  17    9.75    3.09
   0   2  18    3.56    3.53
   0   2  18    3.87    1.97
   0   3 -20    3.27    2.61
   0   3 -20    5.85    2.38
   0  -3  20    9.19    3.88
   0   3 -19    3.59    2.46
   0   3 -19    3.21    3.67
   0  -3  19    1.31    2.15
   0   3 -18    0.77    2.11
   0   3 -18    1.84    1.91
   0  -3  18   -0.41    1.91
   0   3 -17   -4.96    4.93
   0   3 -17   -1.81    2.69
   0  -3  17   -2.48    4.28
   0   3 -16    9.87    6.04
   0   3 -16    9.59    3.88
   0  -3  16    6.85    3.46
   0   3 -15    2.92    2.66
   0   3 -15    1.42    4.33
   0  -3  15    2.75    2.35
   0   3 -14    9.03    3.36
   0   3 -14    7.19    3.17
   0  -3  14    5.58    2.98
   0   3 -13   22.43    4.56
   0   3 -13   19.10    4.33
   0  -3  13   17.62    4.21
   0   3 -12   42.04    5.67
   0   3 -12   39.22    5.66
   0  -3  12   32.15    8.19
   0   3 -11   52.36    9.69
   0   3 -11   50.60    5.97
   0  -3  11   45.69    5.69
   0   3 -10  446.18   30.81
   0   3 -10  463.17   37.04
   0   3 -10  458.47   34.85
   0   3 -10  481.70   38.85
   0  -3  10  378.46   24.45
   0  -3  10  472.79   34.48
   0  -3  10  425.94   32.07
   0  -3  10  443.49   36.29
   0   3  -9    2.89    2.14
   0   3  -9    1.91    1.43
   0   3  -9    2.78    1.88
   0   3  -9    3.38    1.40
   0  -3   9    2.12    0.67
   0  -3   9    3.85    1.48
   0  -3   9    2.42    1.52
   0  -3   9    6.01    2.19
   0   3  -8  248.87   14.86
   0   3  -8  239.30   14.27
   0   3  -8  218.25   12.68
   0   3  -8  250.70   14.98
   0  -3   8  224.80   11.12
   0  -3   8  233.29   15.11
   0  -3   8  205.49   14.12
   0  -3   8  219.32   16.89
   0   3  -7   59.85    5.90
   0   3  -7   50.66    3.58
   0   3  -7   49.14    3.19
   0   3  -7   41.33    2.01
   0   3  -7   53.08    5.53
   0  -3   7   50.53    2.55
   0  -3   7   53.98    4.14
   0  -3   7   47.40    4.03
   0  -3   7   51.61    5.81
   0   3  -6   22.63    2.00
   0   3  -6   19.96    1.86
   0   3  -6   17.49    1.65
   0   3  -6   19.15    1.11
   0   3  -6   23.20    1.99
   0  -3   6   19.35    1.41
   0  -3   6   22.15    1.23
   0  -3   6   21.20    2.31
   0  -3   6   18.90    2.28
   0  -3   6   25.61    2.23
   0   3  -5  380.69   20.49
   0   3  -5  318.14   16.71
   0   3  -5  299.73   15.52
   0   3  -5  393.90   21.63
   0   3  -5  357.21   18.89
   0  -3   5  334.12   16.68
   0  -3   5  349.22   16.98
   0  -3   5  332.56   22.16
   0  -3   5  346.89   19.01
   0   3  -4    3.51    1.36
   0   3  -4    3.05    0.58
   0   3  -4    4.15    1.06
   0   3  -4    6.27    1.47
   0  -3   4    3.90    0.72
   0  -3   4    4.43    0.68
   0  -3   4    3.74    1.03
   0  -3   4    4.02    0.96
   0   3  -3  576.23   32.03
   0   3  -3  475.29   25.02
   0   3  -3  468.92   25.42
   0   3  -3  573.01   32.69
   0   3  -3  531.35   29.63
   0  -3   3  528.20   30.84
   0  -3   3  545.62   29.63
   0  -3   3  546.34   31.92
   0  -3   3  568.98   35.51
   0   3  -2  276.01   12.55
   0   3  -2  212.53    8.29
   0   3  -2  248.32    9.63
   0   3  -2  259.41   12.41
   0   3  -2  275.53   14.52
   0  -3   2  264.65   13.52
   0  -3   2  244.05   12.80
   0  -3   2  240.72   11.76
   0   3  -1 1273.06   97.66
   0   3  -1 1310.97   87.69
   0   3  -1 1187.18   80.84
   0   3  -1 1286.95   97.04
   0  -3   1 1377.05  102.25
   0  -3   1 1475.27  110.47
   0  -3   1 1536.19  115.93
   0  -3   1 1621.01  120.97
   0   3   0  879.66   56.16
   0   3   0  924.26   60.42
   0  -3   0  952.03   60.47
   0  -3   0  937.39   62.14
   0   3   1   52.01    2.39
   0   3   1   50.60    2.45
   0   3   1   55.19    3.19
   0   3   1   51.53    4.04
   0   3   1   51.83    2.89
   0  -3  -1   64.96    4.27
   0  -3  -1   55.85    4.54
   0   3   2   33.38    1.76
   0   3   2   33.46    2.05
   0   3   2   35.29    3.78
   0   3   2   32.92    2.24
   0   3   2   35.11    2.32
   0  -3  -2   38.34    2.19
   0  -3  -2   33.12    2.90
   0  -3  -2   36.15    2.49
   0   3   3 1525.03  124.10
   0   3   3 1474.38  124.29
   0   3   3 1585.51  137.67
   0   3   3 1526.08  131.02
   0   3   3 1724.24  146.60
   0  -3  -3 1612.52  123.77
   0  -3  -3 1689.39  142.40
   0  -3  -3 1604.62  142.08
   0   3   4  284.35   14.34
   0   3   4  334.78   18.87
   0   3   4  306.20   16.40
   0   3   4  320.46   19.16
   0   3   4  325.65   18.43
   0  -3  -4  284.43   14.40
   0  -3  -4  339.66   18.44
   0  -3  -4  316.39   18.42
   0   3   5   73.97    3.56
   0   3   5   74.78    6.42
   0   3   5   82.05    4.53
   0   3   5   81.44    5.78
   0   3   5   85.17    5.37
   0  -3  -5   75.12    3.53
   0  -3  -5   80.34    4.91
   0  -3  -5   83.39    7.57
   0  -3  -5   81.70    5.63
   0   3   6    0.71    0.45
   0   3   6    0.68    0.87
   0   3   6    1.62    0.81
   0   3   6    1.12    1.08
   0   3   6    0.56    1.58
   0  -3  -6    1.39    0.61
   0  -3  -6    0.62    1.80
   0  -3  -6    0.94    1.00
   0  -3  -6    0.91    1.03
   0   3   7   66.17    7.29
   0   3   7   88.45    5.50
   0   3   7   79.71    6.92
   0   3   7   81.87    5.85
   0  -3  -7   76.93    4.64
   0  -3  -7  100.68    6.96
   0  -3  -7   81.56    6.54
   0  -3  -7   84.37    6.89
   0   3   8  169.92   10.12
   0   3   8  131.45   11.51
   0   3   8  139.08   10.15
   0  -3  -8  144.42    8.85
   0  -3  -8  164.23   11.45
   0  -3  -8  140.36   10.98
   0  -3  -8  147.66   11.85
   0   3   9   62.87    5.00
   0   3   9   48.63    6.42
   0   3   9   59.20    5.52
   0  -3  -9   61.47    5.98
   0  -3  -9   55.50    6.44
   0   3  10    6.37    1.74
   0   3  10    5.91    2.52
   0  -3 -10    6.10    2.56
   0   3  11   33.93    6.28
   0  -3 -11   40.92    6.25
   0   3  12   19.88    4.93
   0  -3 -12   20.82    4.76
   0   3  13    4.45    3.04
   0  -3 -13    5.66    2.35
   0   3  14   -0.37    1.79
   0   3  15   -2.53    1.95
   0   3  15    0.92    1.68
   0   3  16    1.14    2.88
   0   3  16    0.58    1.56
   0   3  17    1.33    1.54
   0   3  17    0.43    1.37
   0   3  18    3.01    1.49
   0   3  18   -1.06    2.03
   0   4 -20   -1.84    3.49
   0  -4  20   -3.26    1.85
   0   4 -19    0.72    1.79
   0   4 -19    1.99    2.71
   0  -4  19    0.15    1.60
   0   4 -18    0.99    2.41
   0   4 -18    1.61    2.18
   0  -4  18    2.45    2.17
   0   4 -17   27.72    9.22
   0   4 -17   22.36    5.42
   0  -4  17   16.19    7.69
   0   4 -16   20.91    7.43
   0   4 -16   17.10    4.86
   0  -4  16   14.30    4.48
   0   4 -15   26.95    5.49
   0   4 -15   25.05    8.72
   0  -4  15   21.59    5.01
   0   4 -14   -0.17    1.76
   0   4 -14    0.93    1.70
   0  -4  14    0.45    2.68
   0   4 -13    5.02    2.76
   0   4 -13    4.52    2.63
   0  -4  13    5.89    4.14
   0   4 -12   14.41    3.54
   0   4 -12   14.08    3.49
   0  -4  12   12.36    3.30
   0   4 -11    3.60    2.09
   0   4 -11    5.39    3.11
   0  -4  11    3.29    2.04
   0   4 -10   68.34    9.31
   0   4 -10   87.98   11.40
   0   4 -10   82.98    7.20
   0   4 -10   76.99    6.78
   0  -4  10   66.01    4.45
   0  -4  10   78.31   10.58
   0  -4  10   78.60    6.93
   0   4  -9   24.70    3.23
   0   4  -9   20.40    4.53
   0   4  -9   26.55    5.10
   0   4  -9   25.31    3.27
   0  -4   9   23.07    3.17
   0  -4   9   23.45    3.37
   0  -4   9   23.73    5.59
   0  -4   9   23.62    3.32
   0   4  -8  461.42   30.71
   0   4  -8  356.47   27.44
   0   4  -8  404.71   31.50
   0   4  -8  421.14   27.45
   0  -4   8  406.08   26.56
   0  -4   8  402.97   28.03
   0  -4   8  361.93   31.29
   0  -4   8  395.17   26.95
   0   4  -7   32.53    3.09
   0   4  -7   30.03    2.72
   0   4  -7   33.28    4.64
   0   4  -7   34.89    2.96
   0  -4   7   34.00    3.54
   0  -4   7   35.10    3.55
   0  -4   7   32.35    3.57
   0  -4   7   35.72    3.30
   0   4  -6  113.88    6.99
   0   4  -6   92.16    5.38
   0   4  -6  110.43    8.24
   0   4  -6  121.80    7.47
   0   4  -6  110.69    6.19
   0  -4   6  110.16    7.32
   0  -4   6  105.90    5.20
   0  -4   6  106.06    7.08
   0  -4   6  109.43    6.60
   0   4  -5   11.82    1.78
   0   4  -5    8.32    1.07
   0   4  -5    9.92    1.87
   0   4  -5   11.89    1.76
   0   4  -5   10.95    1.41
   0  -4   5   11.97    2.11
   0  -4   5    8.80    1.77
   0  -4   5    9.08    1.72
   0  -4   5   11.39    2.70
   0   4  -4   49.36    3.28
   0   4  -4   39.01    2.83
   0   4  -4   50.38    2.50
   0   4  -4   53.54    5.38
   0   4  -4   52.31    3.05
   0  -4   4   53.86    3.01
   0  -4   4   53.00    4.27
   0  -4   4   50.55    5.30
   0  -4   4   51.83    3.49
   0   4  -3   90.17    4.89
   0   4  -3   86.52    4.28
   0   4  -3   81.17    3.17
   0   4  -3   92.56    5.24
   0   4  -3   84.75    4.35
   0  -4   3   92.80    4.58
   0  -4   3   88.94    4.58
   0  -4   3   87.40    5.44
   0  -4   3   86.73    4.86
   0   4  -2   12.42    1.51
   0   4  -2   10.14    0.71
   0   4  -2   15.00    1.66
   0  -4   2   14.02    1.40
   0  -4   2   12.76    2.09
   0   4  -1  812.25   55.14
   0   4  -1  738.39   48.77
   0   4  -1  706.98   45.28
   0  -4   1  730.78   46.05
   0  -4   1  784.88   50.28
   0  -4   1  729.14   48.42
   0  -4   1  745.90   48.28
   0   4   0    0.94    0.88
   0   4   0   -1.38    0.71
   0  -4   0    1.52    0.94
   0  -4   0    0.64    0.70
   0   4   1 1410.82  114.86
   0   4   1 1502.23  127.59
   0   4   1 1438.59  120.81
   0   4   1 1499.25  125.69
   0  -4  -1 1738.67  142.89
   0  -4  -1 1541.77  130.60
   0   4   2  132.03    6.88
   0   4   2  145.91    9.37
   0   4   2  135.63   10.68
   0   4   2  147.08    8.75
   0  -4  -2  163.92    9.04
   0  -4  -2  146.37    9.38
   0   4   3    4.81    0.90
   0   4   3    4.69    1.21
   0   4   3    5.30    1.52
   0   4   3    4.82    1.28
   0   4   3    4.37    1.31
   0  -4  -3    7.14    1.32
   0  -4  -3    4.33    2.23
   0   4   4  180.40    9.43
   0   4   4  219.65   13.42
   0   4   4  198.16   11.06
   0   4   4  207.98   16.67
   0   4   4  198.63   12.23
   0   4   4  214.95   12.44
   0  -4  -4  227.24   12.70
   0  -4  -4  206.69   12.69
   0   4   5    0.98    0.68
   0   4   5    1.57    1.13
   0   4   5    2.85    1.07
   0   4   5    2.02    2.16
   0   4   5    2.04    1.18
   0   4   5    2.35    1.13
   0  -4  -5    3.89    1.18
   0  -4  -5    2.29    1.22
   0   4   6   42.85    2.82
   0   4   6   50.40    4.91
   0   4   6   58.02    4.17
   0   4   6   55.09    5.43
   0   4   6   52.85    4.86
   0   4   6   64.03    6.95
   0  -4  -6   56.80    6.62
   0  -4  -6   56.11    7.31
   0   4   7   21.47    2.49
   0   4   7   17.79    3.27
   0   4   7   15.86    2.93
   0   4   7   16.14    2.56
   0  -4  -7   23.11    3.24
   0  -4  -7   16.54    3.03
   0   4   8    2.07    1.77
   0   4   8    2.30    1.61
   0   4   9   19.07    4.00
   0   4   9   18.19    3.70
   0   4  10  102.13   11.82
   0   4  10  101.81   11.15
   0   4  11   46.00    8.05
   0   4  11   41.15    7.38
   0  -4 -11   78.45    7.99
   0   4  12   27.68    5.93
   0   4  12   24.15    5.28
   0  -4 -12   35.32    5.17
   0   4  13    9.74    6.56
   0   4  13   11.23    3.81
   0  -4 -13   16.74    3.57
   0   4  14   37.87    7.29
   0   4  14    7.92    3.68
   0   4  15    0.83    1.86
   0   4  15    1.31    1.62
   0   4  16    0.12    1.29
   0   4  16    0.31    1.79
   0   4  17   -0.66    1.24
   0   5 -19    1.64    1.64
   0   5 -19    0.64    1.56
   0  -5  19   -0.13    1.52
   0   5 -18   -0.72    2.09
   0   5 -18    3.30    1.96
   0  -5  18   -0.50    3.12
   0   5 -17    9.68    3.55
   0   5 -17    6.90    3.35
   0  -5  17    5.77    3.09
   0   5 -16   22.76    8.75
   0   5 -16   21.75    7.99
   0  -5  16   19.76    4.92
   0   5 -15   21.63    7.47
   0   5 -15   19.87    4.66
   0  -5  15   15.62    4.53
   0   5 -14    6.24    2.99
   0   5 -14    5.81    2.99
   0  -5  14    4.77    4.60
   0   5 -13    6.97    2.80
   0   5 -13    4.90    2.85
   0  -5  13    5.91    2.82
   0   5 -12    1.08    1.69
   0   5 -12    2.76    2.94
   0  -5  12    0.26    1.69
   0   5 -11   -0.81    1.39
   0   5 -11    0.80    1.32
   0  -5  11    1.45    1.44
   0   5 -10   44.76    5.27
   0   5 -10   43.34    5.00
   0   5 -10   45.59    4.89
   0  -5  10   36.34    3.37
   0  -5  10   42.65    7.94
   0   5  -9   57.47    5.98
   0   5  -9   50.82    5.23
   0   5  -9   48.01    4.83
   0   5  -9   59.33    5.34
   0  -5   9   49.29    3.95
   0  -5   9   55.03    5.71
   0  -5   9   55.69    8.06
   0   5  -8    8.35    3.27
   0   5  -8    8.69    1.87
   0   5  -8    6.77    1.71
   0   5  -8    9.88    3.00
   0  -5   8    7.40    1.47
   0  -5   8    7.96    2.30
   0  -5   8    9.54    3.60
   0   5  -7    9.81    2.07
   0   5  -7    9.21    1.65
   0   5  -7    6.25    1.47
   0   5  -7    9.24    1.75
   0  -5   7    8.46    1.51
   0  -5   7    8.84    2.20
   0  -5   7    9.54    2.09
   0   5  -6    3.54    1.52
   0   5  -6    2.84    1.02
   0   5  -6    2.78    0.94
   0   5  -6    4.37    1.52
   0   5  -6    3.35    1.20
   0  -5   6    4.96    1.12
   0  -5   6    3.03    0.93
   0  -5   6    3.44    2.46
   0  -5   6    4.15    1.47
   0   5  -5  117.91   10.42
   0   5  -5   77.54    4.53
   0   5  -5   85.50    4.51
   0   5  -5  113.37    7.14
   0   5  -5  100.49    7.74
   0  -5   5  105.11    5.82
   0  -5   5   89.88    5.34
   0  -5   5   97.13    6.87
   0  -5   5  107.28    6.80
   0   5  -4   19.76    3.47
   0   5  -4   15.17    1.21
   0   5  -4   16.83    1.95
   0   5  -4   21.36    3.85
   0   5  -4   20.46    1.97
   0  -5   4   20.92    2.02
   0  -5   4   17.65    2.81
   0  -5   4   20.34    2.51
   0  -5   4   22.16    3.64
   0   5  -3    0.89    0.83
   0   5  -3    0.56    0.41
   0   5  -3    0.41    0.39
   0   5  -3    0.12    0.69
   0  -5   3    0.55    0.74
   0  -5   3    0.41    0.72
   0  -5   3    0.32    0.89
   0   5  -2  177.37   10.21
   0   5  -2  180.07   10.49
   0   5  -2  170.67   12.11
   0  -5   2  170.09    9.40
   0  -5   2  182.30   13.10
   0  -5   2  171.10    9.93
   0   5  -1   15.15    2.04
   0  -5   1   15.04    3.07
   0  -5   1   14.74    2.06
   0   5   0  284.03   16.57
   0   5   0  256.01   18.46
   0   5   0  237.63   14.76
   0   5   0  255.16   16.74
   0  -5   0  314.45   18.80
   0  -5   0  278.74   17.25
   0  -5   0  279.35   22.45
   0   5   1 1128.32   93.56
   0   5   1 1073.58   89.27
   0   5   1 1028.99   82.47
   0   5   1 1050.24   91.54
   0  -5  -1 1214.93   96.20
   0  -5  -1 1234.32   98.80
   0  -5  -1 1150.87   93.36
   0   5   2   25.19    3.95
   0   5   2   24.06    5.09
   0   5   2   21.32    2.75
   0   5   2   23.05    2.84
   0  -5  -2   27.89    2.95
   0  -5  -2   30.54    3.25
   0  -5  -2   24.69    3.38
   0   5   3  297.71   20.94
   0   5   3  282.33   19.47
   0   5   3  262.13   17.77
   0   5   3  289.31   18.62
   0  -5  -3  299.05   18.30
   0  -5  -3  276.88   22.06
   0   5   4   10.14    2.57
   0   5   4   11.11    2.33
   0   5   4   11.46    2.33
   0   5   4    8.87    3.24
   0   5   4    8.88    1.95
   0  -5  -4   12.64    2.11
   0  -5  -4    9.21    2.13
   0   5   5    3.27    1.77
   0   5   5    2.27    1.55
   0   5   5    2.90    1.69
   0   5   5    4.22    2.40
   0   5   5    2.77    1.40
   0  -5  -5    4.21    1.52
   0  -5  -5    3.46    1.51
   0   5   6    0.34    0.73
   0   5   6    0.63    2.02
   0   5   6    0.53    1.26
   0   5   6    0.39    1.10
   0   5   6    0.28    1.72
   0   5   7    1.16    1.60
   0   5   7    1.09    1.43
   0   5   8   18.45    4.25
   0   5   8   16.55    3.92
   0  -5  -8   30.27    4.52
   0   5   9   14.39    3.81
   0   5   9    9.04    3.40
   0  -5  -9   20.75    4.50
   0   5  10    3.43    2.69
   0   5  10    3.23    2.40
   0  -5 -10    6.82    2.80
   0   5  11    0.41    1.65
   0   5  11    1.09    1.43
   0  -5 -11   -0.75    1.52
   0   5  12    3.23    2.43
   0   5  12    1.85    2.09
   0  -5 -12    2.78    2.20
   0   5  13    0.68    2.90
   0   5  13    5.50    4.04
   0  -5 -13   13.59    4.19
   0   5  14    0.45    1.80
   0   5  14    1.05    2.46
   0  -5 -14    2.50    2.66
   0   5  15    0.35    1.32
   0   5  15    0.33    1.04
   0  -5 -15    0.31    1.06
   0   5  16   -0.47    1.92
   0   6 -19    0.57    2.23
   0   6 -19   -0.26    1.41
   0  -6  19    1.41    1.39
   0   6 -18    8.79    2.88
   0   6 -18    8.77    2.97
   0  -6  18    7.45    4.43
   0   6 -17    1.60    1.95
   0   6 -17    2.07    1.94
   0  -6  17    0.13    1.81
   0   6 -16   10.50    3.59
   0   6 -16   10.95    5.65
   0  -6  16    8.57    3.40
   0   6 -15   28.36    5.92
   0   6 -15   31.17    5.81
   0  -6  15   26.36    8.69
   0   6 -14    0.73    3.40
   0   6 -14    0.75    2.03
   0  -6  14    1.57    1.95
   0   6 -13    1.48    2.21
   0   6 -13    1.43    1.46
   0  -6  13   -1.64    1.42
   0   6 -12   23.07    4.61
   0   6 -12   29.94    7.20
   0  -6  12   30.12    5.06
   0   6 -11   -1.06    1.58
   0   6 -11    0.81    1.32
   0   6 -11    0.88    1.36
   0  -6  11    1.30    2.49
   0   6 -10   58.70    7.05
   0   6 -10   41.61    5.57
   0   6 -10   55.02    6.07
   0  -6  10   54.44    6.63
   0   6  -9   86.01    8.46
   0   6  -9   54.38    5.95
   0   6  -9   49.31    7.68
   0   6  -9   79.59    6.91
   0  -6   9   76.88    7.60
   0   6  -8   19.88    5.16
   0   6  -8   18.71    4.23
   0  -6   8   16.50    3.20
   0   6  -7    2.35    1.65
   0   6  -7    1.92    1.27
   0  -6   7    2.93    1.19
   0  -6   7    0.70    1.67
   0  -6   7    2.61    1.54
   0   6  -6   13.91    2.87
   0   6  -6   15.44    2.73
   0   6  -6   12.42    2.09
   0  -6   6   13.24    2.11
   0  -6   6   12.14    2.72
   0  -6   6   14.87    4.07
   0   6  -5    3.15    1.76
   0   6  -5    3.40    1.62
   0   6  -5    2.77    2.01
   0  -6   5    3.48    1.30
   0  -6   5    2.91    1.25
   0  -6   5    2.76    1.64
   0  -6   5    3.76    1.51
   0   6  -4   16.69    4.06
   0   6  -4   29.76    4.87
   0   6  -4   15.82    2.34
   0  -6   4   17.64    2.29
   0  -6   4   14.44    3.39
   0  -6   4   22.38    4.85
   0  -6   4   14.51    2.65
   0   6  -3   51.22    4.65
   0  -6   3   50.71    6.23
   0  -6   3   48.41    4.16
   0  -6   3   48.68    4.61
   0   6  -2  539.61   38.13
   0   6  -2  519.99   40.14
   0  -6   2  630.40   49.40
   0  -6   2  514.81   37.33
   0  -6   2  687.92   47.91
   0   6  -1  202.05   13.74
   0   6  -1  172.27   13.18
   0   6  -1  245.49   17.13
   0  -6   1  248.14   15.94
   0  -6   1  224.96   19.07
   0   6   0   93.56    6.71
   0   6   0   94.87    7.55
   0   6   0   80.88    6.69
   0   6   0   86.08    9.88
   0  -6   0  103.55    7.72
   0  -6   0   91.72    7.21
   0  -6   0   96.31    7.55
   0   6   1    0.79    1.03
   0   6   1    0.01    1.26
   0   6   1    0.57    1.01
   0   6   1    0.52    1.07
   0  -6  -1    2.12    1.16
   0  -6  -1    1.26    1.24
   0  -6  -1    1.73    1.27
   0   6   2    0.01    0.73
   0   6   2    0.04    0.91
   0   6   2   -0.49    1.31
   0   6   2   -0.12    0.79
   0  -6  -2    0.50    0.96
   0  -6  -2   -0.11    1.44
   0   6   3   41.81    4.04
   0   6   3   46.45    5.64
   0   6   3   42.88    7.56
   0   6   3   37.93    4.57
   0   6   3   44.36    6.78
   0  -6  -3   51.75    5.40
   0  -6  -3   42.13    4.73
   0   6   4    3.71    1.39
   0   6   4    4.92    2.02
   0   6   4    2.83    3.15
   0   6   4    3.18    1.69
   0   6   4    1.89    1.61
   0  -6  -4    5.27    2.09
   0   6   5   37.98    4.20
   0   6   5   49.13    6.03
   0   6   5   36.58    5.24
   0  -6  -5   63.06    6.46
   0   6   6   19.97    4.07
   0   6   6   13.23    3.43
   0  -6  -6   26.78    4.30
   0   6   7    9.43    3.31
   0   6   7    6.84    2.82
   0  -6  -7   15.74    3.57
   0   6   8    1.21    1.74
   0   6   8    0.19    1.47
   0  -6  -8    0.67    1.83
   0   6   9    0.89    2.15
   0   6   9    0.88    1.82
   0  -6  -9    3.43    2.24
   0   6  10   57.23    9.19
   0   6  10   38.06    7.43
   0  -6 -10   94.44    9.51
   0   6  11   -0.45    1.82
   0   6  11    0.49    1.54
   0  -6 -11    1.79    1.81
   0   6  12   15.29    4.36
   0   6  12   10.72    3.59
   0  -6 -12   38.27    6.80
   0   6  13   -0.43    2.23
   0   6  13    0.45    1.07
   0  -6 -13    0.08    1.45
   0   6  14    1.14    2.60
   0  -6 -14    1.97    1.55
   0   6  15    1.21    1.16
   0   7 -18    9.14    3.49
   0   7 -18    8.63    2.58
   0   7 -17   -0.49    1.97
   0   7 -17    0.28    1.44
   0  -7  17   -0.78    1.35
   0   7 -16    0.19    1.23
   0   7 -16    1.05    2.15
   0  -7  16   -0.82    1.33
   0   7 -15    0.72    1.46
   0   7 -15   -0.67    1.58
   0  -7  15    1.77    2.56
   0   7 -14    5.46    2.66
   0  -7  14    3.74    2.64
   0   7 -13    1.54    1.80
   0  -7  13   -0.08    1.79
   0   7 -12    7.75    4.48
   0  -7  12    8.45    3.11
   0   7 -11    2.76    2.42
   0   7 -11    2.18    1.93
   0  -7  11    2.12    3.47
   0   7 -10    2.45    2.71
   0   7 -10    4.75    2.01
   0  -7  10    2.67    2.36
   0   7  -9  187.71   17.19
   0   7  -9  162.53   13.54
   0  -7   9  165.53   14.89
   0   7  -8   50.74    9.85
   0   7  -8   53.10    7.91
   0  -7   8   54.13    6.48
   0   7  -7  107.45   10.17
   0   7  -7  100.82    8.38
   0   7  -6   93.69    9.23
   0   7  -6  100.28    9.12
   0   7  -6   88.72    7.18
   0   7  -5   31.19    4.68
   0   7  -5   30.48    4.46
   0   7  -5   26.03    4.98
   0   7  -4   61.76    6.72
   0   7  -4   57.22    9.18
   0   7  -4   55.76    4.94
   0  -7   4   55.62    8.19
   0   7  -3    2.76    3.35
   0   7  -3    6.29    2.13
   0   7  -3    6.28    1.78
   0   7  -3    5.31    1.97
   0  -7   3    6.13    1.89
   0   7  -2   14.11    4.18
   0   7  -2   10.61    2.78
   0   7  -1   15.09    2.79
   0   7  -1   14.55    2.97
   0   7  -1   12.02    3.60
   0   7  -1   14.52    4.28
   0  -7   1   16.17    3.03
   0   7   0    2.29    1.37
   0   7   0   -4.51    2.48
   0   7   0    2.11    1.21
   0   7   0    0.82    1.33
   0  -7   0    3.71    2.67
   0   7   1   11.55    2.39
   0   7   1    8.41    4.47
   0   7   1    8.41    2.19
   0  -7  -1   13.85    4.45
   0   7   2   22.16    3.34
   0   7   2   24.05    4.02
   0   7   2   18.74    3.32
   0  -7  -2   27.77    4.18
   0   7   3    1.11    1.21
   0   7   3    0.21    1.55
   0   7   3    1.22    1.21
   0  -7  -3    0.27    1.66
   0   7   4   -0.32    1.19
   0   7   4    1.10    1.57
   0   7   4    2.44    2.03
   0  -7  -4    1.28    1.87
   0   7   5    1.25    1.09
   0   7   5    0.52    1.51
   0   7   5    1.83    2.14
   0  -7  -5   -2.21    1.71
   0   7   6    3.84    2.54
   0   7   6    4.06    3.63
   0  -7  -6    6.57    2.82
   0   7   7    0.76    1.91
   0   7   7    0.24    1.65
   0  -7  -7    3.57    2.23
   0   7   8   10.65    3.61
   0   7   8    5.36    3.05
   0  -7  -8   18.59    4.04
   0   7   9    2.70    2.27
   0  -7  -9    2.34    4.22
   0   7  10   39.29    7.59
   0  -7 -10  102.27   14.63
   0   7  11    0.35    2.14
   0  -7 -11    6.74    2.59
   0   7  12    3.57    2.94
   0  -7 -12   21.00    3.56
   0   7  13   -0.08    0.97
   0  -7 -13   -0.22    1.18
   0   8 -17    4.71    2.18
   0  -8  17    8.21    2.23
   0   8 -16   -0.01    2.21
   0  -8  16    0.54    1.30
   0   8 -15    6.34    2.49
   0  -8  15    5.46    4.16
   0   8 -14    2.21    1.96
   0  -8  14    1.99    2.03
   0   8 -13   10.70    3.51
   0  -8  13   13.20    3.62
   0   8 -12   21.36    9.03
   0   8 -12   22.03    6.42
   0  -8  12   25.51    4.79
   0   8 -11    2.58    2.91
   0   8 -11    4.08    2.16
   0  -8  11    5.92    4.16
   0   8 -10    3.09    2.85
   0   8 -10    2.46    1.95
   0  -8  10    3.70    2.29
   0   8  -9  173.70   17.68
   0   8  -9  147.42   12.98
   0  -8   9  150.01   14.55
   0   8  -8    3.55    4.15
   0   8  -8    1.34    2.61
   0  -8   8    1.00    2.00
   0   8  -7  512.34   44.50
   0   8  -7  474.51   36.95
   0   8  -6   15.82    4.14
   0   8  -6   16.37    3.90
   0   8  -6   12.06    2.86
   0   8  -5    1.55    1.92
   0   8  -5    4.44    1.83
   0   8  -5   -1.41    1.25
   0   8  -4   87.05    9.74
   0   8  -4   89.72    9.04
   0   8  -4   64.29    9.31
   0   8  -3    5.80    2.76
   0   8  -3    3.80    1.75
   0  -8   3    5.38    3.80
   0   8  -2   11.68    5.02
   0   8  -2    9.84    2.76
   0   8  -2    4.70    2.01
   0  -8   2    8.78    2.61
   0   8  -1   18.29    6.01
   0   8  -1   10.52    3.36
   0   8  -1    9.19    2.46
   0  -8   1   17.87    3.31
   0   8   0   21.24    6.09
   0   8   0   11.80    3.43
   0   8   0    9.62    2.56
   0  -8   0   20.95    3.66
   0   8   1    2.24    2.67
   0   8   1    2.35    1.84
   0   8   1    1.50    2.40
   0  -8  -1    0.87    2.07
   0   8   2    3.09    3.07
   0   8   2    3.47    3.55
   0   8   2    1.64    1.77
   0  -8  -2    7.26    2.56
   0   8   3   13.91    5.46
   0   8   3    7.39    5.46
   0  -8  -3   11.84    6.41
   0   8   4    1.89    3.09
   0   8   4    1.27    1.99
   0  -8  -4    3.07    3.85
   0   8   5   -0.28    1.48
   0  -8  -5    1.99    2.95
   0   8   6   10.38    3.58
   0  -8  -6   13.40    7.17
   0   8   7    0.33    1.81
   0  -8  -7    3.36    3.76
   0   8   8   -1.14    2.00
   0  -8  -8    4.18    2.34
   0   8   9    0.30    1.47
   0  -8  -9    0.70    1.92
   0   8  10    0.99    1.65
   0  -8 -10    3.00    2.21
   0   8  11    1.32    2.21
   0  -8 -11    1.87    1.97
   0  -8 -12    2.60    1.83
   0   9 -16    1.22    1.16
   0  -9  16    1.10    1.26
   0   9 -15    0.81    2.04
   0  -9  15    0.99    1.36
   0   9 -14   -1.76    1.58
   0  -9  14   -1.91    2.83
   0   9 -13    2.66    1.88
   0  -9  13    2.85    1.97
   0   9 -12    4.90    2.76
   0   9 -12    3.63    3.34
   0  -9  12    2.24    2.19
   0   9 -11   10.95    6.91
   0   9 -11    6.45    4.48
   0  -9  11   18.29    5.47
   0   9 -10   15.39    4.31
   0   9 -10    8.61    2.70
   0  -9  10   10.33    3.21
   0   9  -9   11.00    4.12
   0   9  -9    6.07    2.48
   0  -9   9    9.20    2.96
   0   9  -8    2.61    2.64
   0   9  -8    0.72    1.46
   0  -9   8    1.26    1.78
   0   9  -7   34.99    8.98
   0   9  -7   23.65    5.92
   0  -9   7   31.42    5.03
   0   9  -6   10.52    3.33
   0   9  -6    5.00    2.10
   0   9  -5   26.05    4.89
   0   9  -5   19.93    4.31
   0   9  -5   14.13    3.06
   0   9  -4    7.42    3.11
   0   9  -4    3.28    2.87
   0   9  -4    4.98    1.88
   0   9  -3    0.92    2.53
   0   9  -3    5.35    2.26
   0   9  -3    1.06    2.50
   0   9  -2    4.11    2.90
   0   9  -2    6.95    4.10
   0  -9   2    2.55    4.43
   0   9  -1    3.74    2.43
   0   9  -1   -0.94    3.44
   0  -9   1    3.06    3.57
   0   9   0   21.79    4.94
   0   9   0   19.12    4.49
   0  -9   0   22.44    4.81
   0   9   1    0.73    1.84
   0   9   1    0.43    1.68
   0  -9  -1    1.20    1.96
   0   9   2   25.85    5.20
   0   9   2   17.77    4.79
   0  -9  -2   33.22    5.80
   0   9   3    2.98    2.44
   0   9   3    3.70    2.41
   0  -9  -3    5.53    2.97
   0   9   4   -0.25    1.56
   0   9   4    1.40    1.63
   0  -9  -4    1.60    2.09
   0   9   5    7.05    2.88
   0  -9  -5    9.19    3.90
   0   9   6   -0.21    1.47
   0  -9  -6    2.13    2.00
   0   9   7    0.49    1.44
   0  -9  -7    1.59    1.99
   0   9   8    0.64    1.67
   0  -9  -8    8.25    2.61
   0   9   9    0.53    0.96
   0  -9  -9    0.15    1.60
   0  -9 -10    1.58    1.75
   0 -10  14   -0.67    1.89
   0  10 -13    1.70    1.52
   0  10 -13    1.34    1.14
   0 -10  13    1.36    1.41
   0  10 -12    6.70    2.03
   0  10 -12    0.13    1.29
   0 -10  12    0.20    1.52
   0  10 -11    0.92    2.62
   0  10 -11    0.30    0.95
   0 -10  11   -0.65    1.11
   0  10 -10    1.98    2.40
   0  10 -10    0.74    2.17
   0 -10  10    2.76    2.80
   0  10  -9    1.86    2.23
   0  10  -9    0.07    1.17
   0 -10   9    1.22    1.48
   0  10  -8    1.08    2.50
   0 -10   8    1.00    1.59
   0  10  -7   20.58    5.68
   0 -10   7   13.03    3.46
   0  10  -6    2.19    5.28
   0 -10   6    2.24    1.90
   0  10  -5    1.45    3.77
   0  10  -4    1.00    2.19
   0  10  -4    1.09    1.77
   0  10  -3    8.47    3.41
   0  10  -3    5.48    2.77
   0  10  -2    2.09    1.86
   0  10  -2   -0.88    1.50
   0  10  -1   13.34    4.15
   0  10  -1   10.98    3.45
   0 -10   1   13.95    3.98
   0  10   0   10.26    3.22
   0  10   0   -0.72    4.43
   0 -10   0    6.18    3.31
   0  10   1    0.76    1.60
   0  10   1   -1.27    2.31
   0 -10  -1   -2.21    3.06
   0  10   2    2.25    2.03
   0  10   2    0.75    3.00
   0 -10  -2    3.69    3.73
   0  10   3    4.67    3.19
   0  10   3    2.03    1.91
   0 -10  -3    5.17    4.07
   0  10   4    2.51    2.97
   0  10   4    0.76    1.52
   0 -10  -4    4.27    3.40
   0  10   5   -0.02    0.87
   0 -10  -5    0.08    2.12
   0  10   6    0.17    0.93
   0 -10  -6    1.32    2.50
   0 -10  -7   39.99    9.49
   0  11 -11    1.60    1.58
   0 -11  11   -0.11    1.01
   0  11 -10   17.61    6.13
   0 -11  10    8.96    2.25
   0  11  -9    9.28    3.34
   0 -11   9    4.72    3.34
   0  11  -8    4.37    2.96
   0 -11   8    2.84    2.76
   0  11  -7   -1.60    1.98
   0 -11   7    0.20    1.07
   0  11  -6    0.27    1.79
   0 -11   6    0.01    1.00
   0  11  -5   -1.85    2.43
   0 -11   5    1.87    1.34
   0  11  -4    3.92    3.07
   0 -11   4    2.85    1.70
   0  11  -3    1.96    4.38
   0  11  -2   -1.41    4.02
   0  11  -1    0.16    3.20
   0  11  -1    0.55    1.22
   0  11   0    1.88    4.18
   0  11   0    2.17    1.60
   0 -11   0    3.51    1.95
   0  11   1    6.47    2.66
   0  11   1    1.68    1.81
   0 -11  -1    7.51    2.38
   0  11   2    2.49    1.60
   0  11   2    0.22    1.10
   0 -11  -2    1.15    1.62
   0  11   3    0.67    1.09
   0 -11  -3   -0.12    1.40
   0 -11  -4    0.32    1.35
   0  12  -7  -10.22    5.67
   0  12  -6   24.83    5.08
   0  12  -5    3.36    2.53
   0  12  -4    2.13    2.21
   0  12  -3   -3.17    2.37
   0  12  -2    6.55    2.88
   0  12  -1    3.59    2.16
  -1  12   1   23.94    4.34
  -1  12   0   -2.56    3.56
  -1  12  -1   62.73   13.12
  -1  12  -2   17.96    7.98
  -1  12  -3   -4.07    4.71
  -1  12  -4   -0.21    1.70
  -1  12  -5   -5.11    3.05
  -1  12  -6    4.92    2.94
  -1  12  -7    5.81    2.96
  -1  12  -8   16.92    3.82
   1 -11  -5    0.82    1.74
   1 -11  -4    0.94    1.75
  -1  11   4    0.41    1.77
   1 -11  -3    1.55    1.82
  -1  11   3    0.33    1.36
   1 -11  -2    1.17    1.91
  -1  11   2    1.39    1.60
  -1  11   2    0.12    1.59
   1 -11  -1    1.10    1.81
  -1  11   1    0.32    1.64
  -1  11   1    0.52    1.56
   1 -11   0    0.37    1.88
  -1  11   0    1.17    1.83
  -1  11   0    1.06    1.76
   1 -11   1    6.11    3.45
  -1  11  -1    2.28    2.19
  -1  11  -1    1.10    1.30
   1 -11   2   13.16    5.30
  -1  11  -2   15.05    3.66
  -1  11  -2    6.97    2.16
  -1  11  -3    1.16    2.41
  -1  11  -3    2.61    1.44
  -1  11  -4    1.76    2.10
  -1  11  -4    0.87    1.26
  -1  11  -5    4.05    2.50
  -1  11  -5    2.17    1.52
  -1  11  -6    0.55    2.42
  -1  11  -6   -0.32    1.53
  -1  11  -7    2.36    2.76
  -1  11  -7   -0.83    1.58
  -1  11  -8   -0.34    1.95
  -1  11  -8    0.90    1.17
  -1  11  -9    1.10    2.30
  -1  11  -9    2.60    1.45
  -1  11 -10    0.00    1.52
  -1  11 -10   -0.84    1.08
  -1  11 -11    0.68    1.42
  -1  11 -11    0.86    1.97
  -1  11 -12   -0.70    1.09
   1 -10  -8    0.08    1.45
   1 -10  -7    0.70    1.53
  -1  10   7   -0.03    0.65
   1 -10  -6    6.28    2.60
  -1  10   6    1.04    1.20
   1 -10  -5    0.67    3.07
  -1  10   5    1.14    1.16
  -1  10   5   -0.43    0.95
   1 -10  -4    5.24    4.66
  -1  10   4    2.88    1.99
  -1  10   4    1.85    1.51
   1 -10  -3    0.79    2.23
  -1  10   3    0.57    1.67
  -1  10   3    0.59    1.22
   1 -10  -2   -3.35    2.04
  -1  10   2   -0.44    1.61
  -1  10   2    1.72    1.16
   1 -10  -1   -0.74    2.34
  -1  10   1   -5.71    3.39
  -1  10   1   -0.10    1.40
   1 -10   0   23.66    5.51
  -1  10   0   28.18    8.19
  -1  10   0   15.08    3.51
   1 -10   1    0.98    1.64
  -1  10  -1    1.60    1.59
  -1  10  -1   -1.16    1.14
   1 -10   2   17.90    4.65
  -1  10  -2   20.71    4.93
  -1  10  -2   12.46    5.42
   1 -10   3    1.69    3.29
  -1  10  -3    0.22    2.17
  -1  10  -3    1.78    2.43
  -1  10  -4    0.89    2.41
  -1  10  -4    2.49    1.65
  -1  10  -5    0.11    1.79
  -1  10  -5    0.45    1.26
  -1  10  -6    8.37    3.06
  -1  10  -6    2.48    2.07
  -1  10  -7   14.60    4.31
  -1  10  -7   14.46    3.15
  -1  10  -8   29.83    7.90
  -1  10  -8    5.81    5.02
  -1  10  -9   12.83    4.10
  -1  10  -9    9.74    2.93
   1 -10  10    3.32    1.84
  -1  10 -10    6.90    2.86
  -1  10 -10    4.80    2.16
   1 -10  11    0.94    1.22
  -1  10 -11    1.51    1.71
  -1  10 -11    0.46    1.45
   1 -10  12    1.03    1.46
  -1  10 -12   -1.93    1.82
   1 -10  13   -0.16    0.71
  -1  10 -13    0.35    1.04
  -1  10 -14    2.17    1.62
   1  -9 -10   36.17    5.76
   1  -9  -9    1.11    2.65
  -1   9   9   -0.59    0.96
   1  -9  -8   14.10    4.81
  -1   9   8    2.97    1.92
   1  -9  -7    5.94    2.82
  -1   9   7    1.90    1.85
   1  -9  -6    0.89    2.23
  -1   9   6   -1.38    2.59
  -1   9   6   -1.72    1.53
   1  -9  -5    4.76    2.81
  -1   9   5    2.74    2.84
  -1   9   5    1.79    1.99
   1  -9  -4    5.20    2.97
  -1   9   4    3.48    2.00
  -1   9   4    2.21    2.13
   1  -9  -3   18.58    4.43
  -1   9   3   11.53    3.30
  -1   9   3    8.55    3.31
   1  -9  -2    2.49    2.40
  -1   9   2    2.16    1.87
  -1   9   2   -0.71    3.02
   1  -9  -1    2.99    3.70
  -1   9   1    0.71    1.83
  -1   9   1    2.56    2.78
  -1   9   0    2.78    2.07
  -1   9   0    2.28    1.84
   1  -9   1   -0.32    2.06
  -1   9  -1   -0.04    1.61
  -1   9  -1   -1.49    1.46
   1  -9   2   11.37    3.61
  -1   9  -2    8.22    2.93
  -1   9  -2    7.93    2.64
   1  -9   3    0.41    1.93
  -1   9  -3    3.35    2.69
  -1   9  -3    0.42    1.49
   1  -9   4    1.61    1.72
  -1   9  -4   -0.73    3.07
  -1   9  -4   -0.87    2.31
  -1   9  -5   -1.24    2.07
  -1   9  -5   -0.75    2.49
   1  -9   6   11.01    2.96
  -1   9  -6   16.19    4.24
  -1   9  -6   17.56    3.26
   1  -9   7    0.88    1.52
  -1   9  -7    2.66    2.10
  -1   9  -7    1.28    1.65
   1  -9   8    0.73    1.54
  -1   9  -8    2.72    2.03
  -1   9  -8    1.33    1.68
   1  -9   9   14.64    5.95
  -1   9  -9   29.18    8.96
  -1   9  -9   27.40    6.77
   1  -9  10   -0.59    1.35
  -1   9 -10    0.58    1.90
  -1   9 -10   -0.97    1.52
   1  -9  11   10.41    2.78
  -1   9 -11   10.93    3.25
   1  -9  12    0.85    1.57
  -1   9 -12    2.19    1.75
   1  -9  13    3.23    2.72
  -1   9 -13    1.14    3.53
   1  -9  14    1.67    1.25
  -1   9 -14   -0.47    1.69
   1  -9  15    1.34    1.22
  -1   9 -15    1.96    1.70
  -1   9 -16   -0.34    1.21
   1  -8 -12    2.52    2.23
  -1   8  12   -0.57    0.80
   1  -8 -11    0.13    2.63
  -1   8  11    0.77    1.14
   1  -8 -10    5.10    2.44
  -1   8  10    1.38    1.72
   1  -8  -9   10.03    3.61
  -1   8   9    3.94    4.11
   1  -8  -8   20.54    5.09
  -1   8   8    8.24    5.65
   1  -8  -7    4.33    3.09
  -1   8   7    2.88    3.70
   1  -8  -6   50.20    7.01
  -1   8   6   22.82    4.28
  -1   8   6   32.68    8.14
   1  -8  -5   47.81    7.51
  -1   8   5   33.76    5.12
  -1   8   5   28.99    5.55
   1  -8  -4    2.60    2.70
  -1   8   4    2.24    1.85
  -1   8   4    2.77    2.04
   1  -8  -3   37.54    6.11
  -1   8   3   28.80    4.71
  -1   8   3   24.55    4.82
   1  -8  -2    0.21    1.89
  -1   8   2    0.26    1.42
  -1   8   2    0.78    1.28
  -1   8   2    1.27    1.49
   1  -8  -1    1.87    2.27
  -1   8   1    3.63    1.83
  -1   8   1    1.09    1.60
  -1   8   1    3.02    1.84
   1  -8   0    1.23    1.60
  -1   8   0    1.58    1.33
  -1   8   0   -0.54    1.16
  -1   8   0   -0.11    1.34
   1  -8   1   17.78    5.99
  -1   8  -1   16.97    3.33
  -1   8  -1   11.01    4.53
  -1   8  -1   15.28    4.91
   1  -8   2    0.21    2.28
  -1   8  -2    1.36    1.82
  -1   8  -2    3.84    1.73
  -1   8  -2    4.27    1.89
   1  -8   3   16.02    4.40
  -1   8  -3   15.68    3.75
  -1   8  -3   33.24    3.94
   1  -8   4  124.80   12.01
  -1   8  -4  130.73   11.09
  -1   8  -4  114.42   10.28
  -1   8  -4  138.98   11.29
   1  -8   5    3.16    3.63
  -1   8  -5    1.63    3.35
  -1   8  -5    6.74    3.47
   1  -8   6   62.49    6.78
  -1   8  -6   88.20    9.28
  -1   8  -6   78.93    7.44
   1  -8   7    0.54    1.22
  -1   8  -7   -0.15    1.60
  -1   8  -7    0.51    1.38
   1  -8   8   48.25    6.29
  -1   8  -8   60.04    7.32
  -1   8  -8   66.72    7.06
   1  -8   9  121.01   16.12
  -1   8  -9  139.58   17.87
  -1   8  -9  165.83   17.91
   1  -8  10    9.79    3.33
  -1   8 -10   14.78    4.15
  -1   8 -10   17.05    3.74
   1  -8  11   58.69    7.98
  -1   8 -11   87.13    8.88
   1  -8  12    2.58    2.03
  -1   8 -12    2.87    2.21
   1  -8  13    4.70    3.73
  -1   8 -13    4.74    4.20
   1  -8  14    4.51    2.41
  -1   8 -14    9.71    3.01
   1  -8  15    2.82    1.76
  -1   8 -15    2.72    2.24
   1  -8  16    1.38    1.36
  -1   8 -16    1.46    1.80
   1  -8  17   14.10    4.45
  -1   8 -17   21.81    5.91
   1  -7 -13    1.76    2.00
  -1   7  13   -0.75    1.98
   1  -7 -12    6.31    2.40
  -1   7  12    3.06    2.20
   1  -7 -11    6.21    2.72
  -1   7  11    2.55    2.40
   1  -7 -10   24.15    5.14
  -1   7  10   14.23    4.45
   1  -7  -9    1.78    2.26
  -1   7   9    0.46    1.93
   1  -7  -8  112.32   12.63
  -1   7   8   68.28   10.91
   1  -7  -7   69.05    8.55
  -1   7   7   33.97    4.89
  -1   7   7   26.63    5.64
  -1   7   7   46.84    7.41
   1  -7  -6   33.60    5.93
  -1   7   6   21.16    5.75
  -1   7   6   13.79    3.97
  -1   7   6   22.65    5.16
   1  -7  -5    3.47    2.31
  -1   7   5   -0.98    2.64
  -1   7   5    1.38    1.60
  -1   7   5    1.90    2.03
   1  -7  -4    1.64    2.28
  -1   7   4    1.88    1.58
  -1   7   4    2.63    1.96
   1  -7  -3   41.60    5.73
  -1   7   3   29.24    5.60
  -1   7   3   26.67    4.19
  -1   7   3   34.28    7.89
   1  -7  -2    8.65    2.64
   1  -7  -2    4.65    1.64
  -1   7   2    6.49    2.78
  -1   7   2    3.14    2.99
  -1   7   2    7.06    3.40
   1  -7  -1    1.78    1.82
   1  -7  -1    1.58    1.84
  -1   7   1    0.28    2.04
  -1   7   1    0.74    2.01
  -1   7   1    2.60    1.51
   1  -7   0   44.42    4.93
   1  -7   0   23.66    3.64
  -1   7   0   45.35    6.47
  -1   7   0   23.21    3.66
  -1   7   0   35.38    4.40
   1  -7   1   38.67    4.97
   1  -7   1   38.41    4.18
  -1   7  -1   38.26    4.46
  -1   7  -1   33.54    4.11
  -1   7  -1   41.45    5.09
   1  -7   2   28.78    6.90
   1  -7   2   34.68    5.53
  -1   7  -2   32.07    4.18
  -1   7  -2   35.38    5.58
  -1   7  -2   37.98    6.68
   1  -7   3    0.39    1.53
   1  -7   3    1.62    1.15
  -1   7  -3   -0.18    1.31
  -1   7  -3   -1.03    1.16
  -1   7  -3    4.62    1.40
   1  -7   4   28.52    3.87
   1  -7   4   21.18    3.14
  -1   7  -4   23.99    3.41
  -1   7  -4   21.95    3.14
  -1   7  -4   25.89    3.43
   1  -7   5   20.13    5.55
   1  -7   5   17.70    4.68
  -1   7  -5   21.16    3.19
  -1   7  -5   21.28    3.14
  -1   7  -5   23.71    3.35
   1  -7   6    0.26    1.19
  -1   7  -6    0.14    1.73
  -1   7  -6    0.59    1.83
   1  -7   7    1.12    1.30
  -1   7  -7    0.97    1.58
  -1   7  -7    1.52    1.40
   1  -7   8    9.86    2.70
  -1   7  -8   14.02    3.05
  -1   7  -8   15.21    2.93
   1  -7   9  186.01   20.44
  -1   7  -9  205.94   16.34
  -1   7  -9  231.75   17.34
   1  -7  10   43.51    6.06
  -1   7 -10   49.12    6.61
  -1   7 -10   58.69    9.90
   1  -7  11  172.81   16.86
  -1   7 -11  231.97   19.11
   1  -7  12   27.09    5.02
  -1   7 -12   24.09    4.75
  -1   7 -12   37.83    5.55
   1  -7  13    5.18    3.99
  -1   7 -13    4.05    2.40
  -1   7 -13    6.00    4.31
   1  -7  14    1.73    1.73
  -1   7 -14   -0.15    1.81
  -1   7 -14    1.87    2.11
   1  -7  15    2.11    1.80
  -1   7 -15    0.56    2.99
  -1   7 -15    1.74    2.20
   1  -7  16    1.43    1.54
  -1   7 -16    1.11    2.92
  -1   7 -16    0.65    1.91
   1  -7  17    0.78    1.90
  -1   7 -17    0.19    1.29
  -1   7 -17   -0.22    2.41
   1  -7  18   -0.12    1.64
  -1   7 -18    6.49    1.73
  -1   7 -18    2.53    2.13
  -1   6  15    2.80    1.60
   1  -6 -14    0.41    1.82
  -1   6  14    0.65    1.02
  -1   6  14    0.34    1.36
   1  -6 -13    2.84    1.81
  -1   6  13    0.90    2.64
  -1   6  13    1.76    1.97
   1  -6 -12   -1.65    2.15
  -1   6  12   -2.64    2.15
   1  -6 -11    2.69    2.05
  -1   6  11    1.08    1.75
  -1   6  11    0.02    2.03
   1  -6 -10    0.26    2.01
  -1   6  10    1.56    1.64
  -1   6  10   -0.31    3.08
   1  -6  -9   65.53   10.81
  -1   6   9   23.49    5.47
  -1   6   9   40.51   10.42
   1  -6  -8  619.18   59.97
  -1   6   8  345.15   34.55
  -1   6   8  500.70   54.48
   1  -6  -7  117.23   15.43
  -1   6   7   69.06    8.71
  -1   6   7   92.39   14.95
   1  -6  -6    1.60    2.74
  -1   6   6    0.95    0.99
  -1   6   6    0.12    1.34
  -1   6   6    1.20    1.63
   1  -6  -5   28.49    6.30
   1  -6  -5   17.26    2.89
  -1   6   5   20.94    2.65
  -1   6   5   18.78    5.02
  -1   6   5   21.17    3.90
   1  -6  -4   23.90    5.77
   1  -6  -4   15.38    3.97
  -1   6   4   18.36    2.51
  -1   6   4   16.26    4.40
  -1   6   4   19.63    3.52
   1  -6  -3   -0.62    2.41
   1  -6  -3    0.40    1.59
   1  -6  -3    0.40    0.88
  -1   6   3    1.44    0.91
  -1   6   3    1.35    1.55
  -1   6   3    0.37    0.99
  -1   6   3   -0.45    1.28
  -1   6   3    1.46    1.30
   1  -6  -2    1.00    0.96
   1  -6  -2    0.63    0.87
  -1   6   2    1.45    0.93
  -1   6   2   -0.58    1.59
  -1   6   2    0.33    0.97
  -1   6   2    1.96    1.27
  -1   6   2    0.62    1.28
   1  -6  -1   72.96    6.60
   1  -6  -1   60.82    4.82
  -1   6   1   64.24    4.95
  -1   6   1   70.75    7.15
  -1   6   1   58.57    4.88
  -1   6   1   67.12    8.91
  -1   6   1   65.60    9.04
   1  -6   0   26.73    3.61
   1  -6   0   20.49    2.70
  -1   6   0   22.01    2.69
  -1   6   0   29.01    4.17
  -1   6   0   31.56    3.52
  -1   6   0   27.60    3.80
   1  -6   1   47.59    4.49
   1  -6   1   31.84    4.87
  -1   6  -1   28.37    3.40
  -1   6  -1   39.42    4.15
  -1   6  -1   46.11    4.55
   1  -6   2    3.14    1.40
   1  -6   2    0.90    2.34
  -1   6  -2    1.40    1.84
   1  -6   3   20.00    2.94
   1  -6   3   21.34    3.19
   1  -6   3   15.92    2.31
   1  -6   3   21.73    3.28
  -1   6  -3   25.18    2.78
  -1   6  -3   19.27    2.38
  -1   6  -3   21.59    4.29
   1  -6   4   52.06    4.86
   1  -6   4   55.51    5.21
   1  -6   4   48.41    6.23
   1  -6   4   51.58    5.26
  -1   6  -4   56.66    4.63
  -1   6  -4   56.50    4.48
  -1   6  -4   53.73    4.65
   1  -6   5   25.03    3.07
   1  -6   5   22.98    5.06
   1  -6   5   21.23    2.89
   1  -6   5   25.76    3.53
  -1   6  -5   24.95    2.95
  -1   6  -5   25.12    2.94
  -1   6  -5   27.08    3.13
   1  -6   6    8.44    1.82
   1  -6   6    7.18    2.00
   1  -6   6    8.81    1.74
   1  -6   6    7.20    1.83
   1  -6   6   10.25    3.74
  -1   6  -6    5.05    1.21
  -1   6  -6    4.67    2.50
  -1   6  -6    9.51    3.10
   1  -6   7   11.37    2.20
   1  -6   7   10.77    2.36
   1  -6   7   13.25    2.29
   1  -6   7   13.76    3.86
  -1   6  -7   17.53    4.24
  -1   6  -7    9.56    1.76
  -1   6  -7   10.52    2.21
  -1   6  -7   17.97    2.52
   1  -6   8   30.50    3.47
   1  -6   8   28.86    3.67
  -1   6  -8   33.18    3.70
  -1   6  -8   23.28    2.98
  -1   6  -8   22.31    3.71
  -1   6  -8   36.62    3.86
   1  -6   9   34.47    6.90
  -1   6  -9   38.48    4.11
  -1   6  -9   33.03    3.84
  -1   6  -9   44.21    7.11
   1  -6  10   36.86    5.06
  -1   6 -10   34.40    4.34
  -1   6 -10   43.43    5.30
   1  -6  11    7.60    2.80
  -1   6 -11    8.72    3.86
  -1   6 -11   11.47    3.02
   1  -6  12    6.27    2.79
  -1   6 -12    6.26    4.92
  -1   6 -12    8.22    2.98
   1  -6  13   38.80    9.43
  -1   6 -13   41.70    6.39
  -1   6 -13   50.25    9.98
   1  -6  14    3.59    2.19
  -1   6 -14    1.97    2.40
  -1   6 -14    2.74    2.54
   1  -6  15    0.39    1.44
  -1   6 -15    0.32    1.62
  -1   6 -15   -0.08    1.73
   1  -6  16    0.75    1.67
  -1   6 -16    0.05    1.87
  -1   6 -16    2.40    2.05
   1  -6  17    8.69    4.93
  -1   6 -17   10.87    5.78
  -1   6 -17   11.40    5.95
   1  -6  18    0.80    1.42
  -1   6 -18    0.34    1.69
  -1   6 -18    1.20    1.71
   1  -6  19    2.18    1.56
  -1   6 -19    1.80    1.82
  -1   6 -19    3.91    1.91
  -1   5  16   -0.93    1.37
  -1   5  15    0.86    1.51
  -1   5  15    6.35    3.06
  -1   5  14    0.63    1.42
  -1   5  14    0.68    2.78
   1  -5 -13    1.87    1.93
  -1   5  13    1.69    1.96
  -1   5  13    3.72    2.40
   1  -5 -12   16.67    3.50
  -1   5  12    6.95    3.34
  -1   5  12    8.59    3.86
   1  -5 -11    7.19    4.01
  -1   5  11    1.57    2.18
  -1   5  11    2.60    2.48
   1  -5 -10   36.13    7.49
  -1   5  10   12.87    7.03
  -1   5  10   19.07    5.29
   1  -5  -9   39.61    5.58
  -1   5   9   16.51    7.12
  -1   5   9   21.15    5.41
   1  -5  -8    7.27    2.32
  -1   5   8    3.18    1.25
  -1   5   8    3.17    3.25
  -1   5   8    5.61    2.41
   1  -5  -7   11.21    2.46
   1  -5  -7    5.86    1.87
  -1   5   7    5.43    1.44
  -1   5   7    7.11    4.29
  -1   5   7    6.52    2.13
  -1   5   7    7.90    2.54
   1  -5  -6   41.53    4.55
   1  -5  -6   27.71    3.42
  -1   5   6   30.16    2.99
  -1   5   6   33.79    5.16
  -1   5   6   30.85    3.87
  -1   5   6   32.74    4.50
   1  -5  -5    3.82    1.83
   1  -5  -5    6.30    1.59
   1  -5  -5    3.29    1.26
  -1   5   5    3.19    1.86
  -1   5   5    2.66    2.17
  -1   5   5    3.00    1.42
  -1   5   5    4.80    1.83
  -1   5   5    5.30    1.78
   1  -5  -4   12.21    2.27
   1  -5  -4   11.70    2.70
   1  -5  -4    7.91    2.51
  -1   5   4    8.18    2.42
  -1   5   4    8.78    3.98
  -1   5   4    8.27    1.79
  -1   5   4    9.13    3.63
  -1   5   4   11.35    2.34
   1  -5  -3    0.78    1.29
   1  -5  -3    1.77    0.96
   1  -5  -3    0.80    0.85
  -1   5   3    1.42    1.44
  -1   5   3    2.62    1.50
  -1   5   3    1.47    0.94
  -1   5   3    2.64    1.30
  -1   5   3    2.68    1.31
   1  -5  -2  108.48   10.65
   1  -5  -2  113.19    6.22
   1  -5  -2   98.18    7.43
  -1   5   2   94.85    8.16
  -1   5   2  109.52    8.92
  -1   5   2  102.92    8.27
  -1   5   2  101.58    7.62
  -1   5   2  112.42    7.86
   1  -5  -1   34.52    6.02
   1  -5  -1   36.28    2.74
   1  -5  -1   30.42    2.71
  -1   5   1   33.56    3.01
  -1   5   1   43.21    4.43
  -1   5   1   28.63    2.74
  -1   5   1   28.98    3.66
  -1   5   1   32.09    3.93
   1  -5   0  927.16   69.21
  -1   5   0  941.96   70.86
  -1   5   0  752.78   67.67
   1  -5   1 1576.79  137.69
   1  -5   1 1651.27  146.05
   1  -5   1 1648.45  137.02
  -1   5  -1 1717.53  142.75
  -1   5  -1 1132.22   86.12
  -1   5  -1 1260.73   97.70
  -1   5  -1 1658.53  137.58
  -1   5  -1 1604.08  139.89
   1  -5   2    8.55    1.87
   1  -5   2    8.92    1.94
  -1   5  -2    8.42    1.56
  -1   5  -2    7.98    0.78
  -1   5  -2    6.33    0.89
   1  -5   3  579.98   38.26
   1  -5   3  569.77   39.72
   1  -5   3  551.84   35.15
   1  -5   3  559.02   39.84
  -1   5  -3  543.30   37.54
  -1   5  -3  583.24   36.35
  -1   5  -3  589.12   44.86
   1  -5   4   41.67    3.59
   1  -5   4   44.55    4.00
   1  -5   4   40.10    3.33
   1  -5   4   47.63    6.66
  -1   5  -4   50.08    3.43
  -1   5  -4   32.14    2.52
  -1   5  -4   34.80    4.30
  -1   5  -4   46.54    3.35
  -1   5  -4   47.90    3.89
   1  -5   5  109.44    6.92
   1  -5   5  111.90   10.35
   1  -5   5   95.17    9.03
   1  -5   5  113.38    8.13
  -1   5  -5  114.13    6.72
  -1   5  -5  104.68    6.19
  -1   5  -5  102.90    6.60
  -1   5  -5  116.22    7.30
   1  -5   6    7.19    1.36
   1  -5   6    3.98    1.57
   1  -5   6    4.98    1.46
   1  -5   6    4.77    1.49
   1  -5   6    5.18    1.92
  -1   5  -6    5.70    1.30
  -1   5  -6    5.86    2.05
  -1   5  -6    3.97    1.46
  -1   5  -6    5.82    2.62
   1  -5   7  189.17   12.04
   1  -5   7  191.32   17.14
   1  -5   7  198.97   13.34
   1  -5   7  195.44   13.52
   1  -5   7  221.33   15.39
  -1   5  -7  233.41   17.44
  -1   5  -7  222.74   16.53
  -1   5  -7  186.65   13.68
  -1   5  -7  222.27   14.17
   1  -5   8  132.87    8.85
   1  -5   8  124.81    9.08
   1  -5   8  134.57   13.40
   1  -5   8  138.09   10.42
   1  -5   8  166.64   11.98
  -1   5  -8  148.78    9.57
  -1   5  -8  147.31    9.84
  -1   5  -8  132.29   10.91
  -1   5  -8  156.77   10.66
   1  -5   9    1.01    0.99
   1  -5   9    1.76    1.47
   1  -5   9    1.16    1.46
  -1   5  -9    1.66    1.84
  -1   5  -9    1.52    1.35
  -1   5  -9    4.59    1.66
  -1   5  -9    3.65    2.44
   1  -5  10    4.41    2.07
  -1   5 -10    4.57    1.95
  -1   5 -10    7.15    2.21
   1  -5  11   12.79    3.35
  -1   5 -11   18.95    3.27
  -1   5 -11   17.18    3.51
   1  -5  12    2.43    2.67
  -1   5 -12    0.65    1.65
  -1   5 -12    1.13    1.77
   1  -5  13    4.72    4.66
  -1   5 -13   10.39    5.66
  -1   5 -13   10.94    5.64
   1  -5  14    3.43    2.54
  -1   5 -14    6.07    2.92
  -1   5 -14    6.09    2.97
   1  -5  15   -0.38    1.42
  -1   5 -15   -0.79    1.64
  -1   5 -15    0.91    1.62
   1  -5  16    4.32    2.99
  -1   5 -16    5.47    3.45
  -1   5 -16   15.39    3.62
   1  -5  17    1.94    2.76
  -1   5 -17    0.11    1.85
  -1   5 -17    0.51    3.18
  -1   5 -18   10.87    5.76
  -1   5 -18    8.40    3.35
   1  -5  19    0.49    1.87
  -1   5 -19    5.42    2.26
  -1   4  17   -1.00    0.88
  -1   4  17    8.27    2.17
  -1   4  16    2.22    2.90
  -1   4  16   38.92    3.86
  -1   4  15    2.09    1.90
  -1   4  15    2.72    2.25
  -1   4  14    6.22    5.05
  -1   4  14   12.06    3.74
  -1   4  13   18.14    4.96
  -1   4  13   36.35    6.00
   1  -4 -12   79.65   12.06
  -1   4  12   50.55    8.28
  -1   4  12   80.06   10.10
   1  -4 -11   96.64    8.92
  -1   4  11   64.20    9.06
  -1   4  11   92.20   11.20
   1  -4 -10   61.32    6.31
  -1   4  10   38.62    6.11
  -1   4  10   52.18    7.44
   1  -4  -9    0.32    1.29
  -1   4   9    0.31    1.26
  -1   4   9    1.27    1.53
   1  -4  -8   38.50    4.02
   1  -4  -8   44.38    5.34
   1  -4  -8   27.84    3.46
  -1   4   8   22.19    3.84
  -1   4   8   25.98    4.38
  -1   4   8   24.48    3.82
  -1   4   8   33.51    4.58
   1  -4  -7    1.83    1.28
   1  -4  -7    1.61    1.09
   1  -4  -7    1.38    1.67
  -1   4   7    1.21    0.81
  -1   4   7    1.75    2.35
  -1   4   7    0.21    1.15
  -1   4   7    0.49    1.44
  -1   4   7    1.14    1.37
   1  -4  -6    2.52    1.37
   1  -4  -6    2.84    1.15
   1  -4  -6    1.49    1.04
  -1   4   6    1.85    0.91
  -1   4   6    2.42    1.59
  -1   4   6    1.91    1.18
  -1   4   6    2.34    1.47
  -1   4   6    2.87    1.49
   1  -4  -5    7.20    1.08
   1  -4  -5    7.80    1.71
   1  -4  -5    8.54    2.47
   1  -4  -5    5.79    1.28
  -1   4   5    4.87    1.17
  -1   4   5    5.99    2.05
  -1   4   5    4.81    1.38
  -1   4   5    6.31    1.84
  -1   4   5    7.38    1.82
   1  -4  -4    3.03    1.16
   1  -4  -4    3.91    1.31
   1  -4  -4    4.34    0.98
   1  -4  -4    2.46    1.45
  -1   4   4    2.06    0.93
  -1   4   4    2.80    2.37
  -1   4   4    2.65    0.56
  -1   4   4    1.85    1.64
  -1   4   4    3.34    1.36
  -1   4   4    3.34    1.40
   1  -4  -3   31.59    1.73
   1  -4  -3   34.12    3.12
   1  -4  -3   36.55    2.46
   1  -4  -3   31.90    2.28
  -1   4   3   32.17    2.48
  -1   4   3   29.69    3.51
  -1   4   3   25.59    1.81
  -1   4   3   31.79    2.44
  -1   4   3   31.55    3.19
  -1   4   3   34.40    3.30
   1  -4  -2   64.40    3.39
   1  -4  -2   71.22    4.79
   1  -4  -2   78.52    3.99
   1  -4  -2   67.20    4.87
  -1   4   2   65.46    4.08
  -1   4   2   74.44    5.78
  -1   4   2   65.74    2.29
  -1   4   2   66.64    3.92
  -1   4   2   68.98    7.29
  -1   4   2   69.45    7.53
   1  -4  -1  690.66   40.64
   1  -4  -1  727.70   54.07
   1  -4  -1  750.89   45.72
   1  -4  -1  701.66   42.71
  -1   4   1  665.90   42.38
  -1   4   1  699.57   49.37
  -1   4   1  626.23   35.11
  -1   4   1  680.37   44.60
  -1   4   1  665.17   45.53
  -1   4   1  673.86   46.30
   1  -4   0   45.48    1.85
   1  -4   0   47.10    3.80
   1  -4   0   46.13    2.88
  -1   4   0   47.93    4.54
  -1   4   0   40.31    1.87
  -1   4   0   43.72    2.66
  -1   4   0   46.22    3.91
  -1   4   0   43.21    3.81
   1  -4   1 1689.14  148.83
   1  -4   1 1755.81  156.77
   1  -4   1 1734.38  146.82
   1  -4   1 1770.27  157.08
  -1   4  -1 1816.10  157.97
  -1   4  -1 1566.11  130.89
  -1   4  -1 1771.45  151.48
  -1   4  -1 1670.57  153.24
   1  -4   2   43.40    3.35
   1  -4   2   40.62    5.25
   1  -4   2   42.53    2.62
  -1   4  -2   47.81    2.89
  -1   4  -2   39.30    2.48
   1  -4   3  354.41   19.74
   1  -4   3  346.64   21.08
   1  -4   3  324.21   20.04
   1  -4   3  347.55   24.77
  -1   4  -3  358.86   18.51
  -1   4  -3  292.94   18.71
  -1   4  -3  347.74   19.48
  -1   4  -3  388.04   19.69
  -1   4  -3  347.08   23.94
   1  -4   4   11.98    1.42
   1  -4   4    9.12    1.69
   1  -4   4    8.26    1.27
   1  -4   4    7.53    1.81
  -1   4  -4    7.77    1.78
  -1   4  -4    7.36    1.34
  -1   4  -4    8.29    1.38
  -1   4  -4   12.04    1.60
   1  -4   5  589.83   37.58
   1  -4   5  606.20   41.58
   1  -4   5  627.00   39.79
   1  -4   5  548.00   36.27
   1  -4   5  604.99   41.73
  -1   4  -5  675.93   41.23
  -1   4  -5  638.47   40.16
  -1   4  -5  592.44   39.85
  -1   4  -5  585.04   38.08
  -1   4  -5  635.24   41.07
   1  -4   6  478.18   30.09
   1  -4   6  516.17   34.98
   1  -4   6  533.75   34.30
   1  -4   6  495.98   36.33
   1  -4   6  558.38   42.85
  -1   4  -6  542.58   32.41
  -1   4  -6  558.79   35.84
  -1   4  -6  526.90   40.92
  -1   4  -6  471.09   30.57
  -1   4  -6  565.79   35.86
   1  -4   7  433.64   25.70
   1  -4   7  410.57   27.10
   1  -4   7  403.18   30.97
   1  -4   7  398.35   30.54
   1  -4   7  427.64   33.80
  -1   4  -7  479.62   28.43
  -1   4  -7  475.03   30.60
  -1   4  -7  369.90   29.99
  -1   4  -7  477.49   30.49
   1  -4   8  858.84   62.72
   1  -4   8  873.77   68.11
   1  -4   8  910.59   72.81
   1  -4   8  911.14   72.05
   1  -4   8  952.83   75.92
  -1   4  -8  942.37   69.08
  -1   4  -8 1017.38   86.51
  -1   4  -8  783.34   72.02
  -1   4  -8  739.38   65.41
  -1   4  -8 1053.68   81.02
   1  -4   9  273.74   18.54
   1  -4   9  343.58   24.39
   1  -4   9  314.36   22.54
   1  -4   9  356.09   24.66
  -1   4  -9  393.55   25.70
  -1   4  -9  285.71   27.13
  -1   4  -9  252.69   22.99
  -1   4  -9  412.57   26.99
   1  -4  10  108.91    9.61
   1  -4  10  107.50    9.28
  -1   4 -10  121.52    9.74
  -1   4 -10  119.56    9.86
   1  -4  11    0.24    2.32
  -1   4 -11    0.89    1.48
  -1   4 -11    1.16    1.48
   1  -4  12   75.31   12.58
  -1   4 -12   97.13    9.29
  -1   4 -12   91.03   12.84
   1  -4  13    2.13    2.16
  -1   4 -13    4.48    3.51
  -1   4 -13    3.82    2.42
   1  -4  14    1.73    1.99
  -1   4 -14    3.54    4.06
  -1   4 -14    1.34    2.23
   1  -4  15    1.12    1.61
  -1   4 -15    0.09    1.89
  -1   4 -15   -0.30    1.79
   1  -4  16    3.56    3.80
  -1   4 -16    1.79    2.57
  -1   4 -16    2.03    4.23
   1  -4  17    1.97    1.65
  -1   4 -17   -1.08    1.86
  -1   4 -17   -0.07    1.83
   1  -4  18    2.79    2.10
  -1   4 -18    3.30    3.78
  -1   4 -18    1.74    2.29
   1  -4  19    1.64    1.99
  -1   4 -19    4.95    2.43
  -1   4 -19    3.44    3.62
  -1   3  18    2.70    1.23
  -1   3  18    1.91    1.82
  -1   3  17   -0.16    2.14
  -1   3  17    1.01    1.57
  -1   3  16    0.30    1.56
  -1   3  16    1.42    1.85
  -1   3  15   -1.79    1.56
  -1   3  15    2.91    1.77
  -1   3  14    2.34    2.24
  -1   3  13   18.36    4.43
   1  -3 -12    2.30    1.99
  -1   3  12   -0.06    1.71
   1  -3 -11    7.72    2.48
   1  -3 -11    6.13    2.08
   1  -3 -11    8.27    2.99
  -1   3  11    4.01    4.00
   1  -3 -10    0.56    1.23
   1  -3 -10   -0.09    1.06
   1  -3 -10    0.64    1.50
  -1   3  10    1.53    2.01
   1  -3  -9    5.53    1.69
   1  -3  -9    5.08    1.58
   1  -3  -9    6.16    1.62
   1  -3  -9    3.30    1.52
   1  -3  -9    5.38    2.12
  -1   3   9    2.67    0.98
  -1   3   9    2.15    2.60
  -1   3   9    2.92    2.75
   1  -3  -8  210.61   13.71
   1  -3  -8  226.70   14.25
   1  -3  -8  258.15   17.41
   1  -3  -8  183.86   12.62
   1  -3  -8  216.15   16.70
  -1   3   8  171.28   14.42
  -1   3   8  167.63   16.67
  -1   3   8  218.80   14.93
   1  -3  -7  228.94   13.81
   1  -3  -7  243.96   14.55
   1  -3  -7  248.00   13.77
   1  -3  -7  195.26   15.16
   1  -3  -7  235.09   16.61
  -1   3   7  174.97   12.52
  -1   3   7  204.59   15.46
  -1   3   7  189.13   16.36
  -1   3   7  250.88   20.40
   1  -3  -6   64.54    4.37
   1  -3  -6   71.06    4.87
   1  -3  -6   79.38    4.61
   1  -3  -6   62.45    6.28
   1  -3  -6   67.22    6.04
  -1   3   6   53.91    5.42
  -1   3   6   63.65    8.67
  -1   3   6   75.42    4.13
  -1   3   6   55.05    6.65
  -1   3   6   74.22    5.89
   1  -3  -5  480.92   32.70
   1  -3  -5  520.87   33.18
   1  -3  -5  512.01   32.97
   1  -3  -5  474.34   29.46
   1  -3  -5  509.68   35.03
  -1   3   5  507.26   35.57
  -1   3   5  537.31   37.55
  -1   3   5  536.24   30.54
  -1   3   5  477.79   33.87
  -1   3   5  535.71   35.59
   1  -3  -4  103.04    7.00
   1  -3  -4  107.90    6.23
   1  -3  -4  110.71    5.31
   1  -3  -4  105.13    5.40
  -1   3   4  102.76    8.17
  -1   3   4  109.25    8.14
  -1   3   4  116.74    5.84
  -1   3   4  103.34    5.70
  -1   3   4  114.47    9.82
   1  -3  -3    5.73    1.16
   1  -3  -3    5.08    0.85
   1  -3  -3    4.37    1.18
  -1   3   3    4.20    1.78
  -1   3   3    3.83    2.24
  -1   3   3    4.73    0.56
  -1   3   3    3.68    0.80
  -1   3   3    4.70    1.26
  -1   3   3    4.75    1.29
   1  -3  -2  195.52   10.15
   1  -3  -2  186.65    9.83
   1  -3  -2  208.66    9.34
   1  -3  -2  199.73    8.51
  -1   3   2  184.04   10.74
  -1   3   2  195.55   11.48
  -1   3   2  207.78    8.45
  -1   3   2  191.72    9.93
  -1   3   2  191.69   10.34
  -1   3   2  203.42   13.63
   1  -3  -1  100.43    5.46
   1  -3  -1  102.79    7.86
   1  -3  -1  100.95    4.55
   1  -3  -1  100.05    4.01
  -1   3   1   90.26    4.56
  -1   3   1  105.47    6.34
  -1   3   1   93.39    4.85
  -1   3   1   95.35    5.11
  -1   3   1   95.04    7.47
  -1   3   1   99.39    5.59
   1  -3   0  906.81   56.28
   1  -3   0  856.69   58.34
   1  -3   0  872.29   53.16
  -1   3   0  842.15   54.12
  -1   3   0  823.61   51.91
  -1   3   0  925.08   56.09
  -1   3   0  853.82   57.50
   1  -3   1    3.55    0.93
   1  -3   1    4.60    1.09
   1  -3   1    4.01    0.57
  -1   3  -1    4.58    0.79
  -1   3  -1    4.28    0.75
  -1   3  -1    4.78    0.98
  -1   3  -1    4.99    0.56
   1  -3   2   19.57    1.50
   1  -3   2   19.05    1.87
   1  -3   2   14.07    1.92
   1  -3   2   14.18    1.63
   1  -3   2   14.58    1.79
  -1   3  -2   17.12    1.96
  -1   3  -2   14.39    2.31
  -1   3  -2   14.95    1.55
  -1   3  -2   15.09    1.65
   1  -3   3  282.19   14.04
   1  -3   3  291.09   13.33
   1  -3   3  285.14   15.88
   1  -3   3  272.80   13.14
   1  -3   3  284.04   15.23
  -1   3  -3  293.65   13.52
  -1   3  -3  266.49   14.30
  -1   3  -3  285.64   18.02
  -1   3  -3  274.48   16.78
   1  -3   4 1077.49   81.05
   1  -3   4 1316.87   95.97
   1  -3   4 1198.66   94.65
   1  -3   4 1224.13   91.07
   1  -3   4 1163.84   87.17
   1  -3   4 1236.71  101.35
  -1   3  -4 1217.15   90.03
  -1   3  -4 1266.64   97.88
  -1   3  -4 1206.08   93.12
  -1   3  -4 1274.22   96.17
   1  -3   5   26.97    1.66
   1  -3   5   23.79    2.43
   1  -3   5   23.45    2.11
   1  -3   5   21.87    2.03
   1  -3   5   24.79    2.42
  -1   3  -5   26.79    1.67
  -1   3  -5   31.23    3.56
  -1   3  -5   22.14    2.13
  -1   3  -5   25.81    3.53
   1  -3   6  133.07    6.20
   1  -3   6  144.82    8.56
   1  -3   6  151.32   10.84
   1  -3   6  128.24    7.69
   1  -3   6  142.20    8.37
  -1   3  -6  139.33    7.51
  -1   3  -6  170.48    9.08
  -1   3  -6  130.89    8.11
  -1   3  -6  127.80    7.79
  -1   3  -6  158.04    8.43
   1  -3   7   45.87    2.46
   1  -3   7   48.14    3.90
   1  -3   7   47.31    3.88
   1  -3   7   50.96    3.88
   1  -3   7   50.15    4.10
  -1   3  -7   50.60    2.74
  -1   3  -7   52.90    4.34
  -1   3  -7   42.50    4.00
  -1   3  -7   44.40    3.51
  -1   3  -7   52.99    3.92
   1  -3   8   54.61    2.84
   1  -3   8   61.33    5.08
   1  -3   8   52.96    6.97
   1  -3   8   60.46    5.08
  -1   3  -8   64.52    3.50
  -1   3  -8   71.04    5.51
  -1   3  -8   49.37    4.98
  -1   3  -8   67.85    5.04
   1  -3   9   74.46    6.97
   1  -3   9   73.64    9.26
   1  -3   9   83.39    6.91
  -1   3  -9   98.47   10.40
  -1   3  -9   69.83    6.81
  -1   3  -9   85.19    6.82
   1  -3  10   74.84   10.30
   1  -3  10   71.27    7.19
   1  -3  10   79.64    7.35
  -1   3 -10   94.67    7.71
  -1   3 -10   74.34    7.62
  -1   3 -10   85.13    7.33
   1  -3  11   77.91    7.88
  -1   3 -11   90.46    8.29
  -1   3 -11   86.79   11.17
   1  -3  12   61.29    7.62
  -1   3 -12   76.20    7.77
  -1   3 -12   79.61    8.51
   1  -3  13   -1.14    1.56
  -1   3 -13    2.76    1.64
  -1   3 -13    0.20    1.71
   1  -3  14    2.66    2.16
  -1   3 -14    4.78    4.50
  -1   3 -14    1.86    2.34
   1  -3  15    2.04    3.86
  -1   3 -15    4.41    2.78
  -1   3 -15    1.73    4.12
   1  -3  16    0.13    1.75
  -1   3 -16   -0.16    1.92
  -1   3 -16    1.18    1.85
   1  -3  17    1.26    2.09
  -1   3 -17    1.02    2.26
  -1   3 -17    1.83    2.16
   1  -3  18    2.25    1.74
  -1   3 -18   -0.21    3.08
  -1   3 -18   -0.55    1.80
   1  -3  19    1.80    2.76
  -1   3 -19    0.46    1.99
  -1   3 -19    2.00    2.87
  -1   2  19   -0.55    1.26
  -1   2  18    1.30    2.17
  -1   2  18    0.65    1.63
   1  -2 -17    1.39    1.73
  -1   2  17    1.24    1.73
  -1   2  17    1.50    2.01
   1  -2 -16    5.77    5.08
  -1   2  16    6.72    2.91
   1  -2 -15   26.53    7.55
   1  -2 -15   24.21    5.48
  -1   2  15   15.69    4.65
   1  -2 -14    2.28    2.09
   1  -2 -14    1.33    2.26
  -1   2  14   -0.78    3.25
   1  -2 -13    2.90    2.30
   1  -2 -13    2.89    2.51
  -1   2  13    2.26    2.14
   1  -2 -12    0.36    1.58
   1  -2 -12    1.29    1.73
  -1   2  12    0.07    1.46
   1  -2 -11   14.60    3.13
   1  -2 -11   11.59    3.37
  -1   2  11    8.20    2.82
   1  -2 -10   11.51    2.49
   1  -2 -10    8.53    1.72
   1  -2 -10    7.00    1.73
   1  -2 -10   10.23    2.78
  -1   2  10    6.19    2.27
   1  -2  -9   71.43    6.19
   1  -2  -9   73.89    5.06
   1  -2  -9   73.72    5.17
   1  -2  -9   58.73    5.53
   1  -2  -9   68.52    7.12
  -1   2   9   58.36    6.04
  -1   2   9   75.44    6.24
   1  -2  -8   14.62    2.27
   1  -2  -8   12.35    1.68
   1  -2  -8   12.02    2.69
   1  -2  -8    8.83    1.88
   1  -2  -8   12.06    2.51
  -1   2   8    8.91    3.38
  -1   2   8    9.35    2.04
  -1   2   8   11.50    2.17
   1  -2  -7 1000.41   78.75
   1  -2  -7  976.08   73.55
   1  -2  -7  976.07   71.62
   1  -2  -7  908.17   70.01
   1  -2  -7  990.73   80.80
  -1   2   7  931.43   76.38
  -1   2   7 1079.86   80.32
  -1   2   7  895.53   71.25
  -1   2   7 1003.70   77.66
   1  -2  -6   18.94    2.21
   1  -2  -6   19.44    1.64
   1  -2  -6   17.10    1.91
   1  -2  -6   17.96    2.60
  -1   2   6   12.60    1.78
  -1   2   6   17.34    2.50
  -1   2   6   14.37    1.96
  -1   2   6   19.66    2.54
   1  -2  -5  126.77    6.93
   1  -2  -5  125.92    6.39
   1  -2  -5  125.41    6.82
   1  -2  -5  120.44    7.65
   1  -2  -5  123.58    7.71
  -1   2   5  109.75    6.45
  -1   2   5  125.18   11.08
  -1   2   5  143.65    7.91
  -1   2   5  121.21    6.64
  -1   2   5  137.61    7.90
   1  -2  -4   71.08    3.86
   1  -2  -4   74.72    3.76
   1  -2  -4   71.44    3.07
   1  -2  -4   74.14    3.48
   1  -2  -4   71.20    4.52
  -1   2   4   62.04    3.79
  -1   2   4   72.32    5.18
  -1   2   4   72.92    3.18
  -1   2   4   72.45    3.64
  -1   2   4   75.43    6.23
   1  -2  -3  548.88   34.78
   1  -2  -3  572.79   33.27
   1  -2  -3  598.60   34.73
   1  -2  -3  593.00   32.05
   1  -2  -3  560.28   34.48
  -1   2   3  523.73   31.72
  -1   2   3  611.35   39.30
  -1   2   3  641.13   37.94
  -1   2   3  592.16   32.62
  -1   2   3  605.36   36.55
   1  -2  -2  198.31    9.12
   1  -2  -2  198.89    9.18
   1  -2  -2  213.51    8.74
   1  -2  -2  191.62    8.38
  -1   2   2  200.22    9.61
  -1   2   2  209.88   13.77
  -1   2   2  199.03    8.52
  -1   2   2  220.74    8.52
  -1   2   2  216.96   10.26
   1  -2  -1   13.26    1.18
   1  -2  -1   13.34    1.38
   1  -2  -1   12.81    0.83
  -1   2   1   13.53    1.26
  -1   2   1   13.24    1.62
  -1   2   1   12.43    1.07
  -1   2   1   13.48    0.93
  -1   2   1   14.11    1.31
  -1   2   1   13.79    1.36
   1  -2   0  117.41    6.39
   1  -2   0  116.99    5.65
   1  -2   0  129.20    4.28
   1  -2   0  120.35    5.52
  -1   2   0  136.02    5.74
  -1   2   0  130.09    6.47
  -1   2   0  114.54    5.05
  -1   2   0  126.39    5.57
  -1   2   0  125.55    4.24
  -1   2   0  124.36    5.48
   1  -2   1    6.99    1.65
   1  -2   1    5.74    1.21
   1  -2   1    6.01    0.65
  -1   2  -1    5.44    1.14
  -1   2  -1    6.25    0.97
  -1   2  -1    8.08    1.08
   1  -2   2 5234.95  678.74
   1  -2   2 4880.10  645.33
   1  -2   2 4854.90  615.84
   1  -2   2 4277.45  545.95
   1  -2   2 5041.97  657.27
  -1   2  -2 5222.62  666.15
  -1   2  -2 4846.24  636.71
  -1   2  -2 4531.08  598.89
  -1   2  -2 5243.80  678.52
   1  -2   3 4129.93  518.35
   1  -2   3 4473.37  570.48
   1  -2   3 4508.27  583.82
   1  -2   3 4538.02  567.49
   1  -2   3 4169.29  530.74
   1  -2   3 4684.77  594.26
  -1   2  -3 5017.17  618.86
  -1   2  -3 4721.86  609.04
  -1   2  -3 4473.93  590.64
  -1   2  -3 4769.20  603.33
   1  -2   4 3888.50  477.07
   1  -2   4 4747.86  590.12
   1  -2   4 4523.90  586.31
   1  -2   4 4771.95  597.89
   1  -2   4 3771.57  476.23
   1  -2   4 4432.42  557.89
  -1   2  -4 4492.16  542.68
  -1   2  -4 3931.41  510.57
  -1   2  -4 4068.48  524.54
  -1   2  -4 4617.54  583.02
   1  -2   5 1828.08  163.98
   1  -2   5 2197.10  209.20
   1  -2   5 2072.58  196.07
   1  -2   5 1908.70  182.41
   1  -2   5 2120.17  201.53
  -1   2  -5 2306.81  203.26
  -1   2  -5 1949.27  189.13
  -1   2  -5 2076.41  200.67
  -1   2  -5 2262.29  211.44
   1  -2   6   93.84    3.37
   1  -2   6  103.23    8.46
   1  -2   6   91.76    5.75
   1  -2   6   87.50    5.54
   1  -2   6   93.58    7.36
  -1   2  -6  110.96    4.63
  -1   2  -6  121.10    6.41
  -1   2  -6   86.81    5.98
  -1   2  -6   90.17    5.91
  -1   2  -6  105.83    7.61
   1  -2   7  140.51    8.19
   1  -2   7  137.52    8.57
   1  -2   7  129.37    8.18
   1  -2   7  141.03   10.41
  -1   2  -7  145.51    6.12
  -1   2  -7  158.47    9.14
  -1   2  -7  111.86    8.10
  -1   2  -7  135.61    8.58
  -1   2  -7  156.98    8.58
   1  -2   8   41.16    3.59
   1  -2   8   48.67    6.17
   1  -2   8   46.42    4.21
   1  -2   8   50.38    3.76
  -1   2  -8   60.27    4.60
  -1   2  -8   44.59    4.32
  -1   2  -8   45.14    3.92
  -1   2  -8   54.46    4.12
   1  -2   9    1.30    0.87
   1  -2   9    2.93    1.35
   1  -2   9    2.44    1.41
   1  -2   9    2.52    1.24
  -1   2  -9    4.03    2.39
  -1   2  -9    3.33    1.51
  -1   2  -9    2.82    1.24
  -1   2  -9    3.26    1.34
   1  -2  10   27.61    2.78
   1  -2  10   30.54    4.06
   1  -2  10   33.90    4.08
   1  -2  10   35.50    5.55
  -1   2 -10   41.54    4.17
  -1   2 -10   32.94    4.26
  -1   2 -10   25.63    3.49
  -1   2 -10   43.70    6.67
   1  -2  11    0.77    1.48
   1  -2  11    1.40    1.52
  -1   2 -11    2.58    1.55
  -1   2 -11    0.68    1.26
  -1   2 -11    2.23    1.62
   1  -2  12   62.69    7.79
  -1   2 -12   77.78    7.80
  -1   2 -12   75.90    8.13
   1  -2  13   -0.64    2.33
  -1   2 -13   -0.33    1.46
  -1   2 -13    1.41    1.51
   1  -2  14   13.47    6.96
  -1   2 -14   19.52    8.22
  -1   2 -14   21.55    7.25
   1  -2  15   -1.04    1.89
  -1   2 -15    0.37    2.06
  -1   2 -15   -1.54    1.98
   1  -2  16    1.90    2.67
  -1   2 -16    4.41    2.89
  -1   2 -16    4.05    2.67
   1  -2  17   -0.31    2.18
  -1   2 -17    3.40    2.32
  -1   2 -17    2.16    2.20
   1  -2  18    2.68    3.65
  -1   2 -18    1.75    3.87
  -1   2 -18    2.97    3.71
   1  -2  19    0.83    1.95
  -1   2 -19    2.08    2.19
  -1   2 -19    3.07    1.88
   1  -1 -19    3.70    2.09
  -1   1  19    6.01    2.11
  -1   1  19   11.29    2.58
   1  -1 -18    3.39    1.97
  -1   1  18    0.43    1.75
   1  -1 -17    4.47    4.86
   1  -1 -17    6.97    3.08
  -1   1  17    3.23    2.54
   1  -1 -16   20.04    4.69
   1  -1 -16   16.63    5.04
  -1   1  16   10.04    6.74
   1  -1 -15    3.58    2.54
   1  -1 -15    1.93    2.62
  -1   1  15    1.26    2.29
   1  -1 -14    2.26    2.04
   1  -1 -14    1.16    2.06
  -1   1  14   -0.47    1.82
   1  -1 -13    5.84    2.77
   1  -1 -13    4.12    2.80
  -1   1  13    3.48    2.37
   1  -1 -12  103.71   10.27
   1  -1 -12   91.12   15.01
  -1   1  12   76.37    9.09
   1  -1 -11    6.60    3.77
   1  -1 -11    3.03    3.72
  -1   1  11    3.06    3.23
   1  -1 -10   23.61    5.40
   1  -1 -10   24.71    3.95
  -1   1  10   16.55    4.87
  -1   1  10   21.26    4.83
   1  -1  -9   17.77    4.31
   1  -1  -9   16.75    1.65
   1  -1  -9   13.91    1.65
   1  -1  -9   17.81    3.06
  -1   1   9   13.16    3.45
  -1   1   9   15.27    2.51
  -1   1   9   19.27    4.05
   1  -1  -8   57.00    4.90
   1  -1  -8   54.02    4.79
   1  -1  -8   56.59    3.37
   1  -1  -8   59.37    3.53
   1  -1  -8   54.58    5.31
  -1   1   8   70.27    4.93
  -1   1   8   50.14    4.51
  -1   1   8   60.02    4.88
   1  -1  -7  520.25   34.46
   1  -1  -7  474.67   31.86
   1  -1  -7  481.72   28.37
   1  -1  -7  474.73   29.30
   1  -1  -7  498.85   34.43
  -1   1   7  484.01   32.39
  -1   1   7  574.58   35.31
  -1   1   7  485.81   31.47
  -1   1   7  517.40   33.49
   1  -1  -6   57.96    4.39
   1  -1  -6   56.01    5.79
   1  -1  -6   58.97    2.88
   1  -1  -6   63.42    2.78
   1  -1  -6   59.13    3.60
   1  -1  -6   61.41    4.47
  -1   1   6   51.65    6.44
  -1   1   6   70.42    3.87
  -1   1   6   56.77    3.68
  -1   1   6   59.64    3.87
   1  -1  -5   36.97    3.13
   1  -1  -5   40.76    4.33
   1  -1  -5   42.73    2.08
   1  -1  -5   47.66    2.76
   1  -1  -5   47.25    2.56
   1  -1  -5   41.15    3.08
  -1   1   5   38.08    3.36
  -1   1   5   45.79    2.52
  -1   1   5   40.09    2.50
  -1   1   5   42.75    4.58
   1  -1  -4  178.88    9.85
   1  -1  -4  184.23    9.26
   1  -1  -4  174.32    7.30
   1  -1  -4  173.66    6.63
   1  -1  -4  172.60    7.52
   1  -1  -4  182.04    9.12
  -1   1   4  176.43   10.02
  -1   1   4  184.85    8.07
  -1   1   4  167.63    7.51
  -1   1   4  189.75    9.16
   1  -1  -3   45.37    3.07
   1  -1  -3   45.44    2.76
   1  -1  -3   44.77    2.82
   1  -1  -3   49.15    1.74
   1  -1  -3   44.45    1.79
   1  -1  -3   46.17    3.90
  -1   1   3   44.63    4.91
  -1   1   3   51.52    2.62
  -1   1   3   44.51    1.89
  -1   1   3   47.10    2.52
   1  -1  -2 2027.34  195.73
   1  -1  -2 2133.38  205.06
   1  -1  -2 2345.32  214.06
   1  -1  -2 2153.58  188.96
   1  -1  -2 2242.17  207.97
  -1   1   2 2162.00  209.10
  -1   1   2 2202.12  208.54
  -1   1   2 2247.99  196.95
   1  -1  -1   41.63    2.46
   1  -1  -1   40.49    2.27
   1  -1  -1   38.55    2.84
  -1   1   1   42.30    2.70
  -1   1   1   40.29    2.16
  -1   1   1   42.34    2.64
  -1   1   1   42.82    1.89
   1  -1   0 1757.75  143.74
   1  -1   0 1736.30  141.78
   1  -1   0 1714.54  139.77
   1  -1   0 1775.06  139.41
  -1   1   0 1770.30  145.82
  -1   1   0 1693.80  138.41
  -1   1   0 1652.47  133.70
  -1   1   0 1878.63  146.94
   1  -1   1    5.87    0.95
   1  -1   1    6.65    1.00
   1  -1   1    5.58    0.29
   1  -1   1    5.45    0.63
  -1   1  -1    5.49    1.01
  -1   1  -1    5.38    0.99
  -1   1  -1    7.34    0.61
   1  -1   2 3906.47  445.91
   1  -1   2 3741.38  433.08
   1  -1   2 3477.52  391.27
   1  -1   2 3569.14  401.70
  -1   1  -2 3949.00  435.13
  -1   1  -2 3623.77  420.73
  -1   1  -2 3600.90  425.98
  -1   1  -2 3357.48  374.92
  -1   1  -2 3738.10  418.34
   1  -1   3    5.86    1.82
   1  -1   3    5.69    1.12
   1  -1   3    5.14    1.26
   1  -1   3    7.65    1.35
  -1   1  -3    6.30    0.50
  -1   1  -3    6.12    1.24
  -1   1  -3    4.93    1.17
  -1   1  -3    5.69    0.76
  -1   1  -3    4.90    0.74
   1  -1   4 1637.11  129.09
   1  -1   4 1609.60  132.26
   1  -1   4 1515.16  125.85
   1  -1   4 1508.52  119.08
  -1   1  -4 1489.23  106.44
  -1   1  -4 1392.26  114.82
  -1   1  -4 1433.87  120.56
  -1   1  -4 1481.53  118.85
  -1   1  -4 1575.90  123.86
   1  -1   5   31.50    2.12
   1  -1   5   26.78    2.16
   1  -1   5   26.22    2.12
   1  -1   5   28.63    1.91
  -1   1  -5   27.00    2.34
  -1   1  -5   26.28    2.45
  -1   1  -5   28.71    2.17
  -1   1  -5   29.13    1.96
   1  -1   6  108.34    6.09
   1  -1   6   90.62    5.65
   1  -1   6   93.82    5.08
  -1   1  -6  126.57    6.37
  -1   1  -6   83.00    5.64
  -1   1  -6   95.04    6.14
  -1   1  -6  106.81    5.95
  -1   1  -6  106.47    5.58
   1  -1   7  541.49   36.47
   1  -1   7  433.36   28.36
   1  -1   7  451.82   27.35
  -1   1  -7  525.00   31.85
  -1   1  -7  343.41   24.43
  -1   1  -7  447.78   29.77
  -1   1  -7  479.66   30.15
  -1   1  -7  477.94   28.98
   1  -1   8    5.51    1.13
   1  -1   8    3.88    1.56
   1  -1   8    4.91    1.32
  -1   1  -8    5.43    1.56
  -1   1  -8    6.18    1.52
  -1   1  -8    7.10    2.52
   1  -1   9   39.94    3.23
   1  -1   9   34.16    4.11
   1  -1   9   38.47    3.51
  -1   1  -9   44.80    6.12
  -1   1  -9   34.16    3.80
  -1   1  -9   42.75    4.19
   1  -1  10    3.78    2.11
   1  -1  10    4.13    1.95
   1  -1  10    5.67    2.03
   1  -1  10    6.24    1.67
  -1   1 -10    8.49    1.86
  -1   1 -10    4.26    1.77
  -1   1 -10    5.06    1.93
   1  -1  11    5.22    1.30
   1  -1  11    7.03    3.64
  -1   1 -11    9.74    2.16
  -1   1 -11    4.57    3.30
  -1   1 -11    8.49    2.28
   1  -1  12    9.68    4.88
  -1   1 -12   10.23    2.72
  -1   1 -12    7.81    4.53
   1  -1  13    2.21    2.08
  -1   1 -13    2.28    2.90
  -1   1 -13    1.28    2.02
   1  -1  14   10.69    3.82
  -1   1 -14   16.83    6.71
  -1   1 -14   12.32    3.78
   1  -1  15    4.60    3.27
  -1   1 -15    9.44    3.40
  -1   1 -15    6.81    3.26
   1  -1  16    1.25    2.08
  -1   1 -16    1.86    2.10
  -1   1 -16    0.01    2.01
   1  -1  17    3.06    3.79
  -1   1 -17    2.89    2.31
  -1   1 -17   -1.03    3.71
   1  -1  18    8.52    3.19
  -1   1 -18   12.55    5.52
  -1   1 -18    6.20    3.03
   1  -1  19    0.24    1.68
  -1   1 -19    2.07    1.67
  -1   1 -19    0.78    1.47
   1   0 -19    0.61    1.32
  -1   0  19   -0.54    1.11
   1   0 -18    6.62    5.70
   1   0 -18    7.70    3.29
  -1   0  18    4.99    4.47
   1   0 -17   23.76    5.12
   1   0 -17   20.69    5.06
  -1   0  17   10.98    4.34
   1   0 -16   15.30    4.54
   1   0 -16   13.40    4.41
  -1   0  16    8.29    3.92
   1   0 -15   38.74    6.46
   1   0 -15   27.29    9.90
  -1   0  15   21.38    5.74
   1   0 -14    4.73    2.96
   1   0 -14    4.19    4.56
  -1   0  14    1.47    4.25
   1   0 -13    8.31    5.24
   1   0 -13    6.35    3.15
  -1   0  13    5.29    4.19
   1   0 -12   48.93    8.83
   1   0 -12   41.21    6.26
  -1   0  12   37.09    5.39
   1   0 -11    3.96    3.15
   1   0 -11    3.52    1.98
  -1   0  11    1.96    1.67
   1   0 -10  263.04   18.87
   1   0 -10  252.97   19.00
  -1   0  10  222.70   16.77
  -1   0  10  253.71   16.84
   1   0  -9   98.32    7.93
   1   0  -9  128.73    9.29
   1   0  -9  125.85    9.68
  -1   0   9  118.37    8.55
  -1   0   9  129.05    8.20
   1   0  -8  144.80   12.72
   1   0  -8  134.55    9.16
   1   0  -8  113.95    5.14
   1   0  -8  128.00    5.79
   1   0  -8  150.22    9.72
  -1   0   8  111.22    9.22
  -1   0   8  162.59    9.34
  -1   0   8  137.63   11.25
  -1   0   8  140.27   10.85
   1   0  -7  460.39   29.86
   1   0  -7  376.80   25.14
   1   0  -7  368.21   18.99
   1   0  -7  394.00   21.12
   1   0  -7  446.11   32.16
  -1   0   7  453.50   31.47
  -1   0   7  464.32   27.43
  -1   0   7  418.99   25.79
  -1   0   7  423.15   28.90
   1   0  -6   28.99    2.89
   1   0  -6   26.38    2.64
   1   0  -6   26.52    1.15
   1   0  -6   30.69    1.27
   1   0  -6   29.26    4.02
  -1   0   6   25.99    2.52
  -1   0   6   31.92    3.62
  -1   0   6   27.92    2.24
  -1   0   6   28.86    2.29
   1   0  -5   40.88    3.28
   1   0  -5   39.36    2.88
   1   0  -5   38.91    1.78
   1   0  -5   41.55    1.29
   1   0  -5   40.84    4.12
  -1   0   5   38.45    2.95
  -1   0   5   47.00    2.54
  -1   0   5   42.72    2.48
  -1   0   5   38.24    2.36
   1   0  -4  137.74   10.05
   1   0  -4  125.91    8.46
   1   0  -4  134.18    5.07
   1   0  -4  131.25    4.33
   1   0  -4  139.66    8.08
  -1   0   4  134.91    7.15
  -1   0   4  142.02    6.18
  -1   0   4  146.27    7.30
  -1   0   4  125.91    5.65
   1   0  -3  401.78   26.74
   1   0  -3  400.54   21.79
   1   0  -3  397.72   18.37
   1   0  -3  404.92   16.97
   1   0  -3  436.18   21.63
  -1   0   3  384.23   21.70
  -1   0   3  456.73   23.36
  -1   0   3  461.42   21.60
  -1   0   3  374.31   20.08
   1   0  -2  274.43   13.67
   1   0  -2  243.71   11.86
   1   0  -2  231.40   10.18
   1   0  -2  271.69   10.62
   1   0  -2  261.41   10.74
  -1   0   2  232.94   14.40
  -1   0   2  240.91   11.41
  -1   0   2  293.78   11.60
  -1   0   2  263.85   10.74
   1   0  -1 2790.80  292.46
   1   0  -1 3103.15  318.54
   1   0  -1 2978.09  298.16
   1   0  -1 2695.83  265.30
   1   0  -1 2903.50  284.87
  -1   0   1 2729.74  288.37
  -1   0   1 3032.39  310.10
  -1   0   1 2924.31  292.78
  -1   0   1 3057.12  301.26
  -1   0   1 2926.67  288.69
   1   0   0   55.74    2.56
   1   0   0   57.00    2.75
   1   0   0   52.89    2.22
   1   0   0   54.07    1.64
  -1   0   0   52.73    2.21
  -1   0   0   52.94    2.54
  -1   0   0   56.63    2.24
  -1   0   0   57.62    1.67
  -1   0   0   56.55    1.58
   1   0   1   36.88    2.30
   1   0   1   33.49    1.98
   1   0   1   34.46    1.92
   1   0   1   32.17    1.97
   1   0   1   30.55    1.13
  -1   0  -1   33.16    1.43
  -1   0  -1   30.52    1.91
  -1   0  -1   30.40    3.10
  -1   0  -1   32.65    1.76
  -1   0  -1   33.56    1.11
   1   0   2 7654.30 1312.99
   1   0   2 9999.00 1738.55
   1   0   2 9183.67 1604.15
   1   0   2 9533.57 1654.60
   1   0   2 9362.49 1596.03
  -1   0  -2 8679.08 1475.41
  -1   0  -2 9757.73 1706.79
  -1   0  -2 8734.79 1536.71
  -1   0  -2 9755.86 1692.58
  -1   0  -2 9424.06 1613.75
   1   0   3  109.40    5.99
   1   0   3  112.38    5.64
   1   0   3  111.50    7.07
   1   0   3  110.98    5.22
  -1   0  -3  114.80    5.61
  -1   0  -3  100.52    5.63
  -1   0  -3  122.29    5.45
  -1   0  -3  110.82    4.30
   1   0   4 2636.30  252.40
   1   0   4 2617.54  258.17
   1   0   4 2255.19  228.70
   1   0   4 2196.24  213.62
  -1   0  -4 2193.08  222.24
  -1   0  -4 2550.38  249.61
  -1   0  -4 2351.89  229.73
   1   0   5   50.16    4.29
   1   0   5   48.23    4.77
   1   0   5   48.04    3.55
  -1   0  -5   47.64    3.56
  -1   0  -5   54.45    3.62
   1   0   6    0.61    1.39
  -1   0  -6    0.72    0.75
  -1   0  -6    0.91    0.90
  -1   0  -6    1.03    1.42
  -1   0  -6    1.10    0.75
   1   0   7   26.87    2.46
   1   0   7   24.08    4.46
   1   0   7   31.07    3.38
  -1   0  -7   31.33    2.70
  -1   0  -7   24.98    4.41
  -1   0  -7   25.43    2.98
  -1   0  -7   31.85    2.76
   1   0   8  344.51   20.12
   1   0   8  297.56   25.77
   1   0   8  279.21   19.82
  -1   0  -8  354.19   24.68
  -1   0  -8  274.43   23.28
  -1   0  -8  299.18   20.07
  -1   0  -8  312.22   20.02
   1   0   9   61.32    5.74
   1   0   9   53.61    8.79
   1   0   9   62.50    6.74
  -1   0  -9   72.49    7.65
  -1   0  -9   58.80    8.27
  -1   0  -9   60.54    5.69
  -1   0  -9   66.09    7.96
   1   0  10   53.63    4.14
   1   0  10   51.79    6.27
   1   0  10   56.96    4.91
  -1   0 -10   66.04    5.31
  -1   0 -10   53.37    5.96
  -1   0 -10   53.46    5.86
  -1   0 -10   59.58    8.59
   1   0  11   50.40    4.25
   1   0  11   52.34    6.74
  -1   0 -11   62.01    5.76
  -1   0 -11   51.03    6.13
  -1   0 -11   60.33    6.54
   1   0  12    4.33    1.40
   1   0  12    4.72    2.50
  -1   0 -12    5.99    2.05
  -1   0 -12    6.10    2.38
   1   0  13    1.49    1.82
   1   0  13    1.01    2.05
  -1   0 -13    4.18    3.34
  -1   0 -13    1.41    1.94
   1   0  14    0.36    2.02
  -1   0 -14    1.00    1.92
  -1   0 -14    1.60    1.88
   1   0  15    5.49    3.23
  -1   0 -15    0.26    1.85
  -1   0 -15   -2.56    3.09
   1   0  16    3.65    5.60
  -1   0 -16    9.23    3.10
  -1   0 -16    5.48    3.13
   1   0  17    5.30    3.02
  -1   0 -17    9.35    4.77
  -1   0 -17    3.96    2.68
   1   0  18    4.04    2.89
  -1   0 -18    6.90    2.58
  -1   0 -18    5.67    2.42
   1   0  19   10.23    2.91
   1   0  19    3.96    2.07
  -1   0 -19    8.86    2.17
   1   1 -20    1.27    1.62
  -1  -1  20    0.68    1.27
   1   1 -19    1.81    3.36
   1   1 -19    1.21    1.80
  -1  -1  19   -0.06    2.60
   1   1 -18    4.93    2.87
   1   1 -18    4.15    2.67
  -1  -1  18    1.83    2.39
   1   1 -17   47.19    7.51
   1   1 -17   35.53    6.90
  -1  -1  17   24.27    6.36
   1   1 -16   33.16    6.54
   1   1 -16   26.52    9.54
  -1  -1  16   18.20    5.38
   1   1 -15  161.44   17.63
   1   1 -15  144.96   16.81
  -1  -1  15  115.31   19.99
   1   1 -14  164.97   16.78
   1   1 -14  141.04   15.59
  -1  -1  14  118.23   13.65
   1   1 -13   36.14    9.42
   1   1 -13   30.45    5.56
  -1  -1  13   22.26    4.65
   1   1 -12    1.38    2.67
   1   1 -12    0.63    1.64
  -1  -1  12    0.54    1.41
   1   1 -11   48.72    5.89
   1   1 -11   46.99    5.91
  -1  -1  11   44.66    7.78
   1   1 -10    5.89    2.12
   1   1 -10    9.08    2.45
   1   1 -10    8.83    3.81
  -1  -1  10    7.75    2.04
  -1  -1  10    8.79    1.88
   1   1  -9    4.08    1.70
   1   1  -9    6.07    1.87
   1   1  -9    5.77    1.68
  -1  -1   9    4.68    1.99
  -1  -1   9    4.40    1.59
  -1  -1   9    4.90    1.41
   1   1  -8   65.33    7.95
   1   1  -8   57.09    5.14
   1   1  -8   66.89    5.12
  -1  -1   8   57.91    4.29
  -1  -1   8   75.64    5.05
  -1  -1   8   64.38    4.91
  -1  -1   8   63.66    4.30
   1   1  -7   19.03    2.67
   1   1  -7   18.78    2.55
   1   1  -7   22.09    2.30
  -1  -1   7   19.76    1.99
  -1  -1   7   24.55    2.30
  -1  -1   7   20.72    3.54
  -1  -1   7   20.56    1.95
   1   1  -6   14.29    2.17
   1   1  -6   14.68    1.93
   1   1  -6   14.71    1.65
  -1  -1   6   13.38    1.56
  -1  -1   6   16.14    1.71
  -1  -1   6   14.98    1.63
  -1  -1   6   13.58    1.40
   1   1  -5   34.55    3.09
   1   1  -5   34.04    2.61
   1   1  -5   34.19    2.22
  -1  -1   5   31.21    2.36
  -1  -1   5   37.81    2.26
  -1  -1   5   35.78    2.30
  -1  -1   5   31.20    1.89
   1   1  -4   54.05    5.57
   1   1  -4   44.79    4.29
   1   1  -4   49.85    2.42
  -1  -1   4   42.09    2.78
  -1  -1   4   54.48    2.60
  -1  -1   4   46.69    2.11
   1   1  -3   37.55    2.76
   1   1  -3   37.13    2.38
   1   1  -3   41.83    2.05
   1   1  -3   39.89    2.39
  -1  -1   3   31.98    2.21
  -1  -1   3   35.59    2.76
  -1  -1   3   35.68    1.43
   1   1  -2  292.39   15.19
   1   1  -2  281.43   13.72
   1   1  -2  264.07   10.33
   1   1  -2  306.76   13.69
   1   1  -2  295.69   12.83
  -1  -1   2  286.99   13.97
  -1  -1   2  308.57   14.03
  -1  -1   2  306.34   11.90
  -1  -1   2  309.04   13.79
  -1  -1   2  302.91   12.54
   1   1  -1 1868.14  169.82
   1   1  -1 2025.31  178.72
   1   1  -1 1678.96  144.23
   1   1  -1 2120.02  183.64
   1   1  -1 1842.32  150.74
  -1  -1   1 2198.76  192.46
  -1  -1   1 2182.24  189.56
  -1  -1   1 2076.10  177.03
  -1  -1   1 2146.58  185.90
  -1  -1   1 2134.48  173.17
   1   1   0  997.59   66.58
   1   1   0 1036.51   67.86
   1   1   0  819.57   54.69
   1   1   0 1001.64   65.14
  -1  -1   0 1147.01   75.30
  -1  -1   0 1066.43   68.93
  -1  -1   0  958.27   64.71
  -1  -1   0 1041.17   67.20
   1   1   1   42.75    3.01
   1   1   1   46.18    2.10
   1   1   1   34.99    1.89
   1   1   1   41.18    3.41
   1   1   1   37.01    1.00
  -1  -1  -1   47.26    1.56
  -1  -1  -1   38.34    2.14
  -1  -1  -1   36.32    2.99
  -1  -1  -1   45.73    2.37
   1   1   2 4608.52  635.86
   1   1   2 6154.24  848.56
   1   1   2 5259.35  735.45
   1   1   2 5740.26  807.07
   1   1   2 5066.22  686.53
  -1  -1  -2 5385.05  725.31
  -1  -1  -2 6577.56  920.02
  -1  -1  -2 4869.65  699.46
  -1  -1  -2 6495.93  914.89
  -1  -1  -2 5371.17  729.27
   1   1   3 1673.03  132.49
   1   1   3 1690.88  135.68
   1   1   3 1615.58  135.45
   1   1   3 1713.05  150.84
   1   1   3 1420.16  115.75
  -1  -1  -3 1827.27  137.38
  -1  -1  -3 1646.08  137.58
  -1  -1  -3 1412.69  127.97
  -1  -1  -3 1687.20  142.89
  -1  -1  -3 1727.93  138.77
   1   1   4  412.75   18.07
   1   1   4  468.90   23.82
   1   1   4  411.33   23.62
   1   1   4  432.67   25.71
   1   1   4  383.85   21.63
  -1  -1  -4  420.22   29.66
  -1  -1  -4  462.64   26.52
  -1  -1  -4  445.29   25.98
   1   1   5  708.70   46.08
   1   1   5  618.94   43.39
   1   1   5  586.03   36.66
  -1  -1  -5  804.10   48.70
  -1  -1  -5  649.44   45.44
  -1  -1  -5  683.14   45.80
  -1  -1  -5  692.99   47.30
   1   1   6  107.30    8.50
   1   1   6   94.29    6.97
   1   1   6   90.68    4.93
  -1  -1  -6  108.74    5.78
  -1  -1  -6   95.14    6.90
  -1  -1  -6  100.04    6.88
  -1  -1  -6   97.72    6.08
   1   1   7  331.00   22.30
   1   1   7  311.54   22.00
   1   1   7  298.43   17.52
  -1  -1  -7  380.88   21.46
  -1  -1  -7  331.35   22.54
  -1  -1  -7  327.75   22.59
  -1  -1  -7  336.62   21.38
   1   1   8   23.49    2.32
   1   1   8   22.14    3.42
   1   1   8   22.20    2.31
  -1  -1  -8   28.65    3.98
  -1  -1  -8   22.90    3.24
  -1  -1  -8   22.94    5.10
  -1  -1  -8   22.30    2.86
   1   1   9  114.46    7.14
   1   1   9   98.77    9.06
   1   1   9  101.60    6.83
  -1  -1  -9  118.90    7.50
  -1  -1  -9  101.73    8.65
  -1  -1  -9  101.92    8.73
  -1  -1  -9  103.44    8.38
   1   1  10    1.25    0.98
   1   1  10    1.42    1.59
   1   1  10    2.60    1.71
  -1  -1 -10    0.89    1.15
  -1  -1 -10    2.16    2.34
  -1  -1 -10    0.11    1.38
   1   1  11   53.83    6.44
   1   1  11   47.07    6.72
  -1  -1 -11   51.69    5.02
  -1  -1 -11   51.03    6.26
   1   1  12    5.22    2.94
   1   1  12    8.26    3.00
  -1  -1 -12   10.94    4.30
  -1  -1 -12    5.30    4.28
   1   1  13    1.73    1.30
   1   1  13    1.52    3.62
  -1  -1 -13    2.82    1.97
  -1  -1 -13    1.69    3.31
   1   1  14   -0.49    3.80
  -1  -1 -14    2.21    1.97
  -1  -1 -14    1.81    2.06
   1   1  15    3.36    3.25
  -1  -1 -15    7.33    2.69
  -1  -1 -15    4.92    2.79
   1   1  16    1.55    1.97
  -1  -1 -16   -2.29    2.92
  -1  -1 -16    1.14    1.69
   1   1  17    0.47    1.84
  -1  -1 -17    0.90    1.48
   1   1  18    2.27    1.75
   1   1  18    0.16    1.15
   1   2 -20   11.57    3.13
   1   2 -20    6.50    2.60
  -1  -2  20    7.79    3.88
   1   2 -19    8.96    4.54
   1   2 -19    4.32    2.36
  -1  -2  19    1.30    2.15
   1   2 -18    2.88    2.82
   1   2 -18    2.61    2.50
  -1  -2  18    3.06    2.33
   1   2 -17   18.32    4.70
   1   2 -17   10.89    6.83
  -1  -2  17    6.79    4.05
   1   2 -16    7.42    3.41
   1   2 -16    2.66    2.98
  -1  -2  16    1.47    4.37
   1   2 -15  118.23   14.22
   1   2 -15  105.11   13.08
  -1  -2  15   89.59   12.00
   1   2 -14    0.89    4.43
   1   2 -14    3.21    2.38
  -1  -2  14    1.03    2.09
   1   2 -13   30.06    8.41
   1   2 -13   28.16    5.32
  -1  -2  13   24.59    4.63
   1   2 -12   97.92   10.08
   1   2 -12   98.86   14.38
  -1  -2  12   91.82   13.17
   1   2 -11    2.92    1.89
   1   2 -11    3.56    2.17
   1   2 -11    4.85    1.95
  -1  -2  11    1.97    1.81
  -1  -2  11    5.65    1.88
   1   2 -10   94.92   12.19
   1   2 -10  102.43    8.81
   1   2 -10  123.13    7.67
   1   2 -10  106.21    8.55
  -1  -2  10   91.61    6.16
  -1  -2  10   99.51    8.41
  -1  -2  10  102.10    7.49
   1   2  -9    7.01    1.99
   1   2  -9    5.90    2.05
   1   2  -9    7.40    1.78
  -1  -2   9    4.91    1.19
  -1  -2   9    6.80    1.81
  -1  -2   9    6.40    1.56
   1   2  -8  184.37   13.19
   1   2  -8  155.53   10.88
   1   2  -8  179.90   11.39
  -1  -2   8  158.42    9.28
  -1  -2   8  208.65   11.67
  -1  -2   8  169.01   11.02
  -1  -2   8  170.92   10.26
   1   2  -7  385.68   25.75
   1   2  -7  313.23   20.38
   1   2  -7  378.56   25.74
  -1  -2   7  336.15   19.59
  -1  -2   7  376.69   21.83
  -1  -2   7  352.54   21.77
  -1  -2   7  339.53   19.88
   1   2  -6   66.15    7.39
   1   2  -6   62.87    4.41
   1   2  -6   62.29    5.08
  -1  -2   6   62.10    3.76
  -1  -2   6   76.13    4.20
  -1  -2   6   76.38    4.54
  -1  -2   6   66.49    3.74
   1   2  -5  310.89   18.06
   1   2  -5  280.00   15.23
   1   2  -5  306.18   16.21
   1   2  -5  273.12   13.66
  -1  -2   5  259.08   13.79
  -1  -2   5  314.51   17.75
  -1  -2   5  281.27   13.96
   1   2  -4 1537.20  128.38
   1   2  -4 1471.04  123.47
   1   2  -4 1528.04  121.83
   1   2  -4 1323.44  102.86
  -1  -2   4 1305.53  104.93
  -1  -2   4 1505.96  116.73
  -1  -2   4 1365.65  105.51
   1   2  -3   26.34    3.83
   1   2  -3   23.24    1.72
   1   2  -3   24.11    1.82
   1   2  -3   22.73    1.65
  -1  -2   3   23.25    1.64
  -1  -2   3   23.24    1.30
  -1  -2   3   23.34    1.91
  -1  -2   3   25.16    1.77
   1   2  -2  195.52    9.86
   1   2  -2  191.60   10.34
   1   2  -2  226.05    8.48
   1   2  -2  218.68   12.28
   1   2  -2  191.89    7.23
  -1  -2   2  209.88    9.61
  -1  -2   2  266.14   11.71
  -1  -2   2  214.09    8.20
  -1  -2   2  220.83   10.50
  -1  -2   2  212.26    8.90
   1   2  -1    1.02    0.59
   1   2  -1    1.00    0.68
   1   2  -1    0.36    0.28
   1   2  -1    0.86    0.60
  -1  -2   1    0.62    0.49
  -1  -2   1    0.49    0.33
  -1  -2   1    0.79    0.37
  -1  -2   1    0.66    0.37
   1   2   0   35.02    2.08
   1   2   0   35.79    2.14
   1   2   0   31.08    1.46
   1   2   0   38.73    2.40
   1   2   0   35.64    1.01
   1   2   0   35.39    1.42
  -1  -2   0   38.16    2.30
  -1  -2   0   35.90    1.52
  -1  -2   0   32.48    1.69
  -1  -2   0   38.83    2.35
   1   2   1    3.31    0.74
   1   2   1    4.48    0.71
   1   2   1    3.24    0.63
   1   2   1    3.24    0.96
   1   2   1    3.31    0.57
   1   2   1    4.92    0.56
  -1  -2  -1    4.23    0.51
  -1  -2  -1    3.86    0.55
  -1  -2  -1    3.37    0.78
  -1  -2  -1    2.69    1.60
   1   2   2    0.72    0.49
   1   2   2    0.90    0.47
   1   2   2    1.43    0.91
   1   2   2    0.30    1.33
   1   2   2    1.80    0.57
  -1  -2  -2    1.42    0.59
  -1  -2  -2    1.04    0.49
  -1  -2  -2    1.10    0.76
  -1  -2  -2    1.92    0.80
   1   2   3    4.85    1.02
   1   2   3    4.41    0.90
   1   2   3    4.69    1.28
   1   2   3    3.47    0.91
  -1  -2  -3    5.24    0.48
  -1  -2  -3    4.20    1.24
  -1  -2  -3    7.48    1.97
  -1  -2  -3    3.46    0.71
   1   2   4   10.63    1.21
   1   2   4   11.11    1.42
   1   2   4   10.93    1.85
   1   2   4    9.28    0.99
  -1  -2  -4   11.85    0.76
  -1  -2  -4   14.03    0.99
  -1  -2  -4   11.49    1.87
  -1  -2  -4   11.49    1.81
  -1  -2  -4    9.48    1.19
   1   2   5  269.11   11.96
   1   2   5  308.37   14.09
   1   2   5  333.85   18.39
   1   2   5  316.73   20.27
   1   2   5  316.60   16.44
  -1  -2  -5  343.46   17.12
  -1  -2  -5  319.89   19.84
  -1  -2  -5  337.77   24.51
  -1  -2  -5  306.46   19.79
   1   2   6 1097.58   80.40
   1   2   6  904.97   81.81
   1   2   6  927.04   71.20
  -1  -2  -6  969.88   73.25
  -1  -2  -6  945.22   81.78
  -1  -2  -6 1000.67   79.86
  -1  -2  -6  897.95   73.23
   1   2   7  100.22    6.33
   1   2   7   87.90   10.82
   1   2   7   83.40    5.22
  -1  -2  -7   95.91    5.40
  -1  -2  -7  100.61    7.97
  -1  -2  -7   92.13    7.47
  -1  -2  -7   85.27    8.67
   1   2   8   44.76    3.52
   1   2   8   36.14    7.30
   1   2   8   35.90    3.13
  -1  -2  -8   38.91    3.12
  -1  -2  -8   44.10    4.83
  -1  -2  -8   43.49    4.59
  -1  -2  -8   34.44    5.76
   1   2   9    4.70    1.40
   1   2   9    3.13    3.38
   1   2   9    3.55    1.27
  -1  -2  -9    4.63    1.27
  -1  -2  -9    5.15    2.07
  -1  -2  -9    3.21    2.74
   1   2  10   18.74    3.60
   1   2  10    8.94    5.15
  -1  -2 -10    9.79    3.13
  -1  -2 -10    8.37    2.65
   1   2  11   59.21    5.32
   1   2  11   55.24    7.58
  -1  -2 -11   60.19    6.10
  -1  -2 -11   48.54    6.64
   1   2  12   -0.10    1.03
   1   2  12    0.39    1.64
  -1  -2 -12    1.47    1.24
  -1  -2 -12   -0.89    1.36
   1   2  13   50.52    5.22
   1   2  13   58.50    8.45
  -1  -2 -13   47.04    7.25
   1   2  14    3.42    2.65
  -1  -2 -14    1.91    2.23
   1   2  15   18.98    4.88
   1   2  16    8.42    3.10
   1   2  16    4.05    2.19
   1   2  17    2.22    2.86
   1   2  17    0.38    1.13
   1   2  18   -2.05    1.79
   1   3 -20    0.17    1.99
  -1  -3  20    2.71    1.56
   1   3 -19    2.35    3.62
   1   3 -19    1.00    1.91
  -1  -3  19    2.54    1.86
   1   3 -18   -0.10    2.22
   1   3 -18    1.62    3.16
  -1  -3  18    1.48    1.86
   1   3 -17   -0.61    2.12
   1   3 -17    1.17    1.87
  -1  -3  17    0.93    2.87
   1   3 -16    1.03    2.36
   1   3 -16    1.81    2.10
  -1  -3  16    0.14    1.90
   1   3 -15    1.71    2.40
   1   3 -15    1.04    2.07
  -1  -3  15    0.37    1.95
   1   3 -14   21.16    5.22
   1   3 -14   17.89    4.73
  -1  -3  14   16.85    6.82
   1   3 -13   14.20    6.42
   1   3 -13    9.18    5.41
  -1  -3  13   10.99    3.30
   1   3 -12    4.38    3.66
   1   3 -12    3.12    2.02
  -1  -3  12    2.42    2.04
   1   3 -11   37.23    8.14
   1   3 -11   41.17    5.20
   1   3 -11   44.51    5.06
  -1  -3  11   32.27    3.00
  -1  -3  11   44.09    5.09
   1   3 -10   12.28    3.13
   1   3 -10   14.56    2.98
   1   3 -10   15.83    2.29
   1   3 -10   13.35    2.66
  -1  -3  10   11.60    2.57
  -1  -3  10   13.64    4.57
  -1  -3  10   12.32    2.34
   1   3  -9    2.65    1.51
   1   3  -9    1.55    1.34
   1   3  -9    0.47    1.00
   1   3  -9    2.65    1.19
  -1  -3   9    0.81    1.49
  -1  -3   9    1.51    1.28
  -1  -3   9    0.32    1.04
   1   3  -8  143.60   14.59
   1   3  -8  119.43    8.97
   1   3  -8  127.89   10.89
  -1  -3   8  150.79   11.08
  -1  -3   8  151.12   10.13
  -1  -3   8  130.72   10.72
   1   3  -7   99.73    7.96
   1   3  -7   81.74    6.21
   1   3  -7   88.50    5.84
  -1  -3   7  100.87    6.02
  -1  -3   7  119.55    6.52
  -1  -3   7   91.12    7.25
  -1  -3   7   90.94    7.70
   1   3  -6 1769.78  168.10
   1   3  -6 1498.84  144.09
   1   3  -6 1800.20  165.39
   1   3  -6 1563.13  139.19
  -1  -3   6 1703.33  152.71
  -1  -3   6 1851.86  162.42
  -1  -3   6 1580.27  148.30
  -1  -3   6 1698.42  154.56
   1   3  -5    3.31    1.61
   1   3  -5    2.89    1.16
   1   3  -5    1.90    0.73
  -1  -3   5    2.29    0.94
  -1  -3   5    2.17    0.76
  -1  -3   5    1.65    1.14
  -1  -3   5    2.74    0.76
   1   3  -4    2.31    1.30
   1   3  -4   -0.28    0.61
   1   3  -4   -0.31    1.26
   1   3  -4    0.57    0.67
  -1  -3   4    1.50    1.09
  -1  -3   4    1.38    0.46
  -1  -3   4    0.30    0.21
  -1  -3   4    0.48    0.19
  -1  -3   4    1.55    1.28
  -1  -3   4    0.08    0.47
   1   3  -3   15.25    1.96
   1   3  -3   15.95    1.30
   1   3  -3   16.50    1.88
   1   3  -3   15.71    0.98
  -1  -3   3   16.96    2.19
  -1  -3   3   18.11    1.52
  -1  -3   3   17.32    0.91
  -1  -3   3   16.61    1.19
   1   3  -2  461.18   27.29
   1   3  -2  447.67   23.55
   1   3  -2  466.69   22.87
   1   3  -2  475.96   24.61
  -1  -3   2  481.94   25.80
  -1  -3   2  477.56   23.01
  -1  -3   2  477.88   28.49
  -1  -3   2  460.22   25.06
   1   3  -1   48.82    3.19
   1   3  -1   47.21    1.90
   1   3  -1   46.94    1.99
   1   3  -1   44.17    1.69
  -1  -3   1   49.89    1.50
   1   3   0  368.26   20.39
   1   3   0  356.80   16.79
   1   3   0  372.12   20.03
   1   3   0  391.34   25.79
   1   3   0  362.81   16.96
   1   3   0  352.26   18.25
  -1  -3   0  385.15   19.20
  -1  -3   0  422.65   18.66
  -1  -3   0  418.00   23.90
   1   3   1  271.75   16.55
   1   3   1  276.13   13.20
   1   3   1  264.87   15.34
   1   3   1  256.79   11.74
   1   3   1  259.13   12.01
  -1  -3  -1  297.15   15.45
  -1  -3  -1  276.11   11.59
  -1  -3  -1  286.44   19.55
   1   3   2   64.34    4.87
   1   3   2   62.95    3.32
   1   3   2   60.10    4.47
   1   3   2   56.98    3.72
   1   3   2   62.08    2.91
  -1  -3  -2   69.45    3.03
  -1  -3  -2   58.31    2.76
  -1  -3  -2   62.22    4.13
  -1  -3  -2   66.73    4.65
   1   3   3   39.22    3.33
   1   3   3   54.83    3.35
   1   3   3   55.91    6.92
   1   3   3   49.35    2.95
   1   3   3   53.42    2.93
  -1  -3  -3   68.25    4.29
  -1  -3  -3   56.81    2.45
  -1  -3  -3   46.41    2.94
  -1  -3  -3   55.68    4.27
  -1  -3  -3   58.73    6.95
   1   3   4  340.64   20.02
   1   3   4  374.32   20.98
   1   3   4  344.07   23.39
   1   3   4  308.68   17.79
   1   3   4  313.63   18.70
  -1  -3  -4  366.84   18.28
  -1  -3  -4  363.67   17.73
  -1  -3  -4  267.92   16.88
  -1  -3  -4  358.33   22.28
  -1  -3  -4  363.79   23.50
   1   3   5  119.38    7.80
   1   3   5  151.31    7.60
   1   3   5  161.04    9.00
   1   3   5  146.51   10.89
   1   3   5  140.41    7.40
  -1  -3  -5  151.99   10.32
  -1  -3  -5  157.47   11.05
   1   3   6    4.85    1.28
   1   3   6    4.45    1.76
   1   3   6    2.83    0.97
  -1  -3  -6    3.70    0.74
  -1  -3  -6    5.80    1.71
  -1  -3  -6    5.75    2.69
   1   3   7    9.18    2.69
   1   3   7    8.96    2.34
   1   3   7    7.30    2.21
  -1  -3  -7    8.15    3.61
  -1  -3  -7    8.29    2.21
  -1  -3  -7    6.25    1.73
   1   3   8   11.32    2.99
   1   3   8    8.43    2.52
   1   3   8    6.87    1.50
  -1  -3  -8    5.71    1.89
   1   3   9    7.35    1.85
   1   3   9    5.53    2.54
  -1  -3  -9    3.53    2.00
   1   3  10    0.35    1.26
   1   3  10    1.96    1.79
  -1  -3 -10    1.10    1.40
   1   3  11   33.32    4.28
   1   3  11   25.79    5.76
   1   3  12    3.39    1.71
   1   3  12    1.83    2.62
   1   3  13    2.82    2.62
   1   3  13    2.43    1.91
   1   3  14   -0.29    2.91
   1   3  14    0.40    1.30
   1   3  15   -0.55    2.96
  -1  -3 -15   -0.40    1.26
   1   3  16    6.04    2.95
   1   3  17    2.38    2.10
   1   4 -19    2.63    2.41
   1   4 -19   -0.32    1.13
  -1  -4  19   -0.17    1.18
   1   4 -18   -1.44    1.99
   1   4 -18   -1.50    2.81
  -1  -4  18    1.14    2.71
   1   4 -17    1.42    2.45
   1   4 -17    1.47    2.11
  -1  -4  17    1.89    2.03
   1   4 -16   -0.06    1.83
   1   4 -16    0.52    1.61
  -1  -4  16   -0.06    1.54
   1   4 -15   19.88    5.02
   1   4 -15   13.08    4.45
  -1  -4  15   15.30    4.38
   1   4 -14    1.05    2.33
  -1  -4  14    1.79    3.28
   1   4 -13    4.56    2.79
   1   4 -13    3.70    2.37
  -1  -4  13    3.58    2.48
   1   4 -12    3.11    4.27
   1   4 -12    6.92    4.44
   1   4 -12    4.53    2.29
  -1  -4  12    5.08    2.44
   1   4 -11    4.39    2.56
   1   4 -11    6.49    3.63
   1   4 -11    3.84    2.05
  -1  -4  11    5.49    3.70
   1   4 -10    1.96    1.90
   1   4 -10    3.67    2.52
   1   4 -10    1.60    1.44
  -1  -4  10    1.38    0.97
  -1  -4  10    1.40    1.63
   1   4  -9  166.09   18.40
   1   4  -9  135.55   14.83
   1   4  -9  162.29    9.97
   1   4  -9  151.44   13.68
  -1  -4   9  159.07    9.82
  -1  -4   9  162.11   12.62
  -1  -4   9  155.35   12.63
  -1  -4   9  153.71   10.96
   1   4  -8  300.48   23.07
   1   4  -8  230.40   21.42
   1   4  -8  315.69   17.85
   1   4  -8  270.46   17.48
  -1  -4   8  283.76   17.22
  -1  -4   8  308.57   21.33
  -1  -4   8  278.97   20.42
  -1  -4   8  273.57   17.95
   1   4  -7  336.76   24.25
   1   4  -7  291.77   23.62
   1   4  -7  322.34   17.60
   1   4  -7  329.61   22.14
   1   4  -7  291.47   17.85
  -1  -4   7  288.67   17.53
  -1  -4   7  287.71   20.43
  -1  -4   7  298.40   18.43
   1   4  -6  198.47   14.10
   1   4  -6  168.40   10.48
   1   4  -6  189.31   12.54
   1   4  -6  169.05    9.46
  -1  -4   6  168.55    9.69
  -1  -4   6  174.00   15.52
  -1  -4   6  162.13   11.93
   1   4  -5   10.36    3.21
   1   4  -5    8.14    1.36
   1   4  -5   10.61    2.08
   1   4  -5    9.00    1.82
  -1  -4   5   10.51    1.46
  -1  -4   5    8.70    0.58
  -1  -4   5    8.42    0.49
  -1  -4   5    8.91    1.99
  -1  -4   5    8.78    2.23
   1   4  -4  376.83   24.27
   1   4  -4  355.23   19.97
   1   4  -4  413.42   25.22
   1   4  -4  401.99   20.94
  -1  -4   4  404.61   22.65
  -1  -4   4  377.44   18.91
  -1  -4   4  413.63   25.81
  -1  -4   4  399.77   22.18
   1   4  -3    3.09    1.48
   1   4  -3    3.99    0.73
   1   4  -3    7.64    1.55
   1   4  -3    5.10    0.72
  -1  -4   3    4.39    1.07
  -1  -4   3    4.22    0.73
  -1  -4   3    6.25    1.61
  -1  -4   3    3.96    1.38
   1   4  -2   -0.40    0.89
   1   4  -2    0.70    0.31
   1   4  -2    0.57    0.43
  -1  -4   2    0.04    0.63
  -1  -4   2    0.24    0.48
   1   4  -1   52.58    3.75
   1   4  -1   47.12    2.40
   1   4  -1   44.98    2.13
   1   4  -1   45.33    2.42
  -1  -4   1   54.49    4.25
   1   4   0   15.37    3.27
   1   4   0   16.13    1.38
   1   4   0   11.90    1.08
   1   4   0   12.14    1.82
  -1  -4   0   17.73    1.60
   1   4   1  237.53   17.37
   1   4   1  256.63   13.50
   1   4   1  251.95   20.84
   1   4   1  208.52   12.30
   1   4   1  251.85   12.47
  -1  -4  -1  268.42   13.50
  -1  -4  -1  264.95   17.28
   1   4   2  764.92   59.54
   1   4   2  888.44   61.02
   1   4   2  806.31   62.59
   1   4   2  711.37   48.83
   1   4   2  746.41   52.57
  -1  -4  -2  844.59   59.14
  -1  -4  -2  854.62   65.31
   1   4   3  660.22   49.49
   1   4   3  726.05   49.72
   1   4   3  700.75   53.22
   1   4   3  582.17   39.96
   1   4   3  621.08   41.38
  -1  -4  -3  841.58   54.11
  -1  -4  -3  778.89   64.01
   1   4   4    2.81    1.59
   1   4   4    3.41    1.22
   1   4   4    3.10    1.65
   1   4   4    1.34    1.49
   1   4   4    3.33    1.26
  -1  -4  -4    3.07    0.91
  -1  -4  -4    3.14    1.51
   1   4   5   95.97    5.96
   1   4   5  101.27    6.64
   1   4   5  119.00    7.50
   1   4   5  106.90    8.97
  -1  -4  -5  111.92    8.44
  -1  -4  -5  105.42    8.64
   1   4   6    2.68    1.21
   1   4   6    2.88    2.77
   1   4   6    0.71    1.04
   1   4   6    1.26    0.89
  -1  -4  -6    3.70    1.64
  -1  -4  -6    2.48    2.52
   1   4   7    3.72    1.42
   1   4   7    1.46    3.16
   1   4   7    1.43    1.26
   1   4   7    2.22    1.72
   1   4   8   18.93    2.72
   1   4   8   16.45    5.67
   1   4   8    7.58    2.49
   1   4   9    9.62    2.42
   1   4   9    8.08    5.18
   1   4  10    6.64    2.21
   1   4  10    6.38    4.93
   1   4  11    0.63    1.42
   1   4  11    2.60    3.26
   1   4  12   11.18    6.69
   1   4  13    2.04    3.01
  -1  -4 -13    6.60    2.60
   1   4  14   -0.10    2.06
  -1  -4 -14    1.96    1.68
   1   4  15   11.31    2.50
  -1  -4 -15   -0.16    1.75
   1   4  16   -1.06    1.36
  -1  -4 -16    0.02    0.89
   1   5 -19   12.71    3.15
   1   5 -19    7.01    2.49
   1   5 -18    4.05    3.95
   1   5 -18    0.95    3.20
  -1  -5  18    2.87    2.04
   1   5 -17    2.89    2.65
   1   5 -17    2.99    2.29
  -1  -5  17    4.32    2.39
   1   5 -16   13.97    4.42
   1   5 -16   10.17    3.92
  -1  -5  16   13.46    3.93
   1   5 -15   12.29    4.11
   1   5 -15    7.12    5.88
  -1  -5  15   11.84    6.05
   1   5 -14   39.03    6.82
   1   5 -14   33.81    9.05
  -1  -5  14   39.39    6.66
   1   5 -13    2.54    2.74
   1   5 -13    4.70    2.36
  -1  -5  13    4.27    2.59
   1   5 -12   17.20    4.88
   1   5 -12   18.81    4.38
   1   5 -12   18.91    3.94
  -1  -5  12   21.18    4.36
   1   5 -11    1.16    1.93
   1   5 -11   -0.24    1.62
   1   5 -11    0.83    1.42
  -1  -5  11    1.37    2.58
   1   5 -10    0.59    2.77
   1   5 -10   -0.21    1.28
   1   5 -10   -0.60    1.90
  -1  -5  10   -0.32    1.31
   1   5  -9  102.00   10.13
   1   5  -9   81.15    7.91
   1   5  -9   77.97    5.70
   1   5  -9   86.61    7.05
  -1  -5   9  106.64    9.08
   1   5  -8  141.31   12.43
   1   5  -8  104.79    9.04
   1   5  -8  115.69    8.37
  -1  -5   8  133.70    8.63
  -1  -5   8  119.43    9.24
   1   5  -7    0.87    1.56
   1   5  -7    0.95    0.94
   1   5  -7   -0.17    0.60
   1   5  -7    1.32    1.28
   1   5  -7   -0.15    0.83
  -1  -5   7    0.13    0.90
  -1  -5   7    0.37    1.28
  -1  -5   7    2.22    0.96
   1   5  -6   10.26    4.53
   1   5  -6    6.47    1.49
   1   5  -6    5.89    0.98
   1   5  -6   10.58    2.22
   1   5  -6   11.29    2.29
  -1  -5   6    8.51    1.64
  -1  -5   6    8.95    2.26
  -1  -5   6    8.01    1.64
   1   5  -5    1.78    1.39
   1   5  -5    1.06    2.24
   1   5  -5    1.49    0.73
  -1  -5   5    1.38    0.99
  -1  -5   5    0.79    1.38
  -1  -5   5    1.66    1.50
   1   5  -4   37.05    3.98
   1   5  -4   33.47    2.32
  -1  -5   4   38.98    4.63
  -1  -5   4   33.01    2.29
  -1  -5   4   38.37    3.92
  -1  -5   4   33.70    2.76
   1   5  -3   89.03    6.79
   1   5  -3   76.14    5.33
  -1  -5   3   94.62    7.93
  -1  -5   3   79.05    5.93
  -1  -5   3  107.16   10.20
  -1  -5   3   81.49    4.85
   1   5  -2   13.28    2.34
   1   5  -2   10.76    1.20
  -1  -5   2   13.69    1.85
  -1  -5   2   13.62    1.61
   1   5  -1   16.83    2.52
   1   5  -1   12.20    1.54
  -1  -5   1   19.15    1.99
   1   5   0   74.56    5.55
   1   5   0   65.37    6.34
   1   5   0   61.17    4.89
   1   5   0   60.80    3.96
  -1  -5   0   78.51    4.75
  -1  -5   0   76.78    9.07
   1   5   1   26.88    3.05
   1   5   1   27.97    2.41
   1   5   1   25.57    3.70
   1   5   1   23.80    2.21
  -1  -5  -1   29.36    3.68
  -1  -5  -1   26.30    3.66
   1   5   2   19.52    4.00
   1   5   2   20.77    2.24
   1   5   2   23.75    5.14
   1   5   2   11.50    2.54
   1   5   2   15.51    1.85
  -1  -5  -2   25.28    2.51
  -1  -5  -2   20.98    3.15
   1   5   3  173.69   15.17
   1   5   3  192.52   12.33
   1   5   3  191.47   15.13
  -1  -5  -3  209.39   12.83
  -1  -5  -3  195.55   18.65
   1   5   4   33.43    3.58
   1   5   4   40.74    3.88
   1   5   4   37.27    5.26
   1   5   5   35.22    3.91
   1   5   5   34.71    5.17
   1   5   6   23.87    3.36
   1   5   6   20.99    4.46
   1   5   7    6.15    2.11
   1   5   7    4.94    2.81
   1   5   8   -1.02    1.23
   1   5   8    1.12    1.62
   1   5   9   -0.30    1.68
   1   5  10   -0.66    1.97
   1   5  11    1.69    2.39
  -1  -5 -11    2.40    2.35
   1   5  12    6.10    3.24
  -1  -5 -12    6.25    3.09
   1   5  13   -1.04    1.67
  -1  -5 -13    1.16    1.48
   1   5  14   19.89    3.05
  -1  -5 -14    0.37    2.45
   1   5  15   -7.47    3.42
  -1  -5 -15   -0.55    2.69
   1   6 -18   -0.39    1.48
   1   6 -18    1.79    2.12
  -1  -6  18    1.26    1.47
   1   6 -17    0.11    2.80
   1   6 -17    1.16    1.46
  -1  -6  17    0.43    1.66
   1   6 -16    3.11    3.66
   1   6 -16    2.30    2.09
  -1  -6  16    3.19    2.31
   1   6 -15    3.83    3.01
   1   6 -15    3.51    4.68
  -1  -6  15   13.87    5.09
   1   6 -14   22.16    5.04
   1   6 -14   18.92    4.60
  -1  -6  14   31.34    5.28
   1   6 -13   25.39    6.19
   1   6 -13   21.70    5.16
   1   6 -13   28.73    4.97
  -1  -6  13   35.28    5.82
   1   6 -12   16.21    4.96
   1   6 -12   14.31    3.92
   1   6 -12   14.61    3.66
  -1  -6  12   21.22    6.70
   1   6 -11    8.82    3.66
   1   6 -11    3.72    2.60
   1   6 -11    5.28    2.49
  -1  -6  11    8.94    2.85
   1   6 -10   23.63    7.79
   1   6 -10   14.96    4.74
  -1  -6  10   20.07    4.00
   1   6  -9   16.83    4.24
   1   6  -9   11.84    2.53
  -1  -6   9   15.13    3.37
   1   6  -8   49.74    6.60
   1   6  -8   33.75    3.88
   1   6  -7   71.88    8.08
   1   6  -7   65.92    6.88
   1   6  -7   51.09    4.65
  -1  -6   7   52.23    7.68
   1   6  -6  126.50   16.24
   1   6  -6  118.39    9.29
   1   6  -6   88.09    8.52
  -1  -6   6   86.71    7.09
   1   6  -5    2.39    1.71
   1   6  -5    1.54    2.76
   1   6  -5    1.77    0.89
  -1  -6   5    1.48    1.12
   1   6  -4    0.50    1.40
   1   6  -4    0.61    0.69
   1   6  -3   35.70    4.44
   1   6  -3   28.18    2.47
   1   6  -3   30.65    3.10
  -1  -6   3   40.94    3.55
  -1  -6   3   34.89    4.73
   1   6  -2  111.21    8.89
  -1  -6   2  114.88    7.49
  -1  -6   2   95.50    6.77
   1   6  -1    0.22    1.04
  -1  -6   1   -0.41    0.79
  -1  -6   1    0.54    0.82
   1   6   0    1.40    1.35
   1   6   0    0.37    1.48
  -1  -6   0    0.79    1.63
  -1  -6   0    1.42    1.21
   1   6   1   20.54    3.52
   1   6   1   24.11    4.12
  -1  -6  -1   27.73    3.42
  -1  -6  -1   26.45    3.57
   1   6   2    8.16    2.30
   1   6   2    8.18    2.80
  -1  -6  -2    9.72    2.14
   1   6   3   20.72    3.35
   1   6   3   23.81    4.47
   1   6   4    3.35    1.71
   1   6   4    6.10    3.84
   1   6   5   63.72   12.52
   1   6   6    0.55    2.89
   1   6   7    0.68    1.85
   1   6   8    6.02    3.43
  -1  -6  -8    9.52    3.43
   1   6   9    3.52    3.21
  -1  -6  -9    8.29    3.43
   1   6  10    6.06    5.54
  -1  -6 -10    8.65    3.46
   1   6  11    0.98    3.05
  -1  -6 -11    0.49    1.88
   1   6  12   11.25    7.25
  -1  -6 -12   24.61    4.52
   1   6  13    0.28    1.65
  -1  -6 -13    1.92    2.56
   1   6  14    2.05    2.68
  -1  -6 -14   13.29    2.64
  -1  -7  18    6.26    2.13
   1   7 -17    0.25    1.06
   1   7 -17    0.16    1.13
  -1  -7  17    1.63    1.45
   1   7 -16   -0.33    1.38
  -1  -7  16   -2.51    2.75
   1   7 -15    0.43    1.54
  -1  -7  15    1.70    1.85
   1   7 -14    5.42    2.38
  -1  -7  14   -1.94    1.79
   1   7 -13   10.17    4.20
   1   7 -13    7.27    2.93
  -1  -7  13   15.17    3.70
   1   7 -12    2.94    3.02
   1   7 -12    1.94    1.95
  -1  -7  12    5.54    4.01
   1   7 -11    0.50    4.52
   1   7 -11    1.69    1.69
  -1  -7  11    2.00    2.06
   1   7 -10    2.82    2.78
   1   7 -10    2.05    2.48
  -1  -7  10    2.01    2.15
   1   7  -9    7.57    3.59
   1   7  -9    4.22    1.94
  -1  -7   9    9.12    2.81
   1   7  -8    3.46    3.03
   1   7  -7  163.92   17.12
   1   7  -7  165.66   15.37
   1   7  -6   52.76   12.35
   1   7  -6   46.81    7.09
   1   7  -5  193.82   23.24
   1   7  -5  217.37   18.26
   1   7  -4   15.74    4.83
   1   7  -4   69.87    8.68
   1   7  -3    9.48    3.12
   1   7  -2   30.97    4.98
  -1  -7   2   32.50    4.06
   1   7  -1    0.68    2.33
   1   7  -1   11.57    2.77
  -1  -7   1    2.08    2.98
   1   7   0   22.33    4.11
   1   7   0   21.34    6.88
  -1  -7   0   21.59    3.60
   1   7   1    1.71    1.58
   1   7   1   -1.87    3.01
  -1  -7  -1    1.14    1.54
   1   7   2    0.97    1.42
   1   7   2   -1.30    1.73
  -1  -7  -2    1.69    1.50
   1   7   3    2.29    1.81
   1   7   3    3.36    2.34
  -1  -7  -3    2.35    2.15
   1   7   4    0.36    1.91
  -1  -7  -4    1.55    1.84
   1   7   5    5.90    3.01
  -1  -7  -5    6.78    3.01
   1   7   6    1.47    2.06
  -1  -7  -6    1.01    2.05
   1   7   7    3.81    2.71
  -1  -7  -7    3.84    2.73
   1   7   8    5.23    3.20
  -1  -7  -8    7.84    3.31
   1   7   9    1.97    2.40
  -1  -7  -9    3.07    2.53
   1   7  10    9.50    3.92
  -1  -7 -10   17.88    4.14
   1   7  11    3.22    2.04
  -1  -7 -11   -1.18    3.42
   1   7  12    6.54    2.89
  -1  -7 -12   16.71    5.22
  -1  -7 -13    0.06    1.10
  -1  -8  17    0.25    1.13
   1   8 -16    0.47    0.90
  -1  -8  16    0.72    1.38
   1   8 -15    0.33    1.21
  -1  -8  15    4.33    2.80
   1   8 -14    0.45    2.25
   1   8 -14    0.57    1.61
  -1  -8  14   -0.55    1.31
   1   8 -13    3.42    2.93
  -1  -8  13    4.12    2.46
   1   8 -12    5.16    4.24
  -1  -8  12   13.82    5.41
   1   8 -11    3.72    4.82
  -1  -8  11    1.69    2.16
   1   8 -10    7.67    6.01
  -1  -8  10    5.38    2.86
   1   8  -9    1.75    2.98
  -1  -8   9    2.80    2.21
   1   8  -8    5.80    3.84
   1   8  -7  166.24   18.57
   1   8  -7  157.02   16.32
   1   8  -6    0.27    3.98
   1   8  -6   13.00    3.86
   1   8  -5  346.62   42.82
   1   8  -5  303.49   30.48
   1   8  -4   54.40   11.35
   1   8  -4   38.81   12.49
   1   8  -3   39.31    6.63
   1   8  -2   27.91    5.45
   1   8  -1   27.87    5.07
   1   8  -1   20.00    5.95
  -1  -8   1   28.76    4.46
   1   8   0   -0.52    1.75
   1   8   0   -1.65    1.98
  -1  -8   0   -0.40    1.67
   1   8   1   49.00    7.15
   1   8   1   57.13    8.12
  -1  -8  -1   56.61   11.19
   1   8   2    7.97    2.99
   1   8   2    8.01    5.52
  -1  -8  -2    9.57    5.05
   1   8   3    0.04    2.11
   1   8   3    0.41    2.66
  -1  -8  -3   -0.99    2.46
   1   8   4    5.36    4.51
  -1  -8  -4    3.41    2.66
   1   8   5    0.07    1.69
  -1  -8  -5   -0.59    1.67
   1   8   6   -1.17    2.18
  -1  -8  -6   -1.67    2.21
   1   8   7    3.62    2.86
  -1  -8  -7    7.42    4.74
   1   8   8    1.97    2.16
  -1  -8  -8    2.36    3.69
   1   8   9    1.56    1.91
  -1  -8  -9   -0.23    3.38
   1   8  10    1.53    2.76
  -1  -8 -10    1.59    1.97
   1   8  11    3.30    3.85
  -1  -8 -11   15.25    3.10
  -1  -9  15   11.62    4.73
   1   9 -14    1.24    1.54
  -1  -9  14    0.73    1.56
   1   9 -13    0.27    1.73
  -1  -9  13   -0.93    1.48
   1   9 -12    2.39    2.20
  -1  -9  12   -0.02    1.73
   1   9 -11    2.96    2.84
  -1  -9  11    1.05    3.39
   1   9 -10    1.99    4.69
  -1  -9  10    1.38    1.99
   1   9  -9    6.84    3.68
  -1  -9   9    3.83    2.86
   1   9  -8   63.56    9.93
  -1  -9   8   53.81    7.80
   1   9  -7   68.94   11.18
   1   9  -6   10.91    4.81
   1   9  -6    9.34    3.80
   1   9  -5    4.95    2.51
   1   9  -5   -2.02    2.01
   1   9  -4    4.73    3.92
   1   9  -3   15.14    8.94
   1   9  -2    5.89    8.20
   1   9  -2   17.47    6.72
   1   9  -1    5.76    4.12
   1   9  -1    0.12    2.01
   1   9   0   -1.66    4.43
   1   9   0    0.09    2.23
  -1  -9   0    4.63    2.12
   1   9   1   -0.22    3.49
   1   9   1    0.82    1.87
  -1  -9  -1    1.01    1.77
   1   9   2    5.03    3.23
   1   9   2    5.93    3.05
  -1  -9  -2    7.97    3.08
   1   9   3   15.48    4.07
  -1  -9  -3   11.61    4.11
   1   9   4   13.52    4.29
  -1  -9  -4   21.18    4.65
   1   9   5   -1.42    1.64
  -1  -9  -5    0.47    1.79
   1   9   6   -0.76    1.35
  -1  -9  -6    1.35    1.55
   1   9   7    2.46    1.72
  -1  -9  -7    0.93    2.06
   1   9   8    0.06    1.16
  -1  -9  -8   -0.87    1.46
   1   9   9    4.45    1.71
  -1  -9  -9    4.39    2.30
   1  10 -12    3.86    2.60
  -1 -10  12    4.38    2.03
   1  10 -11   12.97    4.32
  -1 -10  11   11.11    5.06
   1  10 -10   -0.31    2.15
  -1 -10  10    1.27    2.37
   1  10  -9    2.36    4.80
  -1 -10   9    1.90    1.92
   1  10  -8    1.38    2.57
  -1 -10   8    1.43    1.80
   1  10  -7    1.85    3.12
  -1 -10   7    3.49    2.20
   1  10  -6    0.04    1.89
   1  10  -5    0.35    2.36
   1  10  -5    0.79    1.73
   1  10  -4    2.72    3.16
   1  10  -3    0.16    1.99
   1  10  -2    1.05    2.38
   1  10  -2   -2.36    1.93
   1  10  -1   13.89    4.51
   1  10  -1   12.45    3.79
   1  10   0    0.82    1.87
   1  10   0   -0.18    2.72
   1  10   1    6.82    3.12
   1  10   1    6.70    4.69
  -1 -10  -1    7.29    4.12
   1  10   2    3.59    2.24
   1  10   2    4.33    3.69
  -1 -10  -2    3.15    3.49
   1  10   3    1.85    1.80
  -1 -10  -3    1.46    1.76
   1  10   4    1.94    1.89
  -1 -10  -4    4.39    2.03
   1  10   5    0.74    1.36
  -1 -10  -5    1.28    1.50
   1  10   6   -0.91    1.91
  -1 -10  -6   -0.47    2.26
   1  11 -10    9.61    3.58
  -1 -11  10    9.52    2.38
   1  11  -9    8.81    4.29
  -1 -11   9   13.27    4.31
   1  11  -8   16.82    4.70
  -1 -11   8   12.41    2.94
   1  11  -7   13.10    7.12
  -1 -11   7   10.27    2.72
   1  11  -6    1.78    3.98
  -1 -11   6   -2.39    1.66
   1  11  -5    1.97    2.43
  -1 -11   5    1.99    1.69
   1  11  -4    3.61    2.85
   1  11  -3    0.73    1.96
   1  11  -2    4.75    2.72
   1  11  -2    4.74    2.18
   1  11  -1    0.45    1.37
   1  11  -1   -0.07    1.14
   1  11   0    2.58    2.08
   1  11   0   -0.40    1.14
   1  11   1    2.09    1.56
   1  11   2   -0.87    1.19
   2 -12  -1    3.71    1.55
  -2  12   1   -1.18    1.45
   2 -12   0   -0.40    1.30
  -2  12   0   -2.36    1.33
  -2  12   0    0.35    0.80
   2 -12   1    7.24    1.80
  -2  12  -1   -0.14    2.03
  -2  12  -1    0.64    1.22
   2 -12   2   -0.17    1.31
  -2  12  -2    1.24    1.02
   2 -12   3    2.51    1.87
  -2  12  -3   -2.04    1.71
  -2  12  -3    0.89    1.00
  -2  12  -4   -2.79    1.60
  -2  12  -4    0.12    1.04
  -2  12  -5   23.84    4.68
  -2  12  -5    1.06    3.19
  -2  12  -6   18.47    6.25
  -2  12  -6   10.56    3.87
  -2  12  -7   -0.99    1.54
  -2  12  -7   -0.49    1.06
  -2  12  -8    6.60    2.60
  -2  12  -8   20.38    2.43
   2 -11  -5    1.81    2.99
  -2  11   5    0.13    1.12
  -2  11   5    1.16    0.99
   2 -11  -4    1.47    2.95
  -2  11   4    0.24    1.28
  -2  11   4    0.73    1.02
   2 -11  -3    4.04    3.80
  -2  11   3    0.81    1.79
  -2  11   3    2.19    1.40
  -2  11   2   -0.28    1.27
  -2  11   2    0.20    0.96
   2 -11  -1   -0.58    3.53
  -2  11   1    1.51    1.89
  -2  11   1    1.09    1.40
   2 -11   0    6.46    4.27
  -2  11   0    3.52    2.40
  -2  11   0    1.69    1.80
   2 -11   1    4.07    2.82
  -2  11  -1    3.93    2.75
  -2  11  -1    4.10    3.34
   2 -11   2    4.44    2.51
  -2  11  -2    2.92    2.54
  -2  11  -2    0.84    3.01
   2 -11   3    0.57    1.83
  -2  11  -3    0.37    1.89
  -2  11  -3    1.08    1.46
   2 -11   4    2.04    2.88
  -2  11  -4    7.33    3.09
  -2  11  -4    8.18    2.37
   2 -11   5    0.44    2.42
  -2  11  -5    1.03    1.71
  -2  11  -5    0.22    1.37
  -2  11  -6    0.86    1.76
  -2  11  -6    0.77    1.43
  -2  11  -7   -0.28    2.55
  -2  11  -7   -0.84    2.19
  -2  11  -8    2.33    4.28
  -2  11  -8    5.72    3.47
  -2  11  -9    0.61    1.57
  -2  11  -9    1.04    1.39
  -2  11 -10    4.27    2.14
  -2  11 -10   12.47    2.39
  -2  11 -11   48.40    5.11
  -2  11 -12    6.25    3.53
   2 -10  -8   -3.90    2.26
  -2  10   8   -1.88    2.19
   2 -10  -7    1.26    1.85
  -2  10   7    0.52    1.01
  -2  10   7    0.79    1.85
   2 -10  -6    3.52    2.80
  -2  10   6    4.06    2.95
  -2  10   6    1.33    3.02
   2 -10  -5    0.46    1.78
  -2  10   5    0.21    1.67
  -2  10   5   -0.44    2.02
   2 -10  -4    4.48    2.97
  -2  10   4    1.60    1.85
  -2  10   4    4.31    3.15
   2 -10  -3    8.67    3.42
  -2  10   3    1.63    2.23
  -2  10   3    4.39    3.58
   2 -10  -2    9.02    3.93
  -2  10   2    6.67    2.81
  -2  10   2    5.34    2.76
   2 -10  -1   44.73    7.81
  -2  10   1   32.23    5.93
  -2  10   1   34.60    5.83
   2 -10   0    2.36    2.68
  -2  10   0    1.53    2.08
  -2  10   0    1.37    1.98
   2 -10   1   13.53    4.12
  -2  10  -1   11.04    3.22
  -2  10  -1    2.17    3.30
   2 -10   2   55.89   12.41
  -2  10  -2   37.89    6.34
  -2  10  -2   41.20    6.32
   2 -10   3    0.90    2.38
  -2  10  -3    2.55    3.07
   2 -10   4   23.65    5.44
  -2  10  -4   25.29    8.77
  -2  10  -4   27.00    7.10
   2 -10   5    2.58    2.15
  -2  10  -5    1.57    2.20
  -2  10  -5    0.55    1.84
   2 -10   6    2.94    2.50
  -2  10  -6   -0.08    1.61
  -2  10  -6   -0.42    1.37
  -2  10  -7    4.07    2.79
  -2  10  -7    6.10    2.48
  -2  10  -8    2.09    2.19
  -2  10  -8    4.02    2.09
  -2  10  -9   14.61    6.90
  -2  10  -9   20.34    6.19
  -2  10 -10    2.04    1.93
  -2  10 -11    0.65    1.50
  -2  10 -12    0.10    1.18
  -2  10 -13    0.90    2.63
  -2  10 -14   -3.07    1.85
   2  -9 -10   -1.74    1.86
  -2   9  10   -1.49    1.40
   2  -9  -9    1.16    1.80
  -2   9   9    0.55    1.34
   2  -9  -8    4.95    2.31
  -2   9   8    0.57    1.12
  -2   9   8    1.93    1.66
   2  -9  -7   -0.79    2.34
  -2   9   7    1.09    1.30
  -2   9   7    2.46    1.71
   2  -9  -6    1.08    2.51
  -2   9   6    1.42    1.44
  -2   9   6    0.50    1.79
   2  -9  -5   -4.41    2.39
  -2   9   5    0.10    1.46
  -2   9   5    0.35    1.70
  -2   9   4    7.00    2.74
  -2   9   4    5.73    3.09
   2  -9  -3    0.56    2.90
  -2   9   3    2.64    1.96
  -2   9   3    1.07    2.17
   2  -9  -2    2.15    2.75
  -2   9   2    0.93    1.91
  -2   9   2    1.77    2.14
   2  -9  -1   -0.46    3.06
  -2   9   1    0.93    2.21
  -2   9   1   14.52    4.15
   2  -9   0    3.41    2.88
  -2   9   0    2.14    2.12
   2  -9   1    0.88    2.15
  -2   9  -1    0.14    1.61
  -2   9  -1   -2.31    1.59
  -2   9  -2    0.26    1.60
  -2   9  -2    1.07    1.61
  -2   9  -3    0.62    1.46
  -2   9  -3    0.19    1.53
   2  -9   4    6.66    3.43
  -2   9  -4    6.07    2.63
  -2   9  -4    8.98    2.78
   2  -9   5    0.59    1.69
  -2   9  -5   -0.03    1.35
  -2   9  -5   -2.61    2.38
   2  -9   6    8.90    3.80
  -2   9  -6   11.45    6.03
  -2   9  -6   14.80    3.29
  -2   9  -7    3.43    2.41
  -2   9  -7    3.67    2.23
  -2   9  -8   -2.39    1.59
  -2   9  -8    1.33    1.52
  -2   9  -9    1.77    2.03
  -2   9  -9    6.25    3.48
  -2   9 -10    3.99    4.06
  -2   9 -11    3.41    2.33
  -2   9 -12   -0.26    1.45
  -2   9 -13    8.78    4.62
  -2   9 -14   -0.97    1.77
  -2   9 -15    9.92    2.93
  -2   9 -16    4.33    1.95
   2  -8 -12    8.63    2.25
  -2   8  12    7.35    2.22
   2  -8 -11   -0.19    1.19
  -2   8  11    0.51    1.72
   2  -8 -10    6.98    3.01
  -2   8  10    4.26    4.05
   2  -8  -9   -0.99    3.29
  -2   8   9   -0.20    2.86
   2  -8  -8   25.49    9.83
  -2   8   8   20.79    8.36
   2  -8  -7    3.59    3.07
  -2   8   7   -0.47    2.06
  -2   8   7   -0.91    2.95
   2  -8  -6   17.61    6.72
  -2   8   6    7.29    3.98
  -2   8   6   10.26    5.89
   2  -8  -5  122.53   20.87
  -2   8   5   96.84   13.48
  -2   8   5  110.85   18.26
   2  -8  -4  165.89   24.84
  -2   8   4  131.73   12.83
  -2   8   4  147.33   15.97
   2  -8  -3   99.02   18.64
  -2   8   3   75.09    8.57
  -2   8   3   83.93   10.32
   2  -8  -2    7.57    7.21
  -2   8   2   13.93    3.27
  -2   8   2    8.35    3.45
   2  -8  -1    3.20    2.46
  -2   8   1    1.56    1.63
  -2   8   1    0.19    1.89
   2  -8   0   20.07    4.83
  -2   8   0   14.94    3.88
   2  -8   1    4.08    2.38
  -2   8  -1    0.69    3.00
  -2   8  -1   -1.18    3.21
   2  -8   2    2.41    2.41
  -2   8  -2    0.41    3.01
  -2   8  -2    3.60    3.04
   2  -8   3    3.61    2.72
  -2   8  -3    4.33    2.07
  -2   8  -3    3.45    2.24
   2  -8   4    8.53    5.17
  -2   8  -4    8.15    2.42
  -2   8  -4    5.53    2.71
   2  -8   5   18.11    4.37
  -2   8  -5   17.28    3.35
  -2   8  -5   18.82    3.72
   2  -8   6   29.12    5.24
  -2   8  -6   26.01    4.03
  -2   8  -6   31.01    7.05
   2  -8   7   32.46    9.59
  -2   8  -7   42.14    9.22
  -2   8  -7   50.38    6.03
  -2   8  -8   18.16    3.98
  -2   8  -8   25.15    4.20
  -2   8  -9    1.83    1.90
  -2   8 -10   43.99    9.84
  -2   8 -11   28.99    5.37
  -2   8 -12    0.57    1.78
  -2   8 -13  115.31   12.28
  -2   8 -14   19.23    7.23
  -2   8 -15    0.34    1.72
  -2   8 -15    0.23    1.59
  -2   8 -16    0.74    1.07
  -2   8 -16    0.29    1.56
  -2   8 -17    5.17    3.70
  -2   7  14    3.02    2.60
   2  -7 -13    0.14    1.00
  -2   7  13    1.04    1.38
   2  -7 -12    1.67    1.55
  -2   7  12   -0.04    1.74
   2  -7 -11    0.85    1.66
  -2   7  11   -0.04    1.67
   2  -7 -10   13.22    4.95
  -2   7  10    3.14    3.20
   2  -7  -9    1.60    3.33
  -2   7   9    0.78    2.09
   2  -7  -8   63.02    9.00
  -2   7   8   53.85    9.28
   2  -7  -7    0.21    2.00
  -2   7   7   -0.87    1.19
  -2   7   7   -0.38    1.98
   2  -7  -6  299.10   29.46
  -2   7   6  219.20   20.10
  -2   7   6  285.82   28.62
   2  -7  -5    3.06    2.42
  -2   7   5    0.56    1.56
  -2   7   5    1.10    2.39
   2  -7  -4   65.88    8.72
  -2   7   4   56.43    6.42
  -2   7   4   64.60    9.55
   2  -7  -3    5.45    2.65
  -2   7   3    3.08    1.79
  -2   7   3    4.73    4.30
   2  -7  -2    1.02    3.03
  -2   7   2    0.78    1.26
  -2   7   2    2.01    2.68
   2  -7  -1    1.07    3.03
  -2   7   1    0.00    1.15
  -2   7   1    1.40    1.46
   2  -7   0    4.68    2.40
  -2   7   0    2.55    1.50
  -2   7   0    2.07    1.91
   2  -7   1    7.95    3.17
  -2   7  -1    5.60    1.99
  -2   7  -1   12.35    2.77
   2  -7   2   16.21    4.02
  -2   7  -2   14.94    2.60
  -2   7  -2   21.41    5.38
   2  -7   3    8.88    2.80
  -2   7  -3    3.72    2.88
  -2   7  -3    6.57    2.23
   2  -7   4    0.23    2.15
  -2   7  -4    2.33    1.58
  -2   7  -4   -1.05    1.10
   2  -7   5    6.76    2.73
  -2   7  -5    6.72    1.96
  -2   7  -5    6.54    2.31
   2  -7   6    0.23    1.75
  -2   7  -6    1.38    1.24
  -2   7  -6    2.08    2.54
   2  -7   7    3.11    3.73
  -2   7  -7    2.13    2.60
  -2   7  -7    5.48    2.01
   2  -7   8   21.24    4.43
  -2   7  -8   26.34    4.00
  -2   7  -8   38.66    4.43
  -2   7  -9    5.99    2.17
  -2   7  -9   12.51    2.82
  -2   7 -10   57.51    6.48
  -2   7 -10  106.16   12.93
  -2   7 -11   12.12    3.27
  -2   7 -11   27.41    4.52
  -2   7 -12    4.32    3.70
  -2   7 -12    8.47    3.11
  -2   7 -13   79.40   14.94
  -2   7 -13  103.32   11.09
   2  -7  14    5.56    2.17
  -2   7 -14    7.19    2.78
  -2   7 -14    2.73    5.28
   2  -7  15    0.59    2.57
  -2   7 -15    1.46    1.93
  -2   7 -15    3.51    2.23
   2  -7  16    0.34    1.18
  -2   7 -16    0.56    1.55
  -2   7 -16    2.49    1.85
   2  -7  17   -0.17    0.87
  -2   7 -17    1.65    2.02
  -2   7 -17    3.17    2.39
  -2   6  15   -0.78    1.39
  -2   6  14    2.57    2.07
  -2   6  13    0.26    1.56
   2  -6 -12    2.40    3.28
  -2   6  12    1.81    2.25
   2  -6 -11   -0.92    2.96
  -2   6  11    2.45    2.15
   2  -6 -10   24.68    5.03
  -2   6  10   23.97    5.73
   2  -6  -9   57.69    8.02
  -2   6   9   57.28   13.70
   2  -6  -8    3.25    2.25
  -2   6   8    1.38    1.49
  -2   6   8    2.42    2.62
   2  -6  -7   15.95    4.05
  -2   6   7    7.49    4.04
  -2   6   7   11.66    4.39
   2  -6  -6  393.98   35.07
  -2   6   6  328.76   32.29
  -2   6   6  409.21   37.24
   2  -6  -5    6.83    2.82
  -2   6   5    2.14    3.21
  -2   6   5    6.19    2.86
   2  -6  -4  162.32   14.93
  -2   6   4  151.37   15.94
  -2   6   4  161.13   15.03
   2  -6  -3   30.24    4.68
  -2   6   3   24.88    5.36
  -2   6   3   29.78    4.63
   2  -6  -2   10.01    2.71
  -2   6   2    7.64    3.19
  -2   6   2    6.88    2.54
   2  -6  -1    0.34    2.20
   2  -6  -1   -1.45    1.54
  -2   6   1    0.97    1.52
  -2   6   1    1.18    2.50
  -2   6   1    0.17    2.11
  -2   6   1   -3.27    2.15
   2  -6   0   24.51    2.95
  -2   6   0   24.17    3.06
  -2   6   0   22.14    4.56
  -2   6   0   36.69    4.02
  -2   6   0   31.45    4.28
   2  -6   1   47.13    5.68
   2  -6   1   44.24    3.80
  -2   6  -1   43.35    3.91
  -2   6  -1   41.68    5.87
  -2   6  -1   39.39    4.96
  -2   6  -1   48.25    5.52
   2  -6   2    4.58    2.08
   2  -6   2    3.47    1.29
  -2   6  -2    2.55    1.26
  -2   6  -2    4.01    2.11
   2  -6   3   -1.10    1.36
   2  -6   3    0.48    0.84
   2  -6   3   -0.01    1.23
  -2   6  -3    0.76    0.81
  -2   6  -3    0.65    1.37
  -2   6  -3    0.56    1.75
   2  -6   4   -1.49    1.96
   2  -6   4    0.09    1.11
  -2   6  -4   -0.13    0.70
  -2   6  -4    0.05    0.81
  -2   6  -4   -0.01    0.97
   2  -6   5   38.85    4.88
  -2   6  -5   40.13    5.44
  -2   6  -5   28.76    3.31
  -2   6  -5   24.34    5.82
  -2   6  -5   44.64    4.13
   2  -6   6    5.95    2.27
  -2   6  -6    5.38    1.50
  -2   6  -6    5.72    1.69
  -2   6  -6    3.16    1.99
  -2   6  -6    8.10    3.29
   2  -6   7   66.17   10.07
  -2   6  -7   65.29    5.22
  -2   6  -7   60.94    6.28
  -2   6  -7   58.34    7.13
  -2   6  -7   86.85    6.60
   2  -6   8    6.64    2.44
   2  -6   8    5.66    1.82
  -2   6  -8    6.95    2.41
  -2   6  -8   11.96    2.40
   2  -6   9    8.34    2.80
   2  -6   9    7.77    2.26
  -2   6  -9   13.49    4.57
  -2   6  -9   17.71    2.86
   2  -6  10   82.43   13.03
  -2   6 -10  137.33   11.67
  -2   6 -10  179.82   17.84
  -2   6 -11  140.28   13.83
  -2   6 -11  189.98   15.85
  -2   6 -12   93.73   10.62
  -2   6 -12  120.57   11.74
   2  -6  13    2.63    2.02
  -2   6 -13    3.33    2.32
  -2   6 -13    6.29    3.92
   2  -6  14    0.65    2.88
  -2   6 -14    2.81    3.21
  -2   6 -14    2.96    2.42
   2  -6  15    0.46    3.11
  -2   6 -15    2.62    2.38
  -2   6 -15    3.61    2.43
   2  -6  16   -0.12    1.28
  -2   6 -16    1.83    1.66
  -2   6 -16    0.05    1.69
   2  -6  17    0.13    1.20
  -2   6 -17   -2.45    1.62
  -2   6 -17   -0.13    2.89
  -2   6 -18   22.38    5.85
  -2   6 -18   19.48    3.72
  -2   5  16   -2.23    1.87
  -2   5  15    0.20    1.41
  -2   5  14    2.63    3.78
  -2   5  13    2.59    4.10
  -2   5  12    1.84    2.44
   2  -5 -11   13.40    3.40
  -2   5  11   11.16    4.24
   2  -5 -10    1.22    1.64
  -2   5  10    0.03    1.93
   2  -5  -9   46.62    6.05
  -2   5   9   25.77    6.53
  -2   5   9   47.87    7.09
   2  -5  -8   30.11    4.99
  -2   5   8   29.69    5.64
   2  -5  -7   35.13    4.85
  -2   5   7   27.20    3.69
  -2   5   7   30.42    5.40
   2  -5  -6   89.99    8.80
  -2   5   6   78.92    7.20
  -2   5   6   95.51    9.50
   2  -5  -5   70.96    6.99
   2  -5  -5   79.91    5.55
  -2   5   5   62.83    5.83
  -2   5   5   73.72    9.07
  -2   5   5   70.42   11.03
   2  -5  -4   11.21    2.78
   2  -5  -4   13.76    1.93
  -2   5   4    9.85    2.03
  -2   5   4   12.25    3.57
  -2   5   4   11.00    4.58
  -2   5   4   12.46    2.86
   2  -5  -3   14.24    2.92
   2  -5  -3   16.34    3.18
  -2   5   3   11.78    2.17
  -2   5   3   14.50    3.75
  -2   5   3   14.89    2.94
  -2   5   3   16.42    2.94
   2  -5  -2   62.26    6.00
   2  -5  -2   70.40    4.89
  -2   5   2   57.57    4.90
  -2   5   2   63.32   11.45
  -2   5   2   61.78    6.05
  -2   5   2   66.39    6.17
   2  -5  -1  143.42   14.76
   2  -5  -1  155.42    9.40
  -2   5   1  147.01    9.59
  -2   5   1  146.86   17.13
  -2   5   1  161.82   11.57
  -2   5   1  166.62   11.74
   2  -5   0    1.06    0.65
   2  -5   0   -0.53    2.31
   2  -5   0    0.62    0.89
  -2   5   0    1.25    0.92
  -2   5   0    1.57    1.42
  -2   5   0    0.34    0.72
   2  -5   1   94.51    7.93
  -2   5  -1   95.75    6.10
  -2   5  -1   81.35    7.89
  -2   5  -1   65.74    6.86
  -2   5  -1   96.09    7.25
   2  -5   2   56.23    4.90
   2  -5   2   91.40    6.97
   2  -5   2   60.39    3.07
   2  -5   2   58.06    4.08
  -2   5  -2   87.36    6.57
  -2   5  -2   56.91    4.88
   2  -5   3  438.97   37.95
   2  -5   3  362.28   22.24
   2  -5   3  408.33   32.05
  -2   5  -3  455.40   27.28
  -2   5  -3  391.17   30.88
  -2   5  -3  494.82   32.17
  -2   5  -3  525.28   38.15
   2  -5   4    0.19    0.56
   2  -5   4   -1.02    1.09
   2  -5   4    0.24    0.71
   2  -5   4   -0.12    0.46
   2  -5   4    2.35    1.04
  -2   5  -4    0.27    0.59
  -2   5  -4   -0.24    0.84
  -2   5  -4   -0.73    0.89
   2  -5   5   49.20    5.24
   2  -5   5   33.51    4.02
   2  -5   5   37.28    4.31
   2  -5   5   51.91    7.43
  -2   5  -5   43.52    4.41
  -2   5  -5   40.33    4.56
  -2   5  -5   47.89    4.48
  -2   5  -5   56.66    4.37
   2  -5   6  129.43   10.46
   2  -5   6   96.52    6.56
   2  -5   6   98.48    6.66
   2  -5   6  128.56    9.71
  -2   5  -6  120.33    7.25
  -2   5  -6  110.23    9.79
  -2   5  -6  116.80    8.78
  -2   5  -6  147.13   12.57
   2  -5   7   38.30    4.63
   2  -5   7   18.58    2.63
   2  -5   7   25.73    3.98
  -2   5  -7   25.08    3.74
  -2   5  -7   22.60    6.36
  -2   5  -7   22.07    3.24
  -2   5  -7   28.67    3.45
   2  -5   8    3.02    1.76
   2  -5   8    2.60    1.28
   2  -5   8    2.04    1.33
  -2   5  -8    2.75    1.88
  -2   5  -8    4.15    3.16
  -2   5  -8    2.36    1.48
  -2   5  -8    4.52    1.69
   2  -5   9   35.15    7.60
   2  -5   9   31.25    5.89
   2  -5   9   33.09    4.11
  -2   5  -9   40.93    5.64
  -2   5  -9   49.52    7.22
   2  -5  10   11.88    2.99
   2  -5  10   14.67    2.90
  -2   5 -10   22.53    6.23
  -2   5 -10   29.53    3.67
   2  -5  11    1.08    1.58
  -2   5 -11    2.39    1.89
  -2   5 -11    2.68    1.89
   2  -5  12    0.23    1.53
  -2   5 -12    0.92    1.84
  -2   5 -12    2.48    1.78
   2  -5  13    2.23    2.04
  -2   5 -13    4.08    2.42
  -2   5 -13    6.46    4.23
   2  -5  14    0.18    3.64
  -2   5 -14    4.44    2.67
  -2   5 -14    7.22    2.82
   2  -5  15    2.47    2.35
  -2   5 -15    9.12    5.14
  -2   5 -15    5.32    2.78
   2  -5  16    0.87    1.77
  -2   5 -16    2.41    2.25
  -2   5 -16    2.54    3.39
   2  -5  17    1.54    1.46
  -2   5 -17    0.16    1.96
  -2   5 -17    1.38    1.84
   2  -5  18    0.50    2.20
  -2   5 -18    2.69    1.84
  -2   5 -18    1.20    1.72
  -2   4  17   -2.87    1.88
  -2   4  16    2.00    3.28
  -2   4  15    1.54    2.15
  -2   4  14    3.61    2.81
  -2   4  13   10.05    3.98
  -2   4  12    4.83    3.06
  -2   4  11    1.25    2.11
   2  -4 -10    1.23    1.45
  -2   4  10    0.96    1.03
  -2   4  10   -0.12    1.86
   2  -4  -9    1.35    1.21
  -2   4   9    0.12    0.87
  -2   4   9   -1.04    1.47
   2  -4  -8    1.93    1.64
   2  -4  -8    3.42    1.62
  -2   4   8    1.48    1.20
  -2   4   8    2.19    1.35
  -2   4   8    2.75    1.97
   2  -4  -7    3.93    2.60
   2  -4  -7    2.91    1.65
  -2   4   7    1.91    2.04
  -2   4   7    3.11    2.22
  -2   4   7    3.31    1.30
  -2   4   7    3.11    1.97
   2  -4  -6  150.84   14.84
   2  -4  -6  145.15   11.31
   2  -4  -6  169.58    9.67
  -2   4   6  153.10   15.49
  -2   4   6  162.54   20.27
  -2   4   6  148.75   12.00
  -2   4   6  171.15   13.34
  -2   4   6  194.58   13.82
   2  -4  -5   15.05    3.84
   2  -4  -5   15.76    2.76
   2  -4  -5   19.84    1.99
  -2   4   5   14.82    4.18
  -2   4   5   16.27    5.94
  -2   4   5   16.85    1.75
  -2   4   5   14.87    2.98
  -2   4   5   16.68    4.69
   2  -4  -4  153.50   10.68
   2  -4  -4  163.15   11.32
   2  -4  -4  180.92   12.06
  -2   4   4  171.65   15.37
  -2   4   4  172.06   14.74
  -2   4   4  158.12    8.66
  -2   4   4  168.59   12.07
  -2   4   4  188.86   13.08
   2  -4  -3  128.90    8.64
   2  -4  -3  134.46    9.41
   2  -4  -3  146.82    8.18
  -2   4   3  137.38   12.98
  -2   4   3  136.11   12.17
  -2   4   3  138.36    7.84
  -2   4   3  132.28   13.24
   2  -4  -2  203.16   15.61
   2  -4  -2  209.65   14.01
   2  -4  -2  248.19   13.14
  -2   4   2  227.52   18.42
  -2   4   2  223.36   17.57
  -2   4   2  212.52   12.01
  -2   4   2  230.09   14.68
   2  -4  -1  235.01   14.86
   2  -4  -1  301.48   23.27
   2  -4  -1  258.40   14.38
  -2   4   1  239.19   17.00
  -2   4   1  302.87   26.48
  -2   4   1  247.75   14.56
  -2   4   1  285.78   17.34
   2  -4   0    1.18    1.02
   2  -4   0    1.97    1.50
  -2   4   0    3.08    0.98
  -2   4   0    1.40    1.59
  -2   4   0    5.48    1.40
   2  -4   1   42.93    3.03
   2  -4   1   47.27    4.43
   2  -4   1   36.12    1.18
   2  -4   1   42.75    1.37
  -2   4  -1   43.17    3.08
  -2   4  -1   38.02    3.31
  -2   4  -1   50.99    3.85
  -2   4  -1   48.07    3.64
   2  -4   2    8.45    1.37
   2  -4   2    7.78    2.05
   2  -4   2    6.01    0.78
  -2   4  -2    7.57    1.24
  -2   4  -2    8.94    2.56
  -2   4  -2    9.25    1.73
   2  -4   3  493.38   32.17
   2  -4   3  403.27   33.61
   2  -4   3  414.98   26.23
  -2   4  -3  427.63   26.72
  -2   4  -3  375.01   26.03
  -2   4  -3  397.46   26.00
  -2   4  -3  403.25   28.14
   2  -4   4    2.47    0.95
   2  -4   4    4.26    1.59
   2  -4   4    2.82    0.59
   2  -4   4    1.56    0.61
   2  -4   4    1.28    2.20
  -2   4  -4    2.81    0.75
  -2   4  -4    3.25    1.41
  -2   4  -4    3.17    2.34
  -2   4  -4    1.42    1.24
   2  -4   5  382.52   22.41
   2  -4   5  384.43   26.59
   2  -4   5  250.05   16.05
   2  -4   5  312.78   17.72
   2  -4   5  363.54   23.56
  -2   4  -5  341.70   18.50
  -2   4  -5  344.93   30.01
  -2   4  -5  364.93   26.68
  -2   4  -5  396.48   23.25
   2  -4   6  572.14   35.67
   2  -4   6  379.58   28.41
   2  -4   6  502.80   35.03
  -2   4  -6  480.59   28.34
  -2   4  -6  435.35   39.38
  -2   4  -6  495.33   35.14
  -2   4  -6  518.11   33.44
   2  -4   7  600.31   47.35
   2  -4   7  498.19   39.43
   2  -4   7  536.04   37.18
   2  -4   7  628.53   47.26
  -2   4  -7  554.88   45.96
  -2   4  -7  552.84   43.38
  -2   4  -7  690.20   47.67
   2  -4   8  151.36   13.40
   2  -4   8  119.97   12.42
   2  -4   8  131.11    9.57
   2  -4   8  184.03   13.24
  -2   4  -8  193.73   14.32
  -2   4  -8  146.05   13.39
  -2   4  -8  139.62   11.97
  -2   4  -8  191.97   12.39
   2  -4   9    2.29    1.46
   2  -4   9    1.50    1.31
   2  -4   9    3.25    1.34
  -2   4  -9    2.27    1.94
  -2   4  -9    1.41    1.52
   2  -4  10    9.73    2.64
   2  -4  10    8.26    2.51
  -2   4 -10   17.88    3.60
  -2   4 -10   18.06    2.94
   2  -4  11   -0.94    1.99
   2  -4  11    0.09    1.23
  -2   4 -11    2.07    2.68
  -2   4 -11    1.21    1.36
   2  -4  12   14.69    3.80
  -2   4 -12   27.38    4.58
  -2   4 -12   28.09    7.17
   2  -4  13    3.31    2.95
  -2   4 -13    1.34    2.13
  -2   4 -13    1.76    2.16
   2  -4  14   11.68    3.92
  -2   4 -14   18.96    4.36
  -2   4 -14   19.86    4.28
   2  -4  15    0.10    1.73
  -2   4 -15    2.12    2.98
  -2   4 -15    1.25    1.88
   2  -4  16    0.96    1.95
  -2   4 -16    3.10    2.53
  -2   4 -16    3.82    3.76
   2  -4  17    0.42    1.38
  -2   4 -17    0.79    1.78
  -2   4 -17    0.13    1.58
   2  -4  18    0.51    2.50
  -2   4 -18    3.25    2.00
  -2   4 -18    0.87    1.69
  -2   4 -19   19.62    4.88
  -2   4 -19    1.46    3.56
  -2   3  18    3.49    3.25
  -2   3  17    3.29    2.23
  -2   3  16    4.59    2.76
  -2   3  15    1.46    2.23
   2  -3 -14   39.53    6.58
  -2   3  14   39.23    7.32
   2  -3 -13    2.02    2.03
  -2   3  13   -0.02    2.11
   2  -3 -12    1.64    2.17
   2  -3 -11    0.28    1.57
   2  -3 -10   59.12    6.33
  -2   3  10   28.86    6.94
   2  -3  -9    1.85    1.71
   2  -3  -9    1.71    1.30
   2  -3  -9    1.71    1.57
  -2   3   9    1.00    1.30
  -2   3   9    2.29    1.50
  -2   3   9    1.45    1.92
   2  -3  -8    8.39    2.07
   2  -3  -8    5.47    1.58
   2  -3  -8    4.80    1.23
  -2   3   8    3.13    1.65
  -2   3   8    4.46    3.82
  -2   3   8    4.33    1.74
  -2   3   8    3.15    2.16
   2  -3  -7   19.10    2.91
   2  -3  -7   16.34    2.36
   2  -3  -7   20.43    3.01
  -2   3   7   13.45    2.56
  -2   3   7   13.91    3.53
  -2   3   7   19.90    3.58
  -2   3   7    8.97    2.93
   2  -3  -6   22.06    2.79
   2  -3  -6   17.85    2.38
   2  -3  -6   19.68    1.73
  -2   3   6   11.82    2.48
  -2   3   6   17.06    3.57
  -2   3   6   21.59    1.99
  -2   3   6    8.83    2.50
   2  -3  -5   21.17    2.75
   2  -3  -5   19.73    2.46
   2  -3  -5   22.19    1.81
  -2   3   5   15.66    2.68
  -2   3   5   21.79    3.90
  -2   3   5   21.04    1.97
  -2   3   5   17.14    2.94
   2  -3  -4   25.27    4.54
   2  -3  -4   24.80    2.75
   2  -3  -4   27.10    2.22
  -2   3   4   20.79    3.00
  -2   3   4   19.79    6.98
  -2   3   4   28.73    3.98
  -2   3   4   23.95    3.16
   2  -3  -3  568.85   39.29
   2  -3  -3  552.56   37.79
   2  -3  -3  615.20   37.70
  -2   3   3  514.87   36.83
  -2   3   3  602.36   45.69
  -2   3   3  612.64   39.60
  -2   3   3  601.79   40.97
   2  -3  -2   16.67    2.20
   2  -3  -2   19.23    3.86
  -2   3   2   16.40    2.14
  -2   3   2   17.31    3.05
  -2   3   2   17.66    3.20
  -2   3   2   16.91    3.39
   2  -3  -1   17.04    3.21
   2  -3  -1   16.75    2.21
  -2   3   1   13.31    1.87
  -2   3   1   14.64    2.66
  -2   3   1   14.64    1.78
  -2   3   1   15.92    1.88
  -2   3   1   14.99    1.88
   2  -3   0   37.17    3.09
   2  -3   0   40.70    3.58
  -2   3   0   37.93    2.98
  -2   3   0   35.33    3.08
  -2   3   0   39.97    3.05
  -2   3   0   38.74    2.91
   2  -3   1  338.88   19.81
   2  -3   1  331.64   20.53
   2  -3   1  325.30   18.36
  -2   3  -1  361.51   19.77
  -2   3  -1  305.91   18.89
  -2   3  -1  324.05   22.30
  -2   3  -1  336.69   18.19
   2  -3   2   24.91    2.21
   2  -3   2   24.53    2.91
   2  -3   2   18.36    0.91
   2  -3   2   21.62    0.73
  -2   3  -2   20.43    2.44
  -2   3  -2   24.19    2.61
  -2   3  -2   24.96    2.61
   2  -3   3  124.14    7.01
   2  -3   3  111.87    7.84
   2  -3   3   96.50    4.59
   2  -3   3  113.12    8.43
  -2   3  -3  109.08    5.28
  -2   3  -3  101.58    7.41
  -2   3  -3  107.55    7.06
  -2   3  -3  117.37    5.82
   2  -3   4   64.50    6.15
   2  -3   4   49.32    4.64
   2  -3   4   43.57    2.29
   2  -3   4   49.03    3.56
  -2   3  -4   50.90    3.55
  -2   3  -4   48.05    4.57
  -2   3  -4   48.79    4.14
  -2   3  -4   55.39    3.34
   2  -3   5    4.16    1.17
   2  -3   5    2.02    1.58
   2  -3   5    2.07    1.26
   2  -3   5    3.31    0.79
   2  -3   5    5.18    1.28
  -2   3  -5    3.11    0.57
  -2   3  -5    7.53    2.61
  -2   3  -5    4.60    1.48
  -2   3  -5    4.83    1.75
   2  -3   6  241.00   13.80
   2  -3   6  213.15   15.13
   2  -3   6  179.70   12.68
   2  -3   6  211.12   13.18
  -2   3  -6  192.93   14.72
  -2   3  -6  228.87   12.87
   2  -3   7    5.58    1.35
   2  -3   7    4.49    2.16
   2  -3   7    7.27    2.68
  -2   3  -7    7.01    2.28
  -2   3  -7    8.35    1.60
   2  -3   8   18.92    3.04
   2  -3   8   15.78    2.54
   2  -3   8   16.41    3.99
   2  -3   8   22.76    4.41
  -2   3  -8   27.53    3.63
  -2   3  -8   18.86    3.80
  -2   3  -8   28.30    2.84
   2  -3   9   54.93    5.81
   2  -3   9   43.84    4.97
   2  -3   9   46.18    7.28
   2  -3   9   58.32    5.22
  -2   3  -9   65.71    6.71
  -2   3  -9   47.54    6.76
  -2   3  -9   50.33    9.36
  -2   3  -9   65.31    5.54
   2  -3  10   30.83    6.54
   2  -3  10   25.20    4.09
  -2   3 -10   42.24    5.35
  -2   3 -10   26.45    6.49
  -2   3 -10   41.36    4.37
   2  -3  11    0.97    1.08
   2  -3  11    0.98    2.15
  -2   3 -11    1.17    2.83
  -2   3 -11   -0.43    2.49
   2  -3  12   19.02    7.31
  -2   3 -12   35.13    5.28
  -2   3 -12   30.33    5.06
   2  -3  13    1.09    2.09
  -2   3 -13    3.55    2.26
  -2   3 -13    2.21    2.13
   2  -3  14   41.80    7.88
  -2   3 -14   75.34    8.66
  -2   3 -14   66.14    8.36
   2  -3  15    0.87    2.03
  -2   3 -15    3.11    3.36
  -2   3 -15    2.14    3.50
   2  -3  16   -1.18    1.76
  -2   3 -16   -0.78    2.09
  -2   3 -16   -0.44    1.83
   2  -3  17    0.23    2.01
  -2   3 -17    0.01    1.49
  -2   3 -17    0.00    1.26
   2  -3  18   -0.79    1.19
  -2   3 -18    0.73    1.48
  -2   3 -18   -0.05    1.97
   2  -3  19   -1.67    1.32
  -2   3 -19    0.19    3.07
  -2   3 -19   -1.26    1.19
   2  -2 -18    1.08    1.20
  -2   2  18    0.18    1.56
   2  -2 -17    2.45    2.01
  -2   2  17    2.31    2.27
   2  -2 -16    5.12    2.76
  -2   2  16    3.42    2.78
   2  -2 -15    5.42    2.91
  -2   2  15    2.96    2.12
   2  -2 -14    9.54    3.55
  -2   2  14    2.76    4.10
   2  -2 -13    1.84    2.34
   2  -2 -13    1.77    2.27
  -2   2  13    0.88    2.72
   2  -2 -12    2.96    3.72
   2  -2 -12    2.24    2.22
  -2   2  12    1.29    1.58
   2  -2 -11    1.39    2.82
   2  -2 -11    1.49    1.75
  -2   2  11    0.71    1.16
  -2   2  11    0.41    1.25
   2  -2 -10    5.42    3.64
   2  -2 -10    6.34    2.25
  -2   2  10    2.70    1.55
  -2   2  10    3.64    1.60
   2  -2  -9    5.75    3.33
   2  -2  -9    5.72    2.05
  -2   2   9    2.58    1.52
  -2   2   9    3.29    1.99
  -2   2   9    7.53    1.90
  -2   2   9    2.22    1.39
   2  -2  -8  216.55   19.84
   2  -2  -8  170.54   11.03
   2  -2  -8  198.77   10.45
   2  -2  -8  215.93   16.02
  -2   2   8  196.07   15.88
  -2   2   8  259.21   15.96
  -2   2   8  158.36   11.23
   2  -2  -7   18.36    4.81
   2  -2  -7   15.03    1.88
   2  -2  -7   17.15    2.38
   2  -2  -7   14.62    2.82
  -2   2   7   13.45    5.36
  -2   2   7   19.50    2.21
   2  -2  -6  494.30   36.65
   2  -2  -6  464.89   38.82
   2  -2  -6  382.53   25.22
   2  -2  -6  474.47   26.30
   2  -2  -6  458.70   32.35
  -2   2   6  456.19   35.85
  -2   2   6  505.53   31.27
   2  -2  -5 2384.80  260.59
   2  -2  -5 2308.85  249.42
   2  -2  -5 2139.29  221.35
   2  -2  -5 2358.96  236.26
   2  -2  -5 2396.20  250.75
  -2   2   5 2429.46  268.00
  -2   2   5 2405.30  254.03
   2  -2  -4    0.78    1.39
   2  -2  -4    0.94    1.16
   2  -2  -4    1.79    1.30
   2  -2  -4    0.86    0.58
  -2   2   4    3.01    1.51
  -2   2   4    1.60    0.99
  -2   2   4    0.89    0.38
   2  -2  -3  673.23   49.15
   2  -2  -3  648.37   44.96
   2  -2  -3  664.16   43.99
  -2   2   3  650.81   48.93
  -2   2   3  656.21   43.53
  -2   2   3  662.96   43.55
   2  -2  -2    6.80    1.50
   2  -2  -2    3.35    1.37
   2  -2  -2    4.94    1.18
  -2   2   2    3.01    2.62
  -2   2   2    4.41    1.24
  -2   2   2    5.04    0.99
  -2   2   2    3.52    1.02
   2  -2  -1  109.31    6.92
   2  -2  -1   99.45    6.28
   2  -2  -1   98.09    5.89
  -2   2   1   98.52    5.81
  -2   2   1  104.47    7.10
  -2   2   1  102.25    6.77
   2  -2   0  272.24   18.75
   2  -2   0  289.77   19.50
  -2   2   0  271.23   15.84
  -2   2   0  295.14   15.97
  -2   2   0  284.81   14.17
   2  -2   1   22.10    2.51
   2  -2   1   22.42    2.54
   2  -2   1   27.35    1.85
  -2   2  -1   21.19    1.83
  -2   2  -1   21.68    2.54
  -2   2  -1   22.93    2.29
  -2   2  -1   25.58    1.74
   2  -2   2  132.06   10.76
   2  -2   2  148.19    8.50
   2  -2   2  121.54    7.68
  -2   2  -2  122.21    6.13
  -2   2  -2  117.48    7.88
  -2   2  -2  128.00    7.63
   2  -2   3  182.22   10.03
   2  -2   3  170.52   14.54
   2  -2   3  161.18    7.84
   2  -2   3  146.06    6.15
   2  -2   3  169.83    8.16
  -2   2  -3  181.87    9.62
  -2   2  -3  165.89   10.81
  -2   2  -3  162.48   10.48
  -2   2  -3  174.97    7.89
   2  -2   4    1.87    1.07
   2  -2   4    1.76    1.20
   2  -2   4    1.27    0.86
   2  -2   4    1.58    0.54
   2  -2   4    2.11    0.80
  -2   2  -4    1.28    0.38
  -2   2  -4    4.27    2.19
  -2   2  -4    2.47    1.27
  -2   2  -4    2.16    1.11
   2  -2   5    6.64    1.36
   2  -2   5    7.15    1.82
   2  -2   5    3.60    0.97
   2  -2   5    6.19    1.00
   2  -2   5    6.13    1.86
  -2   2  -5   10.43    1.91
  -2   2  -5    7.94    1.91
  -2   2  -5    6.99    1.10
   2  -2   6   30.89    5.93
   2  -2   6   18.92    2.28
   2  -2   6   25.30    2.42
   2  -2   6   30.77    2.52
  -2   2  -6   39.08    3.89
  -2   2  -6   28.73    3.78
  -2   2  -6   30.38    3.59
   2  -2   7    9.83    2.09
   2  -2   7    5.34    1.60
   2  -2   7    8.37    1.62
   2  -2   7   10.98    1.61
  -2   2  -7   10.80    2.52
  -2   2  -7    9.33    2.38
  -2   2  -7   11.07    1.64
   2  -2   8    5.54    1.66
   2  -2   8    1.80    2.22
   2  -2   8    3.29    1.40
   2  -2   8    5.44    1.35
  -2   2  -8    3.70    1.78
  -2   2  -8    3.01    2.05
  -2   2  -8    4.65    1.93
  -2   2  -8    4.16    1.34
   2  -2   9   15.08    4.50
   2  -2   9   11.72    3.95
   2  -2   9   13.05    2.50
   2  -2   9   15.16    2.43
  -2   2  -9   18.54    3.11
  -2   2  -9   12.83    3.50
  -2   2  -9   14.58    3.18
   2  -2  10    0.47    1.10
   2  -2  10   -0.38    2.15
  -2   2 -10    1.73    1.52
  -2   2 -10    1.09    1.52
  -2   2 -10    1.11    1.30
   2  -2  11    1.02    1.20
   2  -2  11    1.80    1.56
  -2   2 -11    0.60    2.84
  -2   2 -11    0.97    1.50
   2  -2  12    0.62    2.22
   2  -2  12    1.13    1.81
  -2   2 -12    2.68    1.89
  -2   2 -12    1.98    1.76
   2  -2  13   30.61    6.19
  -2   2 -13   50.69    6.49
  -2   2 -13   35.55    8.73
   2  -2  14    1.34    2.11
  -2   2 -14    2.25    2.11
  -2   2 -14    1.77    2.06
   2  -2  15    1.72    2.37
  -2   2 -15    5.77    3.72
  -2   2 -15    2.89    2.33
   2  -2  16   -0.21    3.60
  -2   2 -16    5.56    2.47
  -2   2 -16    0.33    2.15
   2  -2  17    0.98    1.62
  -2   2 -17    0.65    1.83
  -2   2 -17    0.14    2.51
   2  -2  18    1.64    1.58
  -2   2 -18    1.60    1.75
  -2   2 -18    0.76    1.40
   2  -2  19    0.00    1.38
  -2   2 -19    2.86    1.63
  -2   1  19    6.67    2.36
   2  -1 -18    1.94    1.60
  -2   1  18    0.06    1.04
  -2   1  18    0.45    1.59
   2  -1 -17    2.52    2.13
  -2   1  17    0.64    1.46
   2  -1 -16   -1.88    2.73
  -2   1  16    7.43    3.15
   2  -1 -15   -0.86    1.93
   2  -1 -15    1.39    1.79
  -2   1  15   -0.82    1.36
   2  -1 -14   17.22    6.68
   2  -1 -14   11.53    3.73
  -2   1  14    5.95    2.85
   2  -1 -13   18.94    6.36
   2  -1 -13   14.48    3.80
  -2   1  13    6.74    2.89
   2  -1 -12    2.65    2.38
   2  -1 -12    2.82    2.20
  -2   1  12    1.85    1.70
   2  -1 -11   16.55    3.72
   2  -1 -11   13.40    3.45
  -2   1  11    6.56    3.91
   2  -1 -10    1.43    1.48
   2  -1 -10    2.34    1.63
   2  -1 -10    1.08    1.45
  -2   1  10   -0.15    1.88
  -2   1  10   -0.04    1.06
   2  -1  -9   40.13    5.64
   2  -1  -9   46.29    5.58
   2  -1  -9   46.93    5.27
  -2   1   9   46.17    5.66
  -2   1   9   57.99    5.44
  -2   1   9   36.33    3.93
   2  -1  -8    2.19    1.83
   2  -1  -8    3.92    1.88
   2  -1  -8    6.25    1.66
  -2   1   8    2.04    1.79
  -2   1   8    4.53    2.56
  -2   1   8    2.63    1.08
   2  -1  -7  115.24    9.92
   2  -1  -7  112.26    8.65
   2  -1  -7  102.98    7.11
   2  -1  -7  106.83    4.70
   2  -1  -7  110.75    8.17
  -2   1   7  114.55    9.67
  -2   1   7  143.82    8.00
  -2   1   7   97.81    5.97
  -2   1   7  118.11    7.51
   2  -1  -6   86.44   11.77
   2  -1  -6   85.78    9.85
   2  -1  -6   83.63    4.51
   2  -1  -6   90.73    3.59
   2  -1  -6   86.24    6.39
  -2   1   6   87.32    7.43
  -2   1   6  103.29    5.97
  -2   1   6   81.66    5.84
  -2   1   6   90.65    5.65
   2  -1  -5  651.54   54.90
   2  -1  -5  650.88   51.42
   2  -1  -5  602.85   37.39
   2  -1  -5  635.10   37.28
   2  -1  -5  604.55   40.78
  -2   1   5  589.14   50.46
  -2   1   5  771.58   54.69
  -2   1   5  502.92   33.18
   2  -1  -4   51.50    7.63
   2  -1  -4   48.16    4.12
   2  -1  -4   49.43    2.74
   2  -1  -4   47.09    2.05
   2  -1  -4   49.08    3.17
  -2   1   4   51.46    7.42
  -2   1   4   57.66    3.78
  -2   1   4   41.05    2.62
   2  -1  -3   -0.91    1.57
   2  -1  -3    0.98    0.83
   2  -1  -3   -0.08    0.84
  -2   1   3   -0.20    0.93
  -2   1   3    0.37    0.70
  -2   1   3   -0.04    0.43
  -2   1   3    0.14    0.21
  -2   1   3    0.52    0.49
   2  -1  -2  195.98   15.53
   2  -1  -2  175.66   13.20
   2  -1  -2  167.05   10.52
  -2   1   2  177.43   11.19
  -2   1   2  177.18    9.84
  -2   1   2  203.99   10.78
  -2   1   2  159.40    5.11
  -2   1   2  183.46    6.24
  -2   1   2  172.68    7.93
   2  -1  -1    4.14    2.28
   2  -1  -1    4.85    1.39
   2  -1  -1    3.89    1.04
  -2   1   1    4.78    1.26
  -2   1   1    4.66    0.90
  -2   1   1    4.58    1.07
   2  -1   0   21.34    3.52
   2  -1   0   25.66    4.24
   2  -1   0   24.38    2.23
  -2   1   0   25.02    2.57
  -2   1   0   25.89    3.45
  -2   1   0   28.05    2.02
   2  -1   1   17.42    1.74
   2  -1   1   21.34    2.27
   2  -1   1   19.18    3.20
   2  -1   1   17.89    0.72
   2  -1   1   20.00    1.10
  -2   1  -1   21.65    2.30
   2  -1   2  224.01   12.61
   2  -1   2  290.59   19.92
   2  -1   2  249.48   14.54
   2  -1   2  244.72   10.36
   2  -1   2  249.60   12.47
  -2   1  -2  248.50   15.38
  -2   1  -2  263.37   15.13
  -2   1  -2  232.81   10.79
  -2   1  -2  269.24   11.19
   2  -1   3  604.57   39.91
   2  -1   3  594.98   40.42
   2  -1   3  586.09   35.85
   2  -1   3  594.06   34.27
  -2   1  -3  594.12   41.97
  -2   1  -3  581.00   45.77
  -2   1  -3  636.78   38.34
  -2   1  -3  636.42   35.29
   2  -1   4 1030.69   71.80
   2  -1   4  912.77   74.48
   2  -1   4  759.42   54.59
   2  -1   4  802.69   55.13
  -2   1  -4  664.30   46.47
  -2   1  -4  891.72   73.37
  -2   1  -4  821.96   69.35
  -2   1  -4  880.10   60.02
  -2   1  -4  884.47   58.79
   2  -1   5  165.47    9.51
   2  -1   5  163.23   11.18
   2  -1   5  153.47    9.28
   2  -1   5  159.17    8.02
  -2   1  -5  154.42   11.40
  -2   1  -5  161.50    9.05
  -2   1  -5  167.75    8.30
   2  -1   6 1386.35  111.95
   2  -1   6 1278.29  109.92
   2  -1   6 1006.31   86.63
   2  -1   6 1097.88   89.13
  -2   1  -6 1167.11  104.81
  -2   1  -6 1156.97   95.24
  -2   1  -6 1277.71  100.58
   2  -1   7    0.59    1.17
   2  -1   7   -0.22    1.00
   2  -1   7    1.22    0.77
  -2   1  -7    0.85    1.34
  -2   1  -7    0.67    0.95
  -2   1  -7    1.39    1.24
   2  -1   8   80.13    9.08
   2  -1   8   69.37    6.88
   2  -1   8   78.31    5.77
  -2   1  -8  113.06    7.89
  -2   1  -8   85.90   11.68
  -2   1  -8   81.72    6.71
  -2   1  -8   90.10    6.55
   2  -1   9   88.73    7.29
   2  -1   9   67.50    7.45
   2  -1   9   74.12    6.19
  -2   1  -9  103.32    8.29
  -2   1  -9   87.42   12.55
  -2   1  -9   94.33    7.38
   2  -1  10   55.47    5.34
   2  -1  10   41.18    5.99
   2  -1  10   43.17    4.80
  -2   1 -10   61.99    6.30
  -2   1 -10   51.34    5.38
   2  -1  11   50.73    8.10
   2  -1  11   47.30    6.66
  -2   1 -11   70.27    9.78
  -2   1 -11   49.52    8.62
   2  -1  12    2.30    1.35
   2  -1  12    2.89    2.10
  -2   1 -12    3.67    1.97
  -2   1 -12    1.43    3.14
   2  -1  13    5.71    1.83
   2  -1  13    5.37    2.99
  -2   1 -13   10.94    2.78
  -2   1 -13    6.09    2.72
   2  -1  14    1.61    1.23
   2  -1  14    2.49    3.39
  -2   1 -14    2.16    1.93
  -2   1 -14    0.47    1.93
   2  -1  15    0.31    2.77
  -2   1 -15    0.01    3.05
  -2   1 -15   -0.69    1.53
   2  -1  16   -0.51    1.79
  -2   1 -16    1.96    1.85
  -2   1 -16    0.71    2.56
   2  -1  17    0.35    1.80
  -2   1 -17    1.83    1.77
  -2   1 -17    1.01    1.44
   2  -1  18    0.03    1.34
  -2   1 -18    0.02    2.34
  -2   1 -18    0.56    0.94
   2   0 -19    7.07    2.97
  -2   0  19    9.35    2.72
   2   0 -18   20.85    3.99
  -2   0  18    6.01    2.44
   2   0 -17    1.50    2.58
   2   0 -17    4.24    2.24
  -2   0  17    0.70    1.72
   2   0 -16    5.75    5.68
   2   0 -16    4.65    2.86
  -2   0  16    2.88    2.23
   2   0 -15   38.64    9.30
   2   0 -15   24.16    5.26
  -2   0  15   13.58    4.27
   2   0 -14   46.88    7.56
   2   0 -14   35.37    6.72
  -2   0  14   23.63    8.63
   2   0 -13   30.58    5.93
   2   0 -13   25.42    5.16
  -2   0  13   15.40    6.44
   2   0 -12   18.56    4.72
   2   0 -12   41.31    5.82
   2   0 -12   36.86    8.04
  -2   0  12   24.36    4.13
   2   0 -11   56.87    7.76
   2   0 -11   95.91    9.16
   2   0 -11   84.34   11.95
  -2   0  11   64.66    6.54
   2   0 -10   68.86    8.20
   2   0 -10   87.36    8.49
   2   0 -10   82.23   11.01
  -2   0  10   75.18    7.08
  -2   0  10   73.38    6.44
   2   0  -9   29.58    5.76
   2   0  -9   14.47    3.20
   2   0  -9   11.67    2.63
  -2   0   9   10.53    2.43
  -2   0   9   18.62    2.88
  -2   0   9   10.08    3.30
  -2   0   9   13.32    2.16
   2   0  -8   46.73    6.25
   2   0  -8   47.86    5.23
   2   0  -8   44.77    4.47
  -2   0   8   40.43    6.48
  -2   0   8   59.62    6.90
  -2   0   8   45.79    3.86
  -2   0   8   51.91    5.55
   2   0  -7  129.67   11.07
   2   0  -7  116.81    9.01
   2   0  -7  113.40    7.96
  -2   0   7  129.33   13.69
  -2   0   7  142.73    8.24
  -2   0   7  109.80    6.59
  -2   0   7  127.70    9.66
   2   0  -6   18.05    3.25
   2   0  -6   18.34    2.71
   2   0  -6   15.87    0.85
   2   0  -6   15.51    0.91
   2   0  -6   16.86    3.15
  -2   0   6   18.30    2.88
  -2   0   6   22.75    2.14
  -2   0   6   16.49    1.60
  -2   0   6   19.32    1.80
   2   0  -5  309.95   21.93
   2   0  -5  292.78   22.23
   2   0  -5  275.31   12.49
   2   0  -5  292.44   12.39
   2   0  -5  289.36   18.79
  -2   0   5  299.99   20.55
  -2   0   5  292.79   19.08
  -2   0   5  277.81   15.68
  -2   0   5  313.45   15.98
   2   0  -4   99.20    7.88
   2   0  -4  111.24    7.15
   2   0  -4   95.49    5.02
   2   0  -4   99.54    6.46
  -2   0   4   96.50    7.12
  -2   0   4  116.51    6.64
  -2   0   4  108.16    4.46
  -2   0   4   99.68    4.63
   2   0  -3   94.43    6.92
   2   0  -3   93.35    5.98
   2   0  -3   80.37    4.52
   2   0  -3   84.07    3.80
  -2   0   3   88.23    6.13
  -2   0   3   95.22    5.38
  -2   0   3  101.19    4.70
  -2   0   3   85.02    4.41
   2   0  -2   20.02    4.34
   2   0  -2   22.55    2.51
   2   0  -2   20.60    1.44
   2   0  -2   24.82    1.11
  -2   0   2   20.37    2.46
  -2   0   2   25.33    2.39
  -2   0   2   21.59    2.03
  -2   0   2   24.41    1.14
  -2   0   2   22.25    1.57
   2   0  -1    1.43    1.63
   2   0  -1    0.84    1.08
   2   0  -1    1.26    0.35
  -2   0   1    0.67    0.87
  -2   0   1    1.37    0.89
  -2   0   1    1.60    0.62
  -2   0   1    1.05    0.36
  -2   0   1    1.24    0.26
  -2   0   1    1.10    0.26
   2   0   0  918.32   67.98
   2   0   0  995.08   72.34
   2   0   0  885.14   62.71
   2   0   0  935.56   60.16
  -2   0   0  909.49   65.84
  -2   0   0  895.50   65.96
  -2   0   0  926.60   68.86
  -2   0   0 1072.74   68.03
  -2   0   0  896.98   53.45
   2   0   1    2.60    1.33
   2   0   1    5.66    1.88
   2   0   1    3.55    0.66
  -2   0  -1    4.24    1.45
  -2   0  -1    4.22    1.34
  -2   0  -1    4.29    1.14
  -2   0  -1    3.23    0.97
  -2   0  -1    4.57    0.22
   2   0   2  870.35   57.72
   2   0   2  970.37   73.94
   2   0   2  797.44   56.89
   2   0   2  852.80   56.07
   2   0   2  814.11   49.35
  -2   0  -2  776.40   49.89
  -2   0  -2  836.26   61.54
  -2   0  -2  819.93   60.11
  -2   0  -2  918.04   58.34
  -2   0  -2  864.28   50.18
   2   0   3    9.33    1.40
   2   0   3   12.75    1.79
   2   0   3   11.42    1.89
   2   0   3    9.69    1.35
   2   0   3   11.56    1.15
  -2   0  -3   10.89    1.23
  -2   0  -3   12.11    2.04
  -2   0  -3   10.85    2.21
  -2   0  -3   11.51    2.03
  -2   0  -3   13.46    1.06
   2   0   4 1886.69  167.04
   2   0   4 1602.09  142.19
   2   0   4 1428.90  128.01
   2   0   4 1460.12  117.34
  -2   0  -4 1316.59   97.83
  -2   0  -4 1470.86  134.80
  -2   0  -4 1447.03  133.82
  -2   0  -4 1633.65  137.18
  -2   0  -4 1598.28  129.98
   2   0   5    1.36    0.79
   2   0   5    0.57    1.46
   2   0   5    0.62    0.81
  -2   0  -5    0.91    1.28
  -2   0  -5   -0.55    0.87
  -2   0  -5    0.81    0.56
   2   0   6  937.41   66.60
   2   0   6  780.20   65.72
   2   0   6  733.19   57.27
   2   0   6  726.64   54.11
  -2   0  -6  785.49   65.89
  -2   0  -6  797.39   65.17
  -2   0  -6  858.52   59.31
   2   0   7    1.69    1.00
   2   0   7   -1.38    1.01
   2   0   7    0.48    0.99
  -2   0  -7    0.15    1.36
  -2   0  -7    0.09    1.64
  -2   0  -7    0.79    0.73
   2   0   8   27.84    3.29
   2   0   8   18.28    3.43
   2   0   8   17.25    3.41
  -2   0  -8   33.07    3.37
  -2   0  -8   26.39    4.19
  -2   0  -8   23.61    3.39
  -2   0  -8   22.11    4.05
   2   0   9   84.65    6.95
   2   0   9   58.00    6.94
   2   0   9   47.09    6.54
  -2   0  -9   83.44    7.04
  -2   0  -9   79.18    8.27
  -2   0  -9   70.97    6.85
  -2   0  -9   70.72    8.53
   2   0  10   44.94    6.79
   2   0  10   29.65    5.13
   2   0  10   24.47    5.08
  -2   0 -10   49.23    7.34
  -2   0 -10   31.64    4.38
   2   0  11    7.41    1.97
   2   0  11    5.46    4.59
  -2   0 -11   10.32    2.41
  -2   0 -11    7.20    2.37
   2   0  12    1.54    1.31
   2   0  12    2.66    3.25
  -2   0 -12    2.70    1.64
  -2   0 -12    0.75    1.67
   2   0  13    3.29    1.63
   2   0  13    1.03    4.20
  -2   0 -13    5.61    2.09
  -2   0 -13    2.64    3.54
   2   0  14    1.31    1.77
   2   0  14    0.64    1.73
  -2   0 -14   -1.25    2.19
  -2   0 -14   -0.09    2.36
   2   0  15    0.76    1.09
   2   0  15    0.02    1.88
  -2   0 -15    1.36    1.77
   2   0  16    0.63    1.67
  -2   0 -16    0.28    1.50
   2   0  17    2.24    1.75
  -2   0 -17   -1.45    2.42
   2   1 -19   -1.82    1.47
  -2  -1  19    1.62    1.42
   2   1 -18    6.43    2.76
  -2  -1  18    0.97    1.71
   2   1 -17    3.02    2.73
   2   1 -17    1.60    2.21
  -2  -1  17    1.65    1.88
   2   1 -16    8.43    6.21
   2   1 -16    5.49    3.00
  -2  -1  16    4.14    2.63
   2   1 -15  112.60   18.62
   2   1 -15   91.21   11.92
  -2  -1  15   66.72   13.68
   2   1 -14   23.12    5.35
  -2  -1  14   11.48    3.63
   2   1 -13  272.35   24.80
   2   1 -13  230.01   27.72
  -2  -1  13  189.31   18.85
   2   1 -12   33.81    6.62
   2   1 -12   67.58    8.16
   2   1 -12   57.82    7.08
  -2  -1  12   50.18    6.15
   2   1 -11    6.70    4.75
   2   1 -11    7.44    3.07
   2   1 -11    6.51    2.41
  -2  -1  11    5.38    3.44
   2   1 -10    2.30    1.96
   2   1 -10    1.18    1.96
   2   1 -10    1.92    1.52
  -2  -1  10    1.91    2.34
  -2  -1  10    1.46    1.33
  -2  -1  10    2.52    1.95
   2   1  -9   80.09    8.63
   2   1  -9   68.90    7.19
   2   1  -9   65.06    6.31
  -2  -1   9   70.58    6.50
  -2  -1   9   87.43    6.82
  -2  -1   9   67.12    5.69
  -2  -1   9   69.85    5.26
   2   1  -8    1.03    1.69
   2   1  -8    1.71    1.55
   2   1  -8    1.69    1.09
  -2  -1   8    0.56    1.21
  -2  -1   8    1.94    1.97
  -2  -1   8    2.09    1.00
  -2  -1   8    0.89    0.87
   2   1  -7    2.69    3.14
   2   1  -7    3.09    1.65
   2   1  -7    2.51    1.11
  -2  -1   7    2.98    1.39
  -2  -1   7    4.46    1.27
  -2  -1   7    2.82    1.06
  -2  -1   7    1.96    0.90
   2   1  -6  387.18   34.29
   2   1  -6  341.13   23.33
   2   1  -6  326.67   19.57
  -2  -1   6  338.75   23.48
  -2  -1   6  408.20   23.98
  -2  -1   6  399.07   22.66
  -2  -1   6  347.47   19.12
   2   1  -5   25.49    3.59
   2   1  -5   27.87    4.57
   2   1  -5   21.08    1.80
  -2  -1   5   23.23    2.69
  -2  -1   5   26.76    2.31
  -2  -1   5   23.10    1.59
   2   1  -4    0.37    1.14
   2   1  -4    0.28    0.95
   2   1  -4    0.72    0.25
   2   1  -4    0.76    0.57
   2   1  -4    0.36    0.43
  -2  -1   4    0.30    0.83
  -2  -1   4    0.61    0.81
  -2  -1   4    0.45    0.17
  -2  -1   4    0.60    0.34
   2   1  -3    0.04    1.14
   2   1  -3    1.04    0.94
   2   1  -3    1.13    0.51
   2   1  -3    1.30    0.91
   2   1  -3    0.59    0.52
  -2  -1   3    0.73    0.83
  -2  -1   3    1.25    0.78
  -2  -1   3    1.02    0.53
  -2  -1   3    0.17    0.52
  -2  -1   3    0.67    0.26
   2   1  -2   15.21    2.24
   2   1  -2   13.32    3.05
   2   1  -2   12.00    0.94
   2   1  -2   14.01    1.16
  -2  -1   2   11.72    1.66
  -2  -1   2   14.77    2.73
  -2  -1   2   12.41    1.07
  -2  -1   2   12.24    0.59
   2   1  -1  319.12   20.55
   2   1  -1  342.89   20.35
   2   1  -1  337.74   17.36
  -2  -1   1  336.15   18.73
  -2  -1   1  360.28   19.86
  -2  -1   1  337.96   18.00
  -2  -1   1  373.52   18.55
   2   1   0  472.92   31.68
   2   1   0  552.35   39.14
   2   1   0  513.88   30.80
  -2  -1   0  534.68   31.34
  -2  -1   0  503.79   34.10
  -2  -1   0  502.16   30.84
  -2  -1   0  617.56   36.36
   2   1   1   52.85    3.45
   2   1   1   48.60    3.54
   2   1   1   54.84    4.74
   2   1   1   49.64    2.96
  -2  -1  -1   48.43    3.06
  -2  -1  -1   47.38    3.40
  -2  -1  -1   47.06    4.93
  -2  -1  -1   54.48    2.98
   2   1   2  483.38   28.95
   2   1   2  497.97   32.99
   2   1   2  448.69   30.95
   2   1   2  509.11   29.88
  -2  -1  -2  485.22   27.50
  -2  -1  -2  539.87   36.53
  -2  -1  -2  492.35   35.29
  -2  -1  -2  572.57   35.29
   2   1   3  184.51   10.48
   2   1   3  223.93   12.07
   2   1   3  188.51   10.76
   2   1   3  206.14   11.90
  -2  -1  -3  186.16    8.50
  -2  -1  -3  185.53   11.80
  -2  -1  -3  182.45   15.15
  -2  -1  -3  217.24   11.78
   2   1   4  648.67   37.96
   2   1   4  735.09   49.96
   2   1   4  795.31   53.42
   2   1   4  726.02   50.53
   2   1   4  605.86   36.67
  -2  -1  -4  705.08   40.09
  -2  -1  -4  779.31   54.94
  -2  -1  -4  686.66   56.63
  -2  -1  -4  816.86   53.97
  -2  -1  -4  506.64   39.88
   2   1   5    1.60    0.72
   2   1   5    1.44    1.05
   2   1   5   -0.02    1.03
   2   1   5    0.06    0.65
  -2  -1  -5    1.44    2.05
  -2  -1  -5    0.77    1.08
  -2  -1  -5    0.51    0.52
   2   1   6  891.06   63.24
   2   1   6  716.07   54.73
   2   1   6  550.77   36.76
  -2  -1  -6  780.81   67.44
  -2  -1  -6  785.52   57.95
  -2  -1  -6  534.82   45.97
   2   1   7   60.99    5.42
   2   1   7   43.16    5.31
  -2  -1  -7   64.52    4.69
  -2  -1  -7   53.81    9.48
  -2  -1  -7   52.52    5.34
  -2  -1  -7   40.22    3.71
   2   1   8    9.34    3.17
   2   1   8    4.69    2.15
   2   1   8    4.20    1.20
  -2  -1  -8    7.67    1.68
  -2  -1  -8   10.54    2.72
  -2  -1  -8    6.63    3.35
  -2  -1  -8    4.95    1.54
   2   1   9   26.55    3.14
   2   1   9   19.15    3.95
  -2  -1  -9   22.85    4.81
   2   1  10   12.40    2.40
   2   1  10    8.05    3.13
  -2  -1 -10   12.44    2.43
   2   1  11    4.34    1.76
   2   1  11    3.81    2.52
  -2  -1 -11    4.61    1.83
   2   1  12    7.28    2.12
   2   1  12    5.67    3.07
  -2  -1 -12    7.14    2.27
   2   1  13    0.20    1.98
   2   1  13   -0.97    1.81
  -2  -1 -13   -0.67    2.57
   2   1  14   -0.21    1.05
   2   1  14    0.02    1.65
  -2  -1 -14   -0.27    1.37
   2   1  15    0.55    1.20
   2   1  15    3.53    2.07
  -2  -1 -15    0.63    1.64
   2   1  16    1.29    3.19
   2   1  17   -0.20    1.35
   2   1  18   -0.54    1.29
   2   2 -19   -5.03    2.02
  -2  -2  19    0.68    1.23
   2   2 -18    2.62    1.91
   2   2 -18   -0.57    1.40
  -2  -2  18   -0.12    1.26
   2   2 -17    0.40    2.19
   2   2 -17    0.43    1.66
  -2  -2  17    0.56    1.54
   2   2 -16   15.14    8.13
   2   2 -16   15.33    3.99
  -2  -2  16   11.57    3.65
   2   2 -15   39.98    6.70
   2   2 -15   30.42    8.72
  -2  -2  15   19.33    5.09
   2   2 -14    2.01    2.43
   2   2 -14    1.51    1.91
  -2  -2  14    0.24    1.82
   2   2 -13   70.49   15.90
   2   2 -13  130.87   13.85
   2   2 -13  110.68   12.04
  -2  -2  13  115.45   15.90
   2   2 -12   17.62    4.97
   2   2 -12   28.61    5.26
   2   2 -12   19.62    4.16
  -2  -2  12   21.03    3.93
   2   2 -11   48.38    7.90
   2   2 -11   54.42    7.24
   2   2 -11   50.00    6.11
  -2  -2  11   53.17    6.09
   2   2 -10    3.78    2.46
   2   2 -10    3.50    2.25
   2   2 -10    2.36    1.71
  -2  -2  10    3.95    1.43
  -2  -2  10    3.16    1.69
  -2  -2  10    3.53    1.41
   2   2  -9    1.41    3.53
   2   2  -9    2.64    1.91
   2   2  -9    1.54    1.39
  -2  -2   9    3.08    1.28
  -2  -2   9    3.52    1.58
  -2  -2   9    2.54    2.27
  -2  -2   9    2.74    1.15
   2   2  -8   36.41    5.38
   2   2  -8   35.04    4.43
   2   2  -8   29.82    5.01
  -2  -2   8   30.59    5.00
  -2  -2   8   42.85    3.81
  -2  -2   8   33.51    3.55
  -2  -2   8   31.49    2.96
   2   2  -7   43.92    5.61
   2   2  -7   42.39    4.51
   2   2  -7   35.48    4.76
  -2  -2   7   36.45    5.28
  -2  -2   7   54.84    5.69
  -2  -2   7   46.46    3.74
  -2  -2   7   37.63    2.90
   2   2  -6  172.69   14.02
   2   2  -6  156.29   10.71
   2   2  -6  138.15   10.44
  -2  -2   6  174.93   15.30
  -2  -2   6  179.76    9.92
  -2  -2   6  150.59    7.82
   2   2  -5  220.30   15.90
   2   2  -5  209.10   16.86
   2   2  -5  206.83   11.66
   2   2  -5  163.20   11.03
  -2  -2   5  220.40   17.52
  -2  -2   5  216.92   11.54
  -2  -2   5  192.37    9.00
   2   2  -4  273.01   24.21
   2   2  -4  258.21   15.88
   2   2  -4  278.67   17.65
   2   2  -4  208.27   12.28
  -2  -2   4  295.31   21.24
  -2  -2   4  256.15   16.16
  -2  -2   4  280.34   15.15
  -2  -2   4  254.83   12.25
   2   2  -3   37.50    6.01
   2   2  -3   38.14    3.23
  -2  -2   3   34.00    4.17
  -2  -2   3   46.05    2.86
  -2  -2   3   37.23    2.54
  -2  -2   3   41.93    2.81
  -2  -2   3   35.42    1.63
   2   2  -2   69.68    8.21
   2   2  -2   79.34    7.08
   2   2  -2   75.50    4.15
   2   2  -2   79.36    4.53
  -2  -2   2   74.32    4.44
  -2  -2   2   83.23    4.34
  -2  -2   2   77.96    3.86
   2   2  -1  165.67   10.72
   2   2  -1  181.47   10.48
   2   2  -1  183.30    8.69
  -2  -2   1  194.04    9.87
  -2  -2   1  206.81   12.61
  -2  -2   1  177.75   11.03
   2   2   0  237.67   14.46
   2   2   0  235.29   13.57
   2   2   0  258.74   13.39
   2   2   0  291.88   15.45
  -2  -2   0  286.88   14.28
  -2  -2   0  263.03   14.26
  -2  -2   0  245.52   13.59
   2   2   1   86.00    5.53
   2   2   1  105.52    7.72
   2   2   1   93.46    5.28
   2   2   1   96.43    5.87
  -2  -2  -1  113.82    6.28
  -2  -2  -1   92.02    7.17
  -2  -2  -1   91.97    5.68
  -2  -2  -1  107.92    6.38
   2   2   2   66.12    5.82
   2   2   2   77.70    4.67
   2   2   2   72.07    4.97
  -2  -2  -2   74.83    3.10
  -2  -2  -2   64.50    4.54
  -2  -2  -2   64.74    4.93
  -2  -2  -2   82.02    5.29
   2   2   3    9.30    2.09
   2   2   3    8.35    1.61
   2   2   3   11.05    1.65
   2   2   3    9.99    1.85
  -2  -2  -3    9.81    1.13
  -2  -2  -3    8.50    1.55
  -2  -2  -3   10.59    2.03
  -2  -2  -3    9.02    1.80
   2   2   4  155.04   13.05
   2   2   4  135.51   13.29
  -2  -2  -4  131.63   10.22
  -2  -2  -4  151.81    9.97
   2   2   5  167.93   13.57
   2   2   5  167.51   12.75
  -2  -2  -5  168.57   12.80
  -2  -2  -5  166.47   15.95
   2   2   6   50.48    6.32
   2   2   6   44.33    5.16
  -2  -2  -6   52.27    3.68
  -2  -2  -6   51.10    5.61
  -2  -2  -6   48.58    5.10
   2   2   7    2.11    1.22
   2   2   7    2.51    1.59
  -2  -2  -7    2.05    1.00
  -2  -2  -7    2.45    1.83
  -2  -2  -7    1.85    1.53
   2   2   8    7.42    2.53
  -2  -2  -8    7.13    2.59
   2   2   9    3.34    1.49
   2   2   9    1.54    2.01
  -2  -2  -9    2.48    1.28
   2   2  10    0.34    1.29
   2   2  10    2.36    1.80
   2   2  11    4.50    3.21
   2   2  11    4.91    2.78
   2   2  12    0.22    1.26
   2   2  12   -1.62    1.74
   2   2  13   24.06    4.21
   2   2  13   31.11    5.86
   2   2  14    2.21    1.71
   2   2  14    7.93    4.21
   2   2  15    4.06    4.47
   2   2  16   -0.60    1.47
  -2  -2 -16    0.65    1.02
   2   2  17   -1.05    1.58
   2   3 -19    2.40    1.61
  -2  -3  19    2.40    1.64
   2   3 -18    2.05    2.23
   2   3 -18    1.54    1.56
  -2  -3  18    0.03    1.61
   2   3 -17   -0.73    2.16
   2   3 -17    1.14    1.54
  -2  -3  17    0.59    2.44
   2   3 -16   30.76    9.99
   2   3 -16   15.98    7.30
  -2  -3  16   21.04    4.46
   2   3 -15   12.50    6.50
   2   3 -15    5.73    5.08
  -2  -3  15    7.91    3.09
   2   3 -14   11.26    3.87
   2   3 -14    5.76    3.00
  -2  -3  14    7.84    4.90
   2   3 -13    2.95    3.53
   2   3 -13   11.85    3.58
   2   3 -13    6.01    2.81
  -2  -3  13    7.45    2.77
   2   3 -12    1.65    2.12
   2   3 -12    1.26    1.99
   2   3 -12    0.05    1.53
  -2  -3  12    0.91    1.57
   2   3 -11    0.40    3.50
   2   3 -11    0.64    1.93
   2   3 -11    1.37    1.47
  -2  -3  11    1.20    1.58
   2   3 -10    1.41    3.29
   2   3 -10    1.38    1.76
   2   3 -10    0.09    2.15
  -2  -3  10    1.53    2.29
   2   3  -9   48.41    6.94
   2   3  -9   42.18    5.56
   2   3  -9   33.94    6.21
  -2  -3   9   56.19    4.89
  -2  -3   9   48.87    4.98
  -2  -3   9   36.09    5.83
   2   3  -8   11.78    3.53
   2   3  -8   10.56    2.71
   2   3  -8    7.01    2.88
  -2  -3   8   11.47    2.17
  -2  -3   8   13.38    2.13
  -2  -3   8   11.89    2.31
  -2  -3   8    9.89    2.74
   2   3  -7    0.80    1.76
   2   3  -7    1.02    2.07
   2   3  -7    0.18    0.78
  -2  -3   7    1.15    1.06
  -2  -3   7    1.98    0.98
  -2  -3   7    0.89    0.76
   2   3  -6    3.90    3.81
   2   3  -6    4.72    2.76
   2   3  -6    4.73    1.58
   2   3  -6    3.53    0.93
  -2  -3   6    4.24    1.46
  -2  -3   6    5.73    1.99
  -2  -3   6    3.55    0.90
   2   3  -5   53.55    9.06
   2   3  -5   50.82    4.75
   2   3  -5   59.63    4.66
  -2  -3   5   55.27    4.55
  -2  -3   5   64.08    4.00
  -2  -3   5   45.15    2.69
   2   3  -4 1553.01  140.58
   2   3  -4 1378.58  120.41
   2   3  -4 1641.88  144.03
   2   3  -4  910.43   88.56
  -2  -3   4 1639.81  137.38
  -2  -3   4 1601.57  131.24
  -2  -3   4 1114.84  109.22
   2   3  -3   30.30    3.82
   2   3  -3   29.02    4.17
  -2  -3   3   31.66    2.82
  -2  -3   3   28.80    2.00
  -2  -3   3   24.47    1.76
  -2  -3   3   26.14    0.98
   2   3  -2   21.82    3.08
   2   3  -2   20.14    2.14
   2   3  -2   17.01    1.74
  -2  -3   2   29.84    2.31
  -2  -3   2   23.76    2.74
  -2  -3   2   18.77    1.68
   2   3  -1  158.53   10.49
   2   3  -1  128.20    9.53
   2   3  -1  142.88    6.92
   2   3  -1  166.85   10.04
  -2  -3   1  163.50    9.92
  -2  -3   1  158.18    8.11
  -2  -3   1  150.51    8.27
   2   3   0    9.34    1.86
   2   3   0    7.07    1.18
   2   3   0    7.33    1.04
  -2  -3   0   10.11    1.14
  -2  -3   0    7.36    1.66
  -2  -3   0    8.03    1.47
   2   3   1  105.37    7.57
   2   3   1  128.06    6.79
   2   3   1  126.87   11.68
  -2  -3  -1  136.35    6.45
  -2  -3  -1  107.63    7.64
  -2  -3  -1  138.25    9.15
   2   3   2  159.74   10.32
   2   3   2  171.95    9.79
   2   3   2  178.18   12.33
  -2  -3  -2  193.02   10.56
  -2  -3  -2  147.68   10.97
  -2  -3  -2  195.50   12.86
   2   3   3   15.45    1.98
   2   3   3   19.58    2.00
   2   3   3   17.70    2.80
  -2  -3  -3   17.12    1.31
  -2  -3  -3   11.08    2.75
  -2  -3  -3   17.89    2.81
  -2  -3  -3   19.21    2.73
   2   3   4   56.85    4.30
   2   3   4   57.21    5.63
  -2  -3  -4   54.30    5.76
  -2  -3  -4   56.13    5.37
   2   3   5   10.76    1.96
   2   3   5   10.59    2.62
  -2  -3  -5   12.29    2.85
  -2  -3  -5   10.80    2.42
   2   3   6   29.36    3.35
   2   3   6   23.13    6.54
   2   3   7   17.16    2.74
   2   3   7   15.39    5.68
   2   3   8   41.95    4.80
   2   3   8   31.27    8.77
   2   3   9    1.89    2.70
   2   3   9    3.80    3.63
   2   3  10    1.91    1.70
   2   3  10    4.09    3.76
   2   3  11    4.33    2.07
   2   3  11    2.21    4.60
   2   3  12    0.26    1.14
   2   3  12   -0.98    1.62
   2   3  13    6.30    2.52
   2   3  13   11.51    3.54
   2   3  14    3.44    2.69
   2   3  15    1.01    1.50
  -2  -3 -15   -0.21    1.19
   2   3  16    6.47    1.89
  -2  -3 -16    0.10    1.23
   2   4 -19    2.52    1.42
  -2  -4  19   -1.54    1.03
   2   4 -18    0.81    1.65
   2   4 -18   -0.17    1.11
  -2  -4  18    0.79    1.99
   2   4 -17    2.57    2.47
   2   4 -17    0.57    1.73
  -2  -4  17    3.03    1.85
   2   4 -16    9.40    3.92
   2   4 -16    4.51    4.44
  -2  -4  16    8.07    2.96
   2   4 -15   13.98    6.64
   2   4 -15    6.75    2.96
  -2  -4  15    9.62    5.16
   2   4 -14    1.34    2.46
   2   4 -14    3.66    3.97
   2   4 -14    0.81    1.90
  -2  -4  14    2.41    2.07
   2   4 -13    4.11    3.05
   2   4 -13    3.62    4.52
   2   4 -13    2.77    2.18
  -2  -4  13    3.89    2.41
   2   4 -12    1.64    3.43
   2   4 -12    1.30    1.80
   2   4 -12    0.18    1.40
  -2  -4  12    0.12    1.56
   2   4 -11   17.67    5.15
   2   4 -11   17.96    4.20
   2   4 -11   11.77    5.17
  -2  -4  11   20.52    5.89
   2   4 -10   10.98    3.82
   2   4 -10    8.63    2.96
   2   4 -10    5.55    3.43
  -2  -4  10    8.39    2.64
   2   4  -9    2.58    2.36
   2   4  -9    1.48    2.77
   2   4  -9    0.69    1.19
  -2  -4   9    3.19    1.54
  -2  -4   9    1.14    1.12
   2   4  -8   15.86    4.59
   2   4  -8   16.76    5.38
   2   4  -8   16.84    2.35
  -2  -4   8   19.52    2.58
  -2  -4   8   10.66    3.30
   2   4  -7  236.97   28.39
   2   4  -7  188.81   20.14
   2   4  -7  231.99   17.22
  -2  -4   7  200.69   17.10
  -2  -4   7  234.04   14.43
   2   4  -6  356.75   28.90
   2   4  -6  308.90   23.23
   2   4  -6  364.91   25.99
  -2  -4   6  326.76   25.23
  -2  -4   6  357.45   21.76
   2   4  -5  162.48   13.67
   2   4  -5  131.32    9.70
   2   4  -5  162.01   11.47
  -2  -4   5  148.15   12.21
  -2  -4   5  151.82    8.70
   2   4  -4   43.11    5.31
   2   4  -4   31.28    4.94
   2   4  -4   43.10    4.06
  -2  -4   4   39.66    3.26
  -2  -4   4   30.79    3.55
   2   4  -3    2.53    1.48
   2   4  -3    0.07    0.79
  -2  -4   3    0.50    0.85
  -2  -4   3    1.41    0.85
   2   4  -2   19.60    3.12
   2   4  -2   13.50    1.24
  -2  -4   2   19.86    1.87
  -2  -4   2   12.48    1.75
   2   4  -1    2.38    1.28
   2   4  -1    0.55    0.59
  -2  -4   1    0.33    0.77
  -2  -4   1    0.72    0.87
   2   4   0   14.17    2.78
   2   4   0   12.95    2.51
   2   4   0   15.03    2.79
  -2  -4   0   17.41    1.71
  -2  -4   0   12.30    2.23
  -2  -4   0   16.91    2.74
   2   4   1   43.18    4.60
   2   4   1   46.12    5.04
   2   4   1   52.84    5.16
  -2  -4  -1   57.12    4.91
  -2  -4  -1   36.29    4.26
  -2  -4  -1   51.71    5.22
   2   4   2    5.07    1.67
   2   4   2    5.46    1.99
   2   4   2    7.96    3.23
  -2  -4  -2    4.87    1.03
  -2  -4  -2    4.52    1.80
  -2  -4  -2    3.81    1.93
   2   4   3    4.50    1.56
   2   4   3    4.33    2.19
   2   4   3    5.76    2.06
  -2  -4  -3    4.26    1.56
  -2  -4  -3    6.04    2.02
  -2  -4  -3    5.02    1.88
   2   4   4    1.93    2.60
   2   4   4   10.40    2.44
   2   4   5   64.53    8.08
   2   4   5   62.50    7.45
   2   4   6    3.81    2.67
   2   4   6    2.26    2.18
   2   4   7   43.46    4.99
   2   4   7   32.31    6.35
   2   4   8    0.57    1.26
   2   4   8   -0.24    1.64
   2   4   9   18.99    3.44
   2   4   9   13.39    4.54
   2   4  10    4.36    2.15
   2   4  10    4.67    2.94
   2   4  11    1.38    1.49
   2   4  11   -0.38    2.05
   2   4  12    2.36    1.65
   2   4  12   -0.18    2.32
   2   4  13    1.96    2.33
   2   4  14    3.09    2.40
  -2  -4 -14    3.78    2.09
   2   4  15    1.67    2.03
  -2  -4 -15   -0.30    0.95
   2   5 -18   10.09    2.60
   2   5 -18    3.57    1.58
  -2  -5  18    8.24    3.48
   2   5 -17    6.17    3.37
  -2  -5  17   12.21    3.03
   2   5 -16   20.31    4.79
  -2  -5  16   17.88    4.17
   2   5 -15   19.00    4.22
   2   5 -15    7.58    2.99
  -2  -5  15    8.32    5.93
   2   5 -14    4.41    3.41
   2   5 -14    9.18    3.21
   2   5 -14    2.91    2.38
  -2  -5  14    6.89    2.84
   2   5 -13    4.61    3.61
   2   5 -13    5.85    5.05
  -2  -5  13    5.75    2.80
   2   5 -12   12.14    8.42
   2   5 -12   15.09    6.92
  -2  -5  12   17.13    6.32
   2   5 -11    4.17    3.49
   2   5 -11    3.58    4.45
  -2  -5  11    5.59    2.55
   2   5 -10   25.47    6.15
   2   5 -10   17.64    4.49
  -2  -5  10   25.53    4.40
   2   5  -9   33.39    6.66
   2   5  -9   24.09    4.58
  -2  -5   9   31.07    4.63
   2   5  -8    4.67    4.47
   2   5  -8    1.63    1.73
   2   5  -7   52.22    7.58
   2   5  -7   54.10    6.22
   2   5  -6   47.08    6.98
   2   5  -6   49.96    5.63
   2   5  -5    1.83    1.94
   2   5  -5    0.14    2.53
   2   5  -4   20.00    5.15
   2   5  -4   42.24    4.63
   2   5  -3   34.55    5.65
  -2  -5   3   39.91    3.59
   2   5  -2    5.15    2.43
  -2  -5   2    5.20    2.33
   2   5  -1   27.74    4.73
   2   5  -1   43.04    7.48
  -2  -5   1   34.72    4.89
   2   5   0   59.28    6.65
   2   5   0   61.91    4.55
   2   5   0   51.31    7.40
  -2  -5   0   80.57    5.20
   2   5   1   79.43    8.11
   2   5   1   92.32    6.40
   2   5   1   89.92    9.14
  -2  -5  -1   98.74    6.35
   2   5   2    0.34    1.22
   2   5   2    0.53    0.91
   2   5   2    0.41    1.44
  -2  -5  -2    0.29    1.21
   2   5   3   16.50    2.55
   2   5   3   15.91    3.70
   2   5   4    2.87    1.58
   2   5   4    4.31    3.70
   2   5   5   84.68    7.75
   2   5   5   80.42   14.26
   2   5   6    2.72    1.72
   2   5   6    2.14    2.36
   2   5   7   59.55    6.56
   2   5   7   45.18    8.16
   2   5   8    5.72    2.25
   2   5   8    2.83    2.94
   2   5   9    3.42    1.93
   2   5   9    0.83    2.54
   2   5  10    2.29    2.53
   2   5  11    5.36    3.25
   2   5  12    6.16    5.24
  -2  -5 -12    8.33    3.19
   2   5  13    0.97    2.71
  -2  -5 -13    0.57    1.59
   2   5  14    1.56    2.56
  -2  -5 -14   10.33    2.34
  -2  -6  18    5.97    1.97
   2   6 -17    1.12    2.56
  -2  -6  17    2.23    1.70
   2   6 -16    1.36    1.57
  -2  -6  16    0.49    1.67
   2   6 -15    2.34    2.00
  -2  -6  15    1.59    2.06
   2   6 -14    8.88    3.44
  -2  -6  14    9.70    3.61
   2   6 -13   15.68    8.34
  -2  -6  13   15.07    4.09
   2   6 -12   11.60    5.39
  -2  -6  12   19.55    6.60
   2   6 -11   19.71    5.81
  -2  -6  11   16.21    4.12
   2   6 -10   61.29   10.40
  -2  -6  10   57.72    7.45
   2   6  -9    8.99    4.32
  -2  -6   9    8.11    2.99
   2   6  -8    1.71    4.21
   2   6  -7    6.43    3.55
   2   6  -7    6.35    2.70
   2   6  -6    4.98    3.42
   2   6  -6    6.32    2.58
   2   6  -5    2.09    2.30
   2   6  -5    1.00    1.81
   2   6  -4   53.90    8.20
   2   6  -4   66.49   10.70
   2   6  -3   18.97    4.68
   2   6  -2   11.36    3.77
   2   6  -1   13.21    3.90
   2   6  -1   19.51    3.78
  -2  -6   1   11.68    2.50
   2   6   0   14.51    3.74
   2   6   0    8.74    6.05
   2   6   1   15.27    3.80
   2   6   1   14.28    3.94
   2   6   2    1.26    2.00
   2   6   2    3.35    2.18
   2   6   3    3.25    2.45
   2   6   4    1.87    2.24
   2   6   5   -0.19    1.64
   2   6   6    0.22    1.70
   2   6   7   25.26    5.66
   2   6   8    0.87    2.08
   2   6   9    1.29    2.92
  -2  -6  -9    7.53    3.07
   2   6  10    2.42    2.78
  -2  -6 -10    6.01    2.83
   2   6  11   -0.48    1.48
  -2  -6 -11    0.09    1.51
   2   6  12    0.34    1.81
  -2  -6 -12    2.63    1.80
   2   6  13    4.71    2.60
  -2  -6 -13   21.55    4.32
  -2  -7  17    5.13    1.95
  -2  -7  16    0.24    1.26
   2   7 -15    1.81    3.07
  -2  -7  15   18.67    3.12
   2   7 -14    3.35    3.05
  -2  -7  14    5.56    2.52
   2   7 -13    4.96    4.45
  -2  -7  13    1.19    2.11
   2   7 -12    3.39    2.88
  -2  -7  12   -0.85    3.50
   2   7 -11   16.90    5.79
  -2  -7  11   16.65    4.05
   2   7 -10   -1.57    2.35
  -2  -7  10    1.13    1.62
   2   7  -9   12.35    4.96
  -2  -7   9    7.39    3.14
   2   7  -8   -3.40    5.41
   2   7  -7    1.26    2.53
   2   7  -7    0.65    1.95
   2   7  -6    1.55    3.23
   2   7  -6    2.77    2.52
   2   7  -5   79.52   12.80
   2   7  -5  123.90   12.40
   2   7  -4  140.50   20.39
   2   7  -4  466.31   39.15
   2   7  -3  443.96   44.45
   2   7  -2    1.27    2.46
   2   7  -1    0.87    4.59
   2   7  -1   37.02    6.07
   2   7   0   86.07   10.64
   2   7   0   87.10   11.16
  -2  -7   0   71.75    7.90
   2   7   1    5.89    3.17
   2   7   1    6.54    5.34
  -2  -7  -1    7.15    2.54
   2   7   2    1.71    3.33
  -2  -7  -2    0.65    1.62
   2   7   3    3.51    2.47
  -2  -7  -3    1.55    2.13
   2   7   4    0.03    1.55
  -2  -7  -4    0.10    1.39
   2   7   5    6.74    3.32
  -2  -7  -5    6.01    3.06
   2   7   6   -0.45    2.13
  -2  -7  -6    2.34    1.97
   2   7   7    3.84    2.82
  -2  -7  -7    3.87    2.72
   2   7   8    5.62    3.10
  -2  -7  -8    6.60    3.03
   2   7   9    0.69    1.37
  -2  -7  -9   -0.48    1.35
   2   7  10    0.80    1.65
  -2  -7 -10    0.72    1.63
   2   7  11   -4.38    1.62
  -2  -7 -11   12.96    2.62
   2   8 -15    0.08    1.59
   2   8 -14    2.92    2.53
  -2  -8  14    4.80    2.21
   2   8 -13    2.46    2.55
  -2  -8  13   -0.54    1.22
   2   8 -12    2.94    3.39
  -2  -8  12    6.88    4.21
   2   8 -11    3.17    3.08
  -2  -8  11    1.91    2.19
   2   8 -10   12.73    4.55
  -2  -8  10    4.88    3.08
   2   8  -9   -0.40    2.81
  -2  -8   9    1.44    1.87
   2   8  -8    4.36    6.65
   2   8  -7   54.80    7.96
   2   8  -7   -0.26    3.82
   2   8  -6    7.29    4.90
   2   8  -6   13.29    4.35
   2   8  -5   65.97   10.76
   2   8  -5   63.44   10.16
   2   8  -4    3.27    3.41
   2   8  -3   86.06   12.83
   2   8  -2   46.08    8.63
   2   8  -2   46.67    8.77
   2   8  -1   37.74    7.58
   2   8  -1   37.75    8.24
   2   8   0    8.56    3.82
   2   8   0    9.30    4.09
   2   8   1    8.36    3.55
   2   8   1    9.87    3.61
  -2  -8  -1    6.95    4.54
   2   8   2    0.87    1.85
  -2  -8  -2   -0.24    2.41
   2   8   3    3.20    2.54
  -2  -8  -3    2.38    2.12
   2   8   4   -7.32    3.08
  -2  -8  -4    1.36    1.64
   2   8   5    4.03    4.44
  -2  -8  -5    4.31    2.48
   2   8   6    2.54    3.64
  -2  -8  -6    2.28    2.08
   2   8   7    0.21    2.49
  -2  -8  -7    0.33    2.37
   2   8   8    2.04    2.45
  -2  -8  -8   -0.72    2.44
  -2  -8  -9   25.95    7.25
  -2  -9  14    2.76    1.77
   2   9 -13   -0.80    1.81
  -2  -9  13    1.71    1.50
   2   9 -12    6.25    4.71
  -2  -9  12    3.05    2.16
   2   9 -11   -0.53    2.13
  -2  -9  11    1.61    2.50
   2   9 -10    1.68    2.41
  -2  -9  10    0.20    1.65
   2   9  -9    1.98    2.70
  -2  -9   9    0.55    1.82
   2   9  -8    4.81    3.94
  -2  -9   8    4.70    2.70
   2   9  -7   18.62   10.39
   2   9  -6   62.40   14.01
   2   9  -6   39.28    8.76
   2   9  -5   65.78   16.02
   2   9  -5   56.75   10.79
   2   9  -4   26.97    6.76
   2   9  -3    6.12    3.79
   2   9  -2    3.59    2.02
   2   9  -2   -2.64    2.10
   2   9  -1   10.26    3.75
   2   9  -1    2.54    5.82
   2   9   0    3.14    3.22
   2   9   0   -1.07    3.30
   2   9   1    2.95    2.44
   2   9   2    1.08    1.50
  -2  -9  -2   -0.94    1.20
   2   9   3    0.95    1.69
  -2  -9  -3    0.25    1.44
   2   9   4   10.36    2.63
  -2  -9  -4    0.57    2.24
   2   9   5    1.33    1.56
  -2  -9  -5    0.29    1.50
   2   9   6   -2.75    1.39
  -2  -9  -6    1.50    1.32
   2   9   7    6.68    2.01
  -2  -9  -7    2.19    1.95
   2  10 -11    0.12    3.74
  -2 -10  11   -1.84    1.59
   2  10 -10    4.41    2.41
  -2 -10  10   -2.90    2.59
   2  10  -9    9.22    3.89
  -2 -10   9    7.25    2.62
   2  10  -8    3.50    2.89
  -2 -10   8    1.68    1.91
   2  10  -7    3.45    2.86
  -2 -10   7    1.34    1.96
   2  10  -6    5.33    3.73
   2  10  -5    1.26    2.59
   2  10  -4    0.21    3.19
   2  10  -3    0.55    3.42
   2  10  -2    1.71    6.06
   2  10  -2   12.25    3.37
   2  10  -1    1.52    2.02
   2  10  -1    1.21    1.91
   2  10   0   -0.42    1.40
   2  10   0   -0.26    1.46
   2  10   1    0.26    1.36
   2  10   2    0.43    1.40
   2  10   3    7.76    4.16
   2  11  -6    0.09    1.71
  -2 -11   6   -0.89    1.18
   2  11  -5   -0.81    1.85
   2  11  -4    0.18    1.44
   2  11  -3   67.96    7.17
   3 -12   1    3.91    3.01
  -3  12  -1    3.78    1.81
  -3  12  -1    1.35    1.41
   3 -12   2    9.95    3.75
  -3  12  -2    7.17    2.70
  -3  12  -2    7.10    2.15
   3 -12   3    6.43    2.34
  -3  12  -3   11.98    2.93
  -3  12  -3   15.75    2.52
  -3  12  -4    7.10    2.62
  -3  12  -4   13.05    2.41
  -3  12  -5   10.47    3.19
  -3  12  -5   -0.20    2.96
  -3  12  -6   -1.14    2.13
   3 -11  -4   -2.13    2.17
  -3  11   4   -2.02    1.47
   3 -11  -3    6.64    2.86
  -3  11   3    3.59    3.07
  -3  11   3    3.47    1.95
   3 -11  -2    0.98    2.21
  -3  11   2    2.14    2.54
  -3  11   2    1.60    1.56
   3 -11  -1    4.33    2.57
  -3  11   1    1.97    3.03
  -3  11   1    2.01    1.86
  -3  11   0   -2.05    2.99
   3 -11   1    5.43    3.30
  -3  11  -1    8.73    4.08
  -3  11  -1    4.85    4.07
   3 -11   2   -0.84    2.36
  -3  11  -2   -5.48    3.75
  -3  11  -2   -1.57    2.97
   3 -11   3   -0.21    1.85
  -3  11  -3   -2.65    2.90
  -3  11  -3   -0.49    1.46
   3 -11   4    3.61    3.37
  -3  11  -4    0.35    2.17
  -3  11  -4    3.37    1.87
   3 -11   5    3.03    1.85
  -3  11  -5   -0.04    1.88
  -3  11  -5    2.22    1.75
   3 -11   6    4.20    2.09
  -3  11  -6    7.03    2.22
  -3  11  -6    3.49    2.21
   3 -11   7    0.95    1.27
  -3  11  -7    0.43    1.34
  -3  11  -7    3.75    2.46
  -3  11  -8    0.37    1.04
  -3  11  -8   -0.79    1.94
  -3  11  -9    0.08    1.09
  -3  11 -10    1.72    1.52
  -3  10   7   20.75    3.61
  -3  10   7    3.20    4.63
   3 -10  -6    1.40    3.14
  -3  10   6    0.89    1.20
  -3  10   6    0.41    2.29
   3 -10  -5    7.72    4.94
  -3  10   5    3.66    1.99
   3 -10  -4    0.68    3.37
  -3  10   4   -0.23    1.39
  -3  10   4    2.90    2.41
   3 -10  -3   13.16    7.12
  -3  10   3   10.60    3.09
  -3  10   3    6.95    5.11
   3 -10  -2   27.93    9.97
  -3  10   2   20.55    4.55
  -3  10   2   23.57    4.70
   3 -10  -1   36.01   10.52
  -3  10   1   22.46    4.94
  -3  10   1   25.33    5.09
   3 -10   0   16.02    4.75
  -3  10   0   12.39    3.59
  -3  10   0    9.20    3.72
   3 -10   1   15.26    4.59
  -3  10  -1   11.11    3.41
  -3  10  -1    7.83    3.58
   3 -10   2   -0.43    2.15
  -3  10  -2    0.45    1.55
  -3  10  -2    1.13    1.69
   3 -10   3   -6.52    2.88
  -3  10  -3   -2.19    2.03
  -3  10  -3   -0.33    2.18
   3 -10   4    4.61    3.21
  -3  10  -4    3.92    2.27
  -3  10  -4    5.63    3.91
   3 -10   5   -0.10    3.20
  -3  10  -5    0.39    2.79
  -3  10  -5   -0.98    1.60
   3 -10   6    3.66    2.50
  -3  10  -6    3.66    2.35
  -3  10  -6    4.24    2.29
   3 -10   7    0.60    1.82
  -3  10  -7    0.86    1.66
  -3  10  -7    2.71    1.77
   3 -10   8    0.12    1.62
  -3  10  -8    2.63    1.70
  -3  10  -9    5.80    4.20
  -3  10 -10    0.33    1.40
  -3  10 -11    5.64    2.29
  -3  10 -12    1.70    1.56
  -3  10 -13   15.94    3.28
  -3   9  10   -0.80    1.29
   3  -9  -9    2.58    2.15
  -3   9   9   -0.53    1.21
   3  -9  -8   -0.38    2.92
  -3   9   8    0.80    1.10
  -3   9   8    0.93    1.52
   3  -9  -7    0.87    2.06
  -3   9   7    0.98    1.33
  -3   9   7    1.06    1.73
   3  -9  -6    1.10    2.04
  -3   9   6    0.54    2.27
  -3   9   6    0.21    1.63
   3  -9  -5   17.39    4.82
  -3   9   5    7.77    5.48
  -3   9   5   11.37    3.84
   3  -9  -4    3.64    3.35
  -3   9   4    4.29    3.25
  -3   9   4    2.48    2.71
   3  -9  -3   14.44    5.11
  -3   9   3    9.19    5.17
  -3   9   3   14.13    4.18
  -3   9   2    2.21    2.21
  -3   9   2   -2.08    1.78
   3  -9  -1    0.49    4.14
  -3   9   1   -1.77    2.53
  -3   9   1   -0.34    3.23
   3  -9   0    1.53    5.06
  -3   9   0    2.92    3.55
   3  -9   1   12.99    7.57
  -3   9  -1    9.62    5.54
  -3   9  -1   10.93    3.54
   3  -9   2   -0.52    2.18
  -3   9  -2   -1.00    1.52
  -3   9  -2    2.94    1.69
   3  -9   3    2.47    2.70
  -3   9  -3    0.64    1.88
  -3   9  -3    3.01    2.11
   3  -9   4    7.62    3.73
  -3   9  -4    4.63    2.58
  -3   9  -4    9.04    2.97
   3  -9   5   16.75    3.74
  -3   9  -5    3.63    2.39
  -3   9  -5   -0.03    4.47
   3  -9   6   31.72    9.74
  -3   9  -6   24.47    7.07
  -3   9  -6   43.41    5.60
   3  -9   7    3.27    2.29
  -3   9  -7    1.22    1.94
  -3   9  -7    2.62    2.08
   3  -9   8    1.87    2.27
  -3   9  -8    3.71    2.16
   3  -9   9   -1.00    3.47
  -3   9  -9   -4.53    3.56
  -3   9 -10    0.10    1.38
  -3   9 -11    2.84    2.15
  -3   9 -12    0.39    1.40
  -3   9 -13   11.27    4.69
  -3   9 -14    1.28    1.73
   3  -8 -11    0.16    1.04
  -3   8  11    0.81    1.29
   3  -8 -10   -0.75    2.45
  -3   8  10    1.05    0.91
  -3   8  10   -0.02    1.52
   3  -8  -9    0.65    1.80
  -3   8   9    1.33    1.95
  -3   8   9    0.48    1.70
   3  -8  -8    2.78    2.29
  -3   8   8    1.38    1.31
  -3   8   8    1.04    3.28
   3  -8  -7   10.40    3.46
  -3   8   7    4.26    2.08
  -3   8   7    3.83    4.84
   3  -8  -6   22.56    5.46
  -3   8   6   14.83    3.38
  -3   8   6   15.32    4.61
   3  -8  -5   -2.17    2.44
  -3   8   5   -0.54    1.54
  -3   8   5   -1.21    2.07
   3  -8  -4    7.38    4.03
  -3   8   4    5.53    2.57
  -3   8   4    8.77    3.35
   3  -8  -3   14.87    4.98
  -3   8   3    9.98    3.04
  -3   8   3   12.54    3.91
   3  -8  -2   23.64    5.68
  -3   8   2   13.24    3.39
  -3   8   2   14.42    4.15
   3  -8  -1    3.03    2.95
  -3   8   1    2.26    1.75
  -3   8   1    0.76    2.21
   3  -8   0    6.73    5.77
  -3   8   0    5.26    2.21
  -3   8   0    5.11    2.86
   3  -8   1    1.41    4.66
  -3   8  -1    1.47    1.76
  -3   8  -1    8.47    3.61
   3  -8   2    2.52    2.43
  -3   8  -2    0.42    1.49
  -3   8  -2    1.88    1.78
   3  -8   3    3.20    3.14
  -3   8  -3    3.80    2.95
  -3   8  -3    4.90    2.37
   3  -8   4    2.17    1.99
  -3   8  -4    0.41    1.32
  -3   8  -4   -0.51    1.54
   3  -8   5    5.04    2.80
  -3   8  -5    2.28    1.84
  -3   8  -5    3.68    3.61
  -3   8  -6    4.58    2.06
  -3   8  -6    9.37    4.05
   3  -8   7   12.35    4.33
  -3   8  -7   20.38    3.82
   3  -8   8   19.78    5.07
  -3   8  -8   30.69    4.64
   3  -8   9    9.16    3.62
  -3   8  -9   18.82    5.47
  -3   8 -10    2.93    2.31
  -3   8 -11    6.57    2.88
  -3   8 -12   12.19    5.08
  -3   8 -12   34.54    4.77
  -3   8 -13    3.10    1.97
  -3   8 -13    7.90    3.74
  -3   8 -14    1.72    1.45
  -3   8 -14    1.54    1.99
  -3   8 -15   21.81    4.25
  -3   8 -15   74.80    6.31
  -3   8 -16    3.96    2.97
  -3   7  13   -7.66    3.92
  -3   7  12    1.38    3.05
  -3   7  11    1.24    1.98
   3  -7 -10    0.08    1.42
  -3   7  10    0.10    0.84
  -3   7  10    0.44    1.58
   3  -7  -9    0.69    1.98
  -3   7   9    0.25    1.19
  -3   7   9    2.98    2.07
   3  -7  -8    3.54    2.61
  -3   7   8    1.62    1.58
  -3   7   8    3.23    2.52
   3  -7  -7   20.23    5.27
  -3   7   7   15.79    3.53
  -3   7   7   21.54    5.12
   3  -7  -6    8.00    3.57
  -3   7   6    5.01    2.43
  -3   7   6    6.48    3.36
   3  -7  -5    0.59    1.90
  -3   7   5   -0.62    2.02
  -3   7   5    1.05    2.84
   3  -7  -4  196.17   21.09
  -3   7   4  158.17   19.76
  -3   7   4  197.56   27.47
   3  -7  -3   14.26    4.68
  -3   7   3    9.75    4.73
  -3   7   3    9.52    6.11
   3  -7  -2  256.34   25.95
  -3   7   2  221.01   24.41
  -3   7   2  253.09   22.92
   3  -7  -1    5.33    2.84
  -3   7   1    2.77    1.73
  -3   7   1    0.90    2.38
   3  -7   0    5.38    3.17
  -3   7   0    2.98    1.91
  -3   7   0    9.44    2.86
   3  -7   1   27.23    8.77
  -3   7  -1   22.10    3.45
  -3   7  -1   25.31    4.69
   3  -7   2   44.34    7.06
  -3   7  -2   33.80    4.41
  -3   7  -2   62.70    9.05
   3  -7   3   36.40    6.60
  -3   7  -3   30.40    4.17
  -3   7  -3   50.17    5.45
   3  -7   4   -0.07    1.96
  -3   7  -4   -0.85    1.07
   3  -7   5    6.07    2.92
  -3   7  -5    3.42    2.86
  -3   7  -5    4.16    2.21
   3  -7   6   10.25    4.95
  -3   7  -6    6.24    1.94
  -3   7  -6   10.04    4.00
   3  -7   7    2.64    2.28
  -3   7  -7    1.46    1.84
  -3   7  -7    3.04    1.85
   3  -7   8    1.89    1.81
  -3   7  -8   -0.43    1.58
  -3   7  -8    0.93    1.51
   3  -7   9    9.80    5.83
  -3   7  -9    7.55    5.00
  -3   7  -9   17.51    5.09
   3  -7  10   -0.23    1.46
  -3   7 -10    0.24    1.36
  -3   7 -10    1.46    1.57
  -3   7 -11    1.05    1.82
  -3   7 -11    3.14    2.04
  -3   7 -12   11.84    3.30
  -3   7 -12   15.24    3.57
  -3   7 -13    3.01    2.07
  -3   7 -13    4.47    3.61
  -3   7 -14    2.30    2.92
  -3   7 -14    3.21    2.27
  -3   7 -15   23.09    4.29
  -3   7 -15   27.52    4.60
  -3   7 -16    0.05    1.24
  -3   7 -16    1.06    2.02
  -3   6  13    0.29    1.55
  -3   6  12    4.44    2.73
  -3   6  11   -0.06    0.82
  -3   6  11   -0.34    1.60
  -3   6  10    1.20    1.31
  -3   6  10    2.96    2.31
   3  -6  -9    0.82    2.06
  -3   6   9    0.60    2.38
  -3   6   9    2.60    2.20
   3  -6  -8    0.38    1.71
  -3   6   8    0.84    1.18
  -3   6   8   -1.10    1.76
   3  -6  -7   -0.14    1.73
  -3   6   7    0.59    1.18
  -3   6   7   -0.10    1.70
   3  -6  -6  111.73   13.00
  -3   6   6  102.55   10.50
  -3   6   6  116.09   13.90
   3  -6  -5    4.37    2.55
  -3   6   5    1.12    1.81
  -3   6   5    2.68    2.42
   3  -6  -4  380.90   36.51
  -3   6   4  344.60   29.85
  -3   6   4  408.41   36.13
   3  -6  -3    2.36    2.50
  -3   6   3    2.36    1.76
  -3   6   3    1.94    2.29
   3  -6  -2  170.32   16.77
  -3   6   2  159.41   13.13
  -3   6   2  162.11   19.62
   3  -6  -1    0.69    1.66
  -3   6   1    0.08    1.10
   3  -6   0   75.50    8.50
  -3   6   0   60.57    6.31
  -3   6   0   63.22    7.13
   3  -6   1    7.19    3.23
   3  -6   1   18.31    5.67
  -3   6  -1   13.91    3.58
  -3   6  -1    7.99    2.31
   3  -6   2    1.84    1.38
   3  -6   2    1.54    1.88
  -3   6  -2    0.13    1.69
  -3   6  -2    0.16    1.24
   3  -6   3  101.93    7.97
   3  -6   3  156.61   13.83
  -3   6  -3  129.04    9.01
  -3   6  -3  103.17   14.05
  -3   6  -3  155.26   10.91
   3  -6   4    3.03    1.19
   3  -6   4    5.56    2.40
  -3   6  -4    1.65    1.20
   3  -6   5    1.63    1.25
   3  -6   5    5.44    2.37
  -3   6  -5    1.77    1.12
  -3   6  -5    5.04    1.71
   3  -6   6    2.83    3.35
  -3   6  -6    1.64    1.93
  -3   6  -6    2.63    2.51
   3  -6   7   10.26    3.38
  -3   6  -7    6.55    3.16
  -3   6  -7   14.04    2.63
   3  -6   8    1.54    2.01
  -3   6  -8    1.79    2.01
  -3   6  -8    1.62    1.60
   3  -6   9   21.73    7.86
  -3   6  -9   24.15    5.28
  -3   6  -9   32.63    6.42
  -3   6 -10   13.63    4.91
  -3   6 -10   23.65    3.97
   3  -6  11    3.09    2.50
  -3   6 -11   10.17    5.12
  -3   6 -11    9.09    2.61
  -3   6 -12    8.83    3.25
  -3   6 -12   11.18    3.15
  -3   6 -13    2.34    2.07
  -3   6 -13    1.59    3.59
  -3   6 -14   10.94    3.46
  -3   6 -14   13.70    3.56
  -3   6 -15   -0.94    2.14
  -3   6 -15    0.76    1.38
  -3   6 -16    2.36    2.10
  -3   6 -16    3.20    3.08
  -3   6 -17   -0.24    1.36
  -3   6 -17    0.47    1.07
  -3   5  15   -0.50    1.47
  -3   5  14   10.69    3.50
  -3   5  13    1.44    2.08
  -3   5  12    0.06    2.60
  -3   5  11   -0.11    0.87
  -3   5  11    0.78    2.39
  -3   5  10    1.35    1.42
  -3   5  10    2.30    3.62
   3  -5  -9   10.21    3.08
  -3   5   9    6.65    2.32
  -3   5   9    9.62    5.47
   3  -5  -8    1.81    2.08
  -3   5   8    2.17    1.60
  -3   5   8    2.80    3.69
   3  -5  -7   11.20    3.41
  -3   5   7    9.12    2.71
  -3   5   7   13.51    5.68
   3  -5  -6    4.67    2.33
  -3   5   6    2.49    1.88
  -3   5   6    2.88    2.46
   3  -5  -5   30.19    6.85
   3  -5  -5   40.76    5.54
  -3   5   5   33.49    4.68
  -3   5   5   31.56    3.44
  -3   5   5   41.25    5.74
   3  -5  -4    2.11    1.55
   3  -5  -4    3.19    2.03
  -3   5   4    1.56    1.51
  -3   5   4    2.07    1.75
  -3   5   4    2.13    1.89
   3  -5  -3   10.92    2.74
   3  -5  -3   17.99    3.58
  -3   5   3   12.99    2.59
  -3   5   3   12.73    2.42
  -3   5   3   15.68    3.20
   3  -5  -2   71.83    7.41
   3  -5  -2   89.45    8.89
   3  -5  -2   90.78    6.93
  -3   5   2   78.09    7.04
  -3   5   2   73.56    6.52
  -3   5   2   97.69    8.43
   3  -5  -1   48.24    8.25
   3  -5  -1   65.69    7.06
   3  -5  -1   62.37    5.28
  -3   5   1   51.83    5.22
  -3   5   1   56.42    8.00
  -3   5   1   62.04    8.38
   3  -5   0    0.14    1.34
   3  -5   0    2.71    2.13
  -3   5   0    0.20    0.82
  -3   5   0   -0.49    0.93
   3  -5   1   14.66    2.66
   3  -5   1   21.94    6.27
  -3   5  -1   16.98    2.52
  -3   5  -1   14.71    2.91
  -3   5  -1   26.73    3.43
  -3   5  -1   20.79    2.96
  -3   5  -1   23.65    3.23
   3  -5   2   -0.06    1.01
   3  -5   2    0.28    1.54
  -3   5  -2    0.55    0.85
  -3   5  -2    0.97    1.97
  -3   5  -2    1.07    1.25
   3  -5   3  120.77   12.09
   3  -5   3  117.53   10.89
  -3   5  -3   95.98    9.22
  -3   5  -3   91.70    9.42
  -3   5  -3  116.02    9.68
  -3   5  -3  115.73    8.08
   3  -5   4    1.83    1.13
   3  -5   4    0.92    2.02
   3  -5   4    1.03    1.54
  -3   5  -4    1.46    0.91
  -3   5  -4    0.20    1.67
  -3   5  -4    5.44    1.51
   3  -5   5  144.10   10.25
   3  -5   5  138.04   17.91
   3  -5   5  139.33   11.11
  -3   5  -5  118.28   16.64
  -3   5  -5  167.15   14.39
   3  -5   6    0.70    1.13
  -3   5  -6    1.05    1.18
  -3   5  -7   56.95    5.32
   3  -5   8    0.68    2.09
  -3   5  -8    4.69    2.28
  -3   5  -8    2.16    1.51
   3  -5   9    4.26    2.29
  -3   5  -9    4.09    2.78
  -3   5  -9    5.89    3.26
  -3   5 -10   -2.62    1.66
  -3   5 -10    1.42    1.14
  -3   5 -11    0.00    2.46
  -3   5 -11    1.99    1.64
   3  -5  12    1.07    1.51
  -3   5 -12    3.89    4.06
  -3   5 -12    3.46    2.90
  -3   5 -13    0.96    1.89
  -3   5 -13    0.91    1.77
  -3   5 -14    2.27    2.74
  -3   5 -14    7.07    2.56
  -3   5 -15    0.57    1.43
  -3   5 -15   -1.66    2.05
  -3   5 -16    7.73    3.67
  -3   5 -16    0.14    1.59
  -3   5 -17    1.55    1.62
  -3   5 -17    0.31    1.17
  -3   4  16    0.06    1.21
  -3   4  15   16.65    6.55
  -3   4  14    6.35    4.89
  -3   4  13    2.08    2.50
  -3   4  12    7.31    2.32
  -3   4  12   24.30    4.21
   3  -4 -11    1.44    2.06
  -3   4  11    0.94    1.33
  -3   4  11    1.61    2.09
   3  -4 -10    9.56    3.36
  -3   4  10    5.83    2.21
  -3   4  10   10.89    3.27
   3  -4  -9   11.16    3.57
  -3   4   9    7.77    4.94
  -3   4   9   11.54    3.53
   3  -4  -8    2.88    2.07
   3  -4  -8    1.69    1.76
  -3   4   8    0.15    3.04
  -3   4   8    1.85    1.96
   3  -4  -7   19.96    4.18
   3  -4  -7   18.71    3.74
  -3   4   7   17.96    3.86
  -3   4   7   22.49    4.28
   3  -4  -6   17.18    3.76
   3  -4  -6   17.92    3.46
   3  -4  -6   19.58    2.20
  -3   4   6   13.57    3.48
  -3   4   6   19.36    2.55
  -3   4   6   16.75    5.59
   3  -4  -5   17.17    3.54
   3  -4  -5   19.02    3.32
   3  -4  -5   17.38    3.20
  -3   4   5   15.54    3.35
  -3   4   5   16.12    2.36
  -3   4   5   18.87    5.31
   3  -4  -4    0.74    1.25
   3  -4  -4   -0.30    1.24
   3  -4  -4    0.33    0.75
  -3   4   4   -0.79    1.16
  -3   4   4    0.71    1.68
  -3   4   4    0.40    0.99
  -3   4   4    1.11    1.15
   3  -4  -3  186.33   19.37
   3  -4  -3  168.36   13.55
   3  -4  -3  172.63   10.83
  -3   4   3  158.43   13.15
  -3   4   3  167.17   16.71
  -3   4   3  177.15   12.51
  -3   4   3  170.38   13.16
   3  -4  -2  228.37   17.32
   3  -4  -2  214.75   17.02
  -3   4   2  208.34   16.37
  -3   4   2  218.72   19.21
  -3   4   2  235.89   16.83
   3  -4  -1   42.24    5.00
   3  -4  -1   47.65    8.26
  -3   4   1   44.19    4.93
  -3   4   1   42.78    4.72
  -3   4   1   55.61    4.92
  -3   4   1   41.53    6.84
   3  -4   0   44.39    5.26
   3  -4   0   44.33    8.74
  -3   4   0   46.34    7.12
  -3   4   0   40.12    4.94
  -3   4   0   50.74    5.05
  -3   4   0   60.56    4.91
  -3   4   0   70.18    5.53
   3  -4   1   56.51    7.47
   3  -4   1   62.84    6.54
  -3   4  -1   49.15    6.05
  -3   4  -1   53.60    8.79
  -3   4  -1   63.57    5.81
  -3   4  -1   70.77    5.34
  -3   4  -1   71.37    5.73
   3  -4   2    0.50    1.14
   3  -4   2    1.11    1.53
  -3   4  -2    0.86    0.79
  -3   4  -2    0.83    1.37
  -3   4  -2    1.83    1.25
   3  -4   3    4.90    1.61
   3  -4   3    3.79    2.14
   3  -4   3    4.13    1.43
  -3   4  -3    2.74    1.01
  -3   4  -3    4.73    1.96
  -3   4  -3    3.88    3.12
  -3   4  -3    4.92    1.28
   3  -4   4    2.71    2.22
   3  -4   4    0.43    1.12
  -3   4  -4    0.43    1.15
  -3   4  -4    0.28    2.58
  -3   4  -4    1.87    0.99
   3  -4   5  206.71   14.14
   3  -4   5  208.19   14.22
  -3   4  -5  196.18   17.57
  -3   4  -5  217.56   16.17
   3  -4   6    3.19    1.42
   3  -4   6    1.60    2.03
   3  -4   6    2.44    1.46
  -3   4  -6    2.48    2.18
  -3   4  -6    2.30    1.26
   3  -4   7   83.56    7.15
   3  -4   7   74.16    8.83
   3  -4   7   72.69    9.64
  -3   4  -7   79.72    6.17
   3  -4   8   39.98    5.74
  -3   4  -8    2.25    3.95
   3  -4   9    1.26    1.71
  -3   4  -9    2.13    2.05
  -3   4  -9    1.34    1.38
   3  -4  10    0.59    1.31
  -3   4 -10   -0.71    1.63
  -3   4 -10    0.24    1.08
   3  -4  11    0.81    2.14
  -3   4 -11    0.17    2.12
  -3   4 -11    1.32    2.23
   3  -4  12    2.43    1.71
  -3   4 -12    3.51    4.40
  -3   4 -12    2.78    2.06
   3  -4  13    0.75    1.52
  -3   4 -13    2.43    2.24
  -3   4 -13    3.01    1.93
  -3   4 -14    5.54    2.79
  -3   4 -14    3.19    2.31
  -3   4 -15    3.51    2.13
  -3   4 -15    0.28    1.78
  -3   4 -16    7.34    4.72
  -3   4 -16    3.13    1.95
  -3   4 -17    1.31    1.88
  -3   4 -17    1.31    1.94
  -3   4 -18   -2.05    1.78
  -3   3  17   -1.03    2.51
   3  -3 -16    0.03    1.11
  -3   3  16   -0.50    2.15
   3  -3 -15    1.45    1.69
  -3   3  15   -0.15    1.77
   3  -3 -14    8.72    2.84
  -3   3  14   -1.04    2.60
   3  -3 -13    3.36    5.20
  -3   3  13    5.09    2.88
   3  -3 -12   51.52   12.28
  -3   3  12   43.30    7.74
   3  -3 -11    1.31    2.54
  -3   3  11   -1.96    1.18
  -3   3  11    2.94    1.41
   3  -3 -10    2.24    3.55
  -3   3  10    1.08    1.65
  -3   3  10    1.92    1.95
   3  -3  -9    1.58    3.13
  -3   3   9    1.25    1.51
  -3   3   9    0.54    1.67
   3  -3  -8    1.42    2.81
  -3   3   8    0.63    1.43
  -3   3   8    0.67    1.47
   3  -3  -7   46.42    8.77
   3  -3  -7   33.83    4.19
   3  -3  -7   36.11    2.76
  -3   3   7   35.85    4.91
  -3   3   7   43.43    5.08
   3  -3  -6   42.57    8.22
   3  -3  -6   31.33    4.05
   3  -3  -6   36.75    2.77
  -3   3   6   31.17    4.63
  -3   3   6   41.81    3.78
  -3   3   6   38.61    4.63
   3  -3  -5    1.03    1.44
   3  -3  -5    0.97    1.12
   3  -3  -5    0.04    1.11
  -3   3   5    0.65    1.20
  -3   3   5    0.78    1.75
  -3   3   5   -0.08    1.93
  -3   3   5    0.75    1.12
   3  -3  -4   24.31    3.86
   3  -3  -4   22.58    3.12
   3  -3  -4   22.76    2.14
  -3   3   4   17.73    3.37
  -3   3   4   22.78    4.62
  -3   3   4   25.61    3.18
  -3   3   4   19.24    4.65
   3  -3  -3   58.63    5.97
   3  -3  -3   52.80    7.62
  -3   3   3   41.31    5.17
  -3   3   3   51.46    7.05
  -3   3   3   55.85    4.91
  -3   3   3   58.70    4.98
   3  -3  -2  147.09   15.94
   3  -3  -2  128.30   13.98
  -3   3   2  119.71    9.89
  -3   3   2  140.85   10.71
  -3   3   2  158.17   10.17
  -3   3   2  138.73    9.73
   3  -3  -1  484.30   35.76
   3  -3  -1  471.73   34.72
  -3   3   1  401.94   30.19
  -3   3   1  470.87   35.12
  -3   3   1  519.68   35.12
  -3   3   1  487.40   35.94
   3  -3   0   24.43    3.38
   3  -3   0   18.64    3.09
  -3   3   0   14.13    2.39
  -3   3   0   18.07    4.89
  -3   3   0   19.58    4.12
  -3   3   0   17.70    1.99
   3  -3   1    0.79    1.18
   3  -3   1    0.41    1.20
  -3   3  -1    0.66    0.80
  -3   3  -1    0.60    1.19
  -3   3  -1    0.41    1.13
  -3   3  -1    0.02    0.74
   3  -3   2    0.61    0.96
   3  -3   2    0.45    1.19
  -3   3  -2   -0.25    0.70
  -3   3  -2    0.15    1.15
  -3   3  -2    1.19    1.07
  -3   3  -2    0.15    1.00
   3  -3   3   16.76    2.60
   3  -3   3   14.38    1.89
  -3   3  -3   12.88    3.07
  -3   3  -3   15.74    2.80
  -3   3  -3   15.50    1.66
   3  -3   4    9.25    2.12
   3  -3   4    8.44    2.51
   3  -3   4    6.23    1.49
  -3   3  -4    7.61    4.18
  -3   3  -4    5.60    2.26
  -3   3  -4    8.90    2.13
   3  -3   5  115.04   11.02
   3  -3   5  121.83   10.93
   3  -3   5  107.93    7.52
  -3   3  -5  119.21   11.53
  -3   3  -5  112.47    9.89
  -3   3  -5  127.61    7.16
   3  -3   6  116.21    8.55
   3  -3   6  103.41   10.05
  -3   3  -6  103.66   11.26
  -3   3  -6  110.61    6.88
   3  -3   7   10.60    2.27
   3  -3   7    9.87    2.71
   3  -3   7    9.16    2.00
  -3   3  -7   10.65    2.90
   3  -3   8    2.27    1.66
   3  -3   8    0.83    1.27
  -3   3  -8    1.40    1.15
   3  -3   9    6.05    2.46
  -3   3  -9    8.47    2.72
  -3   3  -9    4.31    1.77
   3  -3  10   -0.22    2.66
  -3   3 -10    0.61    1.88
  -3   3 -10    1.95    2.20
   3  -3  11    2.85    1.87
  -3   3 -11    5.94    2.73
  -3   3 -11    2.51    1.94
   3  -3  12    0.25    1.37
   3  -3  12    1.10    2.31
  -3   3 -12    3.74    3.26
  -3   3 -12    0.44    1.49
   3  -3  13    7.67    4.37
   3  -3  13    5.28    4.67
  -3   3 -13   17.64    3.77
  -3   3 -13    8.47    4.81
   3  -3  14    1.00    1.02
   3  -3  14    0.67    1.43
  -3   3 -14   -0.80    1.78
  -3   3 -14    0.50    1.49
   3  -3  15    1.03    1.53
  -3   3 -15    1.36    1.95
   3  -3  16    5.89    2.31
  -3   3 -16   22.44    6.02
   3  -3  17    1.37    2.03
  -3   3 -17    2.64    2.03
  -3   3 -18    6.21    2.32
   3  -2 -17    0.35    1.30
  -3   2  17    0.10    1.27
   3  -2 -16    1.89    2.10
  -3   2  16    1.28    1.92
   3  -2 -15   22.42    7.48
  -3   2  15   12.61    4.17
   3  -2 -14   28.73    6.12
  -3   2  14   20.98    5.39
   3  -2 -13    9.74    3.53
  -3   2  13    3.16    2.09
  -3   2  13    5.16    2.94
   3  -2 -12    1.64    2.32
  -3   2  12    0.49    1.52
  -3   2  12    1.74    1.89
   3  -2 -11    6.74    3.03
  -3   2  11    3.08    2.12
   3  -2 -10    0.93    1.92
  -3   2  10    0.42    1.37
   3  -2  -9    7.01    3.24
   3  -2  -8    0.55    1.56
  -3   2   8    0.14    1.17
   3  -2  -7    0.89    1.70
   3  -2  -7    1.04    1.62
  -3   2   7    0.77    1.13
  -3   2   7    0.44    1.18
   3  -2  -6   91.52   10.24
   3  -2  -6  103.37   13.13
   3  -2  -6   61.25    8.35
  -3   2   6   96.09    9.76
  -3   2   6  103.08    9.72
  -3   2   6   91.72    7.56
   3  -2  -5   24.72    4.39
   3  -2  -5   32.49    6.54
   3  -2  -5   20.70    4.17
   3  -2  -5   23.84    1.89
  -3   2   5   27.54    6.71
  -3   2   5   36.27    3.59
  -3   2   5   22.23    2.83
   3  -2  -4    2.98    1.31
   3  -2  -4   -1.63    1.31
   3  -2  -4   -0.04    0.84
  -3   2   4    0.13    2.32
  -3   2   4    0.11    1.06
  -3   2   4    0.35    0.76
   3  -2  -3  353.45   28.84
   3  -2  -3  403.77   29.69
   3  -2  -3  356.30   24.65
  -3   2   3  381.59   31.30
  -3   2   3  394.86   24.97
  -3   2   3  359.14   26.36
   3  -2  -2   74.62    7.93
   3  -2  -2   88.30    7.83
   3  -2  -2   82.17    6.41
  -3   2   2   92.24    7.28
  -3   2   2   84.12    5.82
  -3   2   2   68.03    5.00
   3  -2  -1   90.00    7.99
   3  -2  -1   89.10   10.89
   3  -2  -1   84.23    6.84
  -3   2   1   85.80    7.37
  -3   2   1   93.08    9.24
  -3   2   1   81.84    6.91
   3  -2   0   90.98    8.81
   3  -2   0  135.54    9.79
  -3   2   0  134.17   12.92
  -3   2   0  141.04    8.90
  -3   2   0  110.13    6.24
   3  -2   1   -1.19    1.35
  -3   2  -1   -0.45    1.33
  -3   2  -1    2.32    1.04
   3  -2   2  184.88   16.77
   3  -2   2  192.45   13.83
  -3   2  -2  196.67   14.51
  -3   2  -2  188.60   17.55
  -3   2  -2  201.71    9.77
   3  -2   3   49.35    4.71
   3  -2   3   46.54    4.96
   3  -2   3   42.59    2.87
  -3   2  -3   49.14    5.38
  -3   2  -3   51.92    7.98
  -3   2  -3   49.30    3.64
   3  -2   4    0.60    1.11
   3  -2   4    0.01    0.61
  -3   2  -4    0.37    0.64
  -3   2  -4    1.58    2.24
  -3   2  -4    0.63    1.32
  -3   2  -4    0.51    0.51
   3  -2   5   35.56    5.24
   3  -2   5   34.56    7.48
   3  -2   5   30.26    4.00
  -3   2  -5   37.68    5.28
  -3   2  -5   37.02    5.00
  -3   2  -5   33.48    3.42
   3  -2   6    8.76    1.89
   3  -2   6    8.16    2.46
   3  -2   6    2.84    2.10
   3  -2   6    7.43    1.46
  -3   2  -6    8.65    2.91
  -3   2  -6   10.19    2.82
  -3   2  -6    8.11    1.34
   3  -2   7   -0.23    1.07
   3  -2   7    1.42    1.34
   3  -2   7    0.86    1.34
   3  -2   7    0.46    0.80
   3  -2   7   -0.32    0.85
  -3   2  -7    0.99    0.77
   3  -2   8   15.33    3.06
   3  -2   8    4.98    3.19
   3  -2   8    7.99    1.99
   3  -2   8    9.88    2.05
  -3   2  -8   11.57    2.91
   3  -2   9    0.83    2.58
   3  -2   9    1.58    2.26
  -3   2  -9    2.83    1.91
   3  -2  10    1.14    1.36
   3  -2  10    0.59    2.05
  -3   2 -10   -0.18    1.68
   3  -2  11    0.97    1.68
   3  -2  11    1.03    2.69
  -3   2 -11    3.61    2.18
   3  -2  12    9.31    2.58
   3  -2  12    4.52    2.67
  -3   2 -12   12.12    5.45
   3  -2  13    1.58    2.01
   3  -2  13   -0.02    1.61
  -3   2 -13    1.39    1.87
   3  -2  14    1.54    1.36
   3  -2  14    0.24    1.84
  -3   2 -14    4.82    2.14
   3  -2  15    4.15    1.50
   3  -2  15    3.22    2.23
  -3   2 -15    8.83    2.61
   3  -2  16    0.36    1.34
  -3   2 -16    2.36    3.02
   3  -2  17    2.19    2.07
  -3   2 -17    1.42    1.74
  -3   2 -18   -1.08    2.14
   3  -1 -18    0.21    1.25
  -3   1  18   -0.01    1.02
   3  -1 -17    4.55    4.01
  -3   1  17    2.17    1.93
   3  -1 -16    0.71    3.99
  -3   1  16    1.89    1.93
   3  -1 -15    5.00    2.84
  -3   1  15    0.24    2.20
   3  -1 -14   -0.97    2.46
   3  -1 -13    2.73    2.52
  -3   1  13    0.71    1.53
   3  -1 -12   18.44    5.66
   3  -1 -11    2.53    2.78
   3  -1 -10   -1.60    2.03
   3  -1 -10   -0.14    2.12
   3  -1 -10   -1.06    1.58
   3  -1  -9    7.64    3.25
   3  -1  -9   10.21    3.33
   3  -1  -9    5.89    2.37
   3  -1  -8   30.69    5.78
   3  -1  -8   37.80    5.80
   3  -1  -7   -0.44    1.62
   3  -1  -7    1.14    1.61
  -3   1   7    0.83    1.60
  -3   1   7    0.80    1.12
   3  -1  -6    3.24    2.07
   3  -1  -6    3.15    2.07
  -3   1   6    3.15    2.11
  -3   1   6    4.28    2.28
  -3   1   6    2.56    1.05
   3  -1  -5    5.92    4.20
   3  -1  -5   10.34    4.09
   3  -1  -5    4.33    2.09
  -3   1   5    7.58    2.65
  -3   1   5   13.22    2.19
  -3   1   5    7.70    1.47
  -3   1   5    6.43    1.23
   3  -1  -4   18.02    5.43
   3  -1  -4   22.04    5.61
   3  -1  -4   16.24    3.07
  -3   1   4   19.68    3.45
  -3   1   4   24.68    2.96
  -3   1   4   14.62    1.86
   3  -1  -3  202.51   20.84
   3  -1  -3  224.17   16.16
   3  -1  -3  181.04   13.93
  -3   1   3  203.68   15.84
  -3   1   3  220.38   18.22
  -3   1   3  185.59   11.55
  -3   1   3  217.76   13.11
   3  -1  -2    2.33    2.20
   3  -1  -2   -0.91    1.54
  -3   1   2    1.19    1.33
  -3   1   2    2.48    1.39
  -3   1   2    1.36    0.88
  -3   1   2    0.75    0.57
   3  -1  -1  319.07   22.71
   3  -1  -1  351.29   29.87
   3  -1  -1  293.05   19.29
  -3   1   1  313.24   21.75
  -3   1   1  305.39   19.66
   3  -1   0    9.87    2.14
   3  -1   0   11.21    2.61
   3  -1   0   10.37    2.00
  -3   1   0   12.82    4.21
  -3   1   0   22.62    3.22
  -3   1   0    9.39    1.24
   3  -1   1   45.36    4.75
   3  -1   1   69.87    6.16
   3  -1   1   67.23    5.32
  -3   1  -1   61.14    6.19
  -3   1  -1   72.08    5.73
  -3   1  -1   60.23    3.24
   3  -1   2  233.22   21.68
   3  -1   2  214.04   15.18
  -3   1  -2  202.35   16.04
  -3   1  -2  214.91   15.67
   3  -1   3  213.25   14.61
   3  -1   3  190.07   17.68
  -3   1  -3  195.35   15.21
  -3   1  -3  204.57   15.25
  -3   1  -3  188.49   10.15
   3  -1   4    1.39    1.09
   3  -1   4    0.65    1.12
   3  -1   4   -0.83    0.89
  -3   1  -4    1.37    1.29
  -3   1  -4    0.20    0.51
   3  -1   5   50.76    6.55
   3  -1   5   52.98    5.67
  -3   1  -5   50.34    6.07
   3  -1   6  238.23   15.73
   3  -1   6  252.83   18.92
  -3   1  -6  216.78   18.30
  -3   1  -6  163.54   11.61
   3  -1   7   13.24    2.34
   3  -1   7   16.31    4.91
  -3   1  -7    6.34    2.06
   3  -1   8   46.26    5.25
   3  -1   8   24.97    4.11
   3  -1   9    0.29    1.63
   3  -1   9    0.40    1.52
  -3   1  -9    4.42    1.84
   3  -1  10   38.04    5.22
   3  -1  10   17.75    4.60
  -3   1 -10   45.55    5.75
   3  -1  11   36.55    5.24
   3  -1  11   20.66    4.90
  -3   1 -11   43.23    6.05
   3  -1  12   -0.60    1.94
   3  -1  12   -0.57    1.52
  -3   1 -12    0.01    2.66
   3  -1  13    3.09    1.56
   3  -1  13    1.80    2.05
  -3   1 -13    1.25    2.06
   3  -1  14    0.39    0.96
   3  -1  14    0.18    1.33
  -3   1 -14   -0.39    1.33
   3  -1  15    0.16    1.68
   3  -1  15    0.49    1.45
  -3   1 -15    1.08    2.25
   3  -1  16   -0.21    0.77
   3  -1  16   -0.36    1.98
  -3   1 -16   -0.61    1.36
   3  -1  17    0.14    0.91
  -3   1 -17    0.09    1.02
   3   0 -18   14.56    3.38
  -3   0  18   -1.11    1.33
   3   0 -17    7.95    4.81
  -3   0  17    2.99    2.07
   3   0 -16    5.25    3.05
  -3   0  16    2.06    2.14
   3   0 -15    8.81    4.44
   3   0 -14   -1.89    2.34
  -3   0  14   -0.25    1.34
   3   0 -13    8.63    3.90
   3   0 -13    4.62    2.86
   3   0 -12  101.61   14.61
   3   0 -12  150.41   16.09
   3   0 -12  101.90   12.19
   3   0 -11   38.29    7.05
   3   0 -11   36.01    6.61
   3   0 -11   18.99    4.73
   3   0 -10    9.78    3.61
   3   0 -10   14.48    3.85
   3   0 -10    6.20    2.59
   3   0  -9    5.19    4.31
   3   0  -9    5.58    2.81
   3   0  -9    2.98    1.78
   3   0  -8    3.78    4.10
   3   0  -8    3.48    2.25
   3   0  -8    1.64    1.35
  -3   0   8    2.58    1.08
   3   0  -7   23.92    5.01
   3   0  -7   28.25    4.43
   3   0  -7   16.81    2.64
  -3   0   7   22.67    3.65
  -3   0   7   32.57    3.26
  -3   0   7   20.04    2.20
   3   0  -6    4.84    2.27
   3   0  -6    3.04    2.00
  -3   0   6   -0.14    2.70
  -3   0   6    1.56    2.25
  -3   0   6    2.97    1.31
   3   0  -5    3.48    1.90
   3   0  -5    2.55    1.64
  -3   0   5    1.48    2.73
  -3   0   5    1.63    1.39
  -3   0   5    1.45    0.99
  -3   0   5    0.82    0.98
   3   0  -4    5.34    2.26
   3   0  -4    7.32    3.41
  -3   0   4    7.12    3.39
  -3   0   4    7.25    1.72
  -3   0   4    4.05    0.77
  -3   0   4    4.82    0.69
  -3   0   4    3.37    1.16
  -3   0   4    3.98    1.10
   3   0  -3   14.55    3.39
   3   0  -3   19.08    3.18
   3   0  -3   11.08    2.60
  -3   0   3   21.53    2.63
  -3   0   3   12.53    2.42
  -3   0   3   16.27    1.16
   3   0  -2   10.39    2.61
   3   0  -2   10.87    2.51
   3   0  -2    8.95    0.84
  -3   0   2   12.89    2.37
  -3   0   2    9.59    1.37
   3   0  -1   96.52    8.88
   3   0  -1  122.33   12.48
   3   0  -1   82.82    7.78
   3   0  -1   86.54    5.22
  -3   0   1   91.82    8.77
  -3   0   1  118.90    8.11
  -3   0   1  115.98    9.42
  -3   0   1   92.93    5.79
   3   0   0   12.38    2.69
   3   0   0   17.40    2.85
   3   0   0   14.48    2.03
   3   0   0   15.05    1.75
  -3   0   0   14.15    1.93
  -3   0   0   17.83    2.79
  -3   0   0   18.43    2.36
  -3   0   0   12.86    1.13
   3   0   1    0.67    0.89
   3   0   1   -1.72    1.13
   3   0   1    0.02    0.84
  -3   0  -1    0.02    0.65
  -3   0  -1   -1.45    1.17
  -3   0  -1    1.26    0.98
  -3   0  -1    0.54    0.43
   3   0   2  321.20   31.15
   3   0   2  320.15   26.70
  -3   0  -2  392.79   28.62
  -3   0  -2  347.79   30.17
   3   0   3   14.52    2.38
   3   0   3   17.03    2.43
   3   0   3    8.89    1.50
  -3   0  -3    8.40    1.55
  -3   0  -3   14.26    2.68
  -3   0  -3   16.25    4.33
  -3   0  -3    9.55    1.43
   3   0   4  151.45   11.03
   3   0   4  141.49   11.10
  -3   0  -4  125.41   14.68
  -3   0  -4  131.71   15.91
   3   0   5   15.72    3.60
   3   0   5   20.24    5.20
   3   0   5   11.16    3.37
  -3   0  -5   18.32    5.82
  -3   0  -5   14.34    2.19
   3   0   6  866.98   63.88
   3   0   6  768.46   61.67
   3   0   6  558.23   47.13
  -3   0  -6  832.35   79.21
  -3   0  -6  640.80   54.70
   3   0   7    2.60    1.34
   3   0   7    1.50    1.64
   3   0   7    0.91    1.36
  -3   0  -7    0.63    1.31
   3   0   8  462.38   35.05
   3   0   8  285.90   25.97
   3   0   9   -0.03    1.29
   3   0   9    0.44    1.20
  -3   0  -9    0.00    1.23
   3   0  10    1.69    2.28
   3   0  10    0.54    1.36
  -3   0 -10   -0.35    1.37
   3   0  11    1.79    1.58
   3   0  11    1.81    1.94
   3   0  12    1.51    1.40
   3   0  12   -0.03    1.77
  -3   0 -12    1.24    1.56
   3   0  13   -1.64    1.24
   3   0  13   -0.44    1.64
  -3   0 -13    0.60    1.43
   3   0  14    0.70    1.80
   3   0  14   -0.80    2.46
  -3   0 -14    0.72    2.07
   3   0  15   -0.63    0.86
   3   0  15    1.90    1.97
  -3   0 -15    0.39    1.16
   3   0  16    0.20    0.71
   3   0  16   -0.02    1.10
  -3   0 -16    0.17    0.99
   3   0  17   -0.12    0.90
   3   1 -18    1.66    2.94
   3   1 -18    0.21    3.03
  -3  -1  18   -0.84    1.07
   3   1 -17    0.75    1.86
  -3  -1  17   -0.67    1.19
   3   1 -16   -0.89    2.39
   3   1 -15    5.18    2.97
   3   1 -15    0.35    1.93
   3   1 -14    7.49    2.97
   3   1 -14   -0.24    3.57
   3   1 -14    4.14    2.44
   3   1 -13   20.31    5.83
   3   1 -13   39.96    6.74
   3   1 -13   16.88    4.50
   3   1 -12   75.15   11.65
   3   1 -12  102.90   12.23
   3   1 -12   53.83    8.27
   3   1 -11  404.42   45.35
   3   1 -11  413.97   37.75
   3   1 -11  252.71   24.39
   3   1 -10   -1.26    1.78
   3   1 -10    1.71    1.64
   3   1 -10    0.59    1.01
  -3  -1  10   -0.32    0.93
   3   1  -9    1.14    2.16
   3   1  -9    2.17    1.92
   3   1  -9    0.84    1.13
  -3  -1   9    0.50    1.03
  -3  -1   9    0.35    1.53
   3   1  -8   37.08    6.69
   3   1  -8   44.17    5.66
   3   1  -8   24.38    3.33
  -3  -1   8   35.15    3.38
  -3  -1   8   29.71    4.25
   3   1  -7    0.34    1.56
   3   1  -7    0.58    1.33
  -3  -1   7   -0.25    1.14
  -3  -1   7    0.32    0.92
  -3  -1   7   -0.26    1.08
   3   1  -6   33.72    5.58
   3   1  -6   34.39    4.64
  -3  -1   6   28.61    4.03
  -3  -1   6   35.23    3.45
  -3  -1   6   28.60    2.53
   3   1  -5   30.55    5.00
   3   1  -5   33.47    4.36
  -3  -1   5   27.24    3.86
  -3  -1   5   41.29    6.09
  -3  -1   5   28.94    2.34
   3   1  -4    0.40    2.45
   3   1  -4    0.89    2.11
   3   1  -4    0.69    0.63
  -3  -1   4   -0.18    1.09
  -3  -1   4    0.24    1.10
  -3  -1   4    0.16    1.01
   3   1  -3  158.13   18.76
   3   1  -3  163.36   12.77
   3   1  -3  149.62    8.17
  -3  -1   3  145.37   11.15
  -3  -1   3  169.81   11.13
  -3  -1   3  170.84    9.10
   3   1  -2  355.89   34.83
   3   1  -2  385.69   28.70
   3   1  -2  400.85   25.02
  -3  -1   2  363.38   25.79
  -3  -1   2  404.30   31.80
  -3  -1   2  370.31   27.53
   3   1  -1   33.18    6.52
   3   1  -1   36.09    6.11
   3   1  -1   27.06    4.06
  -3  -1   1   36.46    3.29
  -3  -1   1   39.06    3.96
  -3  -1   1   32.36    3.05
  -3  -1   1   26.16    2.78
   3   1   0   52.29    7.65
   3   1   0   51.42    5.07
   3   1   0   48.27    5.84
   3   1   0   49.49    5.11
  -3  -1   0   58.10    5.99
  -3  -1   0   61.15    5.02
  -3  -1   0   53.66    6.42
  -3  -1   0   45.43    3.60
   3   1   1   37.03    4.27
   3   1   1   50.50    4.72
   3   1   1   44.28    4.97
   3   1   1   38.88    3.25
  -3  -1  -1   40.56    4.07
  -3  -1  -1   47.86    6.46
  -3  -1  -1   52.33    6.66
  -3  -1  -1   45.85    4.48
   3   1   2    7.28    1.87
   3   1   2   11.91    1.95
   3   1   2   11.03    2.76
   3   1   2    8.95    2.54
  -3  -1  -2    7.97    1.19
  -3  -1  -2   13.21    2.29
  -3  -1  -2   13.28    2.33
  -3  -1  -2   11.20    1.51
   3   1   3    1.46    1.21
   3   1   3    2.47    1.13
   3   1   3    1.14    1.04
  -3  -1  -3    1.67    1.40
  -3  -1  -3    1.70    1.58
  -3  -1  -3    2.05    1.56
   3   1   4   39.05    6.00
   3   1   4   38.94    3.86
   3   1   4   27.43    3.64
  -3  -1  -4   33.94    4.44
  -3  -1  -4   36.53    4.94
  -3  -1  -4   34.60    5.13
   3   1   5    0.08    0.89
   3   1   5    1.51    1.16
   3   1   5    1.05    1.08
  -3  -1  -5    0.65    1.59
  -3  -1  -5   -0.02    1.10
   3   1   6  147.70   10.29
   3   1   6  174.20   13.19
   3   1   6  116.25   14.67
  -3  -1  -6  135.03   10.91
   3   1   7   12.11    2.89
   3   1   7    6.72    4.14
   3   1   7    4.84    4.26
   3   1   8  149.48   16.69
   3   1   8   80.80   13.84
  -3  -1  -8  113.97    9.69
   3   1   9   11.24    2.60
   3   1   9    6.71    4.72
  -3  -1  -9    9.03    2.53
   3   1  10    2.84    1.46
   3   1  10    3.34    2.87
  -3  -1 -10   -4.91    2.43
   3   1  11    5.99    2.19
   3   1  11    3.35    4.27
  -3  -1 -11    5.45    2.09
   3   1  12    0.76    1.59
   3   1  12    1.81    3.29
  -3  -1 -12    2.31    1.55
   3   1  13    2.94    2.06
   3   1  13   -1.91    1.47
   3   1  14    2.29    1.48
   3   1  14    0.45    1.88
   3   1  15    1.16    1.17
   3   1  15    1.22    1.61
   3   1  16   -1.31    1.45
   3   2 -18   -7.67    2.77
  -3  -2  18    0.95    0.83
   3   2 -17    4.57    3.11
   3   2 -16    2.01    2.53
  -3  -2  16    0.83    2.43
   3   2 -15    0.33    2.51
   3   2 -15   -0.70    1.56
  -3  -2  15   -1.44    1.46
   3   2 -14    5.40    3.82
   3   2 -14   25.12    4.57
   3   2 -14    6.40    2.88
  -3  -2  14    7.52    2.80
   3   2 -13   59.96   10.19
   3   2 -13   95.36   10.91
  -3  -2  13   51.32    7.08
   3   2 -12    6.31    5.82
   3   2 -12    6.10    3.54
  -3  -2  12    1.71    3.40
   3   2 -11  102.47   14.55
   3   2 -11  100.39   12.36
  -3  -2  11   79.08    8.43
   3   2 -10   37.79    7.68
   3   2 -10   40.42    6.54
  -3  -2  10   29.30    4.29
   3   2  -9  112.17   13.91
   3   2  -9  103.67   11.66
  -3  -2   9   90.04   11.11
   3   2  -8    1.96    1.98
   3   2  -8    0.71    1.63
  -3  -2   8   -0.02    0.98
   3   2  -7   40.53   10.80
   3   2  -7   43.74    5.74
  -3  -2   7   38.96    3.74
   3   2  -6    2.76    3.95
   3   2  -6    2.12    1.89
  -3  -2   6    2.87    2.35
  -3  -2   6    2.57    1.33
   3   2  -5    6.03    2.99
   3   2  -5    8.16    3.81
   3   2  -5    6.91    1.61
  -3  -2   5    5.85    2.91
  -3  -2   5    6.88    1.65
   3   2  -4   72.81    9.04
   3   2  -4   74.71    7.45
   3   2  -4   79.99    5.46
  -3  -2   4   68.72    8.39
  -3  -2   4   92.75    9.62
  -3  -2   4   74.76    5.72
   3   2  -3  120.28   12.04
   3   2  -3  119.42   10.68
  -3  -2   3  117.42    8.62
  -3  -2   3  133.82    9.41
   3   2  -2  315.23   26.46
   3   2  -2  337.17   30.69
   3   2  -2  341.37   25.91
  -3  -2   2  317.83   21.55
  -3  -2   2  313.19   22.98
  -3  -2   2  444.28   29.70
   3   2  -1  153.41   13.28
   3   2  -1  151.93   11.55
  -3  -2   1  170.20   10.34
  -3  -2   1  147.00   13.55
  -3  -2   1  139.75   13.02
  -3  -2   1  166.59   10.53
   3   2   0   14.33    2.95
   3   2   0   13.06    2.59
   3   2   0   13.59    1.89
   3   2   0   15.96    2.16
  -3  -2   0   18.62    1.95
  -3  -2   0   17.21    2.50
  -3  -2   0   14.81    2.47
   3   2   1    5.67    1.93
   3   2   1    5.61    2.43
   3   2   1    6.07    1.40
   3   2   1    5.54    1.57
  -3  -2  -1    7.06    1.89
  -3  -2  -1    6.40    1.73
  -3  -2  -1    7.36    1.93
  -3  -2  -1    6.09    2.50
   3   2   2    6.09    2.91
   3   2   2    5.76    1.61
   3   2   2    7.71    1.63
   3   2   2    7.91    2.82
  -3  -2  -2    6.69    0.98
  -3  -2  -2    7.34    1.80
  -3  -2  -2    8.51    2.23
  -3  -2  -2    7.67    1.67
   3   2   3  100.05   10.85
   3   2   3  135.99    9.30
   3   2   3  108.79   11.92
  -3  -2  -3  116.49   10.70
  -3  -2  -3  114.96    8.63
   3   2   4   14.61    1.95
   3   2   4   21.76    4.37
   3   2   4   16.76    2.97
  -3  -2  -4   19.63    3.78
  -3  -2  -4   18.16    4.45
   3   2   5   23.84    4.12
   3   2   5    9.29    2.92
   3   2   6    0.99    1.94
   3   2   6    0.64    1.43
   3   2   7   25.85    3.71
   3   2   7   20.93    4.48
   3   2   8    3.15    1.83
   3   2   8    3.65    2.26
   3   2   9    8.53    2.51
   3   2   9    4.45    2.98
   3   2  10   -0.07    1.14
   3   2  10    0.28    1.37
   3   2  11    1.38    3.03
   3   2  11    3.23    2.34
   3   2  12    2.17    2.71
   3   2  12    0.95    2.04
   3   2  13   -0.16    1.23
   3   2  13    1.27    1.56
   3   2  14    0.26    1.02
   3   2  14    0.01    1.33
   3   2  15   -1.72    1.67
   3   3 -18   -0.71    3.18
   3   3 -17    1.40    1.60
  -3  -3  17   -0.33    0.94
   3   3 -16   13.02    3.63
  -3  -3  16    4.04    2.16
   3   3 -15    1.41    2.83
   3   3 -15   11.16    3.52
  -3  -3  15    4.68    2.20
   3   3 -14   64.48   10.58
   3   3 -14  103.48   12.20
  -3  -3  14   70.00    8.53
   3   3 -13   68.90   18.02
   3   3 -13   76.39   11.36
  -3  -3  13   62.39   11.67
   3   3 -12   13.04    5.64
   3   3 -12   16.82    5.03
  -3  -3  12   15.10    3.53
   3   3 -11   13.11    5.12
   3   3 -11   10.90    4.16
  -3  -3  11    9.97    2.97
   3   3 -10    4.59    4.06
   3   3 -10    7.19    3.32
  -3  -3  10    5.76    3.68
   3   3  -9    2.56    4.09
   3   3  -9    2.19    1.96
  -3  -3   9    0.36    1.34
   3   3  -8    2.71    3.92
   3   3  -8    1.18    1.84
  -3  -3   8    0.76    1.28
   3   3  -7   77.45   10.78
   3   3  -7   60.47    7.84
   3   3  -6   52.07    7.98
   3   3  -6   45.00    8.88
   3   3  -6   47.60    4.99
  -3  -3   6   53.75    4.70
   3   3  -5    4.65    2.97
   3   3  -5    3.52    2.15
   3   3  -5    5.58    1.72
  -3  -3   5    4.75    1.46
   3   3  -4  145.16   14.74
   3   3  -4  137.33   11.96
   3   3  -4  147.12   13.77
  -3  -3   4  155.19   10.99
  -3  -3   4  123.70    8.80
   3   3  -3   50.10    6.82
   3   3  -3   40.59    7.46
  -3  -3   3   50.36    4.62
  -3  -3   3   37.00    5.18
   3   3  -2  171.41   17.28
   3   3  -2  169.75   13.57
   3   3  -2  247.00   16.35
  -3  -3   2  227.84   14.62
   3   3  -1   51.97    6.17
   3   3  -1   42.12    4.67
  -3  -3   1   64.75    5.61
  -3  -3   1   46.37    4.39
  -3  -3   1   48.57    4.73
   3   3   0   19.50    3.49
   3   3   0   11.27    3.35
   3   3   0   17.76    1.87
   3   3   0   19.27    2.85
  -3  -3   0   20.45    1.99
  -3  -3   0   13.67    2.32
  -3  -3   0   18.82    2.89
   3   3   1   12.35    3.21
   3   3   1   13.79    2.01
   3   3   1   19.94    3.01
  -3  -3  -1   20.70    1.91
  -3  -3  -1   17.19    4.00
  -3  -3  -1   19.22    3.14
  -3  -3  -1   23.09    4.78
   3   3   2    5.14    1.48
   3   3   2    7.80    2.09
  -3  -3  -2    6.61    2.40
  -3  -3  -2    7.59    1.95
   3   3   3    7.78    1.75
   3   3   3    9.31    3.81
   3   3   4   12.20    2.28
   3   3   4   11.45    4.77
   3   3   5   59.25    5.74
   3   3   5   48.78    6.90
   3   3   6   59.12    6.23
   3   3   6   46.81    7.13
   3   3   7   12.58    2.84
   3   3   7    9.18    3.48
   3   3   8    0.67    1.28
   3   3   8   -0.51    1.55
   3   3   9    0.33    2.77
   3   3   9    2.08    2.06
   3   3  10    0.18    2.43
   3   3  10   -0.68    1.69
   3   3  11   -2.58    1.84
   3   3  11   -1.24    2.28
   3   3  12    0.04    1.30
   3   3  12    1.23    1.63
   3   3  13    1.13    1.31
   3   3  13    0.27    1.65
   3   3  14   -0.11    1.95
   3   3  15   -0.54    1.36
  -3  -3 -15    3.04    1.41
   3   4 -18    2.40    1.97
   3   4 -17    8.79    4.23
  -3  -4  17    2.74    2.58
   3   4 -16    3.38    4.10
  -3  -4  16    2.68    1.72
   3   4 -15    1.81    2.18
   3   4 -15    2.07    2.49
  -3  -4  15    2.09    1.73
   3   4 -14    7.29    7.64
   3   4 -14   15.16    4.11
  -3  -4  14    2.62    4.89
   3   4 -13   22.81    6.82
   3   4 -13   25.13    5.69
  -3  -4  13   21.80    4.43
   3   4 -12   -0.29    2.26
   3   4 -12    0.45    1.80
  -3  -4  12   -0.55    1.38
   3   4 -11    5.84    4.30
   3   4 -11    5.65    3.23
  -3  -4  11    5.42    4.14
   3   4 -10    0.37    5.06
   3   4 -10    2.02    2.29
  -3  -4  10    2.03    1.78
   3   4  -9    2.68    5.35
   3   4  -9    2.60    2.32
  -3  -4   9    2.63    1.85
   3   4  -8    2.73    2.72
   3   4  -8    2.31    3.07
  -3  -4   8    0.93    1.55
   3   4  -7    2.95    3.22
   3   4  -7    4.26    3.61
   3   4  -6   37.52    6.77
   3   4  -6   22.37    4.69
   3   4  -6   35.86    4.47
   3   4  -5   39.34    6.77
   3   4  -5   24.73    4.57
   3   4  -5   39.26    4.50
  -3  -4   5   34.56    4.97
   3   4  -4   16.63    5.00
   3   4  -4   23.23    5.57
   3   4  -3   15.48    8.33
   3   4  -3  143.96    9.13
   3   4  -2  194.53   20.29
   3   4  -2  236.00   17.93
   3   4  -1   19.92    7.78
   3   4  -1  152.42    9.44
   3   4   0    0.15    1.62
   3   4   0    0.66    1.30
   3   4   0    1.74    2.33
  -3  -4   0    0.67    1.30
   3   4   1    2.36    1.79
   3   4   1    0.91    1.64
   3   4   1    1.80    1.67
  -3  -4  -1    1.55    1.60
   3   4   2    5.20    2.59
   3   4   2    7.14    2.47
   3   4   3   -0.15    1.45
   3   4   3    0.44    1.32
   3   4   4    0.91    1.58
   3   4   4   -0.40    1.46
   3   4   5    2.71    2.67
   3   4   5    2.70    3.83
   3   4   6    9.52    4.35
   3   4   6    9.37    5.51
   3   4   7   13.35    3.12
   3   4   7   10.54    6.29
   3   4   8    1.95    1.79
   3   4   8    2.04    3.67
   3   4   9   15.45    3.46
   3   4   9   11.51    6.68
   3   4  10   -1.09    1.54
   3   4  10    1.09    3.11
   3   4  11    3.55    1.94
   3   4  11    1.59    3.82
   3   4  12    1.12    2.91
   3   4  13   -0.51    1.39
   3   4  14    1.43    1.05
  -3  -4 -14   -1.14    1.14
   3   5 -17   13.81    3.05
  -3  -5  17   12.62    3.68
   3   5 -16    1.44    1.79
   3   5 -16    4.32    2.15
  -3  -5  16    4.17    1.72
   3   5 -15    3.11    3.96
   3   5 -15    5.06    3.99
  -3  -5  15    3.59    2.01
   3   5 -14    5.67    3.68
   3   5 -14    6.47    4.81
  -3  -5  14    5.89    2.44
   3   5 -13   12.69    4.51
   3   5 -13    1.98    5.32
   3   5 -13    3.08    5.40
  -3  -5  13    7.16    2.87
   3   5 -12    0.39    2.66
   3   5 -12    1.25    3.06
   3   5 -12    0.37    3.15
  -3  -5  12    0.77    1.67
   3   5 -11   12.14    9.21
   3   5 -11    8.57    6.44
  -3  -5  11   15.50    5.71
   3   5 -10   19.37   10.46
  -3  -5  10   19.25    4.00
   3   5  -9    5.14    3.31
  -3  -5   9    1.75    1.98
   3   5  -8   43.86    8.86
  -3  -5   8   45.41    5.83
   3   5  -7    0.32    2.26
   3   5  -6    2.05    3.25
   3   5  -6    3.76    2.09
   3   5  -5    5.62    3.27
   3   5  -5    3.26    2.19
   3   5  -4    6.16    4.74
   3   5  -4   26.14    5.95
   3   5  -3   26.36    6.25
   3   5  -2    8.30    3.81
   3   5  -1   66.78    9.22
   3   5  -1   59.32    8.37
   3   5   0   31.38    6.23
   3   5   0   36.14    8.83
   3   5   1   46.46    7.42
   3   5   1   45.43    4.74
   3   5   1   81.01   11.39
   3   5   2  115.69    9.87
   3   5   2  152.09   14.21
   3   5   3   39.65    4.98
   3   5   3   46.67    7.12
   3   5   4   14.64    3.06
   3   5   4   16.95    4.30
   3   5   5   10.84    2.70
   3   5   5    9.81    3.78
   3   5   6    0.87    1.34
   3   5   6   -0.08    1.79
   3   5   7   25.19    4.20
   3   5   7   21.90    5.32
   3   5   8   -0.16    1.42
   3   5   8   -1.41    1.81
   3   5   9    6.99    2.39
   3   5   9    3.77    2.96
   3   5  10    1.81    2.09
   3   5  11    0.29    1.43
   3   5  12   -4.03    1.90
  -3  -5 -12   -1.04    1.90
  -3  -6  16    7.59    2.02
   3   6 -15    3.05    3.25
  -3  -6  15    1.99    2.73
   3   6 -14    0.28    2.22
  -3  -6  14    1.31    1.53
   3   6 -13    1.87    2.42
  -3  -6  13    0.43    1.58
   3   6 -12   19.65    6.26
  -3  -6  12   17.04    4.01
   3   6 -11    9.11    7.76
  -3  -6  11    8.96    4.98
   3   6 -10   41.25    8.89
  -3  -6  10   35.23    5.63
   3   6  -9   13.36    5.51
  -3  -6   9   12.08    3.54
   3   6  -8    3.64    3.78
   3   6  -7   25.85    7.27
   3   6  -6    7.76    4.10
   3   6  -6    5.47    2.82
   3   6  -5    5.82    4.04
   3   6  -5    6.59    2.82
   3   6  -4    0.85    2.17
   3   6  -4    0.09    1.59
   3   6  -3   11.27    4.83
   3   6  -2    2.47    2.93
   3   6  -1    2.91    2.97
   3   6  -1    3.82    2.64
   3   6   0   -0.21    2.08
   3   6   0   -1.21    1.91
   3   6   1    4.63    2.77
   3   6   2    0.65    3.04
   3   6   3    1.80    3.88
   3   6   4    1.19    2.11
   3   6   5   -0.49    1.81
   3   6   6    1.54    2.23
   3   6   7    0.28    1.65
   3   6   8    1.25    1.97
   3   6   9    1.71    2.37
  -3  -6  -9    5.34    2.47
   3   6  10    0.62    1.51
  -3  -6 -10    0.77    1.55
   3   6  11    9.72    2.54
  -3  -6 -11   -1.63    1.59
   3   7 -15   -1.43    2.54
  -3  -7  15   -1.72    2.19
   3   7 -14   -0.64    1.81
  -3  -7  14    1.22    1.29
   3   7 -13    2.19    2.36
  -3  -7  13    0.55    1.57
   3   7 -12    6.07    3.98
  -3  -7  12    6.90    2.54
   3   7 -11    0.65    4.95
  -3  -7  11    2.33    3.11
   3   7 -10    3.23    4.51
  -3  -7  10    0.53    1.68
   3   7  -9    8.27    4.57
  -3  -7   9    5.70    2.92
   3   7  -8   11.11    5.05
  -3  -7   8    8.60    3.22
   3   7  -7    2.15    3.27
   3   7  -6   -1.75    3.56
   3   7  -6   -3.69    2.62
   3   7  -5   19.61    6.21
   3   7  -5   16.67    4.95
   3   7  -4   27.02    7.61
   3   7  -3    1.02    2.64
   3   7  -2  111.31   17.02
   3   7  -2  153.36   24.10
   3   7  -1  128.11   16.95
   3   7  -1  155.20   20.90
   3   7   0    1.32    3.25
   3   7   0    9.59    3.53
   3   7   1    3.96    2.86
   3   7   2    0.61    1.59
  -3  -7  -2   -0.14    1.21
   3   7   3    4.22    2.47
  -3  -7  -3    1.21    1.89
   3   7   4   22.79    3.57
  -3  -7  -4    0.23    2.75
   3   7   5    0.57    2.92
  -3  -7  -5    0.71    1.57
   3   7   6   -0.12    2.67
  -3  -7  -6   -0.61    1.49
   3   7   7   -0.18    2.92
  -3  -7  -7    1.54    1.66
   3   7   8    0.97    1.84
  -3  -7  -8   -0.31    1.09
   3   7   9   -3.47    1.68
  -3  -7  -9   -1.23    1.67
   3   8 -13   12.29    3.73
  -3  -8  13   10.10    2.54
   3   8 -12    1.92    2.38
  -3  -8  12    1.22    1.56
   3   8 -11   -2.15    2.74
  -3  -8  11   -1.06    2.90
   3   8 -10    2.62    5.05
  -3  -8  10    2.43    1.95
   3   8  -9    2.73    3.08
  -3  -8   9    1.62    1.93
   3   8  -8   -1.73    2.79
  -3  -8   8    2.15    1.75
   3   8  -7   -0.08    2.12
   3   8  -6    7.01    4.44
   3   8  -5    3.44    4.65
   3   8  -5   12.86    3.93
   3   8  -4   12.84    5.39
   3   8  -3   30.11    7.59
   3   8  -2   -3.55    3.66
   3   8  -2   15.43    3.96
   3   8  -1   44.83    8.29
   3   8  -1   61.04   12.45
   3   8   0   -9.06    5.73
   3   8   1   10.93    3.66
   3   8   2   10.10    3.42
   3   8   3    0.62    1.68
   3   8   4    3.27    2.28
   3   8   5    1.14    1.65
   3   8   6    0.07    1.23
   3   8   7   -0.82    1.65
  -3  -8  -7    4.83    1.56
   3   9 -11    0.51    3.06
  -3  -9  11    6.08    1.93
   3   9 -10    3.95    3.61
  -3  -9  10    7.06    3.63
   3   9  -9    5.96    4.94
  -3  -9   9    2.94    1.95
   3   9  -8    0.91    4.20
  -3  -9   8    1.68    1.68
   3   9  -7   -1.54    2.01
  -3  -9   7    0.23    1.36
   3   9  -6    4.21    3.31
   3   9  -5   -0.55    2.11
   3   9  -4    2.17    2.59
   3   9  -3    5.10    3.07
   3   9  -2    0.20    1.78
   3   9  -2   -1.77    1.88
   3   9  -1    5.85    2.54
   3   9  -1    5.56    2.88
   3   9   0    0.56    1.58
   3   9   1    7.74    2.86
   3   9   2    0.10    2.05
   3   9   3   -6.21    4.01
   3  10  -6   -1.53    3.40
  -3 -10   6   -2.17    1.52
   3  10  -5   59.69    6.03
  -3 -10   5    3.07    2.66
   3  10  -4    6.49    4.24
   4 -11  -2   -4.76    3.59
  -4  11   2   -2.09    1.50
  -4  11   2   -1.76    1.54
   4 -11  -1    4.49    4.09
  -4  11   1    3.05    1.77
  -4  11   1    3.41    2.97
  -4  11   0   11.02    2.91
  -4  11   0   24.20    4.97
   4 -11   1   -5.79    4.64
  -4  11  -1   -3.28    3.47
  -4  11  -1   -9.93    3.76
   4 -11   2    0.64    1.67
  -4  11  -2    0.23    1.97
  -4  11  -2    0.98    1.33
   4 -11   3    1.76    2.06
  -4  11  -3    1.02    2.90
  -4  11  -3    3.22    1.64
   4 -11   4    0.25    1.49
  -4  11  -4    0.77    1.22
  -4  11  -4    0.69    1.28
   4 -11   5   -3.54    1.41
  -4  11  -5   -0.13    1.04
  -4  11  -5    1.67    1.33
   4 -11   6    9.78    4.35
  -4  11  -6   11.34    4.21
  -4  11  -7   -1.44    1.46
  -4  11  -8    2.06    1.45
   4 -10  -6    0.64    1.42
  -4  10   6    1.45    1.04
  -4  10   6   -0.71    1.20
  -4  10   5   10.64    2.83
  -4  10   5   16.88    3.01
   4 -10  -4    0.28    1.81
  -4  10   4   -0.14    1.35
  -4  10   4    1.73    1.39
   4 -10  -3    4.92    2.77
  -4  10   3    3.25    2.08
  -4  10   3    3.18    2.07
   4 -10  -2    4.12    3.09
  -4  10   2    1.78    2.28
  -4  10   2    7.96    2.37
   4 -10  -1    5.37    2.85
  -4  10   1    3.29    2.05
  -4  10   1    1.53    2.11
   4 -10   0    8.11    3.45
  -4  10   0    4.15    2.38
  -4  10   0    4.95    2.51
   4 -10   1    4.00    2.84
  -4  10  -1    2.16    1.91
  -4  10  -1    2.60    2.09
   4 -10   2    1.87    4.38
  -4  10  -2    1.74    1.73
  -4  10  -2    3.02    3.13
   4 -10   3    0.07    3.21
  -4  10  -3    0.71    1.32
  -4  10  -3    1.02    2.42
   4 -10   4    1.18    1.98
  -4  10  -4    1.46    1.29
  -4  10  -4   -0.02    1.51
   4 -10   5    1.62    2.07
  -4  10  -5    1.64    2.65
  -4  10  -5    1.76    1.66
   4 -10   6    1.36    1.62
  -4  10  -6    0.51    1.14
  -4  10  -6   -0.21    1.33
   4 -10   7    3.31    3.48
  -4  10  -7    2.58    2.97
   4 -10   8    3.07    1.87
  -4  10  -8    9.46    3.40
   4 -10   9   -0.28    0.87
  -4  10  -9    0.16    1.08
  -4  10 -10    4.61    1.91
  -4  10 -11    2.91    2.51
  -4   9   8    0.89    1.20
   4  -9  -7   -0.36    1.11
  -4   9   7   -0.20    1.51
  -4   9   7    0.42    1.04
   4  -9  -6    6.47    2.78
  -4   9   6    3.41    3.03
  -4   9   6    4.78    2.47
   4  -9  -5    0.40    2.11
  -4   9   5    0.98    2.27
  -4   9   5    2.82    3.02
   4  -9  -4    7.94    3.30
  -4   9   4    4.74    2.19
  -4   9   4    3.60    4.41
   4  -9  -3    1.60    2.21
  -4   9   3    0.65    1.41
  -4   9   3   -0.20    2.64
   4  -9  -2    6.34    3.63
  -4   9   2    5.61    2.29
  -4   9   2    4.53    4.25
   4  -9  -1    9.92    4.04
  -4   9   1    6.37    2.47
  -4   9   1    6.23    2.92
   4  -9   0    6.72    3.55
  -4   9   0    2.71    3.43
  -4   9   0    3.81    2.53
   4  -9   1   20.46    5.93
  -4   9  -1   17.90    6.53
   4  -9   2    6.55    3.75
  -4   9  -2    6.32    4.13
  -4   9  -2    4.55    2.69
   4  -9   3   25.03    7.43
  -4   9  -3    6.31    2.92
  -4   9  -3   15.27    5.35
   4  -9   4    6.93    4.31
  -4   9  -4    0.45    1.67
  -4   9  -4    4.63    3.25
   4  -9   5   13.10    4.55
  -4   9  -5   12.49    2.85
  -4   9  -5   16.71    3.49
   4  -9   6    1.42    2.07
  -4   9  -6    0.79    1.63
   4  -9   7   -0.98    1.64
  -4   9  -7    1.06    1.31
   4  -9   8    7.78    5.38
   4  -9   8    6.89    4.70
  -4   9  -8   12.98    4.37
   4  -9   9    0.53    1.55
  -4   9  -9    2.24    1.61
   4  -9  10    0.00    1.14
  -4   9 -10    0.93    1.28
   4  -9  11    0.91    1.32
  -4   9 -11    0.53    1.24
  -4   9 -12   -3.96    3.15
  -4   9 -13   -0.91    1.14
  -4   8  10   14.95    3.26
  -4   8  10    9.33    2.82
   4  -8  -9    1.15    1.41
  -4   8   9    1.16    1.10
  -4   8   9    2.66    1.65
   4  -8  -8    2.86    1.73
  -4   8   8    0.72    1.28
  -4   8   8    0.96    1.79
   4  -8  -7    1.72    1.54
  -4   8   7   -0.91    1.06
  -4   8   7    0.87    1.40
   4  -8  -6    1.74    2.21
  -4   8   6    2.04    1.53
  -4   8   6    0.01    1.93
   4  -8  -5   -1.60    2.12
  -4   8   5   -0.32    1.42
  -4   8   5   -0.75    1.79
   4  -8  -4    0.34    2.14
  -4   8   4   -1.02    1.42
  -4   8   4   -0.33    1.70
   4  -8  -3   14.20    4.74
  -4   8   3   10.24    3.12
  -4   8   3   12.75    3.76
   4  -8  -2   11.73    4.45
  -4   8   2    8.20    2.84
  -4   8   2   10.00    3.42
   4  -8  -1    2.60    2.81
  -4   8   1    1.71    1.67
  -4   8   1   -0.42    3.56
   4  -8   0   12.63    4.69
  -4   8   0    9.40    2.82
  -4   8   0    9.52    3.25
   4  -8   1   26.11    5.60
  -4   8  -1   11.17    4.24
   4  -8   2   25.32    6.35
  -4   8  -2   17.02    3.76
  -4   8  -2   28.90    4.69
   4  -8   3    4.40    7.05
  -4   8  -3    3.98    3.72
  -4   8  -3   14.25    3.31
   4  -8   4    6.69    3.92
  -4   8  -4   -1.14    2.54
  -4   8  -4    1.34    2.96
   4  -8   5    5.63    3.45
  -4   8  -5    4.70    2.09
  -4   8  -5    7.74    2.48
   4  -8   6    3.47    2.74
  -4   8  -6    2.68    2.00
   4  -8   7    4.63    2.85
  -4   8  -7    3.42    2.13
   4  -8   8   -4.30    4.55
  -4   8  -8   -3.09    3.37
   4  -8   9   -0.76    1.42
  -4   8  -9    0.99    1.28
   4  -8  10    1.49    1.86
  -4   8 -10    1.40    1.50
  -4   8 -10    4.09    1.78
   4  -8  11    0.85    1.81
  -4   8 -11    0.05    0.92
  -4   8 -11   -0.73    1.10
   4  -8  12    0.35    0.73
  -4   8 -12   -1.08    0.87
  -4   8 -12    1.56    1.91
  -4   8 -13    0.98    1.95
  -4   8 -13    0.45    1.20
  -4   8 -14    9.31    1.88
  -4   7  12    7.10    2.21
  -4   7  11    0.17    0.76
  -4   7  11    1.54    1.32
  -4   7  10    0.10    1.05
  -4   7  10    2.67    1.59
  -4   7   9    0.53    1.08
  -4   7   9   -0.28    2.46
   4  -7  -8    4.42    2.42
  -4   7   8    3.08    1.86
  -4   7   8    4.79    3.91
   4  -7  -7   -0.65    2.72
  -4   7   7    4.35    3.31
  -4   7   7    8.11    2.66
   4  -7  -6   -0.29    1.72
  -4   7   6    0.18    2.03
  -4   7   6    0.57    1.52
   4  -7  -5   21.04    5.66
  -4   7   5   21.02    6.92
  -4   7   5   22.40    4.98
   4  -7  -4    5.89    3.44
  -4   7   4    2.91    4.03
  -4   7   4    6.09    2.81
   4  -7  -3    1.23    2.46
  -4   7   3    1.97    2.72
  -4   7   3    0.59    1.94
   4  -7  -2  124.33   15.29
  -4   7   2  113.39   15.76
  -4   7   2  112.18   13.13
   4  -7  -1   14.96    4.99
  -4   7   1   10.64    4.84
  -4   7   1   12.49    4.14
   4  -7   0   78.35   10.66
  -4   7   0   54.16    9.91
  -4   7   0   56.50   12.92
   4  -7   1   34.24    6.65
  -4   7  -1   20.19    3.93
  -4   7  -1   29.89    4.95
   4  -7   2   13.00    4.64
  -4   7  -2    7.68    2.51
  -4   7  -2   18.16    3.51
   4  -7   3   10.32    6.40
  -4   7  -3    6.04    2.03
  -4   7  -3    8.86    2.74
   4  -7   4    3.13    1.63
   4  -7   4    6.99    4.96
  -4   7  -4    3.77    1.60
  -4   7  -4    8.29    3.55
   4  -7   5    7.37    3.53
  -4   7  -5    6.82    2.39
   4  -7   6    2.60    2.46
  -4   7  -6    1.61    1.97
  -4   7  -6    1.65    1.67
   4  -7   7    0.59    1.98
  -4   7  -7    2.01    1.72
  -4   7  -7   -0.41    1.36
   4  -7   8   -1.93    3.63
   4  -7   8   -3.64    3.21
  -4   7  -8    2.51    1.99
  -4   7  -8    2.97    2.49
   4  -7   9    1.35    2.13
  -4   7  -9    1.97    2.31
  -4   7  -9    2.17    1.76
   4  -7  10    2.81    2.26
  -4   7 -10   -0.09    4.00
  -4   7 -10    3.96    2.01
   4  -7  11    1.69    2.59
  -4   7 -11    1.10    1.53
  -4   7 -11    0.35    1.39
   4  -7  12    0.32    1.12
  -4   7 -12    0.63    1.42
  -4   7 -12    2.44    2.32
  -4   7 -13    0.81    1.18
  -4   7 -13   -0.33    1.14
  -4   7 -14    0.89    2.03
  -4   7 -14    0.89    1.12
  -4   7 -15   21.30    3.43
  -4   6  13    7.76    3.92
  -4   6  12    0.02    0.64
  -4   6  12   -0.93    1.99
  -4   6  11    0.69    1.02
  -4   6  11    0.81    1.68
  -4   6  10    0.84    2.17
  -4   6  10    1.19    1.89
  -4   6   9    1.08    1.38
  -4   6   9   -0.25    1.91
  -4   6   8    1.32    1.51
  -4   6   8    0.10    1.93
   4  -6  -7   12.22    4.04
  -4   6   7   12.38    3.34
  -4   6   7   16.33    4.20
   4  -6  -6    9.38    3.57
  -4   6   6    8.28    2.90
  -4   6   6   11.24    5.71
   4  -6  -5   -0.16    1.63
  -4   6   5    0.67    1.26
  -4   6   5   -1.14    2.32
   4  -6  -4   24.66    5.67
  -4   6   4   25.55    4.63
  -4   6   4   22.62    5.07
   4  -6  -3    2.08    2.23
  -4   6   3   -0.25    1.63
  -4   6   3    2.08    1.84
   4  -6  -2  171.77   18.49
  -4   6   2  146.95   14.07
  -4   6   2  152.29   15.07
   4  -6  -1    0.02    1.41
   4  -6  -1    2.02    2.15
  -4   6   1    0.51    1.39
   4  -6   0  119.53   12.89
   4  -6   0  189.09   18.86
  -4   6   0  150.29   13.50
  -4   6   0  191.72   19.63
   4  -6   1    1.85    1.46
   4  -6   1    0.03    2.19
  -4   6  -1    0.00    1.26
   4  -6   2   15.70    4.83
   4  -6   2   29.00    5.90
  -4   6  -2   18.86    4.81
  -4   6  -2   26.89    3.80
   4  -6   3    0.24    1.20
   4  -6   3    0.57    3.71
  -4   6  -3    1.46    1.08
  -4   6  -3    1.21    1.50
   4  -6   4    9.99    2.60
   4  -6   4   17.82    4.37
  -4   6  -4   18.22    4.64
   4  -6   5    9.73    2.50
   4  -6   5   12.55    3.99
  -4   6  -5   11.55    2.58
   4  -6   6    1.04    1.42
   4  -6   6    0.51    2.28
  -4   6  -6    1.98    1.40
   4  -6   7    1.94    2.07
  -4   6  -7    0.35    1.32
  -4   6  -8   -0.08    2.16
  -4   6  -8    1.91    2.32
  -4   6  -9   -2.77    1.96
  -4   6  -9    0.81    1.23
   4  -6  10    0.05    1.75
  -4   6 -10    1.06    2.19
  -4   6 -10    0.81    1.34
   4  -6  11   -2.34    3.33
  -4   6 -11   -7.11    4.04
  -4   6 -11    0.77    2.57
   4  -6  12    2.17    1.46
  -4   6 -12    3.21    2.04
  -4   6 -12    0.22    1.65
   4  -6  13    0.10    0.83
  -4   6 -13    0.96    1.20
  -4   6 -13   -0.74    0.95
  -4   6 -14   -0.11    1.43
  -4   6 -14    1.35    1.64
  -4   6 -15   -3.43    2.87
  -4   5  14   10.45    2.73
  -4   5  13   -0.19    0.63
  -4   5  13    0.28    1.23
  -4   5  12    2.74    2.47
  -4   5  12    4.46    2.35
  -4   5  11    0.36    1.12
  -4   5  11    0.46    1.60
  -4   5  10    1.06    1.73
  -4   5  10    4.59    2.30
  -4   5   9    2.22    2.10
  -4   5   9    6.75    2.66
  -4   5   8    1.77    1.73
  -4   5   8    1.67    2.12
   4  -5  -7    2.05    2.15
  -4   5   7    2.40    1.83
  -4   5   7    1.91    2.15
   4  -5  -6    3.11    2.33
   4  -5  -6    2.76    2.35
  -4   5   6    2.60    3.14
  -4   5   6    3.09    2.26
   4  -5  -5    3.80    2.36
   4  -5  -5    4.05    2.50
  -4   5   5    3.50    3.27
  -4   5   5    2.86    2.28
   4  -5  -4   12.37    4.06
   4  -5  -4   18.91    4.42
  -4   5   4   17.14    5.49
  -4   5   4   20.25    6.27
   4  -5  -3    3.57    2.18
   4  -5  -3    3.59    2.35
  -4   5   3    0.85    2.85
  -4   5   3    0.92    2.93
   4  -5  -2    1.58    3.49
   4  -5  -2    3.39    2.35
  -4   5   2    2.39    1.69
  -4   5   2    2.07    1.71
   4  -5  -1   11.51    4.79
   4  -5  -1   20.95    4.07
  -4   5   1   11.34    2.72
  -4   5   1   10.30    2.88
   4  -5   0   19.20    3.68
   4  -5   0   22.68    4.82
  -4   5   0   16.01    3.10
  -4   5   0   18.30    3.28
   4  -5   1   10.59    2.91
   4  -5   1   14.80    3.91
  -4   5  -1    8.28    2.23
  -4   5  -1   12.46    3.74
   4  -5   2    3.13    2.06
   4  -5   2    3.22    4.46
  -4   5  -2    2.46    1.40
  -4   5  -2    4.75    1.62
   4  -5   3   11.14    4.77
   4  -5   3   13.42    3.57
  -4   5  -3    5.56    2.99
  -4   5  -3   11.03    2.27
   4  -5   4    1.24    1.33
   4  -5   4    1.80    2.08
  -4   5  -4    0.38    1.95
   4  -5   5   15.14    2.93
   4  -5   5   16.04    4.34
  -4   5  -5   13.89    2.51
   4  -5   6   13.81    3.11
   4  -5   6   16.78    4.41
  -4   5  -6   15.13    2.62
   4  -5   7   24.89    3.88
   4  -5   7   33.43    9.04
  -4   5  -7   18.74    5.04
   4  -5   8   -1.94    2.01
  -4   5  -8   -0.14    1.28
  -4   5  -9   68.63    9.69
  -4   5  -9   48.47    5.65
  -4   5 -10    7.22    4.03
   4  -5  11   -0.18    2.42
  -4   5 -11   -1.39    2.42
   4  -5  12    1.89    1.37
  -4   5 -12   -7.44    3.37
   4  -5  13    1.54    1.24
  -4   5 -13   -0.67    1.76
   4  -5  14    0.00    1.17
  -4   5 -14    0.27    1.36
  -4   5 -15    0.85    1.53
  -4   5 -16    0.96    1.59
  -4   4  15   -2.34    1.64
  -4   4  14   -0.31    1.28
   4  -4 -13   -0.11    2.00
  -4   4  13    0.08    0.84
  -4   4  13   -0.70    1.30
   4  -4 -12    0.34    2.60
  -4   4  12    0.00    1.02
  -4   4  12    0.61    1.44
   4  -4 -11   16.18    4.26
  -4   4  11   11.05    2.88
  -4   4  11   11.86    3.72
   4  -4 -10   27.46    5.82
  -4   4  10   21.20    6.09
  -4   4  10   17.05    4.85
   4  -4  -9    3.11    2.45
  -4   4   9    0.62    3.41
  -4   4   9    0.73    1.98
   4  -4  -8    1.48    2.02
  -4   4   8    0.35    1.73
  -4   4   8    0.43    1.65
   4  -4  -7   -1.30    3.08
  -4   4   7    0.55    1.61
  -4   4   7    0.74    1.46
   4  -4  -6    7.96    5.33
   4  -4  -6    4.63    2.62
  -4   4   6    8.57    2.88
  -4   4   6    5.71    2.52
   4  -4  -5   10.62    5.42
   4  -4  -5    9.25    3.01
  -4   4   5    9.09    3.18
  -4   4   5    9.28    2.78
   4  -4  -4    1.64    1.91
   4  -4  -4    0.26    1.75
  -4   4   4    1.48    1.73
  -4   4   4    1.32    1.47
   4  -4  -3   20.36    4.31
   4  -4  -3   21.89    4.04
  -4   4   3   17.09    3.91
  -4   4   3   14.57    4.67
   4  -4  -2    0.33    1.35
   4  -4  -2   -0.35    1.32
  -4   4   2    0.13    1.15
  -4   4   2    0.10    0.90
   4  -4  -1    1.10    1.74
   4  -4  -1    2.00    1.77
  -4   4   1    2.12    1.44
  -4   4   1   -0.30    1.14
   4  -4   0   10.85    5.23
   4  -4   0   14.09    5.34
  -4   4   0    7.90    4.05
  -4   4   0    8.69    3.23
   4  -4   1    2.30    1.56
   4  -4   1    1.85    2.93
  -4   4  -1   -0.17    1.70
  -4   4  -1    1.07    1.03
   4  -4   2    6.54    2.19
   4  -4   2    6.28    2.50
  -4   4  -2    2.10    1.36
  -4   4  -2    5.50    1.40
   4  -4   3    5.18    2.24
   4  -4   3    5.93    2.48
  -4   4  -3    3.04    1.22
  -4   4  -3    4.69    2.16
  -4   4  -3    4.32    1.65
   4  -4   4    2.17    3.19
   4  -4   5    2.52    1.56
   4  -4   5    0.64    2.21
   4  -4   6    1.06    1.32
   4  -4   7  104.19    9.77
   4  -4   7   89.21   11.45
   4  -4   9   26.47    5.65
  -4   4  -9   30.04    6.31
   4  -4  10    3.20    4.61
  -4   4 -10    5.18    3.27
   4  -4  11    1.13    1.58
  -4   4 -11    0.45    2.39
   4  -4  12    1.14    1.46
  -4   4 -12   -1.32    3.69
   4  -4  13    0.43    1.34
  -4   4 -13    1.50    1.85
   4  -4  14   -0.07    0.83
  -4   4 -14    0.98    1.48
   4  -4  15   -0.06    0.62
  -4   4 -15    0.81    1.27
  -4   4 -16  -11.23    5.35
  -4   3  16    0.65    1.03
   4  -3 -15    1.09    2.91
  -4   3  15    2.01    1.53
   4  -3 -14   -0.35    1.71
  -4   3  14    0.58    0.88
  -4   3  14    0.81    1.38
   4  -3 -13    0.12    1.67
  -4   3  13    0.00    0.93
  -4   3  13    0.86    2.12
   4  -3 -12   -0.04    2.23
  -4   3  12   -1.84    2.77
   4  -3 -11   -1.08    2.24
  -4   3  11    0.20    2.72
   4  -3 -10   24.00    5.91
  -4   3  10   12.17    6.84
   4  -3  -9    2.19    2.38
  -4   3   9    0.19    1.82
  -4   3   9    1.72    2.72
   4  -3  -8    3.05    2.91
  -4   3   8    3.46    2.32
  -4   3   8    2.66    3.28
   4  -3  -7    0.51    1.88
  -4   3   7   -0.33    1.51
  -4   3   7    0.78    1.26
   4  -3  -6   15.45    3.71
  -4   3   6    6.42    3.01
  -4   3   6    7.19    2.45
   4  -3  -5    9.32    3.16
   4  -3  -5    4.28    2.19
  -4   3   5    6.21    2.44
  -4   3   5    4.32    1.96
   4  -3  -4    2.50    3.19
   4  -3  -4    0.30    2.31
  -4   3   4    0.79    1.52
  -4   3   4    0.65    1.14
   4  -3  -3   21.52    4.08
   4  -3  -3   17.98    5.25
  -4   3   3   13.35    3.24
  -4   3   3    9.80    3.59
   4  -3  -2   33.21    6.05
   4  -3  -2   36.50    7.76
  -4   3   2   30.47    4.65
  -4   3   2   41.44    4.54
   4  -3  -1  130.24   12.60
   4  -3  -1  104.42   13.67
  -4   3   1   87.12    9.18
   4  -3   0   68.17    7.43
   4  -3   0   42.11    6.19
  -4   3   0   33.84    4.75
   4  -3   1   68.54    8.73
  -4   3  -1   31.11    4.33
   4  -3   2    1.56    1.78
  -4   3  -2    1.46    1.89
   4  -3   3    0.41    1.34
   4  -3   3    0.10    1.49
   4  -3   4    2.73    1.91
   4  -3   4    0.04    3.56
   4  -3   5    9.88    3.94
   4  -3   5    9.73    5.00
   4  -3   6   78.94    7.84
   4  -3   6   76.57    9.40
   4  -3   7   44.61    5.66
   4  -3   7   39.30    6.68
   4  -3   8   12.88    4.15
   4  -3   9    1.98    3.88
   4  -3  10    0.85    1.27
  -4   3 -10   -1.12    1.65
   4  -3  11   -0.20    1.41
  -4   3 -11    1.08    1.93
   4  -3  12   -0.56    1.30
  -4   3 -12    1.38    2.87
   4  -3  13    1.01    2.24
  -4   3 -13    2.35    2.05
   4  -3  14    1.26    1.04
  -4   3 -14   -0.43    1.69
   4  -3  15    0.88    0.97
  -4   3 -15    3.80    1.73
  -4   3 -16   -1.75    1.75
   4  -2 -16   -1.65    1.15
  -4   2  16    0.77    0.78
   4  -2 -15    4.62    2.60
  -4   2  15    2.48    1.79
   4  -2 -14    3.69    2.18
  -4   2  14   -0.68    1.74
  -4   2  14    1.04    2.44
   4  -2 -13   11.98    3.40
  -4   2  13    1.17    2.29
  -4   2  13    5.65    3.86
   4  -2 -12    6.04    3.48
  -4   2  12    4.03    2.46
  -4   2  12    4.07    3.80
   4  -2 -11    0.58    2.44
  -4   2  11    1.33    1.78
  -4   2  11    0.41    1.62
   4  -2 -10   43.78    6.78
  -4   2  10   23.95    5.13
  -4   2  10   17.22    4.43
   4  -2  -9   24.91    5.65
  -4   2   9    9.21    5.67
   4  -2  -8    0.23    2.09
  -4   2   8    0.61    2.05
   4  -2  -7    4.35    3.18
   4  -2  -6   -1.93    1.97
   4  -2  -6    1.07    1.83
   4  -2  -5   11.76    4.47
   4  -2  -5   16.29    4.41
   4  -2  -4    7.48    3.48
   4  -2  -4   13.08    3.54
   4  -2  -4    6.36    2.13
   4  -2  -3    2.79    2.03
   4  -2  -3    2.30    3.23
   4  -2  -3    1.65    1.32
  -4   2   3    0.73    1.20
   4  -2  -2    0.67    1.71
   4  -2  -2    0.78    1.89
   4  -2  -2    1.01    1.30
  -4   2   2    1.12    1.14
   4  -2  -1   72.76    8.87
   4  -2   0   44.58    6.03
   4  -2   0   21.84    4.21
  -4   2   0   26.58    4.23
   4  -2   1  182.19   20.67
   4  -2   1  132.99   13.09
  -4   2  -1  133.75   12.92
   4  -2   2    5.44    2.16
  -4   2  -2    3.06    1.34
   4  -2   3   15.43    3.48
   4  -2   3   15.43    5.19
   4  -2   4   28.98    4.47
   4  -2   4   21.43    4.24
   4  -2   5   20.60    5.21
   4  -2   5   20.79    4.21
   4  -2   6    2.50    1.70
   4  -2   6    2.48    2.17
   4  -2   7   24.49    3.83
   4  -2   7   19.50    4.71
   4  -2   8    4.34    3.90
   4  -2   9   24.52    4.86
  -4   2  -9   31.89    5.64
   4  -2  10    0.13    1.69
  -4   2 -10    1.91    1.99
   4  -2  11   -1.28    1.57
  -4   2 -11    0.39    1.87
   4  -2  12    1.28    3.22
  -4   2 -12    3.79    3.82
   4  -2  13    1.84    1.52
  -4   2 -13    3.33    2.15
   4  -2  14    1.48    1.12
  -4   2 -14   -0.03    1.60
   4  -2  15    0.13    1.34
  -4   2 -15   -1.47    1.96
  -4   2 -16    0.63    1.26
   4  -1 -17    0.55    1.52
   4  -1 -16    3.40    1.91
  -4   1  16   -0.02    1.03
   4  -1 -15    2.32    2.35
  -4   1  15    0.85    1.63
  -4   1  15    1.68    2.25
  -4   1  14    0.00    1.08
  -4   1  14   -0.22    1.76
   4  -1 -13   19.26    6.30
   4  -1 -12    1.45    2.86
   4  -1 -11    3.19    3.34
   4  -1 -10    4.02    3.80
   4  -1 -10    5.24    3.72
   4  -1  -9   35.98    8.81
   4  -1  -9   40.07    8.08
   4  -1  -8   87.04   13.48
   4  -1  -8   96.15   12.76
   4  -1  -7   55.50    9.63
   4  -1  -7   60.15    9.40
   4  -1  -6  218.03   24.13
   4  -1  -6  266.06   25.54
   4  -1  -5   66.53   10.03
   4  -1  -5   77.66   10.03
   4  -1  -4    3.10    2.55
   4  -1  -4    4.67    2.75
   4  -1  -3   17.07    3.75
   4  -1  -3   21.44    6.56
   4  -1  -3   13.59    3.43
  -4   1   3   11.93    2.11
   4  -1  -2    3.42    2.11
   4  -1  -2    3.13    2.33
   4  -1  -2    2.50    2.18
  -4   1   2    2.34    2.17
   4  -1  -1   20.88    4.33
   4  -1  -1   36.65    5.10
   4  -1  -1   18.78    4.91
  -4   1   1   26.57    3.54
   4  -1   0   18.47    4.14
   4  -1   0   39.20    5.20
   4  -1   0   25.06    3.61
   4  -1   1    5.94    2.20
   4  -1   1    5.55    4.92
   4  -1   1    7.04    2.21
  -4   1  -1   10.13    2.64
   4  -1   2   73.76    7.70
   4  -1   2   67.10    7.42
   4  -1   3   71.16    7.69
   4  -1   3   59.16    7.06
   4  -1   4    0.13    1.45
   4  -1   4    0.97    1.46
   4  -1   5   15.42    4.52
   4  -1   5   15.83    3.71
   4  -1   6    0.15    1.07
   4  -1   6   -0.11    1.93
   4  -1   7    5.62    2.08
   4  -1   7    5.07    2.52
   4  -1   8   34.08    5.79
   4  -1   9    5.14    2.71
  -4   1  -9    5.85    2.79
   4  -1  10   21.73    4.58
  -4   1 -10   24.01    4.81
   4  -1  11    2.29    2.66
  -4   1 -11    1.25    2.00
   4  -1  12    4.10    1.94
  -4   1 -12    2.48    3.78
   4  -1  13    0.23    1.24
  -4   1 -13    1.24    1.44
   4  -1  14    0.63    1.02
  -4   1 -14    0.05    1.28
   4  -1  15    0.76    0.93
  -4   1 -15    0.44    1.24
   4   0 -17    1.12    1.96
   4   0 -16    1.07    2.15
   4   0 -15    4.11    2.68
  -4   0  15    1.68    1.44
   4   0 -14   -2.33    1.81
  -4   0  14    0.74    1.09
   4   0 -12   -0.98    2.29
   4   0 -12    1.15    3.94
   4   0 -11    9.22    5.06
   4   0 -11   24.61    8.66
   4   0 -10   63.16   12.33
   4   0 -10   86.53   18.11
   4   0  -9   35.16   10.35
   4   0  -9   60.47    9.64
   4   0  -8    8.43    3.62
   4   0  -8    0.51    3.39
   4   0  -7    1.92    2.15
   4   0  -7   -0.83    2.09
   4   0  -6    9.61    4.13
   4   0  -6   -0.97    2.40
   4   0  -5   51.64   13.02
   4   0  -5   66.93    8.92
   4   0  -4   10.44    7.87
   4   0  -4   21.12    4.60
   4   0  -3    7.86    5.22
   4   0  -3    6.11    5.08
   4   0  -2    9.47    5.29
   4   0  -2   19.64    3.50
   4   0  -2    7.96    2.03
  -4   0   2   12.03    2.19
   4   0  -1    2.85    3.42
   4   0  -1    4.97    2.37
   4   0  -1    3.10    1.51
  -4   0   1    4.00    1.60
   4   0   0    8.02    2.68
   4   0   0   12.71    3.21
   4   0   0    8.92    2.25
  -4   0   0   10.57    3.76
   4   0   1   11.52    2.94
   4   0   1   20.17    5.13
   4   0   1   15.41    2.92
  -4   0  -1   23.43    5.50
   4   0   2    4.98    2.19
   4   0   2    6.67    3.44
   4   0   3    0.92    1.43
   4   0   3    0.51    1.96
   4   0   4    0.59    2.05
   4   0   4   -0.34    1.08
   4   0   5   18.92    3.21
   4   0   5   21.28    3.61
   4   0   6   -0.06    1.12
   4   0   6   -0.70    1.34
   4   0   7    8.68    2.37
   4   0   7    8.90    3.00
   4   0   8  141.42   14.80
   4   0   9    3.23    3.55
  -4   0  -9    1.81    1.97
   4   0  10  113.81   10.92
  -4   0 -10   96.27   11.02
   4   0  11    1.91    1.71
  -4   0 -11    1.44    2.82
   4   0  12    2.48    1.74
  -4   0 -12    2.20    1.71
   4   0  13    1.13    1.53
  -4   0 -13    3.01    1.50
   4   0  14    1.19    1.85
  -4   0 -14   -0.07    1.95
   4   0  15    3.05    1.28
   4   1 -17   -0.56    1.77
   4   1 -16    0.79    1.71
  -4  -1  16    0.02    0.78
   4   1 -15    2.25    2.42
  -4  -1  15    0.75    1.32
   4   1 -14    1.72    2.83
   4   1 -13    1.38    2.53
   4   1 -12   25.83    7.14
   4   1 -12   33.45   11.50
   4   1 -11    2.83    3.19
   4   1 -11    2.72    5.54
   4   1 -10  173.29   23.12
   4   1 -10  208.11   32.74
   4   1  -9  561.81   76.48
   4   1  -9  619.01   65.41
   4   1  -8    2.84    5.52
   4   1  -8    2.19    2.92
   4   1  -7   22.91    6.98
   4   1  -7   28.13    6.13
   4   1  -6   58.65   10.46
   4   1  -6   62.53    8.92
   4   1  -5    5.86    3.58
   4   1  -5    5.75    3.13
   4   1  -4    1.30    2.10
   4   1  -4    0.39    1.91
   4   1  -3   -0.61    1.72
   4   1  -3    0.37    2.36
   4   1  -2   -0.84    1.93
   4   1  -2    2.51    1.71
   4   1  -1    3.07    2.11
   4   1  -1    3.23    1.98
   4   1  -1    1.93    1.07
  -4  -1   1    1.18    2.25
   4   1   0    2.71    2.29
   4   1   0    6.23    3.76
   4   1   0    3.69    1.40
  -4  -1   0    3.35    1.36
  -4  -1   0    7.21    2.00
   4   1   1    1.40    2.73
   4   1   1    3.25    1.73
   4   1   1    2.62    1.37
   4   1   2    1.40    1.41
   4   1   2    0.79    1.20
   4   1   3    1.89    1.52
   4   1   3    0.98    1.36
   4   1   4    1.73    2.24
   4   1   4    2.92    1.68
   4   1   5    3.86    1.73
   4   1   5    7.70    2.23
   4   1   6    1.11    1.16
   4   1   6    0.19    1.54
   4   1   7   30.60    6.97
   4   1   8  145.43   12.25
  -4  -1  -8   99.38   10.60
   4   1   9   59.32    6.43
  -4  -1  -9   30.60    5.24
   4   1  10    0.82    1.58
   4   1  11    4.56    2.03
   4   1  11   -1.08    3.18
   4   1  12    3.50    2.93
   4   1  12    1.97    2.79
   4   1  13    8.84    2.11
   4   1  13   -0.14    2.92
   4   1  14    0.26    0.96
   4   2 -17    5.86    2.79
   4   2 -16    7.50    2.29
  -4  -2  16    0.44    1.12
   4   2 -15    0.73    2.13
   4   2 -14   -0.61    1.53
   4   2 -14    0.83    1.72
   4   2 -13    0.43    2.23
   4   2 -12   15.25    5.87
   4   2 -12   19.43    5.99
   4   2 -11   48.99   17.01
   4   2 -11   64.50   11.23
   4   2 -10    0.36    5.95
   4   2 -10    2.99    3.16
   4   2  -9  100.20   16.85
   4   2  -9   94.82   13.88
   4   2  -8    8.69    4.63
   4   2  -8    6.13    3.87
   4   2  -7   18.39    6.78
   4   2  -7   23.65    5.62
   4   2  -6   55.48   10.43
   4   2  -6   51.37    8.37
   4   2  -5   21.58    6.17
   4   2  -5   23.49    5.14
   4   2  -4    8.45    3.84
   4   2  -4    6.76    4.77
   4   2  -3   24.49    5.63
   4   2  -3   22.62    4.47
   4   2  -2   48.93    8.01
   4   2  -2   59.12    7.19
   4   2  -1    1.79    1.67
   4   2  -1   -0.49    1.45
   4   2   0    2.90    2.02
   4   2   0    0.17    2.50
   4   2   0    2.03    1.59
   4   2   1   25.01    3.90
   4   2   1   26.16    5.11
   4   2   2    0.63    1.25
   4   2   2    0.72    1.60
   4   2   3   -0.11    1.47
   4   2   3    0.97    1.59
   4   2   4    0.22    0.93
   4   2   4    1.09    1.75
   4   2   5    0.95    1.34
   4   2   5    0.55    1.40
   4   2   6    0.07    1.42
   4   2   6    1.77    1.51
   4   2   7    2.10    1.59
   4   2   7   -0.04    1.68
   4   2   8    2.78    1.87
   4   2   8    0.09    3.05
   4   2   9   -0.68    1.45
   4   2   9   -0.20    2.37
   4   2  10    2.28    2.98
   4   2  10    1.85    2.97
   4   2  11    0.91    2.40
   4   2  11    0.59    1.34
   4   2  12    1.79    1.28
   4   2  12   -0.88    1.15
   4   2  13    0.78    1.22
   4   2  13    0.91    1.04
   4   2  14   -0.81    1.00
   4   3 -16    4.24    1.97
  -4  -3  16    0.50    1.04
   4   3 -15    3.47    2.34
   4   3 -15    2.63    2.63
   4   3 -14    7.79    3.82
   4   3 -14   11.67    3.98
   4   3 -13    1.79    2.32
   4   3 -13   -0.24    2.31
   4   3 -12   19.52   11.25
   4   3 -12   27.70    6.59
   4   3 -11    9.45    9.00
   4   3 -11    9.95    4.56
   4   3 -10    0.67    2.61
   4   3 -10   -1.32    2.07
   4   3  -9    3.15    3.39
   4   3  -9    1.20    2.64
   4   3  -8   13.90    5.57
   4   3  -8    8.54    4.22
   4   3  -7    4.85    3.82
   4   3  -7    3.31    2.88
   4   3  -6    5.26    3.30
   4   3  -6    1.44    2.51
   4   3  -5    6.13    3.98
   4   3  -5    6.52    4.42
   4   3  -4   -0.72    1.91
   4   3  -4    0.50    1.30
   4   3  -3    1.00    1.63
   4   3  -3   -0.41    1.14
   4   3  -2   17.28    4.66
   4   3  -2   14.29    3.43
   4   3  -1    4.46    1.75
   4   3  -1   -2.42    1.23
   4   3   0   67.65    8.88
   4   3   0   60.84    6.54
   4   3   1    0.24    0.89
   4   3   1    0.80    1.23
   4   3   2   31.26    3.70
   4   3   2   26.61    6.85
   4   3   3   15.70    2.70
   4   3   3   10.54    3.25
   4   3   4   91.77    8.32
   4   3   4   67.76    8.89
   4   3   5   45.15    5.22
   4   3   5   23.28    5.35
   4   3   6   34.83    4.38
   4   3   6   10.44    4.40
   4   3   7   20.34    4.71
   4   3   7    4.43    3.11
   4   3   8    4.05    3.01
   4   3   8    1.65    2.01
   4   3   9    0.49    1.45
   4   3   9    0.83    1.46
   4   3  10   -0.23    1.13
   4   3  10    0.47    1.13
   4   3  11   20.81    2.94
   4   3  11    1.13    2.56
   4   3  12   -0.55    1.01
   4   3  12    0.30    0.90
   4   4 -16   -0.18    1.22
   4   4 -15    2.85    2.23
   4   4 -15    4.24    2.25
   4   4 -14    4.86    2.61
   4   4 -14    0.91    2.33
   4   4 -13   -0.42    4.39
   4   4 -13    2.96    2.33
   4   4 -12    3.97    4.68
   4   4 -12    0.30    2.07
   4   4 -11   -5.72    3.61
   4   4 -11    0.04    2.51
   4   4 -10    4.72    3.49
   4   4 -10    0.79    2.45
   4   4  -9   31.06    6.55
   4   4  -9    6.49    4.32
   4   4  -8    2.76    3.02
   4   4  -8   -0.86    3.42
   4   4  -7    6.72    4.55
   4   4  -6    5.96    4.24
   4   4  -5   55.82   13.56
   4   4  -5   39.63    5.32
   4   4  -4    8.57    4.63
   4   4  -4    1.02    1.80
   4   4  -3    7.59    6.27
   4   4  -3    7.59    2.46
   4   4  -2    7.18    6.00
   4   4  -2    8.12    4.10
   4   4  -1    4.57    4.27
   4   4  -1    2.44    1.91
   4   4   0    5.45    2.36
   4   4   1    0.39    1.37
   4   4   2   10.00    3.80
   4   4   2   14.26    3.35
   4   4   3    1.13    2.13
   4   4   3    1.30    2.83
   4   4   4    4.77    2.98
   4   4   4    2.73    3.99
   4   4   5   -0.10    1.28
   4   4   5    1.67    1.62
   4   4   6   -0.37    1.21
   4   4   6   -0.34    1.48
   4   4   7   -0.87    1.38
   4   4   7    2.84    1.59
   4   4   8    2.42    1.52
   4   4   8   -0.32    1.69
   4   4   9    7.19    2.13
   4   4   9    2.28    2.23
   4   4  10    1.03    1.28
   4   4  10    0.52    1.29
   4   4  11   -2.29    2.39
   4   5 -15   -1.30    1.63
   4   5 -14    0.12    1.45
   4   5 -14    0.07    1.50
   4   5 -13    7.35    5.67
   4   5 -12    2.49    2.71
  -4  -5  12    0.81    1.28
   4   5 -11    1.45    2.76
  -4  -5  11    0.82    1.34
   4   5 -10   -0.17    4.33
  -4  -5  10   10.26    3.72
   4   5  -9   13.03    5.47
  -4  -5   9   10.25    2.81
   4   5  -8   79.84   13.00
  -4  -5   8   63.62    7.30
   4   5  -7    2.47    3.76
  -4  -5   7    3.94    2.07
   4   5  -6   -4.80    6.76
   4   5  -5    9.42    6.83
   4   5  -5    6.19    2.54
   4   5  -4    4.72    4.67
   4   5  -4    1.50    1.87
   4   5  -3    2.72    4.90
   4   5  -3    2.76    2.03
   4   5  -2    1.02    4.27
   4   5  -2    2.08    3.11
   4   5  -1   15.41    6.97
   4   5  -1    9.96    5.47
   4   5   0   19.82    4.39
   4   5   1   27.05    5.04
   4   5   2    7.33    2.91
   4   5   3    1.29    1.34
   4   5   3    2.81    1.93
   4   5   4    1.03    1.27
   4   5   4    1.18    1.75
   4   5   5    0.09    1.04
   4   5   5   -1.73    2.24
   4   5   6    0.88    1.22
   4   5   6    0.22    2.52
   4   5   7   -1.50    1.32
   4   5   7    0.26    2.56
   4   5   8    0.09    1.80
   4   5   9    0.08    1.60
   4   5  10   -0.75    0.86
  -4  -5 -10    1.50    1.16
   4   6 -14   -0.16    1.33
   4   6 -13    3.10    4.04
   4   6 -12   -1.16    1.94
  -4  -6  12    0.51    0.94
   4   6 -11   -0.57    2.22
  -4  -6  11    0.63    1.11
   4   6 -10    0.45    2.14
  -4  -6  10   -0.10    1.79
   4   6  -9    5.89    4.27
  -4  -6   9    6.09    2.21
   4   6  -8   23.37    6.30
  -4  -6   8   16.49    3.58
   4   6  -7    9.02    5.54
  -4  -6   7   12.88    3.19
   4   6  -6   10.43    8.53
   4   6  -5    2.98    5.35
   4   6  -5    2.85    2.08
   4   6  -4    0.66    4.61
   4   6  -4    1.91    1.92
   4   6  -3    2.33    4.55
   4   6  -3    2.04    2.01
   4   6  -2    2.97    4.74
   4   6  -2    3.29    2.23
   4   6  -1   -4.29    3.92
   4   6   0   11.08    5.28
   4   6   1    7.15    2.78
   4   6   2    5.81    2.64
   4   6   3    1.40    1.77
   4   6   4    1.95    1.84
   4   6   5    1.19    1.57
  -4  -6  -5    1.06    1.49
   4   6   6   -0.53    1.08
  -4  -6  -6    0.61    1.10
   4   6   7    0.73    1.18
  -4  -6  -7    0.33    1.24
   4   6   8   -1.51    0.88
  -4  -6  -8    1.65    0.97
   4   7 -12    0.22    2.97
   4   7 -11    6.71    3.15
  -4  -7  11    3.42    1.57
   4   7 -10    4.46    3.05
  -4  -7  10    2.54    1.58
   4   7  -9    0.49    2.45
  -4  -7   9    1.21    2.14
   4   7  -8   -0.75    2.48
  -4  -7   8    1.35    1.35
   4   7  -7   -0.49    1.90
  -4  -7   7    0.24    1.09
   4   7  -6    1.41    2.08
  -4  -7   6   -0.12    1.26
   4   7  -5    3.04    5.09
   4   7  -4    1.89    3.55
   4   7  -4    0.58    1.55
   4   7  -3    0.53    1.81
   4   7  -3    0.20    1.38
   4   7  -2    0.97    1.73
   4   7  -2   -1.28    1.44
   4   7  -1    2.42    1.97
   4   7   0    1.30    1.72
   4   7   1    7.50    4.35
   4   7   2    1.54    2.78
   4   7   3    1.30    2.57
   4   7   4    1.78    1.57
   4   7   5   -1.36    1.44
   4   7   6    5.74    1.99
   4   8 -10   -2.71    2.50
   4   8  -9   -3.78    2.80
   4   8  -8   -4.85    3.09
   4   8  -7    1.38    2.05
  -4  -8   7    0.75    1.20
   4   8  -6    1.18    1.68
  -4  -8   6   -0.75    1.06
   4   8  -5    0.32    1.73
  -4  -8   5    0.44    1.18
   4   8  -4    0.19    1.50
   4   8  -3   -0.29    1.38
   4   8  -2   -0.06    1.08
   4   8  -1    1.71    1.60
   4   8   0    1.20    1.48
   4   8   1   14.64    3.34
   4   8   2   -1.30    1.40
   5 -10  -2    7.68    2.43
  -5  10   2    5.61    1.95
  -5  10   2    4.33    2.87
   5 -10  -1    0.03    1.30
  -5  10   1    0.08    0.98
  -5  10   1   -0.68    1.42
   5 -10   0   17.54    3.59
  -5  10   0    9.39    2.44
   5 -10   1   -1.96    2.08
  -5  10  -1   -0.98    1.28
  -5  10  -1   -2.19    1.31
  -5  10  -2   -0.59    0.89
  -5  10  -2    0.01    0.96
   5 -10   3    4.70    2.19
  -5  10  -3   -0.31    1.60
   5 -10   4    5.15    1.73
  -5  10  -4   -1.15    1.04
   5 -10   5   -0.95    2.90
  -5  10  -5    3.72    2.18
   5 -10   6   -0.49    1.12
  -5  10  -6   -0.04    0.84
   5 -10   7   -0.45    1.08
  -5   9   6    0.07    2.17
  -5   9   6    1.46    1.09
   5  -9  -5    2.54    1.56
  -5   9   5    0.27    2.21
  -5   9   5    1.52    1.34
   5  -9  -4    1.81    1.36
  -5   9   4   -0.13    1.74
  -5   9   4   -0.23    1.06
   5  -9  -3    1.51    1.76
  -5   9   3    2.36    2.13
  -5   9   3    0.55    1.32
   5  -9  -2    3.45    2.49
  -5   9   2    5.55    2.83
  -5   9   2    3.16    1.83
   5  -9  -1    4.67    2.44
  -5   9   1    5.59    2.61
  -5   9   1    0.75    1.70
   5  -9   0    2.42    2.54
  -5   9   0    3.07    2.90
  -5   9   0    2.16    2.75
   5  -9   1    3.65    2.38
  -5   9  -1    1.89    1.54
  -5   9  -1    0.44    2.50
   5  -9   2    5.09    2.65
  -5   9  -2    2.03    1.60
  -5   9  -2    3.23    1.68
   5  -9   3    0.55    1.78
  -5   9  -3    0.39    0.98
  -5   9  -3    0.18    1.10
   5  -9   4    2.13    2.13
  -5   9  -4    0.77    1.24
   5  -9   5   40.27    4.69
  -5   9  -5   -0.23    1.58
   5  -9   6    1.07    2.72
  -5   9  -6    0.83    1.87
   5  -9   7    3.03    1.69
  -5   9  -7    0.77    1.18
   5  -9   8   -1.15    1.20
  -5   9  -8    0.18    0.82
   5  -9   9   -1.08    1.32
  -5   8   8   -0.13    0.78
  -5   8   8    0.50    1.27
  -5   8   7    3.53    1.51
  -5   8   7    2.11    2.39
   5  -8  -6    0.33    1.12
  -5   8   6   -0.35    1.02
  -5   8   6    1.64    1.65
   5  -8  -5    1.43    2.61
  -5   8   5    1.56    1.39
  -5   8   5   -0.96    2.20
   5  -8  -4    6.12    4.01
  -5   8   4    3.88    1.99
  -5   8   4    3.90    1.96
   5  -8  -3    3.15    4.24
  -5   8   3    4.60    1.93
  -5   8   3    3.36    1.94
   5  -8  -2    0.26    2.46
  -5   8   2   -0.37    1.04
  -5   8   2    0.19    1.06
   5  -8  -1    3.14    2.15
  -5   8   1    1.49    1.35
  -5   8   1   -0.47    1.45
   5  -8   0    6.78    2.94
  -5   8   0    2.64    1.76
  -5   8   0    3.07    1.95
   5  -8   1    1.92    2.63
  -5   8  -1    2.17    1.46
  -5   8  -1    1.41    2.75
   5  -8   2    5.08    2.98
  -5   8  -2    2.58    2.52
  -5   8  -2    3.09    2.92
   5  -8   3   -1.05    2.15
  -5   8  -3    0.63    1.99
  -5   8  -3   -1.04    1.26
   5  -8   4    6.64    3.09
  -5   8  -4    3.42    1.81
   5  -8   5    3.51    2.97
  -5   8  -5    4.02    1.69
   5  -8   6   -0.79    2.72
  -5   8  -6   -0.24    1.70
   5  -8   7   -0.83    1.44
  -5   8  -7   -0.76    1.71
  -5   8  -7    0.78    0.93
   5  -8   8   -1.81    1.49
  -5   8  -8    0.62    1.80
  -5   8  -8    0.00    0.92
   5  -8   9    0.16    1.25
  -5   8  -9   -0.31    0.83
  -5   8  -9   -0.08    1.25
   5  -8  10    0.07    1.51
  -5   8 -10   -0.22    0.78
   5  -8  11   -0.32    0.83
  -5   7  10    1.72    1.23
  -5   7  10    9.05    2.03
  -5   7   9   -0.52    0.92
  -5   7   9    0.20    0.95
  -5   7   8   -0.59    0.95
  -5   7   8    0.94    0.98
  -5   7   7    0.98    1.17
  -5   7   7   -0.33    1.20
   5  -7  -6    2.27    1.94
  -5   7   6    4.41    2.98
  -5   7   6    2.63    1.86
   5  -7  -5    2.14    3.55
  -5   7   5    4.70    3.11
  -5   7   5    1.88    3.17
   5  -7  -4   -0.08    2.70
  -5   7   4    0.33    2.16
  -5   7   4   -1.44    2.25
   5  -7  -3    6.02    3.72
  -5   7   3   -1.48    2.83
  -5   7   3    2.56    2.69
   5  -7  -2    4.55    3.80
  -5   7   2   -3.61    2.74
  -5   7   2    2.94    1.64
   5  -7  -1    0.71    2.64
  -5   7   1   -0.35    2.77
  -5   7   1   -4.42    1.83
   5  -7   0   61.69    8.48
  -5   7   0   37.85    5.20
  -5   7   0   36.42    5.38
   5  -7   1    4.58    3.16
  -5   7  -1    1.27    1.76
  -5   7  -1    5.52    2.15
   5  -7   2   66.93    8.63
  -5   7  -2   29.76    4.41
  -5   7  -2   42.98    7.39
   5  -7   3    0.51    1.33
   5  -7   3   -0.10    2.45
  -5   7  -3    2.20    1.43
   5  -7   4    1.55    2.56
   5  -7   5   16.96    5.05
   5  -7   6    1.11    2.92
  -5   7  -6   -1.10    1.79
   5  -7   7    1.95    2.35
  -5   7  -7    2.83    2.42
   5  -7   8    1.68    2.21
  -5   7  -8    2.93    2.36
   5  -7   9    0.25    1.79
  -5   7  -9    2.11    2.05
  -5   7 -10    0.28    2.41
   5  -7  11    1.36    1.30
  -5   7 -11    1.65    1.43
   5  -7  12    4.30    1.40
  -5   7 -12    4.01    1.73
  -5   6  11   -0.55    0.79
  -5   6  11    0.38    0.80
  -5   6  10    1.60    1.73
  -5   6  10    0.11    1.06
  -5   6   9    2.32    2.06
  -5   6   9   -0.26    1.15
  -5   6   8    3.62    1.74
  -5   6   8    0.71    1.62
  -5   6   7    0.78    1.59
  -5   6   7    1.41    1.48
  -5   6   6   -1.22    1.62
  -5   6   6   -0.94    1.54
   5  -6  -5    0.20    2.78
  -5   6   5   -2.63    1.64
  -5   6   5    0.41    1.46
   5  -6  -4    0.14    1.24
   5  -6  -4    0.05    2.39
  -5   6   4   -0.79    1.26
  -5   6   4    0.18    1.17
   5  -6  -3    2.04    1.99
   5  -6  -3    1.48    3.73
  -5   6   3    3.25    1.85
  -5   6   3   -1.06    2.96
   5  -6  -2    0.02    1.83
   5  -6  -2    4.41    2.25
  -5   6   2    2.61    1.67
  -5   6   2   -1.92    2.48
   5  -6  -1    0.74    1.32
   5  -6  -1    0.56    1.64
  -5   6   1   -0.69    1.16
   5  -6   0   33.22    5.97
   5  -6   0   42.96    7.44
  -5   6   0   28.85    4.91
   5  -6   1    3.25    3.52
   5  -6   1    3.03    2.66
  -5   6  -1   -0.07    2.58
   5  -6   2   59.02    7.26
   5  -6   2   76.17   10.96
   5  -6   3   -4.82    1.76
   5  -6   3    5.38    2.75
   5  -6   4    5.15    2.20
   5  -6   4    4.04    3.41
   5  -6   5    0.67    1.41
   5  -6   5    0.43    3.63
   5  -6   5    0.90    3.23
  -5   6  -8    0.20    1.93
   5  -6   9   -2.11    2.06
  -5   6  -9   -0.78    2.57
   5  -6  10   -1.41    2.35
  -5   6 -10    2.35    2.18
  -5   6 -11    0.09    2.54
   5  -6  12    0.30    1.09
  -5   6 -12    1.02    1.38
   5  -6  13   -0.08    1.03
  -5   6 -13   -0.19    1.07
  -5   5  12   10.30    2.87
  -5   5  11   -0.21    1.07
  -5   5  11   -0.81    0.97
   5  -5 -10    4.80    3.41
  -5   5  10    6.24    2.00
  -5   5  10    1.97    1.73
   5  -5  -9    0.38    1.56
  -5   5   9    0.56    1.37
  -5   5   9    0.81    1.22
   5  -5  -8    0.25    1.64
  -5   5   8    1.04    1.38
  -5   5   8    0.01    1.23
   5  -5  -7    0.34    2.03
  -5   5   7    1.87    1.72
   5  -5  -6    1.34    2.29
  -5   5   6    1.91    1.82
   5  -5  -5    4.08    4.73
  -5   5   5    3.90    2.23
   5  -5  -4   -1.07    3.48
   5  -5  -4   -0.06    1.73
  -5   5   4   -1.28    1.56
   5  -5  -3    3.46    3.19
   5  -5  -3    2.34    2.01
  -5   5   3    0.15    1.67
   5  -5  -2    0.98    2.03
   5  -5  -2    1.24    2.06
  -5   5   2    1.34    1.58
   5  -5  -1   18.55    5.02
   5  -5  -1   26.70    5.26
  -5   5   1   18.23    3.90
   5  -5   0   37.11    6.44
   5  -5   0   46.87    6.92
  -5   5   0   25.85    4.60
   5  -5   1   35.08    6.52
   5  -5   1   31.55    6.92
   5  -5   2    0.00    3.75
   5  -5   2    2.97    2.60
   5  -5   3    0.90    2.23
   5  -5   3    0.00    2.02
   5  -5   4   -0.52    1.15
   5  -5   4    3.07    2.86
   5  -5   5   -0.24    1.32
   5  -5   6    0.90    1.58
   5  -5   7   -0.13    1.67
  -5   5  -8   18.48    5.65
  -5   5  -9    1.54    2.68
   5  -5  10    1.08    1.64
  -5   5 -10    1.24    2.54
   5  -5  11    8.91    2.77
  -5   5 -11   15.33    6.36
   5  -5  12   -0.23    1.16
  -5   5 -12   -0.81    1.46
   5  -5  13    0.26    1.63
  -5   5 -13   -3.21    1.66
  -5   4  13    1.14    0.99
   5  -4 -12    0.27    1.19
  -5   4  12    0.13    0.92
   5  -4 -11   -0.81    1.29
  -5   4  11    0.34    1.02
   5  -4 -10    2.60    2.23
  -5   4  10    2.16    1.75
   5  -4  -9    0.83    2.28
  -5   4   9    2.78    2.77
   5  -4  -8    6.92    3.26
  -5   4   8    2.57    5.00
   5  -4  -7    3.38    3.32
  -5   4   7    9.46    5.08
   5  -4  -6    8.30    4.30
  -5   4   6   12.11    3.84
   5  -4  -5    1.57    2.61
  -5   4   5    2.65    2.46
   5  -4  -4    1.50    2.13
  -5   4   4    0.16    1.89
   5  -4  -3    1.82    1.64
   5  -4  -3   -0.07    1.30
  -5   4   3   -1.27    1.44
   5  -4  -2    5.28    4.96
   5  -4  -2    3.84    2.42
  -5   4   2    0.06    3.98
   5  -4  -1    1.96    1.99
   5  -4  -1    0.48    1.96
  -5   4   1    0.30    2.26
   5  -4   0    3.94    2.61
   5  -4   0    3.11    2.62
  -5   4   0    3.25    2.76
   5  -4   1    2.05    2.27
   5  -4   1    2.25    2.34
  -5   4  -1    1.73    1.37
   5  -4   2    3.19    2.48
   5  -4   2    1.18    4.38
   5  -4   3    3.75    4.41
   5  -4   4    3.80    2.11
   5  -4   5    0.76    1.36
   5  -4   5   -0.54    1.74
   5  -4   6    0.55    1.47
   5  -4   7    0.20    1.34
   5  -4   9   16.53    3.99
  -5   4  -9   19.39    5.70
   5  -4  10    2.13    1.97
  -5   4 -10    2.88    2.87
   5  -4  11    4.68    2.35
  -5   4 -11    7.07    3.49
   5  -4  12   20.07    4.78
  -5   4 -12    1.25    6.09
   5  -4  13   -0.12    0.90
  -5   4 -13    1.42    1.34
   5  -4  14    0.99    0.90
  -5   4 -14    3.54    1.58
   5  -3 -14    1.54    1.64
  -5   3  14    3.12    0.94
   5  -3 -13    1.68    1.52
  -5   3  13    0.33    1.02
   5  -3 -12   -0.70    1.81
  -5   3  12   -0.86    1.23
   5  -3 -11    1.86    2.16
  -5   3  11    0.63    3.10
   5  -3 -10    0.27    2.47
  -5   3  10    2.92    2.12
   5  -3  -9   -1.36    1.93
  -5   3   9    0.37    1.70
   5  -3  -8   28.15    6.85
   5  -3  -7    1.04    2.48
   5  -3  -6   55.18    8.96
  -5   3   6   42.17    7.68
   5  -3  -5    7.97    3.90
  -5   3   5    6.08    3.11
   5  -3  -4  110.47   14.30
  -5   3   4   91.25   11.68
   5  -3  -3  111.98   14.01
  -5   3   3   76.81   10.41
   5  -3  -2   15.32    5.16
   5  -3  -2   14.66    5.59
  -5   3   2   11.01    3.50
   5  -3  -1   35.09    9.22
   5  -3  -1   23.43    6.99
  -5   3   1   14.91    3.89
   5  -3   0   18.72    4.06
   5  -3   0   16.89    5.54
  -5   3   0    6.90    2.85
   5  -3   1   12.49    3.60
  -5   3  -1    4.78    3.90
   5  -3   2   -1.44    2.10
   5  -3   2   -0.84    2.19
   5  -3   3   17.78    4.40
   5  -3   3   13.32    4.16
   5  -3   4    1.87    2.89
   5  -3   5    0.39    1.42
   5  -3   6    1.30    1.69
   5  -3   7   -0.43    1.41
   5  -3   7    4.11    2.97
   5  -3   8    5.16    2.62
   5  -3   9    6.00    2.53
  -5   3  -9    2.44    3.26
   5  -3  10    0.87    1.82
  -5   3 -10    2.24    2.36
   5  -3  11    1.41    1.47
  -5   3 -11   -0.81    1.98
   5  -3  12    3.94    3.71
  -5   3 -12   23.49    5.53
   5  -3  13    1.62    1.13
  -5   3 -13    0.47    1.54
   5  -3  14    2.09    1.10
  -5   3 -14    3.59    1.56
   5  -2 -14   -0.29    1.50
  -5   2  14   -0.36    0.84
   5  -2 -13    0.17    2.38
  -5   2  13    0.06    1.45
   5  -2 -12    1.27    3.27
  -5   2  12    0.77    1.57
  -5   2  11    3.03    2.25
   5  -2 -10    6.71    3.98
  -5   2  10   -0.43    1.75
   5  -2  -9    1.79    4.09
  -5   2   9    0.52    1.87
   5  -2  -8    1.31    3.20
  -5   2   8   -0.08    1.68
   5  -2  -7    4.60    4.39
  -5   2   7    1.12    2.30
   5  -2  -6    1.62    2.39
  -5   2   6    0.19    1.87
   5  -2  -5   -0.64    2.32
   5  -2  -4    6.88    3.84
   5  -2  -3    8.66    3.50
  -5   2   3    3.00    2.59
   5  -2  -2    1.42    2.46
   5  -2  -2    1.58    1.52
  -5   2   2    0.64    1.69
   5  -2  -1    1.95    3.55
   5  -2  -1    0.20    1.40
  -5   2   1    0.79    1.41
   5  -2   0    5.18    2.98
   5  -2   0   -2.96    1.48
  -5   2   0   -0.09    1.27
   5  -2   1   39.33    6.17
   5  -2   1   21.61    5.16
   5  -2   2   -3.93    2.70
   5  -2   3   51.28    7.54
   5  -2   3   36.87    6.88
   5  -2   4    1.70    2.41
   5  -2   4   -2.14    1.83
   5  -2   5   15.42    3.39
   5  -2   5   14.64    6.80
   5  -2   6    0.00    1.27
   5  -2   6    0.56    2.17
   5  -2   7    2.91    1.95
   5  -2   7    2.35    2.16
   5  -2   8    2.78    2.22
   5  -2   9    3.57    2.16
  -5   2  -9    1.47    2.51
   5  -2  10    2.06    1.84
  -5   2 -10    1.04    2.13
   5  -2  11    0.23    2.28
  -5   2 -11    1.97    2.85
   5  -2  12    0.00    1.10
  -5   2 -12    0.45    1.24
   5  -2  13   -0.04    1.03
  -5   2 -13    1.19    1.19
   5  -1 -15    0.28    1.38
   5  -1 -14    1.15    2.56
  -5   1  14   -0.12    1.78
   5  -1 -13   13.28    5.37
  -5   1  13    3.79    2.19
   5  -1 -12    3.26    4.15
  -5   1  12    1.14    1.82
   5  -1 -11    3.43    2.70
  -5   1  11    0.55    1.99
  -5   1  10    2.30    2.35
   5  -1  -9   28.79   12.48
   5  -1  -8   19.93   10.73
   5  -1  -7   78.77   14.99
   5  -1  -7   99.95   19.55
   5  -1  -6   77.89   14.24
   5  -1  -6  103.75   19.32
   5  -1  -5    3.33    3.19
   5  -1  -5    3.07    3.09
   5  -1  -4   35.94    7.96
   5  -1  -4   46.36    8.15
   5  -1  -3    1.08    2.56
   5  -1  -3    3.43    2.74
   5  -1  -2    1.50    2.46
   5  -1  -1   10.62    5.40
   5  -1  -1    3.11    2.05
   5  -1   0    0.25    1.48
   5  -1   0   -0.67    1.85
   5  -1   1   15.90    4.12
   5  -1   1   10.54    5.44
   5  -1   2    1.66    2.07
   5  -1   2    0.91    3.04
   5  -1   3   10.82    3.41
   5  -1   3    5.23    4.21
   5  -1   4    5.62    3.54
   5  -1   4    4.54    2.28
   5  -1   5    3.05    1.98
   5  -1   5    3.95    2.16
   5  -1   6    2.02    1.78
   5  -1   6    2.35    1.97
   5  -1   7    1.69    1.91
   5  -1   8    0.89    1.79
  -5   1  -8    1.58    1.91
   5  -1   9    5.38    3.96
  -5   1  -9    3.24    2.39
   5  -1  10   -0.73    1.38
  -5   1 -10   -0.20    1.48
   5  -1  11   12.18    3.02
  -5   1 -11   14.51    4.78
   5  -1  12   25.34    3.47
  -5   1 -12   15.82    3.31
   5  -1  13    0.69    4.48
  -5   1 -13   31.47    2.79
   5   0 -15   15.83    4.68
  -5   0  15    4.79    2.77
   5   0 -14    5.67    3.72
  -5   0  14    0.89    1.43
   5   0 -13  109.95   12.33
  -5   0  13   28.96    5.07
   5   0 -12    4.00    2.74
  -5   0  12    0.81    1.97
   5   0 -11   -1.47    2.82
   5   0 -10    3.76    3.64
   5   0  -9   -1.22    2.64
   5   0  -9    0.30    4.31
   5   0  -8   19.00    7.16
   5   0  -8   33.88   11.10
   5   0  -7   29.79    9.15
   5   0  -7   46.33   12.36
   5   0  -6    8.63    5.32
   5   0  -6   14.12    4.71
   5   0  -5   20.81    6.63
   5   0  -5   29.27    6.28
   5   0  -4    4.12    3.59
   5   0  -4    8.03    3.59
   5   0  -3    1.46    1.70
   5   0  -3   -1.21    1.77
   5   0  -2    1.73    2.05
   5   0  -2    0.44    2.24
   5   0  -1   -0.20    1.43
   5   0  -1    0.33    2.73
   5   0   0    4.15    2.39
   5   0   0    2.78    1.60
   5   0   1    0.07    1.42
   5   0   1   -0.26    1.02
   5   0   2    1.16    1.59
   5   0   2   -0.14    1.20
   5   0   3    6.74    4.06
   5   0   3    2.64    2.01
   5   0   4   -0.21    1.23
   5   0   4    1.10    1.32
   5   0   5   -0.03    1.11
   5   0   5    0.45    1.29
   5   0   6    1.41    1.44
   5   0   6    0.99    1.74
   5   0   7    1.04    2.92
   5   0   8    5.38    2.04
  -5   0  -8    1.66    2.10
   5   0   9    2.08    1.67
  -5   0  -9    1.23    1.63
   5   0  10    8.54    2.48
  -5   0 -10    4.67    3.46
   5   0  11   -0.33    1.84
  -5   0 -11    6.28    1.50
   5   0  12    4.69    2.93
   5   0  13   -1.44    1.14
   5   1 -15    0.89    8.00
  -5  -1  15   45.18    3.69
   5   1 -14    0.36    3.03
  -5  -1  14    0.56    1.24
   5   1 -13    4.45    5.30
   5   1 -12    1.83    4.45
   5   1 -11    3.03    3.17
   5   1 -11    2.82    5.10
   5   1 -10    9.00    4.73
   5   1  -9    8.58    4.67
   5   1  -9    8.67    7.40
   5   1  -8   15.51    5.93
   5   1  -8   15.62    8.43
   5   1  -7  133.44   20.83
   5   1  -7  165.39   27.08
   5   1  -6   14.18    6.05
   5   1  -6   19.27    5.46
   5   1  -5   36.75    8.63
   5   1  -5   48.69    8.44
   5   1  -4   20.88    5.83
   5   1  -4   22.64    5.73
   5   1  -3    1.14    1.73
   5   1  -3   -0.74    1.76
   5   1  -2    0.48    1.95
   5   1  -2    1.87    3.32
   5   1  -1    0.46    2.06
   5   1  -1    2.55    1.90
   5   1   0    9.06    3.05
   5   1   1    2.29    1.99
   5   1   1    1.93    2.42
   5   1   2    1.36    2.81
   5   1   2    0.73    2.24
   5   1   3    1.89    1.49
   5   1   3    2.01    2.68
   5   1   4    0.51    1.17
   5   1   4    0.64    1.89
   5   1   5    1.09    1.18
   5   1   5    0.00    1.30
   5   1   6    7.47    2.43
   5   1   7   14.08    2.69
  -5  -1  -7    5.83    2.48
   5   1   8    5.53    2.22
   5   1   9    4.04    1.96
   5   1  10   21.47    5.45
   5   1  11    3.94    2.96
   5   1  12    7.56    1.93
   5   2 -14    2.90    4.00
  -5  -2  14    4.47    1.93
   5   2 -13    2.52    3.69
   5   2 -12    0.77    2.29
   5   2 -12    1.37    3.53
   5   2 -11    1.63    2.60
   5   2 -11    0.90    4.00
   5   2 -10    3.91    3.73
   5   2 -10    6.00    5.04
   5   2  -9   11.98    4.45
   5   2  -9   -3.32    6.26
   5   2  -8   13.64    5.81
   5   2  -8   16.49    4.89
   5   2  -7   58.34   11.36
   5   2  -7   52.37    9.18
   5   2  -6    6.21    5.02
   5   2  -6    1.10    2.59
   5   2  -5   27.60   10.98
   5   2  -5   30.42    6.32
   5   2  -4    0.29    3.39
   5   2  -4    0.70    1.88
   5   2  -3    0.86    4.51
   5   2  -3    5.31    4.26
   5   2  -2    3.47    2.62
   5   2  -2    3.30    2.14
   5   2  -1   -0.32    1.35
   5   2   0    2.24    1.83
   5   2   1    2.21    2.96
   5   2   2    5.28    1.73
   5   2   3    4.32    1.69
   5   2   4    0.13    0.97
   5   2   5    0.21    1.04
   5   2   6    0.04    0.97
   5   2   7    0.62    1.23
   5   2   8    2.11    2.46
   5   2   9    0.17    1.76
   5   2  10    2.11    1.45
   5   2  11   11.52    2.22
   5   3 -14    6.56    2.28
   5   3 -13    5.46    2.96
   5   3 -13    4.93    2.31
   5   3 -12   -3.76    2.43
   5   3 -12   -0.11    1.82
   5   3 -11    1.70    1.93
   5   3 -11   -0.77    1.46
   5   3 -10    1.26    2.49
   5   3 -10    0.63    1.85
   5   3  -9    1.47    2.80
   5   3  -9    1.49    2.14
   5   3  -8    0.53    5.87
   5   3  -8    4.16    2.66
   5   3  -7    1.90    4.52
   5   3  -7    0.57    1.85
   5   3  -6   16.30    8.22
   5   3  -6    8.11    3.47
   5   3  -5    5.66    5.75
   5   3  -5    3.07    2.46
   5   3  -4    0.62    3.90
   5   3  -3    7.54    6.61
   5   3  -2    0.05    2.43
   5   3   3    1.35    1.99
   5   3   4    7.37    3.35
   5   3   5    0.00    1.37
   5   3   6    0.41    1.08
   5   3   7    0.61    1.13
   5   3   8    0.88    1.13
   5   3   9    0.04    0.83
   5   3  10    1.36    1.12
   5   4 -13   -6.19    2.85
   5   4 -12    1.36    2.14
   5   4 -12    1.09    1.22
   5   4 -11   -0.44    1.68
   5   4 -11    0.30    1.00
   5   4 -10    1.18    2.27
   5   4 -10    0.48    1.37
   5   4  -9   -0.52    3.52
   5   4  -8    1.15    4.51
   5   4  -7   -0.25    3.68
   5   4  -6    0.52    3.93
   5   4  -5    7.81    4.32
   5   4  -4    0.37    3.52
   5   4  -3    0.77    3.59
   5   4   4    0.67    0.96
   5   4   5    0.70    0.97
   5   4   6    0.57    0.94
   5   4   7   -0.09    0.76
   5   5 -12    1.44    1.99
   5   5 -11    0.68    2.03
   5   5 -10    1.23    2.14
   5   5  -9   -0.79    3.39
   5   5  -8    3.34    5.24
   5   5  -6   10.13    7.25
   5   5  -5    0.86    2.26
   5   5  -4    2.52    4.40
   5   5  -3    2.32    3.99
   5   6 -10    0.15    1.44
   5   6  -9   36.83    9.66
   5   6  -8   -0.43    2.70
   5   6  -7    0.63    3.22
   5   6  -6    3.29    4.38
   5   6  -5    0.72    3.03
   5   6  -4    3.46    3.39
  -6   8   4   -0.73    0.92
   6  -8  -3    3.45    1.11
  -6   8   3    0.44    1.11
   6  -8  -2    6.67    3.16
  -6   8   2    5.77    1.55
   6  -8  -1   -0.66    1.65
  -6   8   1    0.37    1.13
   6  -8   0   -0.21    2.06
  -6   8   0    0.56    1.43
   6  -8   1    1.35    1.44
  -6   8  -1    0.39    0.80
   6  -8   2   -0.01    1.16
   6  -8   3    1.46    1.80
   6  -8   4   -1.17    1.82
   6  -8   5    5.39    2.46
   6  -8   6    4.86    2.21
  -6   7   6   -0.92    1.11
  -6   7   5   -0.99    1.14
   6  -7  -4    0.14    0.81
  -6   7   4    0.22    0.92
   6  -7  -3    0.87    1.84
  -6   7   3    0.59    1.05
   6  -7  -2   -0.50    2.03
  -6   7   2   -0.56    1.02
   6  -7  -1    0.10    0.93
   6  -7  -1    1.53    2.51
  -6   7   1    2.42    1.08
   6  -7   0    0.06    0.77
   6  -7   0    4.11    2.05
  -6   7   0   -0.36    0.77
   6  -7   1    1.71    1.18
   6  -7   1    4.29    1.97
  -6   7  -1    1.26    1.00
   6  -7   2    1.89    2.10
   6  -7   3    4.66    2.76
   6  -7   4   34.27    5.43
  -6   7  -4   19.10    4.96
   6  -7   5    4.30    2.44
  -6   7  -5    3.37    2.40
   6  -7   6    0.76    1.71
  -6   7  -6    1.20    1.75
  -6   7  -7   -0.86    1.67
   6  -7   8    1.80    1.50
  -6   7  -8    2.64    2.65
  -6   6   8    5.67    2.67
  -6   6   7   -3.74    2.80
   6  -6  -6    0.21    1.67
  -6   6   6    1.61    2.05
   6  -6  -5   -0.74    2.09
  -6   6   5    3.29    2.27
   6  -6  -4    1.94    2.58
  -6   6   4    1.80    2.56
   6  -6  -3    0.35    2.01
   6  -6  -3   -0.47    1.08
  -6   6   3   -0.12    1.79
   6  -6  -2    0.30    1.83
   6  -6  -2    0.33    2.17
  -6   6   2    1.01    1.81
   6  -6  -1   -1.04    1.52
   6  -6  -1    0.10    1.15
  -6   6   1    0.64    1.36
   6  -6   0    2.01    1.40
   6  -6   0    0.63    1.73
  -6   6   0    0.59    1.09
   6  -6   1    1.16    1.68
   6  -6   1    3.18    2.04
   6  -6   2   17.18    3.61
   6  -6   2   20.80    4.57
   6  -6   3   -1.80    1.64
   6  -6   3   -0.77    2.10
   6  -6   4   19.27    3.67
   6  -6   4   19.33    4.84
   6  -6   5    1.96    2.23
   6  -6   6    4.18    2.65
  -6   6  -6    4.48    3.04
  -6   6  -7   -1.43    2.30
   6  -6   8   -0.83    1.15
  -6   6  -8    2.68    1.74
   6  -6   9   -3.05    1.62
  -6   6  -9   -2.15    3.50
  -6   5   9   -0.21    0.97
   6  -5  -8    0.94    1.34
  -6   5   8    2.96    1.47
   6  -5  -7    0.45    1.19
  -6   5   7    0.45    1.21
   6  -5  -6    0.01    1.19
  -6   5   6   -0.28    1.12
   6  -5  -5    0.91    1.08
  -6   5   5   -0.69    0.97
   6  -5  -4    0.27    1.73
  -6   5   4    1.68    1.40
   6  -5  -3    0.97    1.77
  -6   5   3    1.08    1.36
   6  -5  -2    5.18    2.49
   6  -5  -2    2.24    1.98
  -6   5   2    3.32    1.78
   6  -5  -1    8.71    2.98
   6  -5  -1    4.56    2.49
  -6   5   1    5.08    1.97
   6  -5   0    7.14    4.34
   6  -5   0    2.63    2.17
  -6   5   0    1.76    2.42
   6  -5   1   18.44    6.16
   6  -5   1   17.46    4.30
   6  -5   2   24.51    4.46
   6  -5   2   21.24    4.98
   6  -5   3    0.10    1.56
   6  -5   3    1.65    1.86
   6  -5   4    1.06    1.56
   6  -5   5    0.53    1.17
   6  -5   5   -1.28    1.54
   6  -5   6    0.40    2.83
   6  -5   7    2.01    1.80
  -6   5  -7    2.49    2.73
  -6   5  -8    0.95    2.19
   6  -5   9   -0.25    1.00
  -6   5  -9    0.45    1.54
   6  -5  10    8.84    2.15
  -6   5 -10    4.24    4.80
   6  -4 -10   -0.13    1.25
  -6   4  10   -2.09    1.23
   6  -4  -9    1.22    1.95
  -6   4   9   -0.89    1.14
   6  -4  -8    2.01    2.82
  -6   4   8    1.79    1.58
   6  -4  -7    0.87    1.97
  -6   4   7   -0.27    1.04
   6  -4  -6    9.64    4.56
  -6   4   6    6.03    2.38
   6  -4  -5    0.73    1.47
  -6   4   5   -0.63    1.13
   6  -4  -4    2.40    1.81
  -6   4   4   -0.35    1.31
   6  -4  -3   -0.13    2.01
  -6   4   3    1.48    1.40
   6  -4  -2    0.11    2.19
  -6   4   2   -1.95    1.42
   6  -4  -1   -1.83    2.44
   6  -4  -1    1.46    1.79
  -6   4   1    3.35    1.46
   6  -4   0   -1.53    2.06
   6  -4   0    2.31    1.60
   6  -4   1   -8.82    3.43
   6  -4   1    1.69    1.71
   6  -4   3    0.90    1.32
   6  -4   3   -1.15    1.60
   6  -4   4    3.75    2.20
   6  -4   4    4.90    4.28
   6  -4   5    1.36    1.65
   6  -4   6    0.33    1.37
   6  -4   7    0.13    1.23
  -6   4  -7   -0.63    1.85
   6  -4   8    0.56    1.50
  -6   4  -8   -4.35    2.27
   6  -4   9   -0.71    1.37
  -6   4  -9   -1.07    2.03
   6  -4  10    0.43    3.19
  -6   4 -10  -11.85    4.13
   6  -3 -11    1.40    3.16
  -6   3  11    3.07    1.42
   6  -3 -10    0.76    2.99
  -6   3  10    1.34    1.33
   6  -3  -9   -0.49    1.93
  -6   3   9   -1.73    2.25
   6  -3  -8    0.00    2.20
  -6   3   8   -4.11    3.19
   6  -3  -7   -0.46    2.72
  -6   3   7    0.36    2.25
   6  -3  -6    5.63    5.11
  -6   3   6    2.68    4.00
   6  -3  -5    6.91    5.06
  -6   3   5    5.08    4.52
  -6   3   4   21.38    7.16
   6  -3  -3    0.88    3.29
  -6   3   3   14.35    4.48
   6  -3  -2   13.07    3.71
  -6   3   2    3.09    3.45
   6  -3  -1    1.12    2.34
  -6   3   1    1.23    1.27
   6  -3   0   -1.38    2.19
   6  -3   0   -0.21    2.58
   6  -3   1    0.59    2.24
   6  -3   1    2.28    2.86
   6  -3   2   12.05    4.42
   6  -3   2    0.74    4.84
   6  -3   3    0.16    1.32
   6  -3   4    0.49    1.42
   6  -3   4    0.28    1.35
   6  -3   5    3.61    1.92
   6  -3   5    1.13    1.91
   6  -3   6    0.19    1.26
   6  -3   7    1.22    1.60
   6  -3   8    1.91    1.70
  -6   3  -8    1.99    2.33
   6  -3   9    2.24    2.68
  -6   3  -9    1.71    2.10
   6  -3  10    2.23    1.54
  -6   3 -10    4.70    3.29
   6  -2 -11    4.27    2.79
  -6   2  11    7.35    3.17
   6  -2 -10    1.18    2.29
  -6   2  10    3.98    3.19
   6  -2  -9    9.13    3.24
  -6   2   9    3.11    2.56
   6  -2  -8    2.43    2.84
  -6   2   8    3.71    2.28
   6  -2  -7    1.89    2.58
  -6   2   7    1.83    2.02
   6  -2  -6    1.61    2.24
  -6   2   6    0.28    1.74
   6  -2  -5    5.86    3.90
  -6   2   5   -0.14    1.77
   6  -2  -4   -5.32    3.81
  -6   2   4   -0.93    2.06
   6  -2  -3    8.23    2.69
  -6   2   3   -0.25    2.14
   6  -2  -2   -0.49    1.98
  -6   2   2    1.22    1.42
   6  -2  -1    0.42    1.85
   6  -2   0    4.91    2.99
   6  -2   1    0.88    1.69
   6  -2   1   -0.23    1.04
   6  -2   2    5.02    2.89
   6  -2   2   -0.08    1.51
   6  -2   3    3.90    2.11
   6  -2   3    2.66    1.95
   6  -2   4    1.53    1.75
   6  -2   4    1.66    1.63
   6  -2   5   12.02    2.87
   6  -2   5    6.76    2.78
   6  -2   6    0.11    1.18
   6  -2   7    1.07    2.17
  -6   2  -7    0.07    1.65
   6  -2   8    0.88    2.15
  -6   2  -8   -3.02    1.86
   6  -2   9    0.16    1.13
  -6   2  -9    1.33    1.45
   6  -2  10   -1.12    1.11
  -6   2 -10   -0.52    2.09
   6  -1 -12   -0.01    1.54
  -6   1  12   -1.98    2.16
   6  -1 -11   12.88    3.30
  -6   1  11    4.41    2.62
   6  -1 -10    2.49    2.31
  -6   1  10    1.97    1.90
   6  -1  -9   18.38    3.93
  -6   1   9    4.95    3.15
   6  -1  -8    2.95    2.22
  -6   1   8    0.01    1.80
   6  -1  -7    0.76    1.71
  -6   1   7   -0.33    1.37
   6  -1  -6    0.53    2.13
  -6   1   6   -1.25    1.67
   6  -1  -5    0.50    4.83
  -6   1   5   -3.63    2.43
   6  -1  -4    0.89    4.06
  -6   1   4    3.18    2.22
   6  -1  -3    1.83    1.79
  -6   1   3   -0.59    1.41
   6  -1  -2    2.56    2.20
  -6   1   2    0.49    1.51
   6  -1  -1    0.06    1.54
   6  -1   0   -1.20    2.09
   6  -1   1   12.47    3.73
   6  -1   1   -0.27    1.36
   6  -1   2   -4.36    3.57
   6  -1   2    6.69    1.87
   6  -1   3   12.37    2.81
   6  -1   3    5.24    2.48
   6  -1   4    1.07    1.45
   6  -1   4    0.67    1.39
   6  -1   5    3.24    1.75
   6  -1   5    2.46    2.95
   6  -1   6    2.10    2.32
   6  -1   7   22.48    2.51
  -6   1  -7    0.33    2.88
   6  -1   8    0.03    0.99
  -6   1  -8    0.65    1.14
   6  -1   9    1.24    1.19
   6  -1  10   -0.51    0.97
  -6   0  12    1.56    1.44
   6   0 -11   21.66    3.93
  -6   0  11    9.71    3.18
   6   0 -10    0.71    1.59
  -6   0  10    0.01    1.38
   6   0  -9    2.73    2.04
  -6   0   9   -0.22    1.70
   6   0  -8    1.24    2.01
  -6   0   8    0.39    1.66
   6   0  -7    1.88    1.99
  -6   0   7   -0.27    1.62
   6   0  -6    2.25    4.38
   6   0  -5    4.51    5.30
   6   0  -4   10.54    4.89
  -6   0   4    4.47    2.52
   6   0  -3    1.54    2.44
  -6   0   3    3.04    1.96
   6   0  -2   -2.15    2.36
   6   0  -1    5.87    2.95
   6   0   0   -2.23    2.25
   6   0   1   -0.72    2.19
   6   0   2    0.21    1.23
   6   0   2    0.68    0.91
   6   0   3    1.35    1.07
   6   0   3   -0.75    0.87
   6   0   4   -0.18    0.96
   6   0   4   -0.02    0.84
   6   0   5    0.35    0.96
   6   0   6    0.00    0.76
   6   0   7    1.25    1.14
   6   0   8   -0.08    0.82
   6   0   9    4.93    2.45
   6   1 -11    8.19    1.97
  -6  -1  11   -1.65    1.75
   6   1 -10    4.57    2.18
  -6  -1  10    1.40    1.99
   6   1  -9   -0.05    1.38
   6   1  -8    0.27    1.64
   6   1  -7    8.42    5.82
   6   1  -6    3.51    3.74
   6   1  -5   15.40    6.35
   6   1  -4    8.71    3.36
   6   1  -3   22.15    4.80
   6   1  -2    0.49    1.59
   6   1  -1    2.09    1.97
   6   1   0    2.19    2.38
   6   1   1   -0.33    1.01
   6   1   2    0.21    0.93
   6   1   3    0.48    0.98
   6   1   3    0.72    0.85
   6   1   4    0.39    0.85
   6   1   5    0.43    0.87
   6   1   6   -0.26    1.33
   6   1   7   -0.95    1.65
   6   1   8    2.58    1.18
   6   2 -11   -1.23    1.75
  -6  -2  11   -0.77    1.33
   6   2 -10    7.45    4.22
   6   2  -9   -0.53    2.01
   6   2  -8    1.83    2.57
   6   2  -7    5.96    3.00
   6   2  -7    3.19    2.13
   6   2  -6    0.39    1.77
   6   2  -6    0.41    1.32
   6   2  -5    6.50    2.99
   6   2  -5    4.83    2.35
   6   2  -4    0.85    1.44
   6   2  -3    5.69    2.25
   6   2  -2    1.29    2.37
   6   2  -1   -0.04    0.74
   6   2   4   -0.03    0.58
   6   2   5    0.84    0.79
   6   2   6    3.48    1.14
   6   3  -8   -0.53    1.62
   6   3  -7    1.48    1.58
   6   3  -7    0.03    0.84
   6   3  -6    4.32    2.46
   6   3  -5    0.74    1.65
   6   4  -7   -1.16    1.57
   6   4  -6   11.60    2.95
   7  -5  -2    1.79    1.16
   7  -5  -1    2.88    1.38
   7  -5   0    0.99    1.14
   7  -5   1    0.95    1.14
   7  -4  -3   -1.24    1.99
   7  -4  -2    3.91    1.73
   7  -4  -1   11.57    2.53
   7  -4   0   17.59    3.01
   7  -4   1   35.78    4.03
   7  -4   2   -2.81    1.57
   7  -4   3    0.61    0.83
   7  -4   4   59.13    6.43
   7  -3  -5   18.56    2.15
  -7   3   5    0.10    1.17
   7  -3  -4    1.36    1.73
   7  -3  -3   34.42    8.42
   7  -3  -2   -8.84    3.66
   7  -3  -1   -0.46    1.15
   7  -3   0   -0.22    1.06
   7  -3   1   -2.04    1.48
   7  -3   2    5.76    1.94
   7  -3   3   -0.79    1.15
   7  -2  -6   -0.70    1.67
  -7   2   6    3.33    0.94
   7  -2  -5   -0.32    1.68
  -7   2   5    2.19    0.87
   7  -2  -4    7.57    2.76
   7  -2  -3    7.03    4.61
   7  -2  -2    0.35    1.76
   7  -2  -1    0.83    1.22
   7  -2   0    0.49    1.12
   7  -2   1   -0.54    1.13
   7  -2   2    3.64    1.62
   7  -1  -5    5.53    2.25
   7  -1  -4   -1.69    1.69
   7  -1  -3  152.55   16.83
   7  -1  -2    1.80    2.27
   7  -1  -1   -1.36    1.27
   7  -1   0    3.05    1.54
   7  -1   1    4.52    1.60
   7  -1   2   -0.12    0.82
   7   0  -5   -1.10    2.16
   7   0  -4    0.18    1.44
   7   0  -3   -1.38    1.11
   7   0  -2    1.75    1.16
   7   0  -1   -1.57    1.08
   7   0   0   -0.71    0.88

_computing_structure_solution     'SHELXT 2014/4 (Sheldrick, 2014)'
_computing_structure_solution     'SHELXT 2014/4 (Sheldrick, 2014)'
;
_shelx_hkl_checksum              31744
_olex2_submission_special_instructions 'No special instructions were received'
loop_
_space_group_symop_operation_xyz
'x, y, z'
'-x, -y, -z'
loop_
_atom_site_label
_atom_site_type_symbol
_atom_site_fract_x
_atom_site_fract_y
_atom_site_fract_z
_atom_site_U_iso_or_equiv
_atom_site_adp_type
_atom_site_occupancy
_atom_site_site_symmetry_order
_atom_site_calc_flag
_atom_site_refinement_flags_posn
_atom_site_refinement_flags_adp
_atom_site_refinement_flags_occupancy
_atom_site_disorder_assembly
_atom_site_disorder_group
O001 O 0.3541(4) 0.3995(2) 0.31677(13) 0.0897(7) Uani 1 1 d . . . . .
H001 H 0.2762 0.4431 0.3452 0.134 Uiso 1 1 calc R U . . .
N002 N 0.1907(4) 0.6072(2) 0.38150(16) 0.0801(8) Uani 1 1 d . . . . .
N3 N 0.1547(7) 0.9857(3) 0.60096(19) 0.0986(10) Uani 1 1 d . . . . .
O8 O 0.3559(6) 1.0277(3) 0.59727(17) 0.1360(12) Uani 1 1 d . . . . .
C005 C 0.4437(5) 0.6101(3) 0.27465(17) 0.0706(8) Uani 1 1 d . . . . .
C006 C 0.4628(5) 0.4754(3) 0.26682(18) 0.0710(8) Uani 1 1 d . . . . .
O007 O 0.0395(5) 1.0433(3) 0.64707(18) 0.1348(11) Uani 1 1 d . . . . .
C008 C 0.5963(5) 0.4185(3) 0.20962(18) 0.0704(8) Uani 1 1 d . . . . .
C009 C 0.6892(5) 0.6375(3) 0.16625(18) 0.0730(9) Uani 1 1 d . . . . .
C00A C 0.0712(6) 0.6764(3) 0.44016(19) 0.0735(9) Uani 1 1 d . . . . .
C00B C 0.3064(5) 0.6708(3) 0.33367(19) 0.0783(9) Uani 1 1 d . . . . .
H00B H 0.3022 0.7612 0.3370 0.094 Uiso 1 1 calc R U . . .
C00C C 0.1713(5) 0.7988(3) 0.48938(19) 0.0766(9) Uani 1 1 d . . . . .
H00C H 0.3195 0.8403 0.4839 0.092 Uiso 1 1 calc R U . . .
C00D C 0.0446(7) 0.8575(3) 0.54681(19) 0.0778(9) Uani 1 1 d . . . . .
C00E C 0.5587(5) 0.6881(3) 0.22442(19) 0.0753(9) Uani 1 1 d . . . . .
H00E H 0.5467 0.7778 0.2305 0.090 Uiso 1 1 calc R U . . .
C00F C 0.7036(5) 0.5026(3) 0.16124(17) 0.0744(9) Uani 1 1 d . . . . .
H00F H 0.7920 0.4664 0.1224 0.089 Uiso 1 1 calc R U . . .
C00G C 0.6227(6) 0.2720(3) 0.2009(2) 0.0795(9) Uani 1 1 d . . . . .
C00H C -0.1488(6) 0.6174(3) 0.4504(2) 0.0847(10) Uani 1 1 d . . . . .
H00H H -0.2148 0.5341 0.4181 0.102 Uiso 1 1 calc R U . . .
C00I C 0.8149(6) 0.7203(3) 0.11022(19) 0.0805(9) Uani 1 1 d . U . . .
C00J C -0.1749(7) 0.8015(4) 0.5566(2) 0.0869(10) Uani 1 1 d . . . . .
H00J H -0.2563 0.8445 0.5954 0.104 Uiso 1 1 calc R U . . .
C00K C -0.2714(6) 0.6790(4) 0.5069(2) 0.0916(10) Uani 1 1 d . . . . .
H00K H -0.4203 0.6383 0.5120 0.110 Uiso 1 1 calc R U . . .
C00L C 0.3915(6) 0.1752(3) 0.1797(2) 0.1061(12) Uani 1 1 d . . . . .
H00A H 0.2946 0.1934 0.2225 0.159 Uiso 1 1 calc R U . . .
H00D H 0.4110 0.0839 0.1734 0.159 Uiso 1 1 calc R U . . .
H00G H 0.3243 0.1879 0.1300 0.159 Uiso 1 1 calc R U . . .
C00M C 0.7309(6) 0.2517(3) 0.2804(2) 0.1052(12) Uani 1 1 d . . . . .
H00I H 0.8753 0.3123 0.2936 0.158 Uiso 1 1 calc R U . . .
H00L H 0.7508 0.1604 0.2740 0.158 Uiso 1 1 calc R U . . .
H00M H 0.6341 0.2696 0.3233 0.158 Uiso 1 1 calc R U . . .
C00N C 0.7781(6) 0.2352(3) 0.1339(2) 0.1118(13) Uani 1 1 d . . . . .
H00N H 0.7135 0.2445 0.0829 0.168 Uiso 1 1 calc R U . . .
H00O H 0.7937 0.1436 0.1306 0.168 Uiso 1 1 calc R U . . .
H00P H 0.9241 0.2943 0.1463 0.168 Uiso 1 1 calc R U . . .
C00O C 0.7670(12) 0.8609(6) 0.1218(4) 0.130(3) Uani 0.755(6) 1 d . U P A 1
H00Q H 0.8117 0.9075 0.1767 0.195 Uiso 0.755(6) 1 calc R U P A 1
H00R H 0.6080 0.8550 0.1105 0.195 Uiso 0.755(6) 1 calc R U P A 1
H00S H 0.8507 0.9093 0.0855 0.195 Uiso 0.755(6) 1 calc R U P A 1
C00P C 0.7427(12) 0.6493(6) 0.0218(3) 0.118(2) Uani 0.755(6) 1 d . U P A 1
H00T H 0.8268 0.6993 -0.0137 0.177 Uiso 0.755(6) 1 calc R U P A 1
H00U H 0.5839 0.6444 0.0108 0.177 Uiso 0.755(6) 1 calc R U P A 1
H00V H 0.7722 0.5599 0.0129 0.177 Uiso 0.755(6) 1 calc R U P A 1
C00Q C 1.0679(9) 0.7329(7) 0.1260(5) 0.133(3) Uani 0.755(6) 1 d . U P A 1
H00W H 1.1022 0.6446 0.1177 0.200 Uiso 0.755(6) 1 calc R U P A 1
H00X H 1.1147 0.7792 0.1808 0.200 Uiso 0.755(6) 1 calc R U P A 1
H00Y H 1.1469 0.7828 0.0893 0.200 Uiso 0.755(6) 1 calc R U P A 1
C1 C 0.645(3) 0.777(2) 0.0633(12) 0.110(5) Uani 0.245(6) 1 d . U P A 2
H1A H 0.5657 0.8295 0.1010 0.166 Uiso 0.245(6) 1 calc R U P A 2
H1B H 0.5382 0.7036 0.0300 0.166 Uiso 0.245(6) 1 calc R U P A 2
H1C H 0.7245 0.8326 0.0297 0.166 Uiso 0.245(6) 1 calc R U P A 2
C2 C 0.987(3) 0.8511(16) 0.1662(9) 0.102(5) Uani 0.245(6) 1 d . U P A 2
H2A H 1.0863 0.8209 0.2013 0.152 Uiso 0.245(6) 1 calc R U P A 2
H2B H 0.9010 0.9072 0.1984 0.152 Uiso 0.245(6) 1 calc R U P A 2
H2C H 1.0753 0.9017 0.1319 0.152 Uiso 0.245(6) 1 calc R U P A 2
C00R C 0.961(4) 0.6479(18) 0.0546(13) 0.125(6) Uani 0.245(6) 1 d . U P A 2
H00Z H 1.0128 0.7005 0.0152 0.187 Uiso 0.245(6) 1 calc R U P A 2
H H 0.8739 0.5616 0.0274 0.187 Uiso 0.245(6) 1 calc R U P A 2
HA H 1.0884 0.6354 0.0857 0.187 Uiso 0.245(6) 1 calc R U P A 2
loop_
_atom_site_aniso_label
_atom_site_aniso_U_11
_atom_site_aniso_U_22
_atom_site_aniso_U_33
_atom_site_aniso_U_23
_atom_site_aniso_U_13
_atom_site_aniso_U_12
O001 0.108(2) 0.0773(15) 0.0929(17) 0.0338(12) 0.0329(13) 0.0206(13)
N002 0.087(2) 0.0795(18) 0.0761(17) 0.0198(14) 0.0187(15) 0.0157(15)
N3 0.131(3) 0.082(2) 0.084(2) 0.0214(19) 0.012(2) 0.020(2)
O8 0.142(3) 0.112(2) 0.125(2) -0.0018(16) 0.021(2) -0.020(2)
C005 0.082(2) 0.066(2) 0.0661(19) 0.0175(15) 0.0122(16) 0.0169(17)
C006 0.081(2) 0.066(2) 0.0690(19) 0.0247(16) 0.0068(17) 0.0111(17)
O007 0.169(3) 0.113(2) 0.117(2) -0.0092(16) 0.0190(19) 0.048(2)
C008 0.078(2) 0.067(2) 0.0706(19) 0.0200(15) 0.0067(16) 0.0176(17)
C009 0.086(2) 0.0644(19) 0.072(2) 0.0200(15) 0.0112(17) 0.0160(17)
C00A 0.082(2) 0.074(2) 0.069(2) 0.0233(18) 0.0136(18) 0.0165(19)
C00B 0.089(2) 0.073(2) 0.076(2) 0.0181(17) 0.0104(18) 0.0183(18)
C00C 0.083(2) 0.073(2) 0.076(2) 0.0230(18) 0.0113(19) 0.0122(19)
C00D 0.098(3) 0.070(2) 0.067(2) 0.0182(17) 0.007(2) 0.017(2)
C00E 0.093(3) 0.0609(19) 0.075(2) 0.0209(15) 0.0113(18) 0.0155(18)
C00F 0.088(2) 0.070(2) 0.0707(19) 0.0227(16) 0.0143(17) 0.0191(18)
C00G 0.091(2) 0.062(2) 0.091(2) 0.0254(16) 0.011(2) 0.0189(19)
C00H 0.094(3) 0.081(2) 0.077(2) 0.0191(17) 0.014(2) 0.009(2)
C00I 0.098(3) 0.072(2) 0.077(2) 0.0291(17) 0.0207(18) 0.0143(18)
C00J 0.098(3) 0.094(3) 0.077(2) 0.027(2) 0.022(2) 0.031(2)
C00K 0.088(3) 0.100(3) 0.088(2) 0.023(2) 0.020(2) 0.016(2)
C00L 0.117(3) 0.068(2) 0.129(3) 0.017(2) 0.008(3) 0.012(2)
C00M 0.120(3) 0.097(3) 0.113(3) 0.044(2) -0.001(2) 0.036(2)
C00N 0.145(3) 0.087(2) 0.127(3) 0.038(2) 0.049(3) 0.056(2)
C00O 0.182(7) 0.086(4) 0.142(6) 0.060(4) 0.061(5) 0.033(4)
C00P 0.162(6) 0.111(4) 0.084(3) 0.041(3) 0.017(3) 0.012(4)
C00Q 0.099(4) 0.149(6) 0.164(6) 0.080(5) 0.019(4) 0.005(4)
C1 0.117(10) 0.120(13) 0.104(11) 0.060(10) 0.022(7) 0.011(9)
C2 0.108(10) 0.090(8) 0.109(9) 0.033(7) 0.013(8) 0.011(7)
C00R 0.153(14) 0.105(10) 0.128(12) 0.041(9) 0.068(11) 0.027(10)
loop_
_atom_type_symbol
_atom_type_description
_atom_type_scat_dispersion_real
_atom_type_scat_dispersion_imag
_atom_type_scat_source
C C 0.0181 0.0091 'International Tables Vol C Tables 4.2.6.8 and 6.1.1.4'
H H 0.0000 0.0000 'International Tables Vol C Tables 4.2.6.8 and 6.1.1.4'
N N 0.0311 0.0180 'International Tables Vol C Tables 4.2.6.8 and 6.1.1.4'
O O 0.0492 0.0322 'International Tables Vol C Tables 4.2.6.8 and 6.1.1.4'
loop_
_geom_angle_atom_site_label_1
_geom_angle_atom_site_label_2
_geom_angle_atom_site_label_3
_geom_angle
_geom_angle_site_symmetry_1
_geom_angle_site_symmetry_3
_geom_angle_publ_flag
C006 O001 H001 109.5 . . ?
C00B N002 C00A 119.9(3) . . ?
O8 N3 C00D 118.4(4) . . ?
O007 N3 O8 123.5(4) . . ?
O007 N3 C00D 118.1(4) . . ?
C006 C005 C00B 121.8(3) . . ?
C00E C005 C006 119.4(3) . . ?
C00E C005 C00B 118.9(3) . . ?
O001 C006 C005 119.6(3) . . ?
O001 C006 C008 119.4(3) . . ?
C008 C006 C005 121.0(3) . . ?
C006 C008 C00G 121.9(3) . . ?
C00F C008 C006 116.1(3) . . ?
C00F C008 C00G 122.0(3) . . ?
C00E C009 C00F 115.9(3) . . ?
C00E C009 C00I 123.4(3) . . ?
C00F C009 C00I 120.7(3) . . ?
C00C C00A N002 121.7(3) . . ?
C00H C00A N002 118.8(3) . . ?
C00H C00A C00C 119.4(3) . . ?
N002 C00B C005 123.8(3) . . ?
N002 C00B H00B 118.1 . . ?
C005 C00B H00B 118.1 . . ?
C00A C00C H00C 121.0 . . ?
C00D C00C C00A 118.0(3) . . ?
C00D C00C H00C 121.0 . . ?
C00C C00D N3 117.8(4) . . ?
C00J C00D N3 118.9(4) . . ?
C00J C00D C00C 123.3(3) . . ?
C005 C00E H00E 118.8 . . ?
C009 C00E C005 122.4(3) . . ?
C009 C00E H00E 118.8 . . ?
C008 C00F C009 125.2(3) . . ?
C008 C00F H00F 117.4 . . ?
C009 C00F H00F 117.4 . . ?
C008 C00G C00L 110.4(3) . . ?
C008 C00G C00M 109.9(3) . . ?
C008 C00G C00N 111.4(3) . . ?
C00L C00G C00M 109.6(3) . . ?
C00N C00G C00L 108.3(3) . . ?
C00N C00G C00M 107.2(3) . . ?
C00A C00H H00H 119.3 . . ?
C00K C00H C00A 121.3(3) . . ?
C00K C00H H00H 119.3 . . ?
C009 C00I C00P 109.3(3) . . ?
C009 C00I C1 109.2(6) . . ?
C009 C00I C2 108.2(5) . . ?
C00O C00I C009 112.6(3) . . ?
C00O C00I C00P 108.0(4) . . ?
C00O C00I C00Q 108.2(4) . . ?
C00Q C00I C009 109.6(3) . . ?
C00Q C00I C00P 109.1(4) . . ?
C1 C00I C2 106.3(10) . . ?
C00R C00I C009 114.7(7) . . ?
C00R C00I C1 112.1(12) . . ?
C00R C00I C2 105.9(11) . . ?
C00D C00J H00J 121.2 . . ?
C00D C00J C00K 117.7(3) . . ?
C00K C00J H00J 121.2 . . ?
C00H C00K C00J 120.3(3) . . ?
C00H C00K H00K 119.9 . . ?
C00J C00K H00K 119.9 . . ?
C00G C00L H00A 109.5 . . ?
C00G C00L H00D 109.5 . . ?
C00G C00L H00G 109.5 . . ?
H00A C00L H00D 109.5 . . ?
H00A C00L H00G 109.5 . . ?
H00D C00L H00G 109.5 . . ?
C00G C00M H00I 109.5 . . ?
C00G C00M H00L 109.5 . . ?
C00G C00M H00M 109.5 . . ?
H00I C00M H00L 109.5 . . ?
H00I C00M H00M 109.5 . . ?
H00L C00M H00M 109.5 . . ?
C00G C00N H00N 109.5 . . ?
C00G C00N H00O 109.5 . . ?
C00G C00N H00P 109.5 . . ?
H00N C00N H00O 109.5 . . ?
H00N C00N H00P 109.5 . . ?
H00O C00N H00P 109.5 . . ?
C00I C00O H00Q 109.5 . . ?
C00I C00O H00R 109.5 . . ?
C00I C00O H00S 109.5 . . ?
H00Q C00O H00R 109.5 . . ?
H00Q C00O H00S 109.5 . . ?
H00R C00O H00S 109.5 . . ?
C00I C00P H00T 109.5 . . ?
C00I C00P H00U 109.5 . . ?
C00I C00P H00V 109.5 . . ?
H00T C00P H00U 109.5 . . ?
H00T C00P H00V 109.5 . . ?
H00U C00P H00V 109.5 . . ?
C00I C00Q H00W 109.5 . . ?
C00I C00Q H00X 109.5 . . ?
C00I C00Q H00Y 109.5 . . ?
H00W C00Q H00X 109.5 . . ?
H00W C00Q H00Y 109.5 . . ?
H00X C00Q H00Y 109.5 . . ?
C00I C1 H1A 109.5 . . ?
C00I C1 H1B 109.5 . . ?
C00I C1 H1C 109.5 . . ?
H1A C1 H1B 109.5 . . ?
H1A C1 H1C 109.5 . . ?
H1B C1 H1C 109.5 . . ?
C00I C2 H2A 109.5 . . ?
C00I C2 H2B 109.5 . . ?
C00I C2 H2C 109.5 . . ?
H2A C2 H2B 109.5 . . ?
H2A C2 H2C 109.5 . . ?
H2B C2 H2C 109.5 . . ?
C00I C00R H00Z 109.5 . . ?
C00I C00R H 109.5 . . ?
C00I C00R HA 109.5 . . ?
H00Z C00R H 109.5 . . ?
H00Z C00R HA 109.5 . . ?
H C00R HA 109.5 . . ?
loop_
_geom_bond_atom_site_label_1
_geom_bond_atom_site_label_2
_geom_bond_distance
_geom_bond_site_symmetry_2
_geom_bond_publ_flag
O001 H001 0.8200 . ?
O001 C006 1.359(3) . ?
N002 C00A 1.413(4) . ?
N002 C00B 1.279(3) . ?
N3 O8 1.216(4) . ?
N3 O007 1.212(3) . ?
N3 C00D 1.474(4) . ?
C005 C006 1.400(4) . ?
C005 C00B 1.449(4) . ?
C005 C00E 1.390(4) . ?
C006 C008 1.398(4) . ?
C008 C00F 1.389(4) . ?
C008 C00G 1.533(4) . ?
C009 C00E 1.371(4) . ?
C009 C00F 1.400(4) . ?
C009 C00I 1.519(4) . ?
C00A C00C 1.384(4) . ?
C00A C00H 1.381(4) . ?
C00B H00B 0.9300 . ?
C00C H00C 0.9300 . ?
C00C C00D 1.380(4) . ?
C00D C00J 1.369(4) . ?
C00E H00E 0.9300 . ?
C00F H00F 0.9300 . ?
C00G C00L 1.535(4) . ?
C00G C00M 1.538(4) . ?
C00G C00N 1.535(4) . ?
C00H H00H 0.9300 . ?
C00H C00K 1.367(4) . ?
C00I C00O 1.514(5) . ?
C00I C00P 1.535(6) . ?
C00I C00Q 1.518(6) . ?
C00I C1 1.541(16) . ?
C00I C2 1.639(16) . ?
C00I C00R 1.506(16) . ?
C00J H00J 0.9300 . ?
C00J C00K 1.382(4) . ?
C00K H00K 0.9300 . ?
C00L H00A 0.9600 . ?
C00L H00D 0.9600 . ?
C00L H00G 0.9600 . ?
C00M H00I 0.9600 . ?
C00M H00L 0.9600 . ?
C00M H00M 0.9600 . ?
C00N H00N 0.9600 . ?
C00N H00O 0.9600 . ?
C00N H00P 0.9600 . ?
C00O H00Q 0.9600 . ?
C00O H00R 0.9600 . ?
C00O H00S 0.9600 . ?
C00P H00T 0.9600 . ?
C00P H00U 0.9600 . ?
C00P H00V 0.9600 . ?
C00Q H00W 0.9600 . ?
C00Q H00X 0.9600 . ?
C00Q H00Y 0.9600 . ?
C1 H1A 0.9600 . ?
C1 H1B 0.9600 . ?
C1 H1C 0.9600 . ?
C2 H2A 0.9600 . ?
C2 H2B 0.9600 . ?
C2 H2C 0.9600 . ?
C00R H00Z 0.9600 . ?
C00R H 0.9600 . ?
C00R HA 0.9600 . ?
loop_
_geom_torsion_atom_site_label_1
_geom_torsion_atom_site_label_2
_geom_torsion_atom_site_label_3
_geom_torsion_atom_site_label_4
_geom_torsion
_geom_torsion_site_symmetry_1
_geom_torsion_site_symmetry_2
_geom_torsion_site_symmetry_3
_geom_torsion_site_symmetry_4
_geom_torsion_publ_flag
O001 C006 C008 C00F -179.5(3) . . . . ?
O001 C006 C008 C00G 0.5(5) . . . . ?
N002 C00A C00C C00D -178.0(3) . . . . ?
N002 C00A C00H C00K 179.2(3) . . . . ?
N3 C00D C00J C00K -177.8(3) . . . . ?
O8 N3 C00D C00C -6.1(5) . . . . ?
O8 N3 C00D C00J 172.7(3) . . . . ?
C005 C006 C008 C00F -0.9(4) . . . . ?
C005 C006 C008 C00G 179.0(3) . . . . ?
C006 C005 C00B N002 -1.2(5) . . . . ?
C006 C005 C00E C009 0.8(5) . . . . ?
C006 C008 C00F C009 0.6(5) . . . . ?
C006 C008 C00G C00L 59.8(4) . . . . ?
C006 C008 C00G C00M -61.2(4) . . . . ?
C006 C008 C00G C00N -179.9(3) . . . . ?
O007 N3 C00D C00C 174.1(3) . . . . ?
O007 N3 C00D C00J -7.0(5) . . . . ?
C00A N002 C00B C005 176.6(3) . . . . ?
C00A C00C C00D N3 177.9(2) . . . . ?
C00A C00C C00D C00J -0.9(5) . . . . ?
C00A C00H C00K C00J -1.3(5) . . . . ?
C00B N002 C00A C00C -47.3(4) . . . . ?
C00B N002 C00A C00H 135.1(3) . . . . ?
C00B C005 C006 O001 -1.4(5) . . . . ?
C00B C005 C006 C008 -179.9(3) . . . . ?
C00B C005 C00E C009 -179.0(3) . . . . ?
C00C C00A C00H C00K 1.5(5) . . . . ?
C00C C00D C00J C00K 1.0(5) . . . . ?
C00D C00J C00K C00H 0.1(5) . . . . ?
C00E C005 C006 O001 178.8(3) . . . . ?
C00E C005 C006 C008 0.3(5) . . . . ?
C00E C005 C00B N002 178.6(3) . . . . ?
C00E C009 C00F C008 0.4(5) . . . . ?
C00E C009 C00I C00O -4.0(6) . . . . ?
C00E C009 C00I C00P -124.0(4) . . . . ?
C00E C009 C00I C00Q 116.5(5) . . . . ?
C00E C009 C00I C1 -57.1(10) . . . . ?
C00E C009 C00I C2 58.2(8) . . . . ?
C00E C009 C00I C00R 176.1(12) . . . . ?
C00F C008 C00G C00L -120.3(3) . . . . ?
C00F C008 C00G C00M 118.7(3) . . . . ?
C00F C008 C00G C00N 0.0(4) . . . . ?
C00F C009 C00E C005 -1.1(5) . . . . ?
C00F C009 C00I C00O 176.7(4) . . . . ?
C00F C009 C00I C00P 56.7(5) . . . . ?
C00F C009 C00I C00Q -62.8(5) . . . . ?
C00F C009 C00I C1 123.5(10) . . . . ?
C00F C009 C00I C2 -121.2(8) . . . . ?
C00F C009 C00I C00R -3.2(13) . . . . ?
C00G C008 C00F C009 -179.3(3) . . . . ?
C00H C00A C00C C00D -0.4(4) . . . . ?
C00I C009 C00E C005 179.5(3) . . . . ?
C00I C009 C00F C008 179.8(3) . . . . ?
