#------------------------------------------------------------------------------
#$Date: 2024-02-04 13:31:52 +0200 (Sun, 04 Feb 2024) $
#$Revision: 289419 $
#$URL: file:///home/coder/svn-repositories/cod/cif/1/57/05/1570521.cif $
#------------------------------------------------------------------------------
#
# This file is available in the Crystallography Open Database (COD),
# http://www.crystallography.net/
#
# All data on this site have been placed in the public domain by the
# contributors.
#
data_1570521
loop_
_publ_author_name
'Devi, Tarali'
'Dutta, Kuheli'
'Deutscher, Jennifer'
'Mebs, Stefan'
'Kuhlmann, Uwe'
'Haumann, Michael'
'Cula, Beatrice'
'Dau, Holger'
'Hildebrandt, Peter'
'Ray, Kallol'
_publ_section_title
;
 A high-spin alkylperoxo-iron(iii) complex with <i>cis</i>-anionic
 ligands: implications for the superoxide reductase mechanism.
;
_journal_issue                   2
_journal_name_full               'Chemical science'
_journal_page_first              528
_journal_page_last               533
_journal_paper_doi               10.1039/d3sc05603a
_journal_volume                  15
_journal_year                    2024
_chemical_formula_moiety         'C13 H25 F6 Fe N3 O7 S2'
_chemical_formula_sum            'C13 H25 F6 Fe N3 O7 S2'
_chemical_formula_weight         569.33
_chemical_properties_physical    Air-sensitive,Oxygen-sensitive
_space_group_crystal_system      orthorhombic
_space_group_IT_number           60
_space_group_name_Hall           '-P 2n 2ab'
_space_group_name_H-M_alt        'P b c n'
_atom_sites_solution_hydrogens   geom
_audit_creation_method           SHELXL-2018/3
_audit_update_record
;
2023-09-22 deposited with the CCDC.	2023-12-06 downloaded from the CCDC.
;
_cell_angle_alpha                90
_cell_angle_beta                 90
_cell_angle_gamma                90
_cell_formula_units_Z            8
_cell_length_a                   35.662(2)
_cell_length_b                   8.8757(6)
_cell_length_c                   15.3809(9)
_cell_measurement_reflns_used    7055
_cell_measurement_temperature    100(2)
_cell_measurement_theta_max      25.33
_cell_measurement_theta_min      2.36
_cell_volume                     4868.4(5)
_computing_cell_refinement       'Bruker SAINT'
_computing_data_collection       'Bruker APEX3'
_computing_data_reduction        'Bruker SAINT'
_computing_molecular_graphics    'Bruker SHELXTL'
_computing_publication_material  'Bruker SHELXTL'
_computing_structure_refinement  'SHELXL-2018/3 (Sheldrick, 2018)'
_computing_structure_solution    'SHELXS-97 (Sheldrick 2008)'
_diffrn_ambient_temperature      100(2)
_diffrn_measured_fraction_theta_full 1.000
_diffrn_measured_fraction_theta_max 0.997
_diffrn_measurement_device_type  'Bruker D8 Venture'
_diffrn_measurement_method       '\f and \w scans'
_diffrn_radiation_type           MoK\a
_diffrn_radiation_wavelength     0.71073
_diffrn_reflns_av_R_equivalents  0.0731
_diffrn_reflns_av_unetI/netI     0.0611
_diffrn_reflns_Laue_measured_fraction_full 1.000
_diffrn_reflns_Laue_measured_fraction_max 0.997
_diffrn_reflns_limit_h_max       42
_diffrn_reflns_limit_h_min       -42
_diffrn_reflns_limit_k_max       10
_diffrn_reflns_limit_k_min       -10
_diffrn_reflns_limit_l_max       17
_diffrn_reflns_limit_l_min       -18
_diffrn_reflns_number            23549
_diffrn_reflns_point_group_measured_fraction_full 1.000
_diffrn_reflns_point_group_measured_fraction_max 0.997
_diffrn_reflns_theta_full        25.242
_diffrn_reflns_theta_max         25.392
_diffrn_reflns_theta_min         2.284
_exptl_absorpt_coefficient_mu    0.873
_exptl_absorpt_correction_T_max  0.7452
_exptl_absorpt_correction_T_min  0.6690
_exptl_absorpt_correction_type   multi-scan
_exptl_absorpt_process_details   SADABS
_exptl_crystal_colour            colourless
_exptl_crystal_density_diffrn    1.553
_exptl_crystal_description       needle
_exptl_crystal_F_000             2336
_exptl_crystal_size_max          0.230
_exptl_crystal_size_mid          0.070
_exptl_crystal_size_min          0.070
_refine_diff_density_max         0.353
_refine_diff_density_min         -0.336
_refine_diff_density_rms         0.080
_refine_ls_extinction_method     none
_refine_ls_goodness_of_fit_ref   1.017
_refine_ls_hydrogen_treatment    constr
_refine_ls_matrix_type           full
_refine_ls_number_parameters     294
_refine_ls_number_reflns         4478
_refine_ls_number_restraints     0
_refine_ls_restrained_S_all      1.017
_refine_ls_R_factor_all          0.0760
_refine_ls_R_factor_gt           0.0417
_refine_ls_shift/su_max          0.001
_refine_ls_shift/su_mean         0.000
_refine_ls_structure_factor_coef Fsqd
_refine_ls_weighting_details
'w=1/[\s^2^(Fo^2^)+(0.0293P)^2^+7.0943P] where P=(Fo^2^+2Fc^2^)/3'
_refine_ls_weighting_scheme      calc
_refine_ls_wR_factor_gt          0.0803
_refine_ls_wR_factor_ref         0.0901
_reflns_Friedel_coverage         0.000
_reflns_number_gt                3179
_reflns_number_total             4478
_reflns_threshold_expression     'I > 2\s(I)'
_cod_data_source_file            d3sc05603a2.cif
_cod_data_source_block           jd419_sq
_cod_depositor_comments          'Adding full bibliography for 1570521.cif.'
_cod_original_cell_volume        4868.5(5)
_cod_database_code               1570521
_shelx_shelxl_version_number     2018/3
_shelx_space_group_comment
;
The symmetry employed for this shelxl refinement is uniquely defined
by the following loop, which should always be used as a source of
symmetry information in preference to the above space-group names.
They are only intended as comments.
;
_shelx_estimated_absorpt_t_min   0.824
_shelx_estimated_absorpt_t_max   0.941
_shelx_res_file
;
TITL mo_k18_JD_419_0ma_a.res in Pbcn
    jd419_sq.res
    created by SHELXL-2018/3 at 15:30:04 on 13-Jan-2021
REM Old TITL mo_k18_JD_419_0ma in Pbcn
REM SHELXT solution in Pbcn
REM R1 0.156,  Rweak 0.006,  Alpha 0.036,  Orientation as input
REM Formula found by SHELXT:  C14 N3 O7 F6 S2 Fe
CELL  0.71073  35.6625   8.8757  15.3809   90.000   90.000   90.000
ZERR    8.000   0.0023   0.0006   0.0009    0.000    0.000    0.000
LATT  1
SYMM 1/2-X, 1/2-Y, 1/2+Z
SYMM -X, Y, 1/2-Z
SYMM 1/2+X, 1/2-Y, -Z
SFAC C H N O F S FE
UNIT 104 200 24 56 48 16 8
LIST 4 ! automatically inserted. Change 6 to 4 for CHECKCIF!!
ACTA
TEMP -173.430
SIZE 0.07 0.07 0.23
L.S. 5 0   26
BOND $H
FMAP 2
PLAN 20
ABIN
WGHT    0.029300    7.094300
FVAR       0.07675   0.50597   0.92503
FE01  7    0.360480    0.315510    0.226438    11.00000    0.01401    0.01159 =
         0.00955    0.00055    0.00109    0.00009
F1    5    0.460071    0.469367    0.333566    11.00000    0.04771    0.05249 =
         0.06732    0.01542   -0.00790   -0.02571
O1    4    0.416785    0.170116    0.469351    11.00000    0.04783    0.07170 =
         0.03526    0.03255   -0.01526   -0.01687

S1    6    0.411784    0.290344    0.410008    11.00000    0.01681    0.04370 =
         0.01388    0.00002   -0.00228   -0.00046
C1    1    0.317019    0.557723    0.326984    11.00000    0.03244    0.01799 =
         0.01719   -0.00265    0.00790    0.00242
AFIX 137
H1A   2    0.309531    0.662548    0.336938    11.00000   -1.50000
H1B   2    0.331977    0.522135    0.376330    11.00000   -1.50000
H1C   2    0.294587    0.494792    0.321003    11.00000   -1.50000
AFIX   0
N1    3    0.339724    0.548150    0.246068    11.00000    0.01750    0.01393 =
         0.01380   -0.00076    0.00279    0.00078
S2    6    0.309706    0.049115    0.331037    11.00000    0.01907    0.01522 =
         0.01354    0.00025    0.00227   -0.00202
F2    5    0.479520    0.244905    0.351049    11.00000    0.02229    0.06147 =
         0.06607   -0.02899    0.00520    0.00455
O2    4    0.393896    0.423442    0.442691    11.00000    0.02876    0.07111 =
         0.03528   -0.02831   -0.00168    0.01810
C2    1    0.279656    0.293428    0.140665    11.00000    0.01557    0.03261 =
         0.02120    0.00438   -0.00489   -0.00389
AFIX 137
H2A   2    0.263718    0.310368    0.089690    11.00000   -1.50000
H2B   2    0.271163    0.357675    0.188596    11.00000   -1.50000
H2C   2    0.278046    0.187472    0.158192    11.00000   -1.50000
AFIX   0
N2    3    0.319066    0.330916    0.118744    11.00000    0.01861    0.01553 =
         0.01334   -0.00111    0.00065    0.00050
C3    1    0.389443    0.023129    0.148745    11.00000    0.03865    0.01286 =
         0.02655    0.00007    0.00358    0.00327
AFIX 137
H3A   2    0.363329   -0.011005    0.146422    11.00000   -1.50000
H3B   2    0.399493    0.006108    0.207228    11.00000   -1.50000
H3C   2    0.404363   -0.033426    0.106343    11.00000   -1.50000
AFIX   0
N3    3    0.391169    0.185320    0.128028    11.00000    0.02308    0.01320 =
         0.01310   -0.00050    0.00161    0.00097
O3    4    0.399268    0.245659    0.323812    11.00000    0.02085    0.02639 =
         0.01256    0.00177   -0.00228   -0.00107
F3    5    0.477170    0.393211    0.459614    11.00000    0.02973    0.08978 =
         0.04080   -0.02859   -0.01028   -0.00734
F4    5    0.308775    0.170063    0.485952    11.00000    0.04092    0.03720 =
         0.02256   -0.01264   -0.00129   -0.00666
O4    4    0.322542    0.193866    0.297182    11.00000    0.01795    0.01892 =
         0.02152    0.00672    0.00184   -0.00484
C4    1    0.316311    0.592852    0.169790    11.00000    0.02928    0.01524 =
         0.02383    0.00464   -0.00117    0.00479
AFIX  23
H4A   2    0.322702    0.697304    0.152753    11.00000   -1.20000
H4AB  2    0.289536    0.591060    0.186747    11.00000   -1.20000
AFIX   0
O5    4    0.338831   -0.046953    0.362733    11.00000    0.02686    0.01983 =
         0.02698    0.00463    0.00443    0.00903
F5    5    0.267333   -0.002270    0.466349    11.00000    0.03475    0.02375 =
         0.03099    0.00694    0.01660   -0.00324
C5    1    0.322099    0.489249    0.092323    11.00000    0.02719    0.02076 =
         0.01705    0.00517   -0.00353    0.00284
AFIX  23
H5A   2    0.303032    0.511501    0.047337    11.00000   -1.20000
H5AB  2    0.347171    0.507603    0.066801    11.00000   -1.20000
AFIX   0
F6    5    0.259725    0.216061    0.409728    11.00000    0.03102    0.02653 =
         0.04125    0.00556    0.00924    0.01236
O6    4    0.281246   -0.019603    0.278523    11.00000    0.03414    0.02893 =
         0.02366   -0.00363   -0.00400   -0.01460
C6    1    0.331635    0.225833    0.049687    11.00000    0.03114    0.02368 =
         0.01284   -0.00400   -0.00322    0.00158
AFIX  23
H6A   2    0.320979    0.258769   -0.006627    11.00000   -1.20000
H6AB  2    0.321719    0.124002    0.062387    11.00000   -1.20000
AFIX   0
C7    1    0.373647    0.217121    0.041600    11.00000    0.03479    0.02564 =
         0.01311   -0.00272    0.00091    0.00125
AFIX  23
H7A   2    0.380446    0.136369    0.000091    11.00000   -1.20000
H7AB  2    0.383386    0.313675    0.018611    11.00000   -1.20000
AFIX   0
O008  4    0.405298    0.460327    0.180977    11.00000    0.01880    0.01526 =
         0.02492   -0.00018    0.00979   -0.00118
C8    1    0.430867    0.234056    0.128763    11.00000    0.01943    0.02419 =
         0.02540   -0.00247    0.00858    0.00389
AFIX  23
H8A   2    0.444087    0.189419    0.078366    11.00000   -1.20000
H8AB  2    0.443144    0.197107    0.182410    11.00000   -1.20000
AFIX   0
C9    1    0.433924    0.404317    0.124723    11.00000    0.01451    0.03036 =
         0.02046   -0.00188    0.00699    0.00305
AFIX  23
H9A   2    0.458955    0.437861    0.144720    11.00000   -1.20000
H9AB  2    0.429971    0.440546    0.064541    11.00000   -1.20000
AFIX   0
C10   1    0.401464    0.619873    0.186358    11.00000    0.02863    0.01141 =
         0.02918   -0.00021    0.00736   -0.00737
AFIX  23
H10A  2    0.392602    0.661705    0.130340    11.00000   -1.20000
H10B  2    0.425737    0.667372    0.201327    11.00000   -1.20000
AFIX   0
C11   1    0.373096    0.647028    0.256824    11.00000    0.02606    0.01261 =
         0.02819   -0.00087    0.00180   -0.00205
AFIX  23
H11A  2    0.384754    0.627480    0.314138    11.00000   -1.20000
H11B  2    0.365093    0.753804    0.255375    11.00000   -1.20000
AFIX   0
C12   1    0.459538    0.353141    0.388265    11.00000    0.02450    0.03986 =
         0.03011   -0.00701   -0.00362   -0.00180
C13   1    0.285089    0.112005    0.428051    11.00000    0.02209    0.01632 =
         0.02291   -0.00089   -0.00021    0.00151
RESI 1
RESI 0
HKLF 4




REM  mo_k18_JD_419_0ma_a.res in Pbcn
REM wR2 = 0.0901, GooF = S = 1.017, Restrained GooF = 1.017 for all data
REM R1 = 0.0417 for 3179 Fo > 4sig(Fo) and 0.0760 for all 4478 data
REM 294 parameters refined using 0 restraints

END

WGHT      0.0293      7.0944

REM Highest difference peak  0.353,  deepest hole -0.336,  1-sigma level  0.080
Q1    1   0.4636  0.3299  0.5058  11.00000  0.05    0.35
Q2    1   0.3893  0.2397  0.4628  11.00000  0.05    0.34
Q3    1   0.3897  0.2955  0.4692  11.00000  0.05    0.33
Q4    1   0.4170  0.0935  0.4066  11.00000  0.05    0.32
Q5    1   0.4522  0.4858  0.4037  11.00000  0.05    0.30
Q6    1   0.3485  0.0466  0.0972  11.00000  0.05    0.29
Q7    1   0.3880  0.2006  0.0844  11.00000  0.05    0.28
Q8    1   0.4688  0.1853  0.2583  11.00000  0.05    0.28
Q9    1   0.4192  0.6160  0.2230  11.00000  0.05    0.28
Q10   1   0.4194  0.2504  0.0822  11.00000  0.05    0.27
Q11   1   0.2445 -0.0554  0.2984  11.00000  0.05    0.27
Q12   1   0.4469  0.5520  0.0798  11.00000  0.05    0.26
Q13   1   0.4604  0.4544  0.4560  11.00000  0.05    0.26
Q14   1   0.3801 -0.0234  0.0809  11.00000  0.05    0.26
Q15   1   0.4495  0.6526  0.2204  11.00000  0.05    0.26
Q16   1   0.2798  0.0699  0.2573  11.00000  0.05    0.26
Q17   1   0.2794 -0.1643  0.3192  11.00000  0.05    0.25
Q18   1   0.3494  0.1495  0.0571  11.00000  0.05    0.25
Q19   1   0.3498  0.2593  0.1637  11.00000  0.05    0.25
Q20   1   0.3095  0.1680  0.5806  11.00000  0.05    0.25
;
_shelx_res_checksum              8184
_shelx_hkl_file
;
   0  -1   0    0.11    0.15
   0   1   0   -0.18    0.17
   0   1   0   -0.03    0.16
   0  -1   0    0.01    0.19
   0   2   0  149.89    5.56
   0   2   0  152.85    5.48
   0  -2   0  141.58    5.56
   0  -2   0  166.01    5.52
   0  -3   0    0.46    0.53
   0   3   0    0.48    0.43
   0   3   0   -0.32    0.38
   0  -3   0   -0.13    0.63
   0   4   0  259.56    9.47
   0   4   0  258.20    9.72
   0  -4   0  270.28    9.58
   0   5   0   -0.38    0.90
   0  -5   0    1.07    0.89
   0   5   0    1.12    0.66
   0   6   0   97.49    4.42
   0   6   0  105.12    4.83
   0   7   0    1.81    1.29
   0   7   0   -1.14    1.46
   0   8   0   85.84    4.23
   0   9   0   -0.11    2.26
   0  10   0    1.05    2.90
   0  -1   1   -0.02    0.18
   0   1   1    0.02    0.17
   0  -1   1    0.06    0.20
   0  -1  -1    0.04    0.07
   0  -1  -1    0.09    0.17
   0  -1  -1    0.02    0.05
   0   1  -1    0.03    0.18
   0   1  -1    0.10    0.18
   0  -2   1   42.96    1.83
   0  -2   1   41.61    1.78
   0   2  -1   41.91    1.79
   0   2   1   41.65    1.79
   0  -2  -1   42.13    1.78
   0   2   1   39.54    1.57
   0  -2  -1   35.37    1.61
   0   2  -1   41.54    1.76
   0   3  -1   -0.04    0.42
   0  -3  -1   -0.40    0.40
   0   3   1   -0.36    0.31
   0  -3  -1    0.14    0.57
   0   3  -1    0.05    0.42
   0  -3   1    0.19    0.53
   0   3   1   -0.37    0.49
   0  -3   1    0.21    0.47
   0   4  -1   83.34    3.71
   0   4  -1   88.64    3.60
   0  -4  -1   84.17    3.53
   0   4   1   89.72    3.90
   0   4   1   79.44    3.33
   0  -4   1   88.82    3.71
   0   5   1   -0.47    0.97
   0   5  -1    2.07    1.18
   0   5  -1   -0.92    0.88
   0   5   1    1.29    0.55
   0  -5  -1   -0.32    0.78
   0   6   1   16.79    1.96
   0   6  -1   12.73    1.75
   0   6  -1   13.65    1.73
   0   6   1   11.96    1.34
   0   7  -1    0.24    1.47
   0   7  -1    1.41    1.35
   0   7   1   -1.46    1.12
   0   7   1    2.74    1.84
   0   8  -1    1.76    2.31
   0   8  -1    5.26    1.79
   0   8   1    5.72    2.05
   0   9   1   -0.43    2.45
   0   9  -1    1.95    2.31
   0  10   1   15.15    3.32
   0   0   2  372.47   12.38
   0   0  -2  346.11   12.31
   0   1   2    0.25    0.19
   0  -1   2    0.20    0.26
   0  -1  -2   -0.14    0.18
   0  -1   2    0.02    0.28
   0   1  -2    0.25    0.26
   0  -2  -2   30.19    1.20
   0  -2   2   32.18    1.55
   0   2   2   30.15    1.46
   0  -2  -2   29.92    1.46
   0  -2   2   31.74    1.52
   0   2  -2   28.59    1.46
   0   2  -2   33.39    1.55
   0  -3  -2    0.03    0.34
   0  -3  -2   -1.07    0.58
   0  -3   2   -0.06    0.55
   0   3   2    0.14    0.22
   0   3  -2   -0.10    0.46
   0   3  -2   -0.40    0.50
   0   3   2    0.47    0.60
   0   3   2   -0.09    0.16
   0  -3   2    0.37    0.56
   0  -4  -2    8.54    0.90
   0   4   2    7.04    1.98
   0   4  -2    8.26    1.19
   0  -4   2   10.95    1.30
   0   4   2    9.41    0.72
   0   4  -2    7.89    1.08
   0  -4  -2    7.67    1.20
   0   5  -2   -1.52    0.82
   0   5   2    1.50    1.21
   0  -5  -2    0.39    0.72
   0   5  -2   -0.54    0.81
   0   5   2    1.37    0.51
   0   6  -2   17.64    2.29
   0   6   2   13.19    1.80
   0   6  -2   14.30    1.93
   0   6   2   11.97    1.18
   0   7   2    0.69    0.62
   0   7   2   -0.01    1.61
   0   7  -2   -1.79    1.32
   0   7  -2    0.19    1.32
   0   7   2    0.49    0.77
   0   8   2   66.22    4.61
   0   8  -2   65.88    3.93
   0   8  -2   63.53    4.29
   0   9  -2   -0.24    2.05
   0   9  -2    1.78    2.25
   0   9   2    0.73    2.51
   0  10   2    3.61    2.97
   0   0   3   -0.01    0.11
   0   0  -3    0.03    0.11
   0   1   3    0.11    0.18
   0  -1  -3   -0.02    0.15
   0   1  -3    0.21    0.31
   0  -2   3   15.32    1.09
   0  -2  -3   16.00    0.93
   0  -2   3   16.44    1.17
   0   2  -3   15.61    1.05
   0   2   3   16.22    0.98
   0  -3   3   -0.97    0.68
   0   3   3    0.57    0.54
   0   3  -3   -0.10    0.58
   0   3  -3   -0.76    0.50
   0  -3  -3   -0.12    0.31
   0  -3  -3    0.07    0.55
   0  -3   3   -0.12    0.60
   0  -4  -3  194.01    7.30
   0   4   3  185.62    7.32
   0   4  -3  196.93    7.34
   0   4  -3  181.51    7.28
   0  -4  -3  197.77    6.96
   0   5   3    0.00    0.90
   0   5  -3   -0.48    0.96
   0  -5  -3    0.90    0.72
   0   5  -3   -0.39    0.89
   0   6  -3   16.85    2.34
   0  -6  -3   20.24    1.80
   0   6  -3   16.97    2.13
   0   6   3   20.02    2.54
   0   6   3   20.82    1.03
   0   6   3   19.99    0.92
   0   7  -3    0.57    1.53
   0   7  -3    1.44    1.75
   0   7   3   -0.14    1.81
   0   8  -3   -0.61    1.77
   0   8  -3   -0.31    1.86
   0   8   3    5.59    2.57
   0   9  -3   -1.78    2.01
   0   9   3   -1.19    2.38
   0  10   3    3.30    3.18
   0   0  -4  166.38    5.71
   0   0   4  162.00    5.71
   0   1   4    0.13    0.22
   0  -1  -4    0.06    0.17
   0  -1   4    0.06    0.19
   0   1  -4   -0.48    0.38
   0  -2   4    2.06    0.63
   0   2  -4    2.54    0.56
   0  -2   4    2.20    0.58
   0   2   4    3.08    0.51
   0  -2  -4    2.91    0.42
   0  -3  -4    0.02    0.23
   0   3   4   -0.65    0.53
   0  -3   4   -0.31    0.68
   0   3  -4   -0.11    0.63
   0  -3  -4    0.70    0.51
   0  -3   4    0.69    0.76
   0  -3  -4    0.03    0.13
   0   4  -4   61.91    2.96
   0  -4  -4   61.52    2.45
   0  -4  -4   58.05    2.81
   0   4   4   57.12    2.90
   0   4  -4   62.20    3.00
   0   5   4    0.11    1.15
   0   5  -4   -0.24    0.97
   0  -5  -4   -0.16    0.71
   0   5  -4    0.97    1.19
   0  -6  -4   91.67    4.00
   0   6   4   97.97    4.76
   0   6  -4   94.84    4.56
   0   6  -4   90.01    4.54
   0   7  -4   -0.18    1.52
   0   7   4    0.49    1.80
   0   8  -4   10.21    2.21
   0   8   4    9.71    2.35
   0   9   4    1.22    2.45
   0   9  -4    1.61    2.29
   0  10   4    2.69    3.42
   0   0  -5    0.49    0.30
   0   0  -5   -0.09    0.19
   0   0   5    0.14    0.18
   0   1  -5   -0.30    0.40
   0   1   5    0.20    0.25
   0  -1   5   -0.28    0.21
   0  -1  -5    0.09    0.17
   0  -2   5   19.95    1.51
   0  -2  -5   23.87    1.08
   0   2   5   23.70    1.21
   0   3  -5    0.56    0.72
   0   3   5   -0.20    0.64
   0  -3  -5    0.46    0.44
   0   4  -5    1.11    0.99
   0  -4  -5   -0.81    0.77
   0  -4  -5   -0.34    0.42
   0   4   5    0.08    1.01
   0  -5  -5   -0.98    0.63
   0   5  -5   -0.26    1.01
   0   5   5   -0.12    1.05
   0  -6  -5   29.73    1.83
   0   6   5   23.46    2.61
   0   6  -5   25.08    2.55
   0   7  -5    0.11    1.62
   0   7   5   -1.15    1.76
   0   8  -5    0.51    2.09
   0   8   5    0.97    2.26
   0   9   5   -1.69    2.67
   0   9  -5    3.37    2.59
   0  10  -5    6.91    2.99
   0  10   5   16.76    4.03
   0   0  -6   21.11    1.15
   0   0   6   19.41    0.90
   0   0  -6   20.76    0.89
   0  -1   6    0.23    0.26
   0   1   6    0.41    0.27
   0  -1  -6    0.05    0.19
   0   1  -6    0.45    0.49
   0   2   6  184.23    6.51
   0  -2  -6  187.00    6.37
   0  -2   6  168.41    6.73
   0  -2   6  185.62    6.46
   0   2  -6  174.04    6.84
   0   3   6   -0.54    0.61
   0  -3  -6    0.45    0.41
   0   3  -6    0.95    0.83
   0  -4  -6   12.73    0.62
   0   4   6   15.28    1.64
   0  -4  -6   14.76    1.24
   0   4  -6   12.90    1.69
   0   5   6    1.22    1.33
   0   5  -6   -1.46    1.14
   0   6  -6   31.90    2.86
   0   6   6   31.09    2.87
   0  -6  -6   34.48    1.91
   0   7   6   -1.09    2.02
   0   7  -6    0.82    1.79
   0   8   6    1.04    2.27
   0   8  -6    2.19    2.46
   0   9  -6    1.16    2.51
   0   9   6    3.16    3.34
   0  10  -6   36.26    4.13
   0  10   6   42.71    5.93
   0   0   7    0.55    0.29
   0   0  -7    0.22    0.28
   0   0  -7    0.00    0.42
   0   1  -7   -0.25    0.62
   0   1   7   -0.25    0.31
   0  -1   7   -0.26    0.27
   0  -1  -7   -0.40    0.25
   0   2   7  187.48    6.72
   0  -2   7  182.43    6.68
   0  -2  -7  186.28    6.58
   0   2  -7  186.53    7.13
   0  -2   7  188.43    7.03
   0   3   7    1.19    0.61
   0  -3   7   -0.05    0.54
   0  -3  -7   -0.88    0.37
   0   3  -7    0.81    0.89
   0  -4  -7  100.17    4.03
   0   4  -7  105.76    4.71
   0   4   7   99.63    4.38
   0  -5  -7    1.12    0.54
   0   5   7   -2.29    1.26
   0   5  -7   -0.45    1.08
   0   6   7   45.02    3.47
   0   6  -7   40.94    3.30
   0   7  -7    1.50    2.36
   0   7   7    0.64    2.14
   0   8   7    0.34    2.72
   0   8  -7   -0.53    2.24
   0   9  -7   -0.42    2.45
   0   9   7    4.07    3.49
   0   0  -8    0.63    0.29
   0   0   8   -0.50    0.29
   0   0  -8   -0.15    0.55
   0   1   8    0.23    0.33
   0  -1  -8    0.03    0.41
   0  -1  -8   -0.12    0.27
   0  -1   8    0.77    0.33
   0   1  -8   -0.70    0.69
   0   2  -8   82.07    3.80
   0  -2  -8   88.56    3.17
   0  -2   8   83.96    3.36
   0   2   8   88.59    3.37
   0  -3  -8   -0.06    0.44
   0  -3   8   -0.28    0.56
   0   3   8   -0.75    0.81
   0   3  -8   -0.83    0.80
   0  -4   8    6.90    0.99
   0   4  -8    8.62    1.49
   0  -4  -8    8.03    1.12
   0   4   8    9.46    1.41
   0   5  -8   -0.09    1.28
   0   5   8   -1.12    1.27
   0  -5  -8    0.27    0.66
   0   6   8   80.94    4.48
   0   6  -8   79.79    4.65
   0   7   8    3.69    2.30
   0   7  -8    3.08    2.26
   0   8   8    9.17    3.11
   0   8  -8    5.69    2.55
   0   9   8    5.67    3.54
   0   9  -8   -1.96    2.67
   0   0  -9   -0.34    0.67
   0   0  -9    0.12    0.38
   0   0   9    0.49    0.34
   0  -1   9    0.57    0.37
   0  -1  -9    0.57    0.46
   0   1  -9    1.23    0.96
   0   1   9    0.17    0.38
   0  -1  -9    0.06    0.30
   0  -2  -9    2.65    0.48
   0  -2  -9    3.63    0.44
   0   2  -9    1.80    0.97
   0  -2   9    4.52    0.72
   0   2   9    3.65    0.68
   0  -3   9    0.24    0.64
   0   3  -9   -1.50    0.92
   0  -3  -9    0.25    0.44
   0   3   9   -0.22    0.73
   0   4  -9    4.26    1.63
   0  -4  -9    4.94    0.82
   0  -4   9    4.46    0.89
   0   5   9    2.33    1.55
   0  -5   9   -1.28    0.90
   0   5  -9   -0.86    1.23
   0  -5  -9   -0.17    0.27
   0   6   9   18.53    2.26
   0  -6   9   15.15    1.81
   0   6  -9   17.62    2.62
   0   7  -9   -1.03    2.24
   0   7   9    0.25    2.14
   0   8   9    4.00    3.13
   0   8  -9    4.43    2.63
   0   9  -9   -2.52    2.80
   0  -9   9   -0.02    2.30
   0   0 -10   37.76    2.22
   0   0  10   39.63    1.70
   0  -1  10    0.51    0.62
   0   1 -10   -1.11    0.78
   0  -1 -10    0.38    0.39
   0   1  10   -0.36    0.47
   0   2  10   52.50    2.34
   0  -2 -10   51.68    2.08
   0  -2 -10   51.59    2.25
   0  -2  10   52.84    2.29
   0   2 -10   51.69    3.12
   0  -3 -10    0.06    0.42
   0  -3 -10    0.55    0.43
   0   3  10    0.56    0.86
   0  -3  10    0.11    0.73
   0   3 -10   -1.59    1.02
   0   4 -10    4.29    1.75
   0  -4  10    4.67    1.05
   0  -5  10   -0.65    0.97
   0   5  10    1.53    1.81
   0   5 -10    0.00    1.86
   0  -5 -10    0.06    0.34
   0  -6  10   11.57    1.96
   0   6  10   10.78    2.13
   0   6 -10    7.74    2.14
   0   7 -10    0.53    2.48
   0  -7  10   -0.81    1.48
   0   7  10   -0.47    2.31
   0   8 -10    1.49    2.77
   0  -8  10   -1.22    1.86
   0  -9  10   -3.37    2.25
   0   0  11   -0.42    0.50
   0   0 -11    0.02    0.76
   0   1 -11   -0.27    0.94
   0   1  11   -0.60    0.55
   0  -1 -11    0.47    0.43
   0  -1  11   -0.14    0.62
   0  -1 -11   -0.06    0.83
   0  -2  11   10.99    1.19
   0   2 -11   17.21    2.18
   0   2  11   16.19    1.30
   0  -2 -11   14.17    0.90
   0  -2 -11   14.93    1.39
   0   3  11   -0.64    1.00
   0  -3 -11   -0.40    0.55
   0  -3  11    1.92    0.84
   0  -3 -11   -0.49    0.48
   0   3 -11   -1.73    1.23
   0   4  11   45.98    3.68
   0  -4  11   43.84    2.42
   0   4 -11   46.80    3.47
   0   5  11    1.90    1.99
   0   5 -11   -1.50    1.70
   0  -5  11    1.37    1.27
   0  -6  11   -0.74    1.22
   0   6 -11   -1.20    1.97
   0   6  11   -1.35    2.03
   0  -7  11   -0.93    1.50
   0   7 -11    1.92    2.81
   0  -8  11    3.76    1.97
   0   8 -11    6.49    3.17
   0   0 -12   13.46    1.86
   0   0  12   12.26    1.67
   0  -1  12    0.40    0.70
   0  -1 -12    1.22    0.43
   0   1 -12    0.17    1.12
   0  -1 -12   -0.54    0.85
   0   1  12   -0.20    0.63
   0   2 -12   14.75    2.30
   0   2  12   18.91    1.50
   0  -2 -12   19.44    1.69
   0  -2  12   18.54    1.40
   0   3 -12    0.42    1.60
   0  -3 -12   -0.26    0.72
   0   3  12    0.07    1.15
   0  -3  12   -0.78    0.77
   0   4 -12   11.06    2.04
   0   4  12   15.92    2.14
   0  -4  12   11.29    1.53
   0   5 -12   -0.37    1.99
   0  -5  12   -0.71    1.10
   0   6 -12    9.31    2.59
   0  -6  12   12.87    1.80
   0   7 -12    5.30    3.24
   0  -7  12    3.21    1.76
   0  -8  12    1.83    2.06
   0   8 -12    2.86    3.05
   0   0 -13    1.52    1.00
   0   0  13    0.10    0.82
   0   1 -13    0.61    1.21
   0  -1  13    0.99    0.77
   0  -1 -13    0.68    1.06
   0   1  13    0.18    0.78
   0   2  13   38.43    2.23
   0  -2 -13   39.66    2.40
   0   2 -13   45.74    3.23
   0  -2  13   38.35    2.06
   0  -3  13   -0.17    0.94
   0  -3 -13   -1.05    0.95
   0   3 -13    0.92    1.68
   0   4 -13   34.11    3.50
   0  -4  13   43.80    2.44
   0  -5  13   -0.98    1.23
   0   5 -13    1.20    2.35
   0  -6  13    4.72    1.52
   0   6 -13    0.14    2.47
   0  -7  13   -1.57    1.68
   0   7 -13    1.24    2.92
   0   0  14   26.54    1.84
   0   0 -14   30.56    2.64
   0   1 -14   -0.71    1.46
   0  -1 -14    1.60    1.26
   0  -1  14   -0.50    0.79
   0  -2 -14   19.63    2.11
   0  -2  14   19.10    1.69
   0   3 -14   -1.94    1.63
   0  -3  14   -1.52    0.95
   0   4 -14    0.86    2.06
   0  -4  14    1.51    1.22
   0  -5  14    1.18    1.39
   0   5 -14   -1.80    2.33
   0   6 -14    4.52    2.81
   0  -6  14    8.36    1.73
   0  -7  14    1.23    1.96
   0   0 -15   -0.65    1.50
   0  -1 -15   -0.37    1.37
   0   1 -15   -0.98    1.44
   0   2 -15    6.78    1.79
   0  -2 -15    8.98    1.72
   0  -2  15    8.23    1.32
   0  -3  15   -0.75    1.19
   0   3 -15   -1.77    1.81
   0   4 -15   15.23    2.93
   0  -4  15   13.99    1.63
   0   5 -15   -2.30    2.40
   0  -5  15    2.61    1.63
   0  -6  15   25.67    3.01
   0   6 -15   39.09    5.42
   0   0 -16   37.67    3.26
   0  -1 -16    1.84    1.77
   0   1 -16   -2.00    1.64
   0   2 -16   11.23    2.38
   0   3 -16   -0.15    2.38
   0   4 -16   23.63    3.39
   0   5 -16   -2.56    2.85
   0  -5  16   -0.80    1.48
   0   0 -17    0.47    2.06
   0   1 -17    4.36    2.38
   0   2 -17   23.61    3.15
   0   3 -17    4.01    2.49
   0   4 -17   45.38    5.12
   0   0 -18    8.87    2.55
   0   1 -18   -3.65    2.27
   0   2 -18   -1.25    2.47
   1   1   0  197.10    6.95
  -1   1   0  207.29    7.01
  -1  -1   0  184.46    7.01
  -1  -1   0  204.07    6.98
   1   1   0  210.83    6.99
  -1   1   0  192.35    6.96
  -1  -2   0    0.00    0.26
   1   2   0   -0.44    0.26
   1   2   0    0.10    0.32
  -1   2   0   -0.19    0.32
  -1  -2   0   -0.10    0.41
   1  -2   0   -0.28    0.40
  -1   2   0    0.15    0.26
   1  -2   0    0.27    0.31
  -1   3   0    4.88    0.67
   1  -3   0    5.49    0.70
   1   3   0    4.96    0.71
  -1  -3   0    5.21    0.78
   1   3   0    4.45    0.68
  -1   3   0    4.63    0.68
  -1  -3   0    4.57    0.88
   1  -3   0    4.11    0.78
   1  -4   0    0.15    0.58
  -1   4   0    0.04    0.86
  -1   4   0    0.53    0.52
   1   4   0   -0.35    0.69
  -1  -4   0   -0.26    0.53
   1   4   0   -0.37    0.46
   1   5   0    2.49    1.08
  -1  -5   0    2.89    0.94
  -1   5   0    1.64    0.92
   1  -5   0    1.68    1.03
  -1   5   0    2.42    0.78
   1   5   0    0.88    0.67
   1   6   0   -0.43    1.17
  -1   6   0    0.77    1.07
  -1   6   0   -0.53    1.13
   1   6   0    1.71    1.10
  -1   7   0    3.02    1.94
   1   7   0    1.39    1.14
  -1   7   0    1.99    1.24
   1   7   0    1.01    1.67
   1   8   0   -0.89    2.24
  -1   8   0   -1.45    1.32
   1   8   0   -0.74    1.42
   1   9   0    1.82    2.32
  -1   9   0   -1.26    2.30
  -1  10   0   -0.85    2.62
  -1  -1  -1  517.79   18.32
  -1   1   1  510.83   18.28
  -1   1   1  526.85   18.36
  -1  -1  -1  537.75   18.25
   1  -1   1  531.00   18.38
  -1   1  -1  550.07   18.38
   1   1   1  535.20   18.32
   1  -1  -1  538.66   18.35
   1  -1  -1  555.92   18.36
  -1  -1   1  540.22   18.38
   1  -1  -1  514.84   18.25
   1  -2   1   37.23    1.86
  -1  -2  -1   44.14    1.74
   1   2  -1   46.26    1.91
  -1   2   1   45.97    1.92
  -1  -2  -1   42.56    1.92
   1  -2   1   47.51    2.02
   1   2  -1   43.79    1.87
  -1   2   1   45.35    1.73
   1   2   1   46.51    1.88
   1   2   1   46.23    1.69
   1  -2  -1   45.05    1.94
  -1   2  -1   46.48    1.89
   1  -2  -1   44.94    1.77
  -1  -2   1   42.24    1.90
  -1  -2   1   45.57    1.95
  -1   2  -1   42.99    1.94
  -1   3   1  151.89    5.42
  -1   3   1  145.51    5.12
  -1  -3  -1  143.67    5.18
   1   3  -1  140.99    5.29
   1  -3   1  138.94    5.31
   1   3  -1  145.90    5.36
  -1  -3  -1  139.82    5.36
   1  -3   1  140.81    5.42
  -1   3  -1  132.92    5.35
   1   3   1  134.21    5.06
   1   3   1  132.60    5.31
  -1   3  -1  142.73    5.30
   1  -3  -1  138.50    5.18
  -1  -3   1  144.69    5.41
   1  -3  -1  137.91    5.38
  -1  -3   1  140.10    5.31
  -1   4   1   20.39    1.27
   1  -4   1   19.30    1.55
  -1   4   1   23.51    1.75
  -1  -4  -1   19.93    1.49
   1   4  -1   20.22    1.42
   1   4  -1   21.44    1.69
  -1   4  -1   20.97    1.67
  -1  -4   1   20.85    1.58
   1  -4  -1   20.39    1.45
   1   4   1   19.68    1.19
  -1   4  -1   19.93    1.48
   1   5  -1   41.02    2.48
   1   5  -1   41.39    2.48
  -1   5   1   40.72    2.05
  -1  -5  -1   43.27    2.35
  -1   5  -1   41.26    2.57
   1   5   1   39.77    2.55
   1  -5  -1   44.21    2.23
  -1   5  -1   40.69    2.45
   1   5   1   43.35    1.99
  -1   6   1    1.93    0.78
   1   6  -1    2.25    1.09
   1   6  -1    0.57    1.25
  -1   6   1    0.09    1.34
   1   6   1    2.43    1.33
  -1   6  -1    2.66    1.35
   1   6   1    0.27    0.81
  -1   6  -1    0.82    1.02
   1   7  -1   50.94    3.00
   1   7  -1   49.96    3.51
  -1   7   1   48.08    2.92
  -1   7   1   44.98    3.50
  -1   7  -1   44.77    3.00
   1   7   1   43.95    3.36
  -1   7  -1   46.59    3.41
   1   7   1   53.24    2.68
  -1   8   1    6.27    2.44
   1   8  -1    4.01    1.66
   1   8  -1    2.51    2.22
   1   8   1    7.13    2.48
  -1   8  -1    6.43    1.73
  -1   8  -1    8.37    2.62
  -1   9   1    8.59    2.80
   1   9  -1    8.36    2.53
  -1   9  -1   10.29    2.71
   1   9   1    9.19    2.65
  -1  10   1   -0.66    3.00
  -1  10  -1    4.83    3.04
   1  10   1    0.90    2.95
   1   0   2   69.46    2.43
   1   0  -2   72.38    2.47
   1   0  -2   71.63    2.53
  -1   0   2   70.47    2.47
  -1   0  -2   66.71    2.43
   1   1  -2   21.19    1.04
  -1  -1  -2   21.11    0.91
   1  -1   2   22.39    1.04
  -1   1   2   21.40    0.94
  -1   1  -2   22.46    1.03
   1   1   2   21.80    0.93
  -1  -1   2   24.07    1.09
  -1   1  -2   21.14    1.01
   1  -1  -2   22.40    0.93
   1   2  -2   52.30    2.22
   1   2  -2   52.48    2.20
   1  -2   2   52.79    2.25
  -1   2   2   54.83    2.19
  -1  -2  -2   53.20    2.15
   1  -2   2   52.63    2.23
  -1  -2  -2   49.34    1.91
  -1  -2   2   50.93    2.24
   1  -2  -2   52.06    1.97
  -1   2  -2   52.54    2.23
  -1   2  -2   51.05    2.21
   1   2   2   53.58    2.15
   1  -2  -2   53.24    2.18
   1  -2  -2   52.94    1.90
  -1  -2   2   56.51    2.28
   1   3  -2   61.77    2.71
   1   3  -2   65.21    2.74
  -1  -3  -2   62.37    2.73
  -1   3   2   61.64    2.30
  -1  -3  -2   63.99    2.45
   1  -3   2   61.14    2.69
  -1   3   2   61.21    2.23
   1  -3  -2   64.70    2.72
   1  -3  -2   64.38    2.48
  -1  -3   2   63.40    2.75
   1   3   2   62.58    2.21
   1   3   2   62.22    2.23
  -1   3  -2   62.11    2.72
  -1  -3   2   59.88    2.81
   1   3   2   58.08    2.66
  -1   3  -2   57.30    2.68
  -1   4   2   23.42    2.21
   1   4  -2   28.29    1.92
   1   4  -2   30.95    1.96
   1  -4   2   28.85    1.88
  -1  -4  -2   29.80    2.12
  -1   4   2   32.54    1.27
  -1   4   2   30.62    1.40
  -1  -4  -2   32.72    1.63
  -1   4  -2   32.42    1.97
   1   4   2   31.03    2.10
   1   4   2   30.46    1.33
   1  -4  -2   31.76    1.65
  -1  -4   2   28.70    1.92
  -1   5   2   35.31    1.69
   1   5  -2   33.65    2.32
   1   5  -2   34.00    2.28
  -1   5   2   33.06    1.54
  -1  -5  -2   35.98    1.96
  -1   5   2   39.35    2.40
  -1   5  -2   35.27    2.34
   1   5   2   36.45    1.66
   1  -5  -2   37.89    2.01
  -1   5  -2   39.95    2.50
   1   5   2   31.62    2.28
  -1   6   2   20.51    2.36
   1   6  -2   20.65    2.16
   1   6  -2   20.45    2.28
  -1   6   2   22.36    1.28
  -1   6   2   24.12    1.52
   1   6   2   23.23    1.44
   1   6   2   25.44    2.34
  -1   6  -2   23.22    2.31
  -1   6  -2   23.75    2.26
   1   7  -2    0.91    1.42
  -1   7   2    2.03    1.78
  -1   7   2   -0.31    0.78
  -1   7   2   -0.02    0.82
   1   7  -2    1.06    1.47
  -1   7  -2    3.98    1.80
   1   7   2    1.01    0.72
  -1   7  -2    0.16    1.59
   1   7   2    4.48    1.99
   1   8  -2    1.51    1.54
   1   8  -2    1.05    1.85
  -1   8   2    0.52    2.19
  -1   8  -2    0.51    1.95
  -1   8  -2    2.38    1.70
   1   8   2    4.08    2.04
   1   9  -2    4.03    2.03
  -1   9   2    8.94    2.74
   1   9   2    4.78    2.75
  -1   9  -2    6.04    2.37
  -1   9  -2    6.51    2.22
  -1  10   2    9.87    3.36
   1  10   2   13.27    3.43
  -1   0  -3   -0.03    0.10
   1   0  -3    0.08    0.13
   1   0  -3    0.12    0.19
  -1   0   3   -0.10    0.12
   1   0   3    0.14    0.10
   1  -1   3  371.50   11.92
  -1  -1  -3  327.65   11.73
  -1   1   3  331.39   11.80
   1   1  -3  346.25   11.97
  -1  -1   3  321.04   11.78
   1  -1  -3  330.88   11.77
  -1   1  -3  347.61   11.96
   1   1   3  333.94   11.77
  -1  -1   3  359.30   11.97
  -1   2   3   16.98    1.07
   1  -2   3   18.43    1.22
  -1  -2  -3   18.99    0.98
   1   2  -3   17.45    1.10
   1  -2  -3   18.28    1.00
   1   2   3   17.41    1.03
  -1  -2   3   16.05    1.20
  -1   2  -3   16.92    1.07
  -1   2  -3   17.54    1.11
  -1  -2   3   17.81    1.14
  -1   3   3    5.30    0.78
   1  -3   3    5.16    0.87
   1  -3   3    5.06    0.81
  -1  -3  -3    4.06    0.61
  -1  -3  -3    5.05    0.79
  -1   3  -3    5.47    0.89
   1   3   3    5.61    0.78
   1  -3  -3    5.37    0.74
  -1  -3   3    5.54    0.91
  -1  -3   3    3.87    0.90
  -1   3  -3    5.39    0.79
   1  -3  -3    5.16    0.54
   1   4  -3    1.29    0.85
   1   4  -3    0.38    0.76
  -1  -4  -3    0.38    0.49
  -1  -4  -3    0.85    0.75
  -1   4  -3   -0.64    0.69
   1   4   3   -0.13    0.83
  -1   4  -3    0.16    0.79
   1  -4  -3    0.20    0.47
   1  -4  -3   -0.44    0.79
   1   5  -3   12.22    1.78
  -1  -5  -3   13.01    1.24
  -1   5   3    9.83    1.46
  -1   5   3   11.76    0.62
   1   5  -3   12.65    1.69
  -1   5  -3   10.60    1.41
   1  -5  -3   11.56    1.24
  -1   5  -3   13.06    1.57
   1   5   3   13.04    1.55
   1   6  -3   61.80    3.46
   1   6  -3   59.38    3.48
  -1   6   3   57.63    2.33
  -1  -6  -3   63.86    3.07
  -1   6   3   60.55    2.28
  -1   6   3   61.44    3.62
   1   6   3   62.78    3.70
  -1   6  -3   66.80    3.46
  -1   6  -3   59.93    3.50
   1  -6  -3   57.41    3.11
   1   7  -3   21.69    2.58
  -1   7   3   19.69    2.47
   1   7   3   21.54    2.73
  -1   7  -3   20.45    2.65
  -1   7  -3   19.90    2.57
  -1   8   3    0.11    2.06
   1   8  -3    0.56    1.68
  -1   8  -3    0.94    1.74
   1   8   3    0.79    2.15
  -1   8  -3   -0.42    1.75
   1   9  -3    6.01    2.54
  -1   9   3    1.58    2.75
  -1   9  -3    0.52    2.16
   1   9   3    5.78    2.98
  -1  10   3    6.87    3.56
   1  10   3   -2.96    2.88
  -1   0  -4   39.65    1.45
  -1   0   4   38.93    1.49
   1   0   4   39.39    1.45
   1   0  -4   38.70    1.62
   1   0  -4   40.86    1.48
  -1   1   4    5.46    0.45
   1  -1   4    4.77    0.55
  -1  -1  -4    5.00    0.34
   1   1  -4    4.55    0.60
  -1  -1   4    4.54    0.42
   1   1   4    5.19    0.42
  -1   1  -4    5.01    0.64
   1  -1  -4    5.51    0.41
  -1  -1   4    4.75    0.68
   1  -2   4   52.21    2.34
   1   2  -4   51.11    2.33
  -1   2   4   51.63    2.16
  -1  -2  -4   50.90    2.04
  -1  -2   4   52.71    2.32
   1   2   4   52.21    2.14
  -1   2  -4   53.33    2.34
   1  -2  -4   51.64    2.08
  -1  -2   4   50.54    2.34
   1  -3   4    4.44    0.98
  -1   3   4    5.40    0.83
  -1  -3  -4    3.78    0.36
  -1  -3  -4    3.42    0.70
   1   3  -4    4.98    0.92
  -1  -3  -4    4.74    0.29
   1   3   4    4.20    0.78
  -1  -3   4    4.23    0.93
  -1  -3   4    6.17    1.02
   1  -3  -4    4.56    0.34
   1  -3  -4    6.35    0.88
  -1   3  -4    4.90    0.94
   1  -3  -4    4.88    0.48
  -1   3  -4    5.11    0.91
   1   4  -4   48.65    2.60
  -1  -4  -4   45.19    2.46
  -1  -4  -4   48.81    2.05
  -1   4  -4   46.07    2.55
   1   4   4   47.28    2.45
  -1   4  -4   48.38    2.58
   1  -4  -4   45.16    2.45
   1  -4  -4   50.96    2.07
  -1   5   4    1.73    1.20
   1   5  -4    0.40    0.97
  -1  -5  -4    1.84    0.81
  -1   5  -4    1.08    1.05
   1  -5  -4    2.55    0.72
  -1   5  -4    2.01    0.99
   1   5   4    0.78    1.06
  -1  -6  -4   13.48    1.59
   1   6  -4   13.15    1.82
  -1   6   4   16.94    2.23
  -1   6  -4   14.71    1.91
   1  -6  -4   10.97    1.65
  -1   6  -4   15.61    1.90
   1   6   4   13.10    1.90
  -1   7   4   -1.67    1.88
   1   7  -4    2.22    1.77
  -1   7  -4    2.01    1.62
   1   7   4    2.66    1.73
  -1   7  -4    0.33    1.59
   1   8  -4    0.72    1.87
  -1   8   4    0.34    2.19
   1   8   4    2.32    2.41
  -1   8  -4    1.95    2.16
   1   9  -4    9.24    2.45
  -1   9   4   13.06    3.40
  -1   9  -4    8.27    3.06
   1   9   4   10.22    2.83
  -1  10   4   32.41    4.25
   1  10   4   23.58    3.93
  -1   0   5   -0.36    0.19
  -1   0  -5    0.14    0.16
   1   0  -5    0.03    0.31
   1   0  -5   -0.13    0.20
   1   0   5    0.12    0.17
  -1  -1  -5   15.75    0.69
   1  -1   5   16.22    0.77
   1   1  -5   13.73    0.99
  -1   1   5   16.49    0.81
  -1   1  -5   16.45    1.08
   1  -1  -5   16.24    0.75
   1   1   5   15.79    0.76
  -1  -1   5   16.25    0.79
   1   2  -5   63.71    3.40
  -1   2   5   71.72    2.89
   1  -2   5   68.60    3.08
  -1  -2  -5   78.29    2.75
   1   2   5   74.53    2.87
   1  -2  -5   76.03    2.78
  -1  -2   5   71.86    2.80
  -1  -2   5   74.78    3.14
  -1  -2   5   81.12    3.14
   1   3  -5    6.29    1.01
  -1   3   5    6.56    0.93
  -1  -3  -5    6.27    0.77
   1  -3  -5    7.26    0.89
   1   3   5    6.30    0.87
  -1   3  -5    7.11    1.03
  -1  -4  -5   53.33    2.45
   1   4  -5   47.86    2.70
   1  -4  -5   49.92    2.09
   1   4   5   49.63    2.60
   1  -4  -5   54.96    2.52
  -1   4  -5   50.56    2.75
  -1   5   5   64.97    3.49
  -1  -5  -5   62.41    2.77
   1   5  -5   63.05    3.47
   1   5   5   66.47    3.43
  -1   5  -5   68.56    3.51
   1  -5  -5   65.48    2.77
  -1  -6  -5   63.59    2.99
   1   6  -5   68.05    3.94
  -1   6   5   63.18    3.88
  -1   6  -5   63.05    3.81
   1   6   5   65.60    3.80
   1  -6  -5   65.18    2.99
  -1   7   5    1.89    1.97
   1   7  -5    0.99    1.69
  -1   7  -5    2.45    1.87
   1   7   5    4.87    2.18
  -1   8   5    9.64    2.82
   1   8  -5    7.56    2.26
  -1   8  -5    4.76    2.27
   1   8   5    9.10    2.57
   1   9  -5   29.52    4.10
  -1   9   5   35.47    4.89
   1   9   5   29.28    3.58
  -1   9  -5   26.47    3.29
   1  10  -5   16.20    3.55
  -1  10   5   12.02    3.48
  -1  10  -5    9.48    3.13
   1  10   5   16.12    3.84
  -1   0  -6   64.57    2.32
   1   0  -6   62.93    2.56
  -1   0   6   62.87    2.36
   1   0  -6   64.71    2.36
   1   0   6   61.74    2.32
  -1   1   6   22.36    1.04
   1   1  -6   21.78    1.36
   1  -1   6   21.62    0.99
  -1  -1  -6   22.54    0.90
  -1   1  -6   20.94    1.33
  -1  -1   6   23.00    1.01
   1  -1  -6   22.54    0.96
   1   1   6   20.78    0.97
   1  -1  -6   18.18    0.98
   1  -2   6   34.82    1.53
  -1  -2  -6   33.95    1.40
   1  -2   6   33.54    1.93
  -1   2   6   36.07    1.62
   1   2  -6   37.24    2.06
  -1   2  -6   31.69    1.94
  -1  -2   6   33.60    1.97
  -1  -2   6   31.44    1.50
   1  -2  -6   34.10    1.44
   1   2   6   34.36    1.56
  -1  -3  -6   61.92    2.52
  -1   3   6   65.07    2.77
   1   3  -6   62.74    3.06
  -1   3  -6   58.68    2.99
   1  -3  -6   61.93    2.54
   1   3   6   63.84    2.72
  -1  -4  -6    2.09    0.36
  -1  -4  -6    2.44    0.31
  -1  -4  -6    2.20    0.71
   1   4  -6    0.34    0.93
   1  -4  -6    2.57    0.44
  -1   4  -6    2.70    1.03
   1  -4  -6    2.12    0.31
   1  -4  -6    0.67    0.83
   1   4   6    2.75    0.88
   1   5  -6   58.30    3.49
  -1   5   6   54.20    3.24
  -1  -5  -6   59.81    2.52
   1   5   6   56.20    3.17
  -1   5  -6   63.83    3.54
   1  -5  -6   62.52    2.56
  -1  -6  -6    4.47    0.92
  -1   6   6    2.20    1.60
   1   6  -6    3.70    1.69
   1  -6  -6    4.80    0.89
   1   6   6    5.82    1.61
  -1   6  -6    4.89    1.74
   1   7  -6   10.30    2.14
  -1   7   6    9.84    2.20
  -1   7  -6    7.46    2.03
   1   7   6    7.94    2.08
   1   8  -6    7.55    2.37
  -1   8   6    7.00    2.61
  -1   8  -6    7.45    2.48
   1   8   6   10.60    2.48
  -1   9   6    5.83    3.03
   1   9  -6   10.55    3.10
  -1   9  -6    4.05    2.54
   1   9   6   -2.84    2.76
   1  10  -6   -0.36    2.90
  -1  10   6   -7.45    3.04
  -1  10  -6    3.46    3.01
   1  10   6   -1.01    3.50
   1   0   7   -0.13    0.26
  -1   0  -7    0.19    0.28
   1   0  -7   -0.23    0.43
   1   0  -7   -0.27    0.26
  -1   0   7    0.11    0.28
  -1  -1  -7    5.64    0.46
  -1   1   7    6.06    0.60
   1   1  -7    5.43    0.89
   1  -1   7    5.23    0.59
   1  -1  -7    5.82    0.50
   1   1   7    6.62    0.54
  -1   1  -7    6.10    0.89
   1  -1  -7    6.63    0.65
  -1  -1   7    6.76    0.57
   1  -2   7   12.35    1.38
  -1  -2  -7   11.04    0.68
  -1   2   7   11.17    0.97
   1   2  -7    9.51    1.39
   1  -2   7   12.26    0.86
  -1  -2   7   10.19    0.90
  -1  -2   7   10.20    1.22
   1   2   7   11.63    0.89
   1  -2  -7   12.35    0.74
  -1   2  -7   11.95    1.41
  -1  -3  -7   19.76    1.11
  -1   3   7   21.61    1.43
   1   3  -7   20.76    1.79
   1  -3  -7   19.14    1.18
  -1  -3   7   20.08    1.30
   1   3   7   23.54    1.43
  -1   3  -7   18.21    1.69
   1   4  -7   36.24    2.48
  -1  -4  -7   35.52    1.92
  -1   4  -7   36.16    2.53
   1  -4  -7   37.90    1.40
   1  -4  -7   36.38    1.48
   1   4   7   36.62    2.28
  -1   5   7   48.29    3.17
   1   5  -7   53.62    3.33
  -1  -5  -7   46.60    2.02
   1  -5  -7   46.13    2.06
  -1   5  -7   42.13    3.17
   1   5   7   46.87    2.98
  -1   6   7    0.66    1.56
   1   6  -7    0.61    1.58
  -1   6  -7    1.37    1.60
   1   6   7    0.33    1.48
   1   7  -7   -0.32    2.15
  -1   7   7    0.72    1.81
   1   7   7   -1.26    1.98
  -1   7  -7   -0.95    1.91
  -1   8   7   -2.29    2.44
   1   8  -7    2.40    2.40
   1   8   7   -0.18    2.31
  -1   8  -7   -2.44    2.16
   1   9  -7   20.64    3.36
  -1   9   7   20.03    3.50
  -1   9  -7   16.33    3.12
   1   9   7   18.73    3.44
  -1   0  -8   63.41    2.81
  -1   0   8   65.97    2.51
   1   0  -8   67.74    2.88
  -1   0  -8   68.07    2.49
   1   0  -8   64.50    2.50
   1   0   8   65.28    2.47
  -1  -1  -8   15.25    0.76
  -1   1   8   16.75    0.90
   1  -1   8   15.05    0.87
   1   1  -8   15.77    1.42
   1   1   8   15.23    0.87
   1  -1  -8   15.53    0.99
   1  -1  -8   14.46    0.82
  -1   1  -8   16.90    1.49
  -1  -1   8   13.29    0.90
   1   2  -8   42.47    2.45
  -1   2   8   42.25    1.87
   1  -2   8   38.66    2.44
  -1  -2  -8   41.05    1.63
   1  -2  -8   40.87    1.66
   1   2   8   39.68    1.85
   1  -2  -8   40.78    1.68
  -1  -2   8   40.94    1.87
  -1   2  -8   42.11    2.46
  -1   3   8   13.02    1.37
   1  -3   8   13.94    1.22
   1   3  -8   12.47    1.71
  -1  -3  -8   13.89    0.93
  -1   3  -8   13.56    1.70
   1  -3  -8   13.31    0.99
  -1  -3   8   14.05    1.16
   1   3   8   11.93    1.34
  -1   4   8   -0.46    1.38
   1   4  -8    0.19    1.07
  -1  -4  -8    0.64    0.65
  -1   4  -8    0.04    1.05
   1   4   8    1.39    1.02
  -1  -4   8    0.86    0.79
  -1  -5  -8    0.31    0.46
  -1   5   8    0.04    1.31
   1   5  -8    3.24    1.58
  -1   5  -8    0.17    1.53
   1   5   8    2.00    1.53
  -1  -5   8   -0.93    0.88
   1   6  -8   26.19    3.12
  -1   6   8   30.74    3.28
  -1   6  -8   28.59    3.19
   1   6   8   28.72    2.90
  -1   7   8    0.45    2.02
   1   7  -8   -1.02    1.97
  -1   7  -8   -2.54    1.83
   1   7   8   -1.89    2.03
   1   8  -8   31.21    4.64
  -1   8   8   27.84    3.56
   1   8   8   28.56    3.40
  -1   8  -8   24.84    3.40
   1   9  -8   -1.78    2.79
  -1   9   8    4.89    3.14
   1   9   8   -3.07    3.11
  -1   9  -8    3.29    3.10
   1   0  -9    0.21    0.34
   1   0  -9   -1.25    0.61
  -1   0   9    0.02    0.33
   1   0   9    0.42    0.32
  -1   0  -9    0.21    0.66
   1   1  -9    6.50    1.10
  -1  -1  -9    6.55    0.81
  -1   1   9    8.40    0.74
   1  -1   9    5.26    0.69
  -1  -1  -9    6.91    0.57
   1   1   9    6.48    0.74
  -1   1  -9    5.37    1.02
   1  -1  -9    7.23    0.98
  -1  -1   9    6.53    0.70
   1  -1  -9    6.40    0.65
  -1   2   9   40.10    1.95
   1  -2   9   40.23    1.90
  -1  -2  -9   41.02    1.65
   1   2  -9   39.13    2.50
  -1  -2   9   40.40    1.87
   1  -2  -9   42.17    1.79
   1   2   9   42.65    1.89
  -1   2  -9   38.97    2.57
   1  -2  -9   39.79    1.70
  -1  -3  -9    1.44    0.45
  -1   3   9   -0.07    0.80
   1  -3   9    0.58    0.64
   1   3  -9    0.01    1.13
   1   3   9    0.84    0.77
   1  -3  -9    0.29    0.35
   1  -3  -9    0.83    0.46
  -1   3  -9   -0.24    1.00
  -1  -3   9   -0.37    0.61
   1  -4   9  174.66    6.36
   1   4  -9  175.01    7.13
  -1  -4  -9  163.58    6.13
  -1   4   9  171.07    6.74
   1   4   9  163.83    6.58
  -1   4  -9  155.46    7.02
  -1  -4   9  172.63    6.36
   1  -5   9   13.24    1.53
  -1  -5  -9   14.15    0.66
   1   5  -9   17.97    2.74
  -1   5   9   12.88    1.85
   1   5   9   12.33    1.90
  -1  -5   9   15.37    1.76
   1  -5  -9   13.25    0.75
  -1   5  -9   13.30    2.02
   1   6  -9   -2.76    1.66
  -1   6   9    2.23    2.02
   1   6   9   -0.78    1.69
  -1  -6   9   -0.28    1.18
  -1   6  -9    0.31    1.83
   1   7  -9    2.39    2.21
  -1   7   9    2.09    2.23
  -1  -7   9    5.26    1.58
  -1   7  -9    2.00    2.16
   1   7   9    1.27    2.30
   1   8  -9    2.16    2.85
  -1   8   9    1.36    3.07
  -1  -8   9    0.67    1.76
  -1   8  -9    1.54    2.58
   1   8   9    4.16    2.86
   1   9  -9    1.12    2.82
  -1   9   9   -4.16    3.99
  -1   9  -9    4.69    3.64
  -1  -9   9   -2.77    1.99
   1   0 -10  120.26    4.58
   1   0  10  121.42    4.55
  -1   0  10  126.81    4.61
  -1   0 -10  126.89    5.02
   1   0 -10  129.75    5.03
  -1   1  10    0.70    0.47
   1   1 -10    0.99    1.05
  -1  -1 -10    0.29    0.37
   1  -1  10   -0.56    0.49
   1  -1 -10    0.30    0.45
  -1   1 -10    0.60    0.90
   1  -1 -10   -0.28    0.69
   1   1  10    0.46    0.45
  -1  -1  10    0.23    0.59
  -1   2  10   86.86    3.57
  -1  -2 -10   93.28    3.44
   1   2 -10   82.34    4.16
   1  -2  10   86.72    3.47
  -1  -2 -10   92.59    3.28
   1  -2 -10   88.41    3.32
  -1  -2  10   89.28    3.49
   1   2  10   90.82    3.52
  -1   2 -10   87.26    4.13
   1  -2 -10   89.34    3.50
   1  -3  10    1.05    0.69
  -1   3  10    2.82    0.97
  -1  -3 -10    1.77    0.44
   1   3 -10    4.46    1.42
  -1   3 -10    2.69    1.40
   1  -3 -10    0.57    0.49
   1   3  10    1.12    0.89
  -1  -3  10    0.90    0.71
   1  -3 -10    1.03    0.50
   1   4 -10   -0.32    1.15
  -1  -4 -10    1.74    0.50
   1  -4  10    0.81    0.82
  -1   4  10    0.84    1.36
  -1  -4  10    0.08    0.89
   1   4  10   -0.14    1.26
  -1   4 -10    0.76    1.44
   1   5 -10   15.07    3.00
   1  -5  10   14.76    1.98
  -1   5  10   17.17    2.08
  -1   5 -10   10.73    2.56
  -1  -5  10   19.03    1.78
   1  -5 -10   16.09    0.84
   1   5  10   15.58    2.06
  -1   6  10    2.40    2.21
   1   6 -10    1.11    1.96
   1  -6  10   -0.02    1.34
   1   6  10   -0.55    1.92
  -1   6 -10    4.59    2.20
   1   7 -10   -0.92    2.27
  -1   7  10    0.47    2.33
   1  -7  10   -0.17    1.55
  -1   7 -10   -1.46    2.19
   1   7  10   -6.04    2.33
  -1  -7  10    2.29    1.70
   1   8 -10   60.29    5.71
   1  -8  10   50.55    3.98
  -1  -8  10   53.84    4.00
  -1   8 -10   50.99    5.34
   1  -9  10   -3.07    2.14
  -1  -9  10    5.74    2.46
   1   0 -11   -0.15    0.90
  -1   0  11   -0.78    0.58
   1   0 -11    0.56    0.52
   1   0  11   -0.35    0.44
  -1   0 -11   -0.36    0.82
   1  -1  11   11.69    1.30
  -1  -1 -11   12.22    0.79
  -1  -1 -11    9.83    1.42
   1   1 -11   11.67    1.69
  -1   1  11   11.31    1.13
  -1  -1  11   11.81    1.11
   1   1  11   11.70    1.01
  -1   1 -11   13.80    1.87
   1  -1 -11   12.60    1.51
   1  -1 -11   10.28    0.92
   1   2 -11    1.29    1.21
   1  -2  11    0.03    0.62
  -1  -2 -11    0.50    0.68
  -1  -2 -11    0.12    0.41
  -1   2  11   -0.59    0.81
  -1   2 -11    0.84    1.09
  -1  -2  11    1.68    0.74
   1  -2 -11    0.69    0.97
   1   2  11    0.61    0.69
   1  -2 -11   -0.06    0.47
   1   3 -11    2.39    1.48
  -1   3  11    2.43    1.10
  -1  -3 -11    0.72    0.43
   1  -3  11    1.11    0.78
  -1  -3 -11    1.07    0.51
   1   3  11   -0.19    1.05
   1  -3 -11    0.00    0.46
  -1   3 -11   -0.01    1.28
  -1  -3  11    0.41    0.74
   1  -3 -11    1.57    0.55
  -1   4  11  105.51    4.88
   1  -4  11  107.50    4.36
   1   4 -11  104.59    5.30
  -1  -4  11  102.51    4.35
   1  -4 -11  103.89    3.84
  -1   4 -11  109.74    5.42
   1   4  11  103.97    4.63
  -1   5  11   24.30    2.96
   1   5 -11   27.14    3.33
   1  -5  11   18.93    2.01
  -1   5 -11   19.27    2.87
  -1  -5  11   20.00    2.12
   1   5  11   23.46    3.02
   1  -6  11    8.45    1.53
  -1   6  11   12.16    2.62
   1   6 -11    6.85    2.36
  -1   6 -11   11.86    2.77
  -1  -6  11   11.86    1.67
   1  -7  11    2.08    1.71
   1   7 -11   -2.03    2.41
  -1   7 -11   -0.02    2.52
  -1  -7  11    1.20    1.53
   1   8 -11    7.40    3.39
   1  -8  11    7.24    2.30
  -1   8 -11    2.30    3.08
  -1  -8  11    2.68    1.97
  -1   0  12   89.38    3.63
  -1   0 -12   85.18    4.08
   1   0  12   90.69    3.51
   1   0 -12   95.72    4.15
  -1  -1 -12    2.28    1.01
  -1  -1 -12    1.30    0.48
  -1   1  12    1.64    0.80
   1  -1  12    2.52    0.74
   1   1 -12    2.82    1.14
   1  -1 -12    0.35    0.52
  -1   1 -12    2.10    1.05
  -1  -1  12    1.08    0.69
   1  -1 -12    2.07    0.90
   1   1  12    1.42    0.64
  -1  -2 -12   84.48    3.58
  -1   2  12   77.68    3.56
   1  -2  12   84.66    3.42
   1   2 -12   88.75    4.49
  -1   2 -12   88.22    4.50
   1   2  12   84.93    3.47
  -1  -2  12   83.33    3.44
   1  -2 -12   81.20    3.61
   1  -3  12    0.22    0.77
   1   3 -12   -0.41    1.40
  -1  -3 -12    1.39    0.67
   1  -3 -12    0.23    0.80
   1   3  12   -0.97    1.15
  -1   3 -12    0.03    1.42
  -1  -3  12    0.08    0.83
   1   4 -12    5.19    1.88
  -1   4  12    6.54    1.83
   1  -4  12    4.35    1.13
  -1   4 -12    8.58    2.21
  -1  -4  12    4.58    1.08
   1   5 -12   25.77    3.59
   1  -5  12   26.50    2.33
  -1  -5  12   29.12    2.30
  -1   5 -12   24.49    3.25
   1   6 -12   12.70    2.78
   1  -6  12   25.42    2.64
  -1  -6  12   16.40    1.92
  -1   6 -12   18.92    3.11
   1   7 -12    3.81    2.79
   1  -7  12    3.08    1.62
  -1  -7  12    2.94    1.88
  -1   7 -12    0.94    2.78
   1   8 -12   29.16    4.34
   1  -8  12   22.97    2.66
  -1   8 -12   19.00    3.73
   1   0 -13   -0.23    1.20
  -1   0 -13   -0.20    0.98
  -1   0  13    0.51    0.81
  -1   1  13   -0.21    1.14
   1   1 -13   -0.72    1.39
  -1  -1 -13   -0.45    0.95
   1  -1  13   -0.45    0.68
   1   1  13   -0.05    0.71
  -1   1 -13   -0.08    1.35
  -1  -1  13    1.14    0.79
   1  -1 -13   -0.16    1.26
   1   2 -13   18.85    2.56
   1  -2  13   21.14    1.59
  -1  -2 -13   19.64    1.85
  -1   2  13   23.35    2.95
   1   2  13   25.16    1.99
   1  -2 -13   21.27    1.88
  -1   2 -13   21.00    2.55
  -1  -2  13   19.96    1.60
   1  -3  13    1.48    0.95
   1   3 -13    1.66    1.66
  -1  -3 -13    2.44    1.13
  -1   3 -13    3.12    1.72
  -1  -3  13    1.75    0.92
   1  -3 -13    2.92    1.14
   1  -4  13   20.69    2.02
   1   4 -13   24.46    3.58
  -1   4 -13   21.56    2.81
  -1  -4  13   17.68    1.89
   1   5 -13    5.32    2.49
   1  -5  13    5.80    1.50
  -1   5 -13    9.93    2.66
   1  -6  13    1.21    1.55
   1   6 -13    5.07    2.90
  -1   6 -13   -2.76    2.25
  -1  -6  13    3.09    1.51
   1   7 -13    0.14    2.83
   1  -7  13   -0.63    1.79
  -1  -7  13    0.68    1.76
  -1   7 -13    2.67    2.90
  -1   0  14   19.27    1.72
  -1   0 -14   18.77    2.47
   1   0 -14   18.87    2.30
   1   0  14   21.52    1.71
   1   1 -14    7.65    1.69
  -1  -1 -14    8.36    1.47
  -1   1  14   10.25    1.45
   1  -1  14    6.53    1.02
   1  -1 -14   10.80    1.43
  -1   1 -14    7.24    1.70
  -1  -1  14    7.37    1.04
  -1  -2 -14    0.15    1.13
   1  -2  14    2.34    0.99
   1  -2 -14    0.73    1.24
  -1  -2  14   -0.17    0.91
   1  -3  14    4.52    1.13
   1   3 -14    2.26    1.93
  -1   3 -14    6.20    2.37
  -1  -3  14    3.50    1.10
   1  -4  14    5.80    1.33
   1   4 -14    7.35    2.31
  -1   4 -14    4.09    2.04
  -1  -4  14    5.17    1.30
   1   5 -14    4.13    2.63
   1  -5  14    4.06    1.54
  -1   5 -14    7.80    2.93
  -1  -5  14    4.72    1.46
   1  -6  14    1.94    1.69
   1   6 -14    4.74    3.04
  -1   6 -14    3.11    2.71
  -1  -6  14    4.93    1.67
   1  -7  14    4.46    1.88
  -1  -7  14   -2.21    1.82
   1   0 -15    0.67    1.52
  -1   0 -15    1.88    1.52
   1   1 -15   11.03    2.08
  -1  -1 -15   11.33    1.82
  -1  -1  15    9.06    1.44
   1  -1 -15   10.23    1.92
  -1   1 -15   10.66    1.97
   1  -2  15   13.44    1.58
  -1  -2 -15   17.81    2.64
   1   2 -15   11.74    2.23
  -1  -2  15   11.07    1.41
  -1   2 -15    9.77    2.40
   1  -2 -15    8.36    1.72
   1   3 -15    5.33    2.32
   1  -3  15    8.68    1.46
  -1  -3  15    5.38    1.28
  -1   3 -15    5.68    2.06
   1  -4  15    0.01    1.30
   1   4 -15   -0.79    2.35
  -1   4 -15    1.74    2.27
  -1  -4  15    1.53    1.43
   1  -5  15    2.49    1.52
   1   5 -15    4.39    2.89
  -1   5 -15    4.34    2.72
  -1  -5  15    3.56    1.62
   1   6 -15   13.12    3.27
   1  -6  15   18.69    2.38
  -1   6 -15   12.30    3.34
  -1  -6  15   17.70    2.17
   1   0 -16    7.51    2.01
  -1   0 -16    9.29    2.03
   1   1 -16   -0.29    1.80
  -1  -1 -16    0.97    1.55
  -1   1 -16    0.99    1.76
   1  -1 -16    0.82    1.72
   1   2 -16   34.44    3.80
  -1   2 -16   42.15    3.63
   1   3 -16   21.13    3.00
  -1   3 -16   20.20    2.85
   1   4 -16    3.72    2.73
  -1   4 -16    8.43    3.14
  -1  -4  16    5.11    1.62
   1   5 -16   22.05    3.98
  -1  -5  16   26.27    2.73
  -1   5 -16   18.37    3.60
   1   0 -17   -2.78    1.99
  -1   0 -17    1.10    1.79
   1   1 -17   15.73    2.65
  -1   1 -17   13.00    2.54
   1  -1 -17   20.89    3.09
   1   2 -17   10.10    2.66
  -1   2 -17    6.94    2.45
   1   3 -17    1.42    2.44
  -1   3 -17    1.30    2.74
   1   4 -17    2.07    3.29
  -1   4 -17    1.21    2.67
   1   0 -18    6.20    2.55
  -1   0 -18    2.25    2.52
   1   1 -18    4.15    2.73
  -1   1 -18    2.01    2.46
   1   2 -18    5.56    2.98
  -1   2 -18    8.54    2.83
   2   1   0   -0.01    0.12
  -2  -1   0   -0.06    0.17
   2  -1   0   -0.09    0.22
  -2  -1   0    0.01    0.15
  -2   1   0   -0.10    0.20
  -2   2   0  169.54    6.05
   2  -2   0  163.26    6.04
  -2   2   0  161.90    5.92
  -2  -2   0  176.02    5.94
   2   2   0  160.94    5.96
  -2  -2   0  159.64    5.99
   2   2   0  164.71    5.89
  -2  -3   0    0.00    0.39
   2  -3   0    0.05    0.63
  -2   3   0    0.30    0.40
  -2  -3   0   -0.41    0.65
   2   3   0    0.17    0.37
   2  -3   0   -0.32    0.42
   2   3   0    0.65    0.52
  -2   3   0    0.00    0.45
  -2  -4   0   79.76    3.19
  -2   4   0   74.94    3.09
   2  -4   0   75.11    3.19
  -2   4   0   69.41    3.36
   2   4   0   69.72    3.01
   2   5   0   -0.28    0.65
  -2   5   0   -0.94    0.89
  -2   5   0   -0.08    0.68
  -2  -5   0    1.57    0.83
   2   5   0   -1.52    0.81
  -2   6   0   39.58    2.62
   2   6   0   40.21    2.87
   2   6   0   39.12    2.50
  -2   6   0   38.32    2.92
   2   7   0   -2.95    1.51
   2   7   0    0.42    1.23
  -2   7   0    0.29    1.25
  -2   7   0    0.04    1.57
  -2   8   0   26.37    2.64
   2   8   0   26.83    2.64
   2   8   0   24.67    3.30
  -2   8   0   25.61    5.44
  -2   9   0    0.81    2.46
   2   9   0   -3.50    2.25
  -2  10   0   -0.32    2.91
   2  -1   1   16.18    0.82
  -2  -1  -1   17.43    0.62
  -2  -1  -1   15.84    0.73
  -2   1   1   17.71    0.80
   2   1  -1   15.94    0.79
  -2   1  -1   16.07    0.81
   2   1   1   15.14    0.72
   2  -1  -1   18.27    0.65
  -2  -1   1   13.31    0.79
   2  -1  -1   17.49    0.78
   2   2  -1  248.29    8.66
  -2   2   1  235.13    8.42
   2   2  -1  250.98    8.64
  -2  -2  -1  250.58    8.50
  -2   2   1  252.78    8.52
   2  -2   1  242.33    8.71
  -2  -2  -1  243.47    8.63
  -2   2   1  228.47    8.67
  -2  -2   1  246.29    8.66
   2   2   1  241.50    8.44
   2  -2  -1  243.98    8.68
  -2  -2   1  235.75    8.67
   2   2   1  242.73    8.61
  -2   2  -1  255.29    8.67
   2  -2  -1  239.16    8.53
  -2   2  -1  233.91    8.69
   2   3  -1    5.53    0.74
  -2   3   1    5.57    0.66
   2  -3   1    8.19    0.91
  -2  -3  -1    5.68    0.81
  -2   3   1    5.23    0.76
   2   3  -1    5.83    0.89
   2  -3   1    8.29    0.97
  -2  -3   1    5.37    0.83
   2  -3  -1    5.63    0.70
  -2  -3   1    6.10    0.91
  -2   3  -1    6.19    0.80
   2   3   1    5.21    0.69
  -2   3  -1    7.06    0.81
   2  -3  -1    5.58    0.80
   2  -4   1   50.91    2.54
  -2   4   1   48.61    2.69
   2   4  -1   55.76    2.50
   2   4  -1   52.20    2.70
  -2  -4  -1   48.54    2.98
  -2   4   1   56.67    2.35
  -2  -4  -1   53.37    2.49
  -2   4  -1   56.00    2.61
  -2   4  -1   53.63    2.71
   2   4   1   53.20    2.23
   2  -4  -1   55.38    2.43
  -2  -4   1   52.77    2.55
  -2   5   1    2.00    0.73
  -2  -5  -1    2.36    0.84
   2   5  -1    1.98    1.01
  -2   5   1    1.14    0.94
   2   5  -1    1.24    0.98
   2   5   1    3.37    0.65
  -2   5  -1    2.95    1.07
   2  -5  -1    2.52    0.82
  -2   5  -1    1.33    1.03
   2   5   1    2.44    1.09
   2   6  -1    9.79    1.35
  -2   6   1    8.39    1.13
  -2   6   1    9.57    1.77
   2   6  -1    7.83    1.50
  -2   6  -1    8.82    1.56
  -2   6  -1    8.29    1.44
   2   6   1    8.07    1.54
   2   6   1    9.36    1.26
   2   7  -1    2.51    1.33
   2   7  -1    2.02    1.60
  -2   7   1    4.24    1.98
   2   7   1    4.68    1.04
   2   7   1    6.08    1.80
  -2   7  -1    5.80    1.88
  -2   7  -1    5.62    1.62
   2   8  -1   -0.52    2.35
   2   8  -1   -0.69    1.55
  -2   8   1   -0.42    1.77
  -2   8   1    1.35    2.48
  -2   8  -1    2.13    1.81
   2   8   1   -0.46    2.07
  -2   8  -1   -1.68    1.82
  -2   9   1   -1.39    2.33
  -2   9  -1   -1.89    2.38
   2   9   1    4.24    2.42
  -2  10   1    2.01    3.09
  -2  10  -1   -5.98    2.47
   2   0  -2    4.35    0.36
   2   0   2    4.77    0.27
  -2   0   2    4.81    0.35
  -2   0   2    5.40    0.29
   2   0  -2    4.72    0.28
   2  -1   2  132.18    5.01
   2   1  -2  140.38    5.06
  -2   1   2  138.43    4.96
  -2  -1  -2  140.80    4.90
   2   1   2  136.02    4.90
  -2  -1   2  151.79    5.08
   2  -1  -2  137.15    4.85
  -2   1  -2  144.46    5.02
   2  -1  -2  141.83    4.95
  -2  -1   2  136.40    4.91
  -2  -2  -2   13.31    0.60
  -2   2   2   13.57    0.91
   2  -2   2   12.38    1.08
  -2  -2  -2   12.71    0.88
   2   2  -2   13.43    0.92
  -2  -2   2   12.84    1.03
  -2   2  -2   12.86    0.89
   2   2   2   14.59    0.85
   2  -2  -2   13.12    0.87
  -2   2  -2   12.72    0.93
  -2  -2   2   14.00    0.97
   2  -2  -2   14.37    0.60
  -2   3   2    0.47    0.21
   2   3  -2    0.35    0.55
  -2  -3  -2    0.13    0.60
   2  -3   2    0.82    0.65
  -2   3   2   -0.18    0.60
  -2  -3  -2    0.12    0.35
  -2   3   2    0.82    0.33
   2  -3  -2    0.62    0.37
   2   3   2    0.36    0.19
  -2   3  -2    0.63    0.52
  -2  -3   2    0.98    0.59
  -2   3  -2    0.25    0.51
   2   3   2    0.01    0.50
   2  -3  -2    0.11    0.57
  -2  -3   2   -0.11    0.72
  -2   4   2   17.46    1.05
   2   4  -2   17.40    1.57
  -2   4   2   18.61    0.89
  -2  -4  -2   14.82    1.52
  -2  -4  -2   19.77    1.22
  -2   4   2   16.54    1.71
   2   4  -2   17.76    1.57
  -2   4  -2   18.53    1.63
  -2  -4   2   18.26    1.74
   2   4   2   18.98    0.90
   2  -4  -2   17.82    1.32
  -2   4  -2   17.30    1.57
   2   4   2   17.87    1.51
  -2   5   2    6.51    0.88
  -2   5   2    6.49    0.70
   2   5  -2    4.16    1.05
  -2  -5  -2    4.40    0.94
  -2   5   2    4.59    1.20
   2   5  -2    6.09    1.19
  -2   5  -2    6.06    1.13
  -2   5  -2    4.31    1.08
   2  -5  -2    6.04    0.94
   2   5   2    6.63    1.22
   2   5   2    5.07    0.78
  -2   6   2    0.58    1.33
  -2   6   2    1.09    0.66
   2   6  -2    0.21    1.08
  -2   6   2    1.76    0.55
   2   6  -2    2.10    1.28
  -2   6  -2    1.52    1.12
   2   6   2    0.62    0.59
  -2   6  -2    1.64    1.38
   2   6   2    2.24    1.40
  -2   7   2    2.14    0.88
  -2   7   2   -0.12    1.59
   2   7  -2    1.46    1.50
   2   7  -2    1.87    1.39
  -2   7  -2   -0.49    1.41
  -2   7  -2    1.39    1.41
   2   7   2    1.69    0.74
   2   7   2    0.15    1.61
  -2   8   2   25.05    3.08
   2   8  -2   26.70    3.00
  -2   8  -2   30.02    3.72
   2   8   2   33.45    3.96
  -2   8  -2   28.03    3.02
  -2   9   2   17.99    3.33
   2   9  -2   23.85    3.53
   2   9   2   12.73    2.81
  -2   9  -2   13.66    2.55
  -2   9  -2   11.69    2.68
  -2  10   2    7.28    3.66
   2  10   2    2.19    2.99
  -2  10  -2    1.66    2.87
   2   0   3   -0.01    0.09
  -2   0   3   -0.15    0.21
   2   0  -3    0.14    0.14
   2   0  -3   -0.12    0.20
  -2   0   3    0.08    0.15
   2   1  -3   33.00    1.49
   2  -1   3   33.19    1.45
  -2   1   3   34.76    1.36
  -2  -1  -3   33.81    1.24
   2  -1  -3   31.47    1.23
  -2  -1   3   33.55    1.31
  -2  -1   3   33.40    1.52
   2   1   3   32.88    1.28
   2  -1  -3   33.56    1.31
  -2   1  -3   32.16    1.40
  -2  -2  -3   82.88    3.12
  -2   2   3   82.78    3.21
   2  -2   3   86.18    3.32
   2   2  -3   77.69    3.28
   2  -2  -3   80.15    2.93
  -2   2  -3   81.22    3.28
  -2   2  -3   82.42    3.24
  -2  -2   3   86.41    3.30
   2   2   3   79.02    3.11
   2  -2  -3   84.32    3.14
  -2  -2   3   82.43    3.33
   2  -2  -3   81.51    2.89
  -2  -3  -3   32.30    1.74
   2   3  -3   34.70    1.89
  -2   3   3   32.66    1.82
   2  -3   3   30.71    1.93
   2  -3  -3   33.93    1.44
   2  -3  -3   33.29    1.72
  -2  -3   3   33.03    1.90
   2   3   3   33.51    1.71
  -2   3  -3   30.04    1.83
  -2  -3   3   33.13    1.90
  -2   3  -3   32.38    2.12
   2   4  -3    5.96    1.08
  -2  -4  -3    6.17    0.83
  -2  -4  -3    5.20    0.96
  -2   4   3    4.75    1.13
  -2   4  -3    6.23    1.10
  -2   4  -3    6.30    1.11
   2  -4  -3    4.64    0.71
   2   4   3    4.21    1.06
  -2   5   3   32.06    1.37
  -2   5   3   31.81    1.30
   2   5  -3   32.29    2.22
  -2   5   3   27.25    2.26
  -2  -5  -3   31.98    1.85
  -2   5  -3   31.99    2.34
  -2   5  -3   34.83    2.36
   2  -5  -3   34.54    1.86
   2   5   3   31.94    2.24
   2   6  -3    0.19    1.15
  -2   6   3    0.18    1.28
  -2  -6  -3    0.15    0.91
  -2   6   3    0.56    0.39
  -2   6   3   -0.04    0.50
  -2   6  -3    1.72    1.26
  -2   6  -3   -1.39    1.08
   2   6   3    0.68    1.24
  -2   7   3   55.25    4.06
   2   7  -3   60.75    3.63
   2   7   3   56.65    3.91
  -2   7  -3   55.92    3.81
  -2   7  -3   57.04    3.89
  -2   8   3    7.56    2.58
   2   8  -3    6.80    1.89
  -2   8  -3    7.81    2.13
   2   8   3    8.14    2.26
  -2   8  -3    6.83    2.25
  -2   9   3    9.48    3.24
   2   9  -3    5.17    2.24
  -2   9  -3   11.63    2.87
   2   9   3    4.59    2.77
  -2   9  -3    7.81    2.51
  -2  10   3    1.85    3.21
   2  10   3    5.78    3.32
   2   0   4  134.13    4.61
   2   0  -4  138.17    4.68
   2   0  -4  128.91    4.80
  -2   0   4  130.51    4.75
  -2   0   4  132.71    4.69
   2  -1   4  175.01    5.96
   2   1  -4  163.07    5.82
  -2  -1  -4  162.28    5.70
  -2   1   4  167.74    5.84
   2   1  -4  163.62    6.04
   2  -1  -4  153.58    5.75
   2   1   4  166.13    5.75
  -2  -1   4  162.35    5.81
   2  -1  -4  163.58    5.79
  -2  -1   4  171.62    6.03
  -2  -2  -4    2.73    0.39
   2   2  -4    1.50    0.54
   2  -2   4    2.35    0.67
  -2   2   4    2.29    0.47
  -2  -2   4    2.59    0.68
  -2  -2   4    1.58    0.36
  -2   2  -4    2.16    0.54
   2  -2  -4    3.33    0.47
   2   2   4    1.76    0.45
  -2   2  -4    2.55    0.59
  -2   3   4  110.77    4.33
  -2  -3  -4  108.83    4.20
   2   3  -4  112.32    4.46
  -2  -3  -4  107.71    3.80
  -2   3  -4  108.16    4.46
  -2   3  -4  111.07    4.40
   2  -3  -4  106.82    4.23
   2  -3  -4  104.38    3.84
   2   3   4  110.75    4.25
   2   4  -4   20.76    1.77
  -2  -4  -4   22.87    1.68
  -2   4   4   24.60    2.09
  -2  -4  -4   24.47    1.22
   2   4   4   21.71    1.63
  -2   4  -4   24.55    1.91
  -2   4  -4   27.41    1.96
   2  -4  -4   21.85    1.28
  -2   5   4   31.55    2.43
   2   5  -4   29.32    2.34
  -2  -5  -4   30.96    1.81
  -2   5  -4   32.20    2.44
  -2   5  -4   29.44    2.33
   2   5   4   27.83    2.34
   2  -5  -4   32.08    1.75
  -2  -6  -4   14.75    1.53
   2   6  -4   11.71    1.75
  -2   6   4    9.69    1.77
   2   6   4   12.70    1.91
  -2   6  -4   11.99    1.78
  -2   6  -4   12.80    1.77
  -2   7   4   77.60    4.62
   2   7  -4   70.10    4.07
  -2   7  -4   62.82    4.09
   2   7   4   74.46    4.35
  -2   7  -4   63.31    4.11
  -2   8   4    5.92    2.46
   2   8  -4    5.03    1.92
  -2   8  -4    5.98    2.13
   2   8   4    6.77    2.27
  -2   8  -4    1.41    1.98
  -2   9   4    2.41    2.79
   2   9  -4    2.50    2.55
   2   9   4    2.22    2.91
  -2  10   4   -1.75    3.10
   2  10   4    4.97    3.18
   2   0  -5   -0.32    0.22
  -2   0   5    0.01    0.20
   2   0  -5   -0.54    0.34
   2   0   5    0.02    0.16
   2   1  -5    0.08    0.39
   2   1  -5   -0.01    0.27
  -2   1   5    0.43    0.28
   2  -1   5    0.57    0.46
  -2  -1  -5    0.12    0.15
   2  -1   5    0.40    0.24
   2   1   5   -0.21    0.21
  -2  -1   5    0.24    0.23
   2  -1  -5    0.29    0.24
  -2  -1   5    0.23    0.48
   2  -1  -5    0.05    0.24
   2   2  -5    1.80    0.81
   2  -2   5    2.08    0.72
  -2  -2  -5    1.21    0.33
  -2   2   5    1.87    0.47
  -2  -2   5    2.02    0.66
   2   2   5    1.56    0.46
   2  -2  -5    1.48    0.39
  -2  -2   5    1.14    0.34
  -2   2  -5    0.82    0.74
   2   3  -5   16.05    1.33
  -2   3   5   16.30    1.31
  -2  -3  -5   16.33    1.07
   2  -3  -5   15.52    0.68
  -2   3  -5   15.27    1.51
   2  -3  -5   16.74    1.12
   2   3   5   14.94    1.24
   2  -3  -5   15.68    0.76
  -2   4   5   39.53    2.49
   2   4  -5   42.06    2.44
  -2  -4  -5   37.21    2.13
  -2   4  -5   39.21    2.43
   2  -4  -5   39.08    1.73
  -2   4  -5   42.68    2.43
   2   4   5   38.08    2.13
   2   5  -5    0.67    1.20
  -2   5   5   -0.11    1.04
  -2  -5  -5    1.64    0.62
  -2   5  -5   -1.02    1.09
   2   5   5    1.26    1.16
   2  -5  -5    0.85    0.67
  -2   5  -5    1.21    1.07
   2   6  -5    2.65    1.37
  -2   6   5    3.99    1.57
  -2  -6  -5    3.33    0.82
   2   6   5    3.01    1.45
  -2   6  -5    3.42    1.44
  -2   6  -5    4.61    1.61
  -2   7   5   11.18    2.14
   2   7  -5   10.40    2.01
   2   7   5   11.14    2.08
  -2   7  -5   12.99    2.10
  -2   7  -5   14.10    2.23
   2   8  -5   17.69    2.70
  -2   8   5   17.21    2.96
   2   8   5   19.62    2.96
  -2   8  -5   17.37    2.70
   2   9  -5   12.56    2.65
  -2   9   5   10.14    3.22
  -2   9  -5   10.07    2.70
   2   9   5   14.52    3.23
  -2  10   5   -4.32    3.09
   2  10  -5   -3.35    3.09
  -2  10  -5    2.39    2.98
   2  10   5   -0.57    3.28
   2   0  -6    1.22    0.28
  -2   0   6    0.89    0.28
   2   0  -6    0.76    0.45
   2   0   6    1.02    0.23
  -2  -1  -6   33.29    1.26
   2  -1   6   32.69    1.36
   2  -1   6   32.20    1.67
   2   1  -6   32.88    1.73
  -2   1   6   33.44    1.42
   2   1  -6   33.20    1.44
  -2   1  -6   32.98    1.74
   2  -1  -6   33.36    1.36
  -2  -1   6   32.29    1.41
   2  -1  -6   34.41    1.42
   2   1   6   34.02    1.33
   2  -2   6    6.70    0.93
  -2   2   6    7.62    0.89
   2   2  -6    6.55    0.99
  -2  -2  -6    6.60    0.54
  -2  -2   6    6.62    0.74
   2  -2  -6    7.71    0.64
   2  -2  -6    6.71    0.44
  -2   2  -6    6.20    0.98
  -2  -2   6    5.84    0.91
   2   2   6    6.91    0.70
  -2   3   6   94.39    3.86
   2   3  -6   97.44    4.15
  -2  -3  -6   94.70    3.60
   2  -3  -6   95.61    3.65
   2  -3  -6   92.86    3.34
  -2  -3   6   96.71    3.67
   2   3   6   94.41    3.75
  -2   3  -6   92.14    4.12
   2   4  -6   16.96    1.94
  -2   4   6   15.44    2.06
  -2  -4  -6   12.68    0.69
  -2  -4  -6   14.54    1.25
  -2   4  -6   12.36    1.66
   2  -4  -6   14.64    0.71
   2   4   6   12.41    1.53
  -2   5   6  116.94    5.37
  -2  -5  -6  128.57    4.72
   2   5  -6  130.66    5.64
  -2   5  -6  120.06    5.51
   2   5   6  132.20    5.35
  -2   6   6   -0.23    1.59
  -2  -6  -6    1.05    0.75
   2   6  -6   -0.88    1.33
   2   6   6   -1.58    1.52
  -2   6  -6    0.63    1.33
   2   7  -6    0.69    1.95
  -2   7   6   -0.62    1.83
  -2   7  -6    0.10    1.78
   2   7   6    2.15    1.79
  -2   8   6   17.37    3.12
   2   8  -6   20.64    2.93
   2   8   6   19.95    3.01
  -2   8  -6   16.26    2.81
  -2   9   6    0.68    2.77
   2   9  -6    3.07    2.51
   2   9   6    1.82    2.83
  -2   9  -6    9.34    3.11
   2  10  -6    6.71    3.25
  -2  10   6    2.24    3.69
   2  10   6    0.67    3.37
  -2  10  -6    3.50    3.26
   2   0   7    0.02    0.21
   2   0  -7   -0.23    0.49
  -2   0   7   -0.07    0.29
   2   0  -7    0.14    0.29
   2  -1   7    2.22    0.38
  -2  -1  -7    2.26    0.27
   2   1  -7    1.71    0.74
  -2   1   7    2.43    0.41
   2  -1   7    3.17    0.67
   2  -1  -7    1.46    0.36
   2   1   7    1.65    0.34
  -2  -1   7    2.36    0.41
   2  -1  -7    1.49    0.42
  -2   1  -7    1.49    0.70
   2   2  -7   34.65    2.02
  -2   2   7   34.29    1.60
   2  -2   7   33.18    1.52
  -2  -2  -7   34.06    1.33
   2  -2   7   31.72    1.90
  -2  -2   7   30.52    2.24
  -2   2  -7   29.76    1.94
   2   2   7   32.50    1.55
   2  -2  -7   31.79    1.35
   2  -2  -7   34.62    1.45
   2   3  -7   10.47    1.40
  -2  -3  -7   10.81    0.82
  -2   3   7    9.43    1.26
   2   3   7   11.20    1.10
  -2  -3   7    9.99    0.94
  -2   3  -7   11.32    1.63
   2  -3  -7   10.00    0.90
  -2   4   7   35.31    2.52
   2   4  -7   41.97    2.68
  -2  -4  -7   38.94    1.90
  -2   4  -7   34.39    2.55
   2   4   7   42.02    2.22
  -2  -4   7   35.81    1.99
   2  -4  -7   36.92    1.47
   2   5  -7   17.96    2.25
  -2  -5  -7   19.60    1.18
  -2   5   7   18.52    2.23
  -2   5  -7   17.07    2.23
   2   5   7   20.10    2.38
   2   6  -7   18.49    2.41
  -2   6   7   14.84    2.17
   2   6   7   13.88    2.13
  -2   6  -7   14.71    2.10
  -2   7   7   25.93    3.43
   2   7  -7   13.57    2.62
   2   7   7   18.78    2.59
  -2   7  -7   15.92    2.52
   2   8  -7    6.47    2.41
  -2   8   7    3.59    2.63
  -2   8  -7    5.54    2.63
   2   8   7    7.45    2.88
  -2   9   7    0.50    3.14
   2   9  -7    5.91    2.74
   2   9   7    4.98    3.12
  -2   9  -7    1.29    2.93
   2   0   8    3.72    0.45
   2   0  -8    2.60    0.89
  -2   1   8    5.03    0.62
   2  -1   8    5.04    0.53
   2  -1   8    5.31    0.82
  -2  -1  -8    3.88    0.43
   2   1  -8    4.51    0.92
  -2   1  -8    3.99    0.92
   2  -1  -8    4.00    0.65
  -2  -1   8    4.57    0.55
   2   1   8    5.73    0.56
   2  -1  -8    5.40    0.54
   2   2  -8    1.84    0.95
  -2  -2  -8    2.33    0.34
  -2   2   8    1.51    0.56
   2  -2   8    0.83    0.52
   2  -2   8    1.80    0.87
  -2  -2   8    2.24    0.61
   2  -2  -8    2.39    0.41
  -2   2  -8    1.54    0.96
   2   2   8    1.09    0.57
   2  -2  -8    1.95    0.40
  -2  -3  -8   19.33    1.05
  -2   3   8   20.79    1.54
   2   3  -8   17.57    1.84
   2  -3   8   17.86    1.27
   2  -3  -8   18.60    1.16
   2   3   8   18.14    1.49
  -2  -3   8   16.86    1.32
   2  -3  -8   18.57    0.89
  -2   3  -8   19.41    2.07
  -2  -4  -8   -0.03    0.60
   2   4  -8   -0.21    1.14
  -2   4   8    0.78    1.31
  -2  -4   8   -0.65    0.65
  -2   4  -8    0.33    1.14
   2  -4  -8   -0.04    0.29
   2   4   8    1.23    0.91
  -2  -5  -8   27.29    1.36
   2   5  -8   28.69    2.75
  -2   5   8   34.30    2.82
  -2   5  -8   28.81    2.67
  -2  -5   8   28.47    1.93
   2  -5  -8   29.91    1.31
   2   5   8   33.66    2.75
  -2   6   8    4.99    1.88
   2   6  -8    6.54    2.25
   2   6   8    6.95    2.00
  -2   6  -8    4.70    1.83
  -2  -6   8    6.03    1.36
   2   7  -8    2.04    2.08
  -2   7   8    2.88    2.44
   2   7   8    2.86    2.34
  -2   7  -8   -0.75    2.04
  -2   8   8    1.33    2.71
   2   8  -8    1.22    2.36
  -2   8  -8    4.63    2.97
   2   8   8   -0.33    2.68
  -2   9   8    1.09    3.53
   2   9  -8    1.85    3.15
  -2   9  -8   -2.10    2.86
  -2  -9   8   -2.70    2.13
   2   9   8   -4.00    2.89
   2   0  -9    0.17    0.37
   2   0  -9    0.77    0.67
  -2   0   9   -0.85    0.36
  -2   0  -9   -0.85    0.63
   2   0   9    0.27    0.32
   2  -1   9  121.38    4.33
   2  -1   9  111.97    4.65
  -2  -1  -9  117.96    4.23
   2   1  -9  122.54    4.92
  -2   1   9  117.47    4.40
   2  -1  -9  121.82    4.33
   2   1   9  120.30    4.31
   2  -1  -9  117.55    4.56
  -2   1  -9  116.93    4.84
   2  -2   9    8.31    1.02
  -2  -2  -9    6.91    0.57
  -2   2   9    8.20    0.96
   2   2  -9    9.05    1.43
   2   2   9    8.00    0.95
   2  -2  -9    6.56    0.73
  -2  -2   9    8.39    0.96
   2  -2  -9    6.41    0.84
  -2   2  -9    6.04    1.23
  -2   3   9    7.80    1.14
   2  -3   9    5.50    0.80
  -2  -3  -9    5.97    0.71
   2   3  -9    5.28    1.27
   2  -3  -9    6.16    0.71
   2  -3  -9    7.98    0.88
   2   3   9    6.79    0.96
  -2  -3   9    6.45    0.87
  -2   3  -9    7.14    1.36
  -2   4   9   11.85    1.64
  -2  -4  -9   12.16    0.98
   2  -4   9    9.61    1.19
   2   4  -9   12.53    1.76
  -2   4  -9   14.52    2.05
   2   4   9   10.70    1.45
  -2  -4   9   12.98    1.42
   2  -4  -9   11.53    0.74
   2   5  -9    0.17    1.51
  -2   5   9    1.96    1.59
  -2   5  -9    1.06    1.48
   2  -5  -9    0.92    0.37
  -2  -5   9    0.30    0.95
   2   5   9    0.62    1.44
   2   6  -9   26.81    3.49
  -2   6   9   24.34    3.13
  -2  -6   9   26.08    2.29
   2   6   9   28.78    3.17
  -2   6  -9   22.95    2.95
  -2   7   9   22.69    2.92
   2   7  -9   20.06    2.87
   2   7   9   26.25    3.03
  -2  -7   9   20.68    2.49
  -2   7  -9   24.31    3.20
   2   8  -9    2.13    2.64
  -2   8   9   10.98    3.35
  -2   8  -9    6.30    3.05
   2   8   9    9.04    3.11
   2   9  -9    7.35    3.07
  -2   9   9   17.25    4.07
  -2   9  -9    9.15    3.45
  -2  -9   9    5.31    2.21
  -2   0  10    2.89    0.53
   2   0 -10    2.31    0.51
   2   0 -10    3.49    0.83
   2   0  10    2.08    0.46
  -2   0 -10    1.41    0.79
   2  -1  10   16.01    1.75
  -2   1  10   13.20    1.02
   2  -1  10   13.38    0.94
   2   1 -10   11.12    1.63
  -2  -1 -10   12.17    0.76
   2   1  10   13.59    0.94
   2  -1 -10   12.52    1.39
  -2  -1  10   14.30    1.15
   2  -1 -10   12.57    0.85
  -2   1 -10   13.75    1.69
  -2  -2 -10    8.00    0.64
   2   2 -10    7.19    1.46
  -2   2  10    9.05    1.16
   2  -2  10   10.27    1.08
   2   2  10    8.69    1.05
   2  -2 -10    7.05    0.82
   2  -2 -10    7.32    1.04
  -2  -2  10    8.86    0.91
  -2   2 -10    7.44    1.41
   2  -3  10  107.60    4.18
  -2   3  10   96.44    4.55
  -2  -3 -10  106.33    3.88
   2   3 -10  107.83    4.95
   2  -3 -10  112.73    3.98
  -2  -3  10  108.36    4.18
   2   3  10  109.21    4.27
  -2   3 -10  103.24    4.93
   2  -3 -10  101.85    4.01
   2  -4  10   -0.15    0.83
  -2   4  10    1.04    1.35
  -2  -4 -10    1.13    0.51
   2   4 -10    2.65    1.57
   2  -4 -10    0.68    0.42
   2   4  10    0.57    1.19
  -2   4 -10    0.51    1.37
  -2  -4  10   -0.54    0.77
   2   5 -10   65.03    4.52
  -2   5  10   74.71    4.11
   2  -5  10   76.50    3.50
   2  -5 -10   73.69    2.77
  -2   5 -10   59.56    4.44
   2   5  10   78.07    4.03
  -2  -5  10   85.73    3.57
  -2   6  10    1.79    1.96
   2  -6  10   -1.60    1.30
   2   6 -10    4.13    2.34
   2   6  10    1.14    1.99
  -2   6 -10    0.09    1.79
  -2  -6  10    0.96    2.05
   2   7 -10   -2.21    2.22
  -2   7  10    4.70    2.57
  -2   7 -10    2.84    2.31
  -2  -7  10    3.91    1.58
   2   8 -10   -0.08    2.67
  -2   8  10   14.12    3.89
  -2   8 -10    4.72    3.38
  -2  -8  10    1.22    1.89
  -2   0 -11    0.06    0.83
  -2   0  11    0.68    0.70
   2   0 -11    0.46    0.90
   2   0  11    0.45    0.42
   2  -1  11  344.06   12.06
   2   1 -11  371.40   12.79
  -2   1  11  351.52   12.15
  -2  -1 -11  328.54   12.30
   2  -1  11  337.33   12.45
  -2  -1 -11  355.63   11.93
  -2   1 -11  335.37   12.64
   2   1  11  345.64   12.01
   2  -1 -11  316.96   12.33
  -2  -1  11  347.84   12.11
   2  -1 -11  337.51   12.00
  -2   2  11    5.85    1.03
   2   2 -11    5.79    1.41
  -2  -2 -11    4.92    0.62
   2  -2  11    7.38    0.86
   2  -2 -11    6.33    0.78
  -2  -2  11    6.12    0.85
   2   2  11    5.24    0.90
   2  -2 -11    5.98    1.31
  -2   2 -11    5.46    1.46
  -2  -3 -11   49.47    2.06
   2   3 -11   48.30    3.26
  -2   3  11   47.79    3.30
   2  -3  11   49.90    2.43
   2  -3 -11   55.13    2.24
  -2  -3  11   49.80    2.41
   2   3  11   51.41    2.57
  -2   3 -11   49.63    3.31
   2  -4  11   19.39    1.78
   2   4 -11   18.12    2.50
  -2   4  11   18.49    2.42
   2   4  11   19.96    2.14
  -2  -4  11   16.29    1.59
  -2   4 -11   14.89    2.13
   2  -4 -11   16.80    1.06
   2  -5  11    0.22    1.06
   2   5 -11   -2.37    1.69
  -2   5  11   -1.67    1.76
   2   5  11   -1.06    1.61
  -2  -5  11   -0.62    1.06
  -2   5 -11    0.54    2.03
   2   6 -11   11.78    2.80
  -2   6  11    5.35    2.33
   2  -6  11    9.94    1.81
  -2   6 -11    7.02    2.22
  -2  -6  11   11.11    1.73
   2  -7  11   34.22    3.13
   2   7 -11   30.32    4.32
  -2   7 -11   35.72    4.39
  -2  -7  11   41.39    3.16
   2  -8  11   -1.68    1.92
   2   8 -11   -2.62    2.80
  -2  -8  11    0.37    1.84
  -2   8 -11   10.08    3.82
  -2   0  12    6.13    0.95
   2   0 -12    8.57    1.42
  -2   0 -12    7.86    1.25
   2   0  12    9.17    0.95
  -2  -1 -12    0.01    0.94
  -2   1  12    0.61    1.03
   2   1 -12    0.16    1.01
   2  -1  12   -0.52    0.65
  -2  -1  12    0.04    0.68
   2  -1 -12    0.42    0.86
   2   1  12    0.53    0.59
  -2   1 -12    0.91    1.27
   2   2 -12    7.68    1.53
   2  -2  12    9.54    1.19
  -2  -2 -12    9.36    1.35
   2  -2 -12    9.93    1.48
   2   2  12    8.08    1.02
  -2  -2  12    9.67    1.32
  -2   2 -12    7.71    1.53
   2  -3  12   33.58    1.97
  -2   3  12   31.20    2.68
   2   3 -12   33.02    3.09
  -2  -3 -12   33.51    1.68
  -2  -3  12   30.49    1.96
   2   3  12   34.58    2.15
  -2   3 -12   44.13    3.39
   2   4 -12   13.58    2.31
   2  -4  12   16.42    1.73
  -2   4  12   12.53    2.00
  -2   4 -12   16.12    2.36
  -2  -4  12   18.01    1.85
   2  -5  12   18.47    2.20
   2   5 -12   17.38    2.75
  -2   5  12   15.20    2.30
  -2   5 -12   19.12    2.67
  -2  -5  12   21.13    2.14
   2   6 -12   10.33    2.68
   2  -6  12   10.95    1.69
  -2  -6  12   11.16    1.69
  -2   6 -12    8.69    2.68
   2  -7  12    4.21    1.86
   2   7 -12    7.94    2.86
  -2  -7  12    6.60    1.86
  -2   7 -12    4.61    2.85
   2   8 -12   -2.21    3.11
   2  -8  12    0.14    1.86
  -2  -8  12    0.02    2.00
  -2   8 -12    2.60    3.49
   2   0  13   -1.01    0.65
  -2   0 -13   -1.28    1.19
  -2   0  13   -0.85    0.77
   2   0 -13    0.70    1.00
   2   1 -13   13.87    1.97
  -2  -1 -13    9.54    1.42
  -2   1  13    9.11    1.24
   2  -1  13    8.67    1.01
  -2   1 -13    9.43    1.54
  -2  -1  13    9.43    1.31
   2  -1 -13   10.09    1.52
   2   1  13   10.67    1.11
   2   2 -13   26.87    2.65
   2  -2  13   28.63    1.70
  -2  -2 -13   19.58    1.96
  -2   2  13   27.10    2.28
   2  -2 -13   25.97    2.08
  -2   2 -13   27.45    2.73
  -2  -2  13   28.09    1.79
  -2  -3 -13    0.40    1.36
   2   3 -13    3.01    2.04
  -2   3  13    2.51    1.55
   2  -3  13    1.04    0.98
  -2   3 -13   -0.25    1.61
  -2  -3  13    1.65    0.96
   2  -3 -13    0.66    1.12
   2   4 -13   -0.05    1.81
   2  -4  13    1.72    1.07
  -2  -4  13    0.54    1.13
  -2   4 -13   -0.02    1.85
   2   5 -13   21.10    3.01
   2  -5  13   24.14    2.33
  -2  -5  13   19.57    2.75
  -2   5 -13   20.66    2.95
   2  -6  13   36.03    3.02
   2   6 -13   33.90    4.35
  -2   6 -13   47.91    4.96
  -2  -6  13   35.85    2.97
   2  -7  13   13.74    2.35
   2   7 -13    8.70    3.15
  -2   7 -13    5.63    2.99
  -2  -7  13   10.13    2.12
  -2   0 -14    1.57    1.31
  -2   0  14    1.27    0.90
   2   0 -14    1.91    1.49
   2  -1  14   11.42    1.17
   2   1 -14   17.22    2.19
  -2   1  14   14.12    1.75
  -2  -1 -14   12.31    1.54
  -2  -1  14   17.21    1.61
   2  -1 -14   14.42    1.73
  -2   1 -14   11.89    2.02
  -2  -2 -14    7.73    1.31
   2  -2  14    8.94    1.11
  -2  -2  14    7.44    1.15
   2  -2 -14   11.80    1.58
   2   3 -14    6.05    2.03
   2  -3  14    8.41    1.20
  -2   3 -14    6.79    2.10
  -2  -3  14    7.31    1.25
   2  -4  14    7.65    1.34
   2   4 -14    7.69    2.32
  -2  -4  14    6.92    1.34
  -2   4 -14    9.19    2.60
   2  -5  14   11.49    1.97
   2   5 -14   17.72    3.18
  -2   5 -14   11.84    2.91
  -2  -5  14   11.67    1.71
   2  -6  14    1.10    1.77
   2   6 -14   -1.20    2.47
  -2   6 -14    1.10    2.64
  -2  -6  14    2.21    1.81
  -2   0 -15    0.60    1.64
   2   0 -15    0.73    1.59
   2   1 -15    1.51    2.36
  -2  -1 -15    0.67    1.54
  -2  -1  15   -0.80    0.95
   2  -1 -15    0.58    1.42
  -2   1 -15    0.68    1.49
   2   2 -15    4.33    1.83
  -2  -2 -15    4.58    2.56
  -2   2 -15    1.42    1.67
   2  -2 -15    0.91    1.36
  -2  -2  15    2.01    1.15
   2  -3  15    3.53    1.21
   2   3 -15    2.72    2.16
  -2  -3  15    3.49    1.25
  -2   3 -15    4.92    2.34
   2  -4  15    9.84    1.58
   2   4 -15   13.46    3.01
  -2   4 -15    9.10    2.53
  -2  -4  15   12.29    1.73
   2   5 -15   21.42    3.47
   2  -5  15   22.17    2.47
  -2  -5  15   19.19    2.44
  -2   5 -15   20.11    3.35
   2  -6  15    0.91    1.72
   2   6 -15   -2.11    2.65
  -2   6 -15   -3.16    2.91
  -2  -6  15   -1.74    1.62
   2   0 -16    5.55    1.96
  -2   0 -16    6.93    1.85
  -2  -1 -16    6.87    1.83
   2   1 -16    7.55    2.11
   2  -1 -16    9.17    1.99
  -2   1 -16   10.37    2.13
   2   2 -16    5.46    2.21
  -2   2 -16    7.71    2.51
   2   3 -16    0.84    2.26
  -2   3 -16    1.51    2.03
   2   4 -16    8.58    3.21
  -2   4 -16    2.00    2.63
  -2  -4  16    5.42    1.68
   2   5 -16    6.19    3.07
  -2   5 -16    8.05    3.27
  -2  -5  16   11.29    2.06
  -2   0 -17   -0.67    1.89
   2   0 -17    2.23    2.08
   2   1 -17   38.02    4.19
  -2   1 -17   31.20    3.69
   2  -1 -17   30.15    4.17
   2   2 -17   -0.90    2.58
  -2   2 -17   -1.27    1.94
   2   3 -17   17.31    3.14
  -2   3 -17   21.97    3.13
   2   4 -17   -1.39    2.71
  -2   4 -17    1.59    3.17
   2   0 -18    6.32    2.42
  -2   0 -18    9.57    2.67
   2   1 -18   10.92    2.50
  -2   1 -18   12.98    2.70
   2   2 -18    2.45    2.46
  -2   2 -18    0.89    2.68
  -3   1   0    3.62    0.40
   3  -1   0    3.40    0.39
  -3  -1   0    3.59    0.26
  -3  -1   0    4.27    0.33
   3   1   0    3.56    0.30
   3  -2   0   -0.19    0.39
   3   2   0   -0.27    0.31
  -3  -2   0   -0.17    0.28
  -3   2   0    0.08    0.30
  -3   2   0    0.05    0.37
   3   2   0    0.19    0.26
  -3  -2   0   -0.03    0.33
  -3  -3   0  235.84    8.36
  -3  -3   0  225.39    8.24
   3   3   0  232.35    8.16
   3  -3   0  230.97    8.41
   3   3   0  224.45    8.30
  -3   3   0  221.76    8.22
  -3   4   0   -0.55    0.78
  -3   4   0    0.06    0.53
   3   4   0   -0.11    0.84
   3   4   0    0.57    0.50
  -3  -4   0   -0.04    0.68
   3   5   0    4.94    1.15
  -3   5   0    5.72    1.16
   3   5   0    5.60    0.81
  -3  -5   0    4.41    1.20
  -3   5   0    4.18    1.02
  -3   6   0    0.59    1.31
  -3   6   0    0.94    1.12
   3   6   0   -0.52    1.26
   3   6   0    0.01    1.24
   3   7   0   -0.02    1.14
  -3   7   0    1.18    1.25
   3   7   0    0.52    1.56
  -3   7   0    2.32    1.79
   3   8   0    1.08    1.37
   3   8   0    0.67    1.96
  -3   8   0    0.03    1.51
  -3   8   0    1.65    2.42
  -3   9   0   -0.20    2.39
  -3  10   0   -4.53    2.75
  -3   0  -1    0.05    0.08
   3  -1   1  331.21   11.24
  -3  -1  -1  312.30   11.07
   3   1  -1  317.20   11.12
  -3   1   1  313.07   11.09
  -3   1   1  317.63   11.21
  -3  -1  -1  337.85   11.14
   3   1  -1  321.95   11.21
  -3  -1   1  310.35   11.11
   3  -1  -1  327.79   11.20
  -3  -1   1  358.73   11.25
   3   1   1  314.38   11.05
   3  -1  -1  309.60   11.09
  -3   1  -1  318.96   11.24
   3   2  -1  248.71    8.97
  -3   2   1  252.29    9.05
  -3  -2  -1  246.30    8.95
  -3   2   1  256.18    8.78
   3  -2   1  252.52    9.06
  -3  -2  -1  244.21    8.84
  -3   2   1  259.31    8.88
  -3  -2   1  252.89    9.02
   3   2   1  253.66    8.94
   3  -2  -1  254.90    9.02
  -3   2  -1  259.14    9.00
   3   2   1  246.46    8.78
  -3  -2   1  264.11    9.02
  -3   3   1  121.62    4.67
   3   3  -1  124.72    4.85
  -3   3   1  130.44    4.94
   3   3  -1  129.07    4.81
   3  -3   1  128.26    4.97
  -3  -3  -1  136.85    4.88
  -3  -3  -1  133.95    4.72
   3   3   1  119.07    4.57
  -3  -3   1  119.01    4.90
   3   3   1  127.24    4.81
  -3   3  -1  126.54    4.83
   3  -3  -1  118.11    4.91
  -3  -3   1  130.78    4.86
  -3   3  -1  126.72    4.94
   3   4  -1   49.41    2.31
  -3   4   1   44.37    2.10
  -3  -4  -1   48.92    2.28
   3   4  -1   47.56    2.44
  -3   4   1   46.21    2.54
  -3  -4  -1   46.14    2.71
  -3   4  -1   46.35    2.36
   3   4   1   48.19    2.01
  -3   4  -1   45.90    2.44
  -3  -4   1   46.67    2.40
  -3  -5  -1   60.31    2.85
   3   5  -1   59.23    3.06
   3   5  -1   61.10    2.96
  -3   5   1   57.75    2.70
  -3   5   1   62.09    3.27
   3   5   1   62.62    2.57
   3   5   1   61.16    3.04
  -3   5  -1   55.48    3.16
  -3   5  -1   57.17    2.96
  -3   6   1   36.87    2.85
   3   6  -1   34.35    2.68
   3   6  -1   33.73    2.39
  -3   6   1   29.04    2.11
   3   6   1   34.53    2.66
   3   6   1   34.16    1.89
  -3   6  -1   41.40    2.98
  -3   6  -1   34.82    2.42
   3   7  -1   86.96    4.59
   3   7  -1   88.36    4.07
  -3   7   1   81.58    4.67
   3   7   1   81.46    4.53
  -3   7  -1   83.43    4.58
  -3   7  -1   83.18    4.20
   3   7   1   89.37    3.76
   3   8  -1    9.27    1.85
  -3   8   1    7.73    1.92
  -3   8  -1    7.10    2.19
  -3   8  -1    8.07    1.83
   3   8   1    9.37    2.27
  -3   9   1   31.54    4.41
  -3   9  -1   38.28    4.52
  -3  10   1    4.82    3.31
  -3  10  -1    0.31    2.77
  -3   0  -2   31.07    1.22
   3   0  -2   36.67    1.35
   3   0   2   33.27    1.22
   3   0  -2   34.14    1.26
  -3   0   2   34.25    1.34
  -3   0   2   32.29    1.26
   3  -1   2  125.57    4.67
  -3  -1  -2  131.01    4.55
  -3   1   2  130.57    4.63
   3   1  -2  132.81    4.57
   3   1  -2  128.61    4.71
  -3  -1   2  128.81    4.56
   3   1   2  126.98    4.52
   3  -1  -2  136.67    4.61
   3  -1  -2  128.65    4.53
  -3  -1   2  129.37    4.71
  -3   1  -2  124.97    4.67
  -3   2   2  118.39    4.25
  -3   2   2  120.27    4.21
   3  -2   2  113.60    4.56
  -3  -2  -2  122.46    4.22
  -3   2   2  116.44    4.50
  -3  -2  -2  127.55    4.43
   3   2  -2  120.83    4.53
   3   2   2  117.68    4.39
  -3  -2   2  121.99    4.54
  -3   2  -2  118.46    4.53
   3  -2  -2  121.02    4.24
   3  -2  -2  124.42    4.47
  -3  -2   2  120.14    4.53
  -3   2  -2  119.23    4.53
   3   3  -2  453.11   14.84
  -3  -3  -2  422.27   14.53
  -3   3   2  407.00   14.83
  -3   3   2  413.42   14.40
  -3  -3  -2  403.77   14.74
   3  -3   2  404.62   14.87
  -3   3   2  410.35   14.49
  -3  -3   2  415.00   14.85
  -3   3  -2  431.61   14.89
   3  -3  -2  435.42   14.81
   3   3   2  401.33   14.34
   3   3   2  406.42   14.70
  -3  -3   2  410.73   14.83
  -3   3  -2  434.00   14.84
   3   4  -2    2.45    0.85
  -3   4   2    3.10    0.39
  -3   4   2    2.41    0.48
  -3  -4  -2    3.96    0.88
  -3   4   2    3.60    1.13
  -3  -4  -2    2.81    0.63
   3   4   2    3.39    0.48
  -3  -4   2    2.93    0.94
   3   4   2    2.35    0.79
  -3   4  -2    1.88    0.92
  -3   4  -2    3.52    0.91
   3   5  -2   11.29    1.63
  -3   5   2    9.17    1.45
  -3  -5  -2   11.97    1.46
  -3   5   2   15.28    1.12
  -3   5   2   13.75    0.89
  -3   5  -2   15.76    1.92
  -3   5  -2   14.95    1.75
   3   5   2   14.35    1.87
   3   5   2   12.89    0.94
  -3   6   2    2.84    1.41
  -3   6   2    3.92    0.77
  -3   6   2    1.86    0.60
   3   6  -2    2.97    1.17
  -3   6  -2    6.13    1.42
  -3   6  -2    2.45    1.31
   3   6   2    2.84    0.62
   3   6   2    2.85    1.29
  -3   7   2   -2.22    1.58
   3   7  -2    1.41    1.49
  -3   7   2    1.00    0.82
  -3   7  -2    1.01    1.60
   3   7   2    2.44    1.88
  -3   7  -2    3.99    1.73
   3   7   2    1.19    0.73
  -3   8   2    1.74    2.53
   3   8  -2    1.12    1.53
   3   8   2   -2.76    1.96
  -3   8  -2    1.00    1.98
  -3   8  -2    1.62    2.00
   3   9  -2   -1.32    2.08
  -3   9   2    3.18    2.92
  -3   9  -2    6.11    2.54
  -3   9  -2   -2.53    2.27
   3   9   2    6.13    2.78
  -3  10   2    2.14    3.00
  -3  10  -2   -0.32    2.73
   3   0  -3    0.08    0.23
  -3   0   3    0.08    0.16
  -3   0   3    0.19    0.25
   3   0  -3    0.05    0.15
  -3   1   3    7.29    0.53
   3   1  -3    6.40    0.65
   3  -1   3    7.81    0.66
   3   1  -3    7.14    0.47
   3  -1  -3    7.13    0.44
   3  -1  -3    7.32    0.51
  -3  -1   3    7.18    0.70
   3   1   3    7.29    0.42
  -3   1  -3    7.03    0.60
  -3  -1   3    7.22    0.46
  -3  -2  -3   12.15    0.80
   3   2  -3   12.74    0.98
   3  -2   3   10.95    1.15
  -3   2   3   11.44    0.93
  -3  -2   3   11.44    0.70
   3   2   3   11.86    0.77
  -3   2  -3   13.08    0.93
   3  -2  -3   11.68    0.56
  -3   2  -3   12.18    0.93
   3  -2  -3   11.87    0.80
  -3  -2   3   11.41    1.04
   3   3  -3   12.15    1.40
  -3  -3  -3   12.57    1.20
  -3  -3  -3   12.10    0.72
  -3   3   3   14.01    1.25
   3  -3   3   14.61    1.41
   3   3   3   15.02    1.12
  -3  -3   3   13.48    1.30
  -3   3  -3   13.90    1.20
   3  -3  -3   13.81    1.21
  -3  -3   3   13.67    1.26
  -3   4   3   10.73    1.31
  -3  -4  -3    8.23    0.90
  -3  -4  -3    8.09    1.20
   3   4  -3    9.86    1.23
  -3   4   3    9.02    0.52
  -3   4   3    9.73    0.58
  -3   4  -3    9.41    1.22
  -3   4  -3    6.62    1.09
   3   4   3    8.58    1.14
  -3  -5  -3   12.09    1.27
  -3   5   3   12.95    1.81
   3   5  -3   13.58    1.75
  -3   5   3   12.51    0.90
  -3   5   3   13.71    0.77
  -3   5  -3   14.60    1.88
  -3   5  -3   12.54    1.63
   3   5   3   11.70    1.46
  -3   6   3    6.82    0.73
  -3   6   3    5.44    0.68
  -3  -6  -3    4.59    1.28
  -3   6   3    7.64    1.68
   3   6  -3    4.63    1.39
  -3   6  -3    3.96    1.38
   3   6   3    5.50    1.65
  -3   6  -3    5.52    1.41
  -3   7   3   17.14    2.40
  -3   7   3   15.06    1.52
   3   7  -3   13.11    1.86
   3   7   3   13.43    2.11
  -3   7  -3   16.78    2.16
  -3   7  -3   15.51    2.13
  -3   8   3    3.64    2.29
   3   8  -3    1.58    1.97
  -3   8  -3    2.13    2.06
   3   8   3    1.80    2.16
  -3   8  -3    2.10    1.89
   3   9  -3   20.18    2.74
  -3   9   3   17.68    3.28
  -3   9  -3   16.34    2.87
   3   9   3   22.33    3.02
  -3   9  -3   18.48    2.72
  -3  10   3    3.15    3.42
  -3  10  -3   -2.02    2.57
   3   0  -4  176.08    6.10
  -3   0   4  174.41    6.11
  -3   0   4  169.25    6.19
   3   0  -4  166.53    6.23
   3   0   4  180.39    6.08
   3   0   4  178.23    6.01
  -3   1   4   41.52    1.67
   3   1  -4   43.00    1.65
   3  -1   4   43.04    1.81
   3   1   4   41.02    1.54
  -3  -1   4   40.83    1.62
  -3  -1   4   38.69    1.87
   3  -1  -4   41.62    1.61
   3  -1  -4   43.00    1.64
  -3  -2  -4   39.12    1.55
   3  -2   4   37.89    1.94
  -3   2   4   37.08    1.70
   3   2  -4   34.86    1.82
  -3  -2   4   34.95    1.93
  -3  -2   4   36.69    1.55
   3  -2  -4   37.89    1.41
   3  -2  -4   37.59    1.61
  -3   2  -4   35.43    1.78
   3   2   4   38.15    1.61
  -3   2  -4   36.74    1.84
  -3   3   4    2.77    0.66
  -3  -3  -4    2.37    0.68
   3   3  -4    2.16    0.80
   3  -3   4    2.85    0.97
  -3  -3  -4    2.66    0.29
  -3   3  -4    1.73    0.72
   3  -3  -4    3.49    0.63
  -3  -3   4    1.47    0.90
  -3   3  -4    4.14    0.96
   3   3   4    2.42    0.57
   3  -3  -4    3.21    0.36
   3   4  -4   12.31    1.56
  -3   4   4   11.44    1.46
  -3  -4  -4   14.43    1.33
  -3  -4  -4   12.55    0.92
   3   4   4   13.71    1.41
  -3   4  -4   11.66    1.49
  -3   4  -4   12.41    1.43
   3   5  -4    2.89    1.10
  -3  -5  -4    3.10    0.84
  -3   5   4    5.12    1.35
   3   5   4    6.19    1.40
  -3   5  -4    2.16    1.16
  -3   5  -4    2.94    1.14
  -3  -6  -4   10.46    1.25
  -3   6   4    7.58    1.69
   3   6  -4    9.43    1.61
   3   6   4   10.92    1.67
  -3   6  -4    9.81    1.74
  -3   6  -4   10.99    1.61
  -3   7   4    7.94    2.07
   3   7  -4   10.53    2.01
  -3   7  -4    7.54    1.92
   3   7   4   10.12    1.95
  -3   7  -4    6.77    1.91
  -3   8   4   30.57    3.44
   3   8  -4   38.33    3.28
  -3   8  -4   26.40    3.47
   3   8   4   38.55    4.14
  -3   8  -4   26.68    3.44
   3   9  -4   25.21    3.03
  -3   9   4   24.35    3.43
   3   9   4   24.34    3.33
  -3   9  -4   32.04    4.23
  -3  10   4   -1.33    3.49
   3  10   4    1.21    3.09
   3   0   5    0.15    0.15
   3   0  -5   -0.02    0.21
  -3   0   5    0.12    0.35
   3   0  -5   -0.08    0.29
  -3   0   5   -0.09    0.22
   3   1  -5  164.47    5.92
  -3   1   5  169.10    5.96
  -3  -1  -5  168.76    5.76
   3  -1   5  161.51    6.04
   3   1  -5  174.39    6.21
   3  -1  -5  164.81    5.92
   3  -1  -5  169.56    5.90
  -3  -1   5  163.21    6.14
   3   1   5  165.13    5.81
  -3  -1   5  167.77    5.92
  -3  -2  -5   84.79    2.96
  -3   2   5   79.93    3.18
   3  -2   5   77.53    3.31
   3   2  -5   80.84    3.45
  -3  -2   5   78.47    3.05
  -3   2  -5   79.62    3.45
   3   2   5   84.82    3.06
   3  -2  -5   79.12    2.89
  -3  -2   5   76.28    3.41
   3  -2  -5   81.90    3.06
  -3  -3  -5   63.40    2.47
   3   3  -5   58.83    2.86
  -3   3   5   57.79    2.68
  -3  -3   5   62.88    2.48
  -3   3  -5   51.36    2.85
   3  -3  -5   57.88    2.17
   3   3   5   60.67    2.52
  -3   3  -5   56.05    2.82
   3  -3  -5   60.75    2.50
  -3  -4  -5  124.40    4.88
   3   4  -5  125.35    5.26
  -3   4   5  129.87    5.25
  -3   4  -5  123.83    5.18
   3   4   5  127.63    4.92
  -3   4  -5  120.38    5.23
   3  -4  -5  123.91    4.49
   3   5  -5    0.54    1.14
  -3  -5  -5    1.37    0.68
  -3   5   5    0.72    1.14
   3   5   5    1.60    1.19
  -3   5  -5   -0.06    1.06
  -3   5  -5    1.18    1.15
  -3   6   5   66.62    4.16
  -3  -6  -5   72.19    3.18
   3   6  -5   76.90    4.12
  -3   6  -5   69.81    3.97
   3   6   5   72.75    3.86
  -3   6  -5   70.10    3.94
  -3   7   5    2.01    1.90
   3   7  -5   -1.98    1.46
  -3   7  -5   -0.68    1.73
  -3   7  -5    0.48    1.64
   3   7   5    1.52    2.00
  -3   8   5    4.15    2.49
   3   8  -5    2.54    2.03
   3   8   5    3.99    2.21
  -3   8  -5    4.15    2.15
  -3   8  -5    7.09    2.66
   3   9  -5   20.59    3.19
  -3   9   5   18.07    3.61
  -3   9  -5   22.52    3.36
   3   9   5   19.01    3.26
   3  10  -5   -0.13    4.15
  -3  10   5    5.87    3.92
   3  10   5    2.04    3.42
  -3  10  -5    3.97    3.03
   3   0  -6   58.99    2.26
  -3   0   6   59.90    2.28
   3   0  -6   58.35    2.47
   3   0   6   60.06    2.15
   3   1  -6  212.26    7.78
  -3   1   6  208.57    7.48
   3  -1   6  206.59    7.39
  -3  -1  -6  211.76    7.29
   3  -1   6  210.36    7.60
   3   1  -6  217.62    7.48
   3   1   6  209.97    7.34
   3  -1  -6  211.08    7.43
  -3  -1   6  208.67    7.70
   3  -1  -6  212.49    7.50
  -3  -1   6  213.73    7.46
  -3  -2  -6    2.88    0.39
   3   2  -6    2.32    0.75
   3  -2   6    2.66    0.82
  -3   2   6    2.63    0.55
  -3   2  -6    2.53    0.81
   3   2   6    2.64    0.47
  -3  -2   6    2.57    0.82
   3  -2  -6    2.56    0.48
  -3  -2   6    2.36    0.49
   3  -2  -6    2.06    0.35
  -3  -3  -6    0.38    0.47
   3   3  -6    1.87    0.89
  -3   3   6    0.85    0.70
  -3   3  -6    1.20    0.83
   3   3   6    1.32    0.56
   3  -3  -6   -0.04    0.51
  -3  -3   6    0.63    0.50
   3  -3  -6    0.55    0.25
  -3  -4  -6   23.98    0.97
   3   4  -6   23.35    1.93
  -3   4   6   25.47    2.14
  -3  -4  -6   23.26    1.53
   3  -4  -6   23.49    1.04
   3   4   6   22.56    1.71
  -3   4  -6   23.46    1.99
  -3  -4   6   22.76    1.52
  -3  -5  -6   85.14    3.35
   3   5  -6   86.86    4.35
  -3   5   6   90.88    4.23
  -3   5  -6   86.69    4.21
   3   5   6   79.21    4.03
  -3   6   6   34.58    3.15
   3   6  -6   38.84    3.10
  -3  -6  -6   38.60    2.10
   3   6   6   43.27    3.15
  -3   6  -6   40.07    3.27
   3   7  -6    0.51    1.77
  -3   7   6    2.92    2.11
  -3   7  -6    4.00    2.10
   3   7   6    1.26    1.89
  -3   8   6    2.26    2.77
   3   8  -6    4.90    2.44
  -3   8  -6    1.56    2.30
   3   8   6    0.89    2.22
   3   9  -6   30.23    4.20
  -3   9   6   44.89    5.38
   3   9   6   34.45    3.80
  -3   9  -6   30.25    3.74
  -3  10   6    4.82    3.85
   3  10  -6   -4.17    2.82
  -3  10  -6    0.54    3.06
   3  10   6    6.69    3.86
  -3   0   7    0.41    0.32
   3   0   7   -0.09    0.21
   3   0  -7   -0.56    0.52
   3   0  -7   -0.07    0.29
  -3   1   7    3.72    0.52
   3   1  -7    4.34    0.88
  -3  -1  -7    3.63    0.33
   3  -1   7    3.93    0.47
   3   1  -7    2.84    0.50
   3  -1   7    4.41    0.76
   3   1   7    3.59    0.37
   3  -1  -7    3.09    0.50
   3  -1  -7    3.78    0.51
  -3  -1   7    3.57    0.48
  -3  -2  -7    2.60    0.33
   3   2  -7    1.80    0.79
  -3   2   7    3.30    0.61
   3  -2   7    2.92    0.84
   3   2   7    3.77    0.52
  -3  -2   7    2.16    0.55
   3  -2  -7    2.56    0.46
  -3   2  -7    1.66    0.75
   3  -2  -7    2.61    0.41
  -3   3   7    0.87    0.71
  -3  -3  -7    1.18    0.42
   3   3  -7    1.83    1.02
   3  -3  -7    1.21    0.44
   3  -3  -7    0.87    0.29
   3   3   7    0.50    0.67
  -3   3  -7    0.42    0.88
  -3  -3   7    1.47    0.61
   3   4  -7    3.92    1.22
  -3  -4  -7    3.58    0.79
  -3   4   7    3.94    1.20
  -3   4  -7    3.93    1.14
   3  -4  -7    3.98    0.50
  -3  -4   7    3.66    0.83
   3   4   7    3.45    0.90
   3   5  -7   42.08    3.08
  -3   5   7   39.47    2.94
  -3  -5  -7   37.49    1.82
  -3   5  -7   40.08    2.88
   3   5   7   43.99    2.87
  -3  -5   7   40.66    2.22
  -3   6   7    5.55    1.81
   3   6  -7    8.61    1.92
  -3   6  -7    6.04    1.94
   3   6   7    8.34    1.79
   3   7  -7    1.80    2.00
  -3   7   7    0.83    1.87
  -3   7  -7    1.47    2.06
   3   7   7    0.45    1.91
   3   8  -7   25.84    3.78
  -3   8   7   34.00    4.39
   3   8   7   28.69    3.12
  -3   8  -7   25.92    3.90
   3   9  -7   12.49    2.90
  -3   9   7   11.02    3.57
   3   9   7   17.50    3.51
  -3   9  -7    9.02    3.08
   3   0  -8   10.86    1.65
   3   0  -8   11.02    0.75
   3   0   8   11.07    0.65
  -3   0   8   11.28    0.79
   3   1  -8    9.47    0.81
   3  -1   8    7.59    0.66
   3  -1   8   10.21    1.16
  -3  -1  -8    8.44    0.50
   3   1  -8    8.33    1.21
  -3   1   8    7.87    0.76
  -3  -1   8    8.46    0.83
   3  -1  -8    8.32    0.70
   3  -1  -8    8.63    0.84
  -3   1  -8    7.84    1.04
   3   1   8    8.64    0.62
   3   2  -8   29.94    1.97
   3  -2   8   29.37    2.11
   3  -2   8   32.62    1.45
  -3   2   8   29.34    1.56
  -3  -2  -8   30.02    1.20
   3   2   8   29.34    1.46
  -3  -2   8   28.67    1.50
  -3   2  -8   29.10    1.99
   3  -2  -8   29.17    1.37
   3  -2  -8   28.50    1.39
  -3   3   8   23.10    1.83
   3   3  -8   30.37    2.23
  -3  -3  -8   25.84    1.21
   3  -3  -8   23.79    1.42
  -3   3  -8   26.74    2.11
   3   3   8   25.35    1.59
  -3  -3   8   22.00    1.44
   3  -3  -8   25.62    1.15
   3   4  -8    8.05    1.47
  -3  -4  -8    8.44    1.01
  -3   4   8    9.16    1.40
   3  -4  -8    8.00    0.64
  -3   4  -8    9.19    1.49
   3   4   8   11.56    1.50
  -3  -4   8    8.82    1.01
  -3   5   8   26.71    2.65
  -3  -5  -8   26.91    1.25
   3   5  -8   29.35    2.53
   3   5   8   26.91    2.54
  -3   5  -8   24.72    2.54
   3  -5  -8   27.62    1.28
  -3  -5   8   29.77    1.99
   3   6  -8   -1.74    1.61
  -3   6   8   -0.38    1.76
  -3   6  -8    2.16    1.94
   3   6   8   -0.13    1.52
  -3  -6   8   -0.21    1.07
  -3   7   8    6.79    2.25
   3   7  -8   14.19    2.82
  -3   7  -8    8.17    2.25
   3   7   8   10.65    2.20
  -3  -7   8    4.68    1.48
   3   8  -8   -0.69    2.30
  -3   8   8    0.68    2.46
  -3  -8   8   -0.98    1.57
  -3   8  -8    0.99    2.30
   3   8   8    0.57    2.48
  -3   9   8   -0.50    3.30
   3   9  -8    4.16    2.78
   3   9   8    4.08    3.19
  -3  -9   8   -0.68    1.95
  -3   9  -8    1.53    2.84
   3   0  -9    0.19    0.65
   3   0  -9   -0.05    0.36
   3   0   9   -0.67    0.30
  -3   0   9   -0.05    0.40
  -3  -1  -9    0.60    0.29
   3   1  -9    0.35    0.76
   3  -1   9    1.64    0.81
  -3   1   9    1.06    0.47
   3  -1   9    1.41    0.40
  -3  -1   9    1.14    0.56
  -3   1  -9    0.87    0.83
   3  -1  -9    0.95    0.61
   3   1   9    1.32    0.40
   3  -1  -9    0.75    0.46
  -3   2   9   16.53    1.30
  -3  -2  -9   17.08    0.81
   3  -2   9   13.57    1.38
   3   2  -9   13.79    1.64
   3  -2  -9   17.95    1.02
  -3   2  -9   15.88    1.75
   3  -2  -9   17.81    1.10
   3   2   9   15.49    1.17
  -3  -2   9   15.68    1.17
   3   3  -9   20.11    2.22
   3  -3   9   16.71    1.36
  -3  -3  -9   16.90    0.94
   3  -3  -9   18.70    1.00
  -3   3  -9   15.48    2.04
   3   3   9   18.05    1.46
   3  -3  -9   14.65    1.29
  -3  -3   9   15.86    1.32
   3   4  -9   12.65    1.81
  -3  -4  -9   13.89    1.04
  -3   4   9   12.97    1.68
   3  -4  -9   14.39    0.83
  -3  -4   9   11.82    1.36
   3   4   9   12.84    1.48
  -3   4  -9   13.16    2.01
   3   5  -9   22.51    2.77
  -3   5   9   24.20    2.72
   3   5   9   24.65    2.64
  -3   5  -9   19.62    2.56
  -3  -5   9   24.01    1.83
   3  -5  -9   23.05    1.13
   3   6  -9    2.97    1.74
  -3   6   9    6.44    2.38
  -3   6  -9    7.05    2.12
  -3  -6   9    4.02    1.21
   3   6   9    1.88    1.79
   3   7  -9    3.99    2.44
  -3   7   9    1.84    2.19
  -3  -7   9    3.73    1.66
  -3   7  -9    2.32    2.31
   3   7   9    2.27    2.24
   3   8  -9   -0.42    2.42
  -3   8   9    1.11    2.76
  -3   8  -9    2.80    2.58
  -3  -8   9    3.92    1.94
   3   8   9   -3.37    2.89
  -3   9   9    3.06    3.50
   3   9  -9    6.00    2.94
  -3   9  -9    2.72    3.13
  -3  -9   9   11.77    2.49
   3   0  10   77.86    3.03
   3   0 -10   86.36    3.67
   3   0 -10   80.09    3.55
  -3   0 -10   83.03    3.54
   3  -1  10    4.09    1.05
   3   1 -10    4.40    1.06
   3  -1  10    5.34    0.70
  -3   1  10    6.98    0.94
   3  -1 -10    6.14    0.98
  -3   1 -10    5.36    1.08
   3  -1 -10    4.88    0.65
   3   1  10    5.43    0.59
  -3  -1  10    5.19    0.73
   3  -2  10   28.67    1.60
   3   2 -10   28.16    2.31
  -3  -2 -10   29.66    1.24
  -3   2  10   30.40    1.90
  -3  -2  10   30.60    1.63
   3  -2 -10   30.62    1.70
  -3   2 -10   31.02    2.44
   3   2  10   30.45    1.58
   3  -2 -10   27.64    1.47
  -3  -3 -10   27.05    1.23
   3   3 -10   31.07    2.64
   3  -3  10   28.71    1.70
  -3   3  10   26.08    2.27
   3  -3 -10   25.72    1.45
   3   3  10   26.46    1.72
  -3  -3  10   27.45    1.72
  -3   3 -10   34.03    2.83
   3   4 -10   27.36    2.72
   3  -4  10   30.43    1.95
  -3   4  10   27.08    2.65
  -3  -4 -10   26.77    1.41
  -3   4 -10   25.89    2.77
  -3  -4  10   30.75    2.01
   3  -4 -10   28.77    1.34
   3   4  10   25.72    2.13
   3   5 -10    0.49    1.71
   3  -5  10    0.93    1.10
  -3   5  10    1.58    1.63
   3  -5 -10    0.30    0.44
   3   5  10   -1.42    1.55
  -3   5 -10    1.59    1.64
  -3  -5  10   -1.63    0.98
   3   6 -10    6.55    2.09
  -3   6  10    6.84    2.38
  -3  -6  10    6.84    1.51
   3   6  10    4.54    2.03
  -3   6 -10    2.93    2.10
  -3   7  10   -1.10    2.53
   3   7 -10    1.83    2.65
  -3   7 -10    1.95    2.59
  -3  -7  10   -0.39    1.39
   3   8 -10   -1.10    2.59
  -3   8  10    0.91    3.03
  -3  -8  10   -3.51    1.65
  -3   8 -10   -1.82    2.64
   3   0 -11    1.08    0.81
   3   0  11   -0.11    0.92
  -3   0 -11   -1.44    0.88
   3   0  11   -0.27    0.39
  -3   0  11    0.44    0.67
   3  -1  11   13.97    1.62
   3  -1  11   15.49    1.08
  -3   1  11   14.56    1.63
   3   1 -11   12.61    1.71
   3   1  11   16.71    1.04
  -3  -1  11   16.84    1.28
  -3   1 -11   12.75    1.81
   3  -1 -11   14.53    1.59
   3  -2  11   39.63    1.86
  -3   2  11   34.51    2.58
   3   2 -11   37.17    2.73
  -3  -2 -11   37.73    1.51
  -3   2 -11   38.73    2.76
   3  -2 -11   38.65    2.17
  -3  -2  11   37.60    1.91
   3   2  11   36.29    1.84
  -3   3  11    6.93    1.45
   3  -3  11    9.14    1.22
   3   3 -11    9.68    1.82
  -3  -3  11   10.09    1.16
   3  -3 -11    7.76    0.94
  -3   3 -11    7.87    1.63
   3   3  11   10.42    1.43
  -3   4  11   36.04    3.02
   3   4 -11   29.68    3.22
   3  -4  11   34.96    2.10
   3  -4 -11   33.98    1.65
  -3   4 -11   37.80    3.36
  -3  -4  11   35.62    2.08
   3   4  11   34.84    2.39
   3   5 -11    6.09    2.15
  -3   5  11    8.17    2.13
   3  -5  11    6.00    1.33
  -3   5 -11    3.10    1.92
  -3  -5  11    7.52    1.30
   3   6 -11    7.05    2.42
  -3   6  11   10.33    2.59
   3  -6  11    8.03    1.88
  -3   6 -11   11.03    2.41
  -3  -6  11   10.99    1.65
  -3   7  11   -3.80    3.16
   3   7 -11    6.22    2.98
  -3   7 -11    5.78    3.10
  -3  -7  11    7.09    1.82
   3  -8  11   -2.15    2.00
   3   8 -11   -0.93    2.76
  -3  -8  11    2.55    1.98
  -3   8 -11   -3.91    2.84
   3   0 -12   20.54    2.12
   3   0  12   17.78    1.81
  -3   0 -12   20.63    1.86
   3   0  12   18.80    1.16
  -3   0  12   17.37    1.43
   3   1 -12    1.33    1.19
  -3  -1 -12    2.55    1.02
  -3   1  12    2.94    0.95
   3  -1 -12    3.07    1.00
   3   1  12    1.73    0.59
  -3  -1  12    2.34    0.71
  -3   1 -12    2.93    1.18
   3  -2  12   25.88    1.59
  -3  -2 -12   28.83    1.81
   3   2 -12   36.41    2.86
  -3   2  12   27.10    2.14
   3  -2 -12   28.89    1.94
  -3  -2  12   25.82    1.67
   3   2  12   26.23    1.66
  -3   3  12   -0.65    1.24
   3  -3  12    0.14    0.79
   3   3 -12    0.44    1.58
  -3  -3  12    0.02    0.81
  -3   3 -12    1.10    1.48
   3  -3 -12    1.51    0.95
  -3   4  12    1.74    1.77
   3   4 -12   -2.09    1.59
   3  -4  12    0.37    0.93
  -3   4 -12   -0.90    1.65
  -3  -4  12   -0.75    0.92
  -3   5  12    3.66    2.18
   3   5 -12    4.67    2.43
   3  -5  12    0.28    1.16
  -3   5 -12    0.68    1.92
  -3  -5  12   -0.75    1.13
   3   6 -12    3.90    2.12
   3  -6  12    5.03    1.60
  -3   6 -12    5.59    2.19
  -3  -6  12   10.93    1.80
   3   7 -12    7.84    3.07
   3  -7  12   -0.33    1.66
  -3  -7  12   -2.41    1.57
  -3   7 -12    2.49    2.79
   3  -8  12    4.66    2.15
   3   8 -12   -2.62    3.08
  -3   8 -12   -3.14    3.27
  -3  -8  12   -3.00    2.03
  -3   0  13    0.18    0.80
  -3   0 -13   -0.27    1.01
   3   0  13   -0.31    0.59
   3   0 -13   -0.66    1.16
  -3  -1 -13    6.77    1.36
  -3   1  13    5.97    1.07
   3   1 -13    6.33    1.54
   3  -1  13    5.22    0.90
   3  -1 -13    4.69    1.27
  -3  -1  13    5.27    0.94
  -3   1 -13    5.18    1.54
   3   1  13    6.29    0.98
   3   2 -13    0.69    1.42
   3  -2  13    1.09    0.78
  -3  -2 -13    0.78    0.97
  -3   2  13    0.04    1.16
   3  -2 -13    2.24    1.02
  -3   2 -13    2.00    1.34
  -3  -2  13    3.24    0.95
  -3   3  13    2.52    1.49
   3   3 -13    3.53    1.77
   3  -3  13    4.47    1.00
   3  -3 -13    4.33    1.11
  -3  -3  13    2.03    0.99
  -3   3 -13    5.97    2.04
   3   4 -13    9.01    2.21
   3  -4  13   11.52    1.40
  -3   4 -13   10.42    2.26
  -3  -4  13   13.98    1.70
   3   5 -13   14.72    2.77
   3  -5  13   12.49    1.67
  -3  -5  13   11.11    1.61
  -3   5 -13   15.25    2.97
   3   6 -13    0.64    2.23
   3  -6  13    1.84    1.73
  -3   6 -13    0.16    2.30
  -3  -6  13   -1.44    1.39
   3  -7  13   -1.37    1.77
   3   7 -13    4.20    3.30
  -3   7 -13   -1.58    2.74
  -3  -7  13   -2.46    1.64
  -3   0 -14   -0.78    1.46
   3   0 -14   -0.39    1.26
  -3   0  14    0.64    0.88
   3  -1  14   -1.41    0.78
   3   1 -14    0.45    1.51
  -3  -1 -14    0.24    1.25
  -3   1  14   -1.39    1.02
   3  -1 -14   -0.84    1.34
  -3  -1  14    1.38    0.95
  -3   1 -14   -1.11    1.22
  -3  -2 -14    9.39    1.45
   3   2 -14   14.49    2.43
   3  -2  14   10.46    1.21
  -3  -2  14   12.45    1.58
   3  -2 -14   13.89    1.65
   3   3 -14    2.38    1.98
   3  -3  14    1.90    1.01
  -3   3 -14    2.76    1.79
  -3  -3  14    5.00    1.17
   3   4 -14    6.85    2.53
   3  -4  14   -0.07    1.15
  -3  -4  14    0.72    1.19
  -3   4 -14   -0.95    2.05
   3   5 -14    3.72    2.45
  -3   5 -14    5.62    2.65
   3  -6  14    3.91    1.63
   3   6 -14    2.98    2.81
  -3   6 -14    0.95    2.73
  -3  -6  14    4.84    1.72
  -3   0 -15   -1.28    1.36
   3   0 -15   -0.42    1.68
  -3   0  15   -2.48    1.48
  -3  -1 -15    7.32    1.50
   3  -1 -15    9.67    1.71
  -3   1 -15    7.88    2.02
  -3  -1  15    8.72    1.24
   3   2 -15    5.38    1.94
   3  -2 -15    7.17    1.67
  -3  -2  15    4.74    1.22
  -3   2 -15    5.89    1.89
   3   3 -15    2.13    2.25
  -3   3 -15    2.48    1.93
  -3  -3  15    2.84    1.29
   3   4 -15   14.09    2.89
   3  -4  15    8.50    1.50
  -3   4 -15   12.28    2.96
   3   5 -15    3.11    2.64
   3  -5  15    4.14    1.62
  -3  -5  15    4.52    1.58
  -3   5 -15    2.67    2.42
   3  -6  15   -0.39    1.74
   3   6 -15   -0.95    2.98
  -3  -6  15    5.00    1.94
  -3   6 -15    6.33    3.31
  -3   0 -16    4.40    1.88
   3   1 -16    1.89    2.21
  -3  -1 -16    1.00    1.76
   3  -1 -16   -0.28    1.54
  -3   1 -16    2.63    1.84
   3   2 -16    2.10    2.37
  -3   2 -16    2.92    1.92
   3   3 -16   17.77    2.78
  -3  -3  16   11.68    1.64
  -3   3 -16   17.57    2.96
   3   4 -16    3.00    2.66
  -3  -4  16    2.65    1.59
  -3   4 -16    2.26    2.60
   3   5 -16    2.54    3.04
  -3   5 -16    5.55    3.27
  -3  -5  16    1.41    1.76
  -3   0 -17   -0.80    1.87
   3   0 -17    0.07    1.95
   3   1 -17   13.16    2.56
  -3   1 -17   12.75    2.45
   3   2 -17    2.46    2.15
  -3   2 -17    4.42    2.66
   3   3 -17    2.69    2.35
  -3   3 -17    1.86    2.25
   3   4 -17   12.34    3.19
  -3   4 -17   17.18    3.23
   3   0 -18   24.40    3.29
  -3   0 -18   20.30    3.05
   3   1 -18    0.57    2.33
  -3   1 -18   -0.27    2.23
   3   2 -18    1.24    2.56
  -3   2 -18    2.69    2.42
  -4   0   0  430.47   14.82
   4   0   0  439.59   14.85
  -4   0   0  430.96   14.80
   4   0   0  422.35   14.81
  -4  -1   0    0.01    0.12
  -4   1   0   -0.05    0.15
   4   1   0    0.03    0.16
  -4  -1   0   -0.08    0.18
   4   1   0   -0.05    0.12
  -4   1   0   -0.16    0.22
   4  -1   0    0.13    0.24
   4  -2   0  122.67    4.57
  -4  -2   0  118.47    4.49
  -4  -2   0  122.46    4.44
  -4   2   0  119.42    4.57
   4   2   0  122.60    4.40
  -4  -3   0   -0.42    0.53
   4  -3   0   -0.11    0.60
  -4   3   0   -0.06    0.50
  -4  -3   0    0.36    0.45
   4   3   0   -0.04    0.36
  -4   3   0    0.50    0.50
  -4   4   0   -0.01    0.61
   4   4   0   -0.41    0.50
  -4  -4   0   -0.94    0.67
   4   4   0   -0.57    0.74
  -4   4   0    0.78    0.87
  -4  -5   0    0.23    0.89
   4   5   0   -1.27    0.80
  -4   5   0    0.54    1.06
  -4   5   0    0.16    0.80
   4   5   0    0.59    0.65
   4   6   0   28.81    2.40
   4   6   0   32.16    2.60
  -4   6   0   27.58    2.30
  -4   6   0   34.72    2.89
  -4   7   0   -0.75    1.20
  -4   7   0   -1.05    1.56
   4   7   0   -1.23    1.37
   4   7   0    0.72    1.13
   4   8   0   97.27    4.47
  -4   8   0   91.36    5.47
  -4   8   0   90.36    4.62
  -4   9   0   -1.38    2.55
  -4  10   0    5.39    3.20
   4   0  -1   -0.03    0.12
  -4   0  -1   -0.02    0.10
   4   0   1    0.05    0.09
  -4   0   1    0.01    0.15
   4   0  -1    0.07    0.13
  -4   0   1    0.03    0.10
   4  -1   1   87.72    3.23
  -4  -1  -1   83.27    3.05
  -4   1   1   87.32    3.09
   4   1  -1   86.66    3.10
  -4  -1   1   85.96    3.09
  -4  -1   1   86.32    3.21
   4   1   1   88.38    3.05
  -4   1  -1   85.66    3.23
   4  -1  -1   87.97    3.10
   4  -1  -1   89.83    3.19
  -4   2   1   13.83    0.66
   4  -2   1   12.75    1.04
  -4   2   1   13.67    1.00
  -4  -2  -1   13.02    0.72
  -4  -2  -1   13.09    0.83
   4   2  -1   12.77    0.83
  -4   2  -1   12.25    0.91
   4   2   1   13.18    0.66
   4  -2  -1   13.14    0.92
  -4  -2   1   11.97    0.94
   4   3  -1   28.09    1.53
  -4  -3  -1   30.21    1.61
  -4   3   1   31.00    1.30
   4  -3   1   29.78    1.77
  -4   3   1   27.39    1.42
  -4  -3  -1   29.23    1.46
  -4   3   1   28.29    1.65
  -4   3  -1   27.14    1.68
  -4   3  -1   27.78    1.54
  -4  -3   1   30.09    1.65
  -4  -3   1   29.00    1.67
   4   3   1   29.97    1.54
   4   3   1   29.72    1.28
   4  -3  -1   29.19    1.72
  -4  -4  -1   56.52    2.56
   4   4  -1   57.56    2.64
  -4   4   1   58.83    2.49
  -4  -4  -1   59.86    3.07
  -4   4   1   52.95    2.91
  -4   4  -1   59.78    2.98
  -4  -4   1   52.85    2.74
   4   4   1   58.26    2.33
  -4   4  -1   55.98    2.69
   4   5  -1    0.14    0.91
  -4   5   1    0.26    1.02
  -4   5   1    0.27    0.70
  -4  -5  -1    1.26    0.86
   4   5   1   -0.22    0.57
  -4   5  -1    1.28    0.91
   4   5   1   -0.26    0.96
  -4   5  -1    0.64    0.88
   4   6  -1   48.41    2.72
  -4   6   1   49.04    2.66
  -4   6   1   50.26    3.25
   4   6   1   53.79    3.09
  -4   6  -1   52.32    3.26
  -4   6  -1   56.60    3.04
   4   6   1   47.38    2.40
  -4   7   1   -0.57    1.65
  -4   7   1   -0.32    1.35
   4   7  -1    0.73    1.24
   4   7   1    0.25    1.46
  -4   7  -1    2.30    1.60
   4   7   1    0.34    0.86
  -4   7  -1   -0.01    1.45
   4   8  -1    3.28    1.60
  -4   8   1    0.03    1.41
   4   8   1    0.43    1.96
  -4   8  -1    6.61    2.48
  -4   8  -1    5.33    1.91
  -4   9   1    0.48    2.73
  -4   9  -1    0.02    2.38
  -4  10   1   20.72    3.77
  -4  10  -1   16.23    3.37
  -4   0   2  277.87    9.74
   4   0  -2  259.74    9.73
   4   0  -2  290.90    9.68
  -4   0   2  283.42    9.68
  -4   0  -2  285.93    9.63
  -4   1   2  449.28   15.76
   4   1  -2  452.76   15.69
   4  -1   2  479.84   15.81
   4   1  -2  441.98   15.82
  -4   1   2  428.17   15.66
  -4  -1  -2  458.23   15.64
   4  -1  -2  446.91   15.73
   4  -1  -2  466.23   15.67
  -4   1  -2  446.43   15.80
  -4  -1   2  444.54   15.68
  -4  -1   2  493.53   15.87
  -4  -2  -2    4.69    0.55
   4  -2   2    3.87    0.63
   4   2  -2    4.48    0.68
  -4   2   2    3.56    0.54
  -4   2   2    4.71    0.45
  -4   2   2    3.16    0.39
   4  -2  -2    4.44    0.59
  -4   2  -2    4.29    0.60
   4  -2  -2    2.96    0.35
   4   2   2    3.77    0.46
  -4  -2   2    4.30    0.62
  -4  -2   2    4.03    0.44
  -4   3   2    4.26    0.75
  -4   3   2    3.85    0.52
  -4   3   2    4.01    0.46
  -4  -3  -2    4.63    0.78
   4   3  -2    4.45    0.72
   4  -3   2    2.17    0.75
  -4  -3  -2    3.85    0.59
  -4   3  -2    3.55    0.68
  -4  -3   2    5.25    0.85
  -4  -3   2    4.09    0.79
   4  -3  -2    4.30    0.73
  -4   3  -2    3.44    0.71
   4   3   2    4.34    0.36
   4   3   2    4.61    0.66
  -4   4   2    4.71    0.66
  -4   4   2    5.27    0.60
  -4  -4  -2    5.24    1.07
   4   4  -2    7.09    1.13
  -4   4   2    6.66    1.20
  -4  -4  -2    4.55    0.71
  -4   4  -2    5.13    1.06
   4   4   2    5.68    0.95
  -4   4  -2    6.67    1.12
  -4  -4   2    5.03    1.13
   4   4   2    4.89    0.51
  -4  -5  -2  125.53    4.95
  -4   5   2  126.34    4.55
  -4   5   2  122.78    4.74
   4   5  -2  123.25    5.12
  -4   5   2  123.03    5.33
  -4   5  -2  121.51    5.17
   4   5   2  127.37    4.56
   4   5   2  123.37    5.17
  -4   5  -2  126.49    5.37
  -4   6   2   58.64    3.47
  -4   6   2   54.69    2.50
  -4   6   2   53.53    2.27
   4   6  -2   54.38    3.04
  -4   6  -2   49.94    3.28
  -4   6  -2   53.18    3.07
   4   6   2   48.12    2.24
   4   6   2   53.67    3.37
  -4   7   2   13.92    1.61
   4   7  -2   13.88    1.81
  -4   7   2   14.54    2.30
   4   7   2   13.65    1.25
  -4   7  -2   14.93    2.00
   4   7   2   15.27    2.20
  -4   7  -2   15.85    2.14
   4   8  -2   10.81    2.06
  -4   8  -2   11.94    2.16
   4   8   2   16.53    2.57
  -4   8  -2   12.01    2.47
  -4   9   2    0.60    2.65
   4   9  -2   -0.17    2.28
  -4   9  -2    6.22    2.89
  -4   9  -2    2.75    2.26
  -4  10   2    2.07    3.03
  -4  10  -2    0.88    2.78
  -4   0  -3   -0.10    0.15
   4   0  -3    0.03    0.23
   4   0  -3    0.07    0.19
  -4   0   3    0.15    0.28
  -4   0   3   -0.02    0.16
   4   1  -3    0.32    0.31
  -4   1   3    0.11    0.21
  -4  -1  -3    0.14    0.15
  -4   1   3    0.29    0.24
   4  -1   3    0.57    0.38
   4   1  -3    0.42    0.23
  -4  -1   3   -0.12    0.43
   4  -1  -3   -0.02    0.18
   4  -1  -3    0.10    0.22
  -4   1  -3    0.22    0.29
  -4  -1   3    0.33    0.18
  -4  -2  -3    3.34    0.49
  -4   2   3    2.45    0.48
   4  -2   3    2.96    0.68
   4   2  -3    3.45    0.65
  -4  -2  -3    3.00    0.20
  -4  -2   3    3.23    0.70
  -4  -2   3    3.14    0.42
   4  -2  -3    2.41    0.34
   4   2   3    2.65    0.42
  -4   2  -3    2.10    0.52
   4  -2  -3    2.88    0.54
   4  -3   3   39.99    2.30
  -4   3   3   43.55    2.16
  -4  -3  -3   44.94    2.09
  -4  -3  -3   43.98    1.70
  -4   3   3   43.14    1.59
  -4   3   3   41.32    1.63
   4  -3  -3   45.12    2.10
  -4   3  -3   42.87    2.49
   4  -3  -3   45.04    1.71
  -4  -3   3   39.82    2.22
   4   3   3   45.98    1.98
  -4   3  -3   43.45    2.23
  -4  -3   3   40.37    2.20
  -4  -4  -3   93.11    3.95
  -4  -4  -3   95.72    3.65
  -4   4   3   95.95    4.16
  -4   4   3   91.91    3.39
   4   4  -3   97.90    4.07
  -4   4   3   92.14    3.45
   4   4   3   97.50    3.95
  -4   4  -3   88.88    4.06
  -4   4  -3   99.46    4.18
  -4   5   3   25.60    1.20
  -4   5   3   26.87    1.31
  -4  -5  -3   28.33    1.79
   4   5  -3   24.51    2.03
  -4   5   3   27.33    2.31
   4   5   3   22.96    2.04
  -4   5  -3   29.80    2.27
  -4   5  -3   25.11    2.14
  -4   6   3    1.22    0.47
  -4  -6  -3    1.30    0.95
   4   6  -3    0.07    1.17
  -4   6   3    1.05    0.60
  -4   6   3   -0.48    1.28
   4   6   3    1.03    1.28
  -4   6  -3    3.05    1.39
  -4   6  -3    1.30    1.37
  -4   7   3   -0.65    1.63
   4   7  -3    2.02    1.36
  -4   7   3    0.02    0.74
  -4   7  -3   -0.39    1.53
   4   7   3    0.92    1.66
  -4   7  -3    0.83    1.57
   4   8  -3    3.59    1.77
  -4   8   3    0.85    2.90
   4   8   3    4.74    2.13
  -4   8  -3    5.47    2.00
  -4   8  -3    4.74    2.27
  -4   9   3   -2.93    2.67
   4   9  -3   -0.13    2.11
  -4   9  -3    0.41    2.29
   4   9   3    0.88    2.51
  -4   9  -3    0.59    2.41
  -4  10   3   29.89    4.37
  -4  10  -3   27.86    4.07
  -4   0   4  108.28    3.89
   4   0  -4  111.96    3.89
   4   0   4  110.02    3.84
   4   0  -4   98.98    4.00
  -4   0   4  109.53    4.00
   4   0   4  111.41    3.76
  -4   1   4    3.56    0.37
   4  -1   4    3.71    0.53
   4   1  -4    3.10    0.38
   4   1  -4    3.33    0.56
  -4   1   4    3.31    0.43
  -4   1  -4    3.51    0.47
   4  -1  -4    3.57    0.42
   4  -1  -4    3.70    0.45
  -4  -1   4    4.24    0.63
  -4  -1   4    3.10    0.42
   4  -2   4  337.20   11.14
   4   2  -4  299.64   11.14
  -4  -2  -4  309.25   10.82
  -4   2   4  302.56   10.98
   4  -2  -4  288.88   10.73
   4   2   4  301.22   10.81
   4  -2  -4  307.07   10.90
  -4  -2   4  300.51   10.85
  -4  -2   4  338.69   11.21
  -4   2  -4  318.16   11.07
  -4   3   4    0.93    0.66
  -4  -3  -4    1.62    0.53
   4  -3   4    0.64    0.81
   4   3  -4    1.62    0.80
  -4  -3  -4    1.14    0.21
  -4  -3   4    2.01    0.89
   4  -3  -4    1.06    0.24
  -4   3  -4    1.04    0.67
  -4  -3   4    1.08    0.48
   4  -3  -4    0.39    0.59
   4   3   4    1.17    0.55
  -4   3  -4    0.31    0.64
  -4  -4  -4   18.22    1.05
  -4   4   4   19.97    1.88
   4   4  -4   18.21    1.71
  -4  -4  -4   18.75    1.60
   4   4   4   19.97    1.56
  -4   4  -4   17.51    1.62
  -4   4  -4   20.03    1.75
   4   5  -4    5.65    1.25
  -4   5   4    4.70    1.30
  -4  -5  -4    5.18    0.89
   4   5   4    4.49    1.16
  -4   5  -4    5.97    1.34
  -4   5  -4    6.52    1.31
  -4  -6  -4    4.07    1.20
   4   6  -4    4.04    1.41
  -4   6   4    7.32    1.80
  -4   6  -4    5.73    1.54
   4   6   4    4.40    1.49
  -4   6  -4    5.68    1.65
   4   7  -4    5.67    1.68
  -4   7   4    9.90    2.15
   4   7   4    6.18    1.89
  -4   7  -4    7.09    2.03
  -4   7  -4   10.21    2.05
  -4   8   4   29.49    3.67
   4   8  -4   25.55    3.36
  -4   8  -4   20.57    2.78
   4   8   4   22.99    2.89
  -4   8  -4   24.38    3.65
  -4   9   4   18.17    3.67
   4   9  -4   14.60    2.66
  -4   9  -4   14.82    3.62
  -4   9  -4   19.52    3.12
   4   9   4   16.56    3.23
  -4  10   4   -1.17    3.36
   4   0  -5    0.10    0.25
   4   0   5    0.03    0.14
   4   0  -5   -0.20    0.35
  -4   0   5    0.13    0.22
   4   0   5   -0.12    0.30
  -4   0   5    0.37    0.39
  -4   1   5   22.86    1.08
   4   1  -5   21.49    1.05
   4  -1   5   23.43    1.25
   4   1  -5   23.29    1.33
   4  -1  -5   22.40    1.03
   4  -1  -5   21.00    1.05
  -4  -1   5   21.84    1.39
  -4  -1   5   21.69    1.01
   4   2  -5   26.25    1.66
  -4   2   5   26.20    1.37
  -4  -2  -5   26.52    1.13
   4  -2   5   23.38    1.55
  -4  -2   5   26.76    1.76
  -4   2  -5   26.12    1.45
  -4  -2   5   26.45    1.23
   4  -2  -5   25.83    1.24
   4  -2  -5   26.79    1.12
   4   2   5   26.60    1.21
  -4  -3  -5    1.51    0.53
   4   3  -5    2.87    0.96
  -4   3   5    1.27    0.70
  -4   3  -5    2.26    0.95
  -4  -3   5    1.32    0.50
   4  -3  -5    1.66    0.55
  -4   3  -5    0.41    0.69
   4  -3  -5    1.98    0.29
   4   3   5    1.64    0.59
  -4   4   5   82.16    3.81
  -4  -4  -5   70.62    3.17
   4   4  -5   80.16    3.80
  -4  -4  -5   89.38    3.48
  -4   4  -5   86.06    3.80
   4   4   5   78.86    3.45
   4  -4  -5   83.63    3.04
  -4   4  -5   83.91    3.85
  -4  -5  -5    1.28    0.70
   4   5  -5    0.46    1.19
  -4   5   5    2.69    1.27
   4   5   5    0.48    1.10
  -4   5  -5    0.17    1.10
  -4   5  -5    2.82    1.37
  -4   6   5    8.19    1.83
  -4  -6  -5    9.71    1.47
   4   6  -5    8.83    1.76
  -4   6  -5    8.34    1.74
   4   6   5   11.61    1.98
  -4   6  -5   11.12    1.79
   4   7  -5   35.40    3.31
  -4   7   5   25.87    3.14
   4   7   5   28.19    3.11
  -4   7  -5   27.23    3.12
  -4   7  -5   24.14    3.06
  -4   8   5    0.71    2.42
   4   8  -5    0.18    1.88
  -4   8  -5   -1.37    2.21
   4   8   5   -0.98    2.08
  -4   8  -5    3.13    2.10
  -4   9   5    0.09    2.90
   4   9  -5   -4.07    2.11
  -4   9  -5   -3.02    2.47
   4   9   5    0.43    2.69
  -4  10   5    7.88    3.55
  -4  10  -5    4.72    3.06
  -4   0   6   44.41    1.92
   4   0  -6   45.10    1.77
   4   0   6   43.87    1.78
   4   0   6   44.23    1.63
  -4   0   6   43.57    1.79
   4   0  -6   45.35    2.00
   4   1  -6    8.33    1.19
   4   1  -6    9.34    0.68
   4  -1   6   10.44    1.04
  -4   1   6    9.45    0.72
   4  -1  -6    8.82    0.67
  -4  -1   6    8.66    1.07
   4  -1  -6    9.59    0.73
  -4  -1   6    9.36    0.69
   4   2  -6   11.00    1.31
  -4   2   6   15.29    1.08
   4  -2   6   14.50    1.38
  -4  -2  -6   14.84    0.68
   4   2   6   14.52    0.90
   4  -2  -6   13.03    0.91
  -4   2  -6   14.80    1.42
  -4  -2   6   14.60    1.49
   4  -2  -6   14.80    0.78
  -4   3   6    0.47    0.68
  -4  -3  -6    0.65    0.41
   4   3  -6   -0.09    0.81
   4   3   6   -0.58    0.55
  -4   3  -6    0.14    0.78
   4  -3  -6    0.40    0.47
  -4   3  -6    1.12    0.84
  -4  -3   6    0.18    0.47
   4  -3  -6    0.85    0.26
  -4  -4  -6   -0.13    0.24
   4   4  -6   -1.41    0.94
  -4   4   6   -0.14    1.00
  -4  -4  -6    0.10    0.61
  -4  -4   6   -0.20    0.56
   4  -4  -6    0.35    0.29
  -4   4  -6   -0.17    0.98
  -4   4  -6    1.72    0.91
   4   4   6    1.00    0.76
  -4  -5  -6    0.93    0.56
   4   5  -6    0.62    1.23
  -4   5   6   -0.55    1.19
  -4   5  -6   -0.43    1.08
  -4   5  -6    0.22    1.10
  -4  -5   6    0.65    0.84
   4   5   6    0.79    1.41
  -4  -6  -6   21.96    1.59
   4   6  -6   20.34    2.65
  -4   6   6   22.45    2.68
  -4   6  -6   20.60    2.61
  -4   6  -6   25.87    2.86
   4   6   6   19.08    2.35
   4   7  -6   -0.77    1.82
  -4   7   6   -0.95    1.90
  -4   7  -6    0.54    1.82
  -4   7  -6    0.97    1.93
   4   7   6   -1.56    1.66
   4   8  -6   22.71    2.91
  -4   8   6   24.78    3.25
  -4   8  -6   22.08    3.04
   4   8   6   32.48    4.09
   4   9  -6    4.44    2.98
  -4   9   6   -0.39    2.96
  -4   9  -6   -1.02    2.51
   4   9   6    1.05    2.77
  -4  10   6   -2.75    3.27
   4  10  -6   -0.52    2.88
  -4  10  -6    3.46    3.09
   4   0   7    0.06    0.44
   4   0  -7   -0.03    0.29
   4   0   7   -0.01    0.19
  -4   0   7    0.06    0.30
   4   0  -7    0.02    0.50
  -4  -1  -7   32.03    1.18
  -4   1   7   30.78    1.48
   4   1  -7   30.89    1.88
   4  -1   7   30.40    1.73
   4  -1   7   31.17    1.33
   4   1  -7   31.42    1.43
  -4  -1   7   31.98    1.44
   4  -1  -7   31.71    1.54
   4   1   7   30.97    1.25
   4  -1  -7   32.39    1.39
  -4  -1   7   35.52    1.80
  -4   2   7   35.00    1.74
   4  -2   7   34.91    2.00
  -4  -2  -7   35.68    1.33
   4   2  -7   30.74    2.05
  -4  -2   7   35.40    1.64
   4  -2  -7   33.71    1.51
   4   2   7   35.77    1.53
   4  -2  -7   34.51    1.54
  -4   2  -7   34.39    2.03
  -4  -3  -7    1.10    0.40
   4   3  -7    2.09    0.89
  -4   3   7    1.66    0.76
   4   3   7    0.82    0.61
  -4  -3   7    2.06    0.58
  -4   3  -7    0.69    0.93
  -4  -4  -7   61.54    2.66
  -4   4   7   62.62    3.23
   4   4  -7   67.00    3.47
  -4   4  -7   57.06    3.37
   4  -4  -7   62.29    2.38
  -4  -4   7   65.62    2.76
   4   4   7   61.19    2.83
   4   5  -7    0.17    1.21
  -4  -5  -7    1.32    0.44
  -4   5   7   -1.31    1.21
  -4  -5   7   -0.37    0.78
   4   5   7    0.38    1.29
  -4   5  -7    1.29    1.26
   4   6  -7   20.13    2.97
  -4   6   7   14.02    2.27
  -4  -6   7   15.31    1.60
   4   6   7   15.86    2.01
  -4   6  -7   11.22    2.03
  -4   7   7    3.76    2.23
   4   7  -7    4.73    2.19
  -4   7  -7    5.61    2.00
   4   7   7    3.73    1.98
  -4  -7   7    6.54    1.54
  -4   8   7   18.43    3.25
   4   8  -7   15.92    2.83
   4   8   7   17.44    3.03
  -4   8  -7   11.33    2.80
  -4  -8   7   16.80    2.18
   4   9  -7    0.33    2.46
  -4   9   7   -4.15    3.25
  -4   9  -7    1.30    2.81
   4   9   7    0.70    2.95
  -4  -9   7   -2.32    1.85
  -4   0   8    6.81    0.76
   4   0   8    6.57    0.50
   4   0  -8    5.30    0.70
   4   0  -8    8.94    1.24
   4   0   8    6.71    0.93
   4   1  -8    1.73    0.85
  -4   1   8    1.62    0.49
   4  -1   8    0.08    0.73
   4   1  -8    1.16    0.51
   4  -1   8    1.30    0.35
   4  -1  -8    1.88    0.55
   4   1   8    1.16    0.32
   4  -1  -8    1.60    0.38
   4   2  -8    3.17    0.96
  -4   2   8    2.13    0.70
   4  -2   8    4.57    0.59
   4  -2   8    0.55    1.01
  -4  -2  -8    4.33    0.39
  -4  -2   8    5.49    0.73
  -4   2  -8    4.03    0.97
   4  -2  -8    3.92    0.52
   4   2   8    4.16    0.59
   4  -2  -8    4.11    0.57
  -4  -3  -8   87.30    3.29
   4   3  -8   89.39    4.15
  -4   3   8   80.65    4.72
   4   3   8   91.28    3.57
  -4   3  -8  102.38    4.31
  -4  -3   8   87.38    3.55
   4  -3  -8   87.35    3.32
   4   4  -8    5.24    1.37
  -4  -4  -8    7.80    0.84
  -4   4   8    7.15    1.52
  -4   4  -8    8.90    1.64
   4  -4  -8    7.09    0.63
  -4  -4   8    6.88    0.97
   4   4   8    8.31    1.08
  -4   5   8   60.33    3.51
   4   5  -8   52.60    3.42
  -4  -5  -8   50.48    2.06
   4   5   8   55.39    3.36
  -4   5  -8   52.80    3.49
   4  -5  -8   53.48    2.15
  -4  -5   8   51.78    2.68
   4   6  -8   17.65    2.53
  -4   6   8   14.70    2.23
  -4   6  -8   15.37    2.75
   4   6   8   16.74    2.09
  -4  -6   8   21.86    2.06
   4   7  -8   -1.79    1.80
  -4   7   8    1.57    2.30
  -4  -7   8   -0.15    1.20
   4   7   8   -0.34    2.10
  -4   7  -8   -2.47    1.71
  -4   8   8   11.17    3.92
   4   8  -8   13.62    2.93
  -4   8  -8    9.00    2.68
  -4  -8   8    7.59    1.82
   4   8   8   12.41    2.93
  -4   9   8    3.93    3.62
   4   9  -8    5.40    2.91
  -4   9  -8    3.93    2.98
  -4  -9   8    3.01    1.88
   4   0   9   -0.13    0.70
   4   0  -9    0.48    0.71
   4   0   9   -0.28    0.29
  -4   0   9    0.64    0.47
   4   0  -9    0.48    0.45
   4  -1   9    1.16    0.86
   4  -1   9    1.05    0.37
   4   1  -9    0.69    0.90
  -4   1   9    0.63    0.51
   4   1   9    1.07    0.37
  -4  -1   9    0.92    0.57
   4  -1  -9    1.03    0.43
   4   2  -9   24.09    2.07
  -4   2   9   21.95    1.57
   4  -2   9   18.54    2.94
  -4  -2  -9   23.03    0.96
  -4   2  -9   21.32    1.88
   4   2   9   22.65    1.28
   4  -2  -9   23.45    1.26
  -4  -2   9   22.02    1.34
   4  -2  -9   25.16    1.36
  -4  -3  -9   11.87    0.76
  -4   3   9   15.23    1.89
   4  -3   9    9.30    1.21
   4   3  -9   10.54    1.60
   4   3   9   12.61    1.26
  -4   3  -9   14.25    1.72
  -4  -3   9   14.63    1.29
   4  -3  -9   11.50    0.97
  -4   4   9    6.74    1.43
   4   4  -9    5.07    1.59
  -4  -4  -9    4.58    0.64
   4  -4  -9    5.69    0.70
   4   4   9    5.34    1.08
  -4  -4   9    3.44    0.90
  -4   4  -9    6.86    1.65
   4   5  -9    1.13    1.42
  -4   5   9    2.18    1.62
   4  -5  -9    0.50    0.48
  -4  -5   9    3.14    1.12
  -4   5  -9    1.57    1.65
   4   5   9   -0.68    1.80
   4   6  -9   15.15    2.33
  -4   6   9   11.84    2.23
  -4  -6   9   11.13    1.49
  -4   6  -9   11.42    2.11
   4   6   9   13.57    2.05
   4   7  -9   34.72    3.79
  -4   7   9   32.97    4.29
  -4  -7   9   30.04    2.59
   4   7   9   32.12    3.91
  -4   7  -9   30.34    3.68
   4   8  -9    0.91    2.64
  -4   8  -9   -2.41    2.40
  -4  -8   9    1.32    1.65
   4   9  -9    3.54    2.86
  -4   9   9   -2.84    3.64
  -4   9  -9    2.97    3.22
  -4  -9   9   -1.35    1.93
   4   0  10    1.75    0.40
   4   0  10    1.42    0.81
  -4   0  10    1.22    0.62
   4   0 -10    1.86    0.81
   4  -1  10   -0.96    0.99
   4  -1  10   -0.86    0.38
   4   1 -10    0.45    0.94
   4   1  10   -0.39    0.41
  -4   1 -10    0.17    0.86
  -4  -1  10   -0.07    0.51
   4  -1 -10   -0.48    0.73
  -4   2  10    2.28    0.98
   4   2 -10    1.81    1.16
  -4  -2 -10    1.40    0.30
   4  -2  10    2.06    0.75
  -4  -2  10    1.36    0.66
  -4   2 -10    1.64    1.13
   4   2  10    1.58    0.65
   4  -2 -10    1.89    0.81
   4  -3  10   15.77    1.33
   4   3 -10   16.58    2.21
  -4  -3 -10   19.20    0.93
  -4   3  10   22.85    2.10
  -4   3 -10   21.71    2.29
  -4  -3  10   17.59    1.40
   4  -3 -10   19.28    1.22
   4   3  10   17.84    1.53
   4  -4  10    1.81    0.94
  -4  -4 -10    2.29    0.84
  -4   4  10    0.89    1.34
   4   4 -10    1.14    1.46
   4   4  10    0.44    1.05
  -4  -4  10    0.56    0.81
   4  -4 -10    1.07    0.53
  -4   4 -10    2.14    1.43
   4   5 -10   16.08    2.30
  -4   5  10   21.51    2.39
  -4   5 -10   21.10    2.96
  -4  -5  10   16.54    1.78
   4  -5 -10   19.03    1.14
  -4   6  10   -0.23    2.00
   4   6 -10   -0.63    1.95
   4   6  10   -1.56    1.74
  -4  -6  10    2.35    1.32
  -4   6 -10    0.78    1.98
  -4   7  10    6.36    2.89
   4   7 -10    5.61    2.53
  -4   7 -10    5.10    2.54
  -4  -7  10    7.13    1.59
   4   8 -10   -1.36    2.72
  -4  -8  10   -1.17    1.70
  -4   8 -10    0.27    2.68
  -4   0  11   -0.48    0.62
   4   0  11   -0.24    0.36
   4   0  11    1.65    0.87
  -4   0 -11   -0.36    0.84
   4   0 -11    0.57    0.84
   4   1 -11    6.11    1.26
   4  -1  11    7.31    0.85
  -4   1  11    8.91    1.00
   4  -1  11    7.07    1.42
   4  -1 -11    8.26    1.19
  -4   1 -11    8.42    1.29
   4   1  11    8.51    0.85
  -4  -1  11    8.15    1.06
  -4  -2 -11    1.49    0.30
   4   2 -11    1.39    1.29
  -4   2  11    1.74    0.96
   4  -2  11    1.81    0.69
  -4  -2  11    2.52    0.83
  -4   2 -11    2.02    1.37
   4   2  11    2.19    0.68
   4  -2 -11    2.26    0.94
  -4   3  11   18.89    2.11
   4   3 -11   20.92    2.42
   4  -3  11   20.33    1.52
   4  -3 -11   17.64    2.20
  -4  -3  11   16.06    1.51
   4   3  11   19.89    1.58
  -4   3 -11   20.59    2.55
   4   4 -11    2.17    1.99
  -4   4  11   -0.28    1.41
   4  -4  11   -1.33    0.89
   4  -4 -11   -0.41    0.60
  -4   4 -11   -0.56    1.38
   4   4  11    1.36    1.07
  -4  -4  11    1.26    0.94
   4  -5  11   -0.46    1.17
  -4   5  11   -0.62    1.80
   4   5 -11    1.16    1.70
  -4   5 -11   -1.44    1.67
  -4  -5  11    0.99    1.14
   4   6 -11    2.69    2.17
   4  -6  11    0.19    1.70
  -4   6  11    2.02    2.23
  -4  -6  11   -0.44    1.21
  -4   6 -11    2.54    2.47
   4  -7  11   18.06    2.38
  -4   7  11   16.19    3.23
   4   7 -11   15.22    3.01
  -4   7 -11   18.22    3.28
  -4  -7  11   12.53    2.02
   4   8 -11    0.74    2.99
   4  -8  11    0.19    2.22
  -4   8 -11   -4.06    2.75
  -4  -8  11    0.26    1.91
   4   0  12    0.07    1.64
  -4   0  12    0.02    0.70
   4   0 -12   -0.46    1.01
   4   0  12    1.02    0.49
  -4   0 -12    0.65    0.99
  -4  -1 -12    4.07    1.07
   4  -1  12    4.50    0.74
   4   1 -12    4.82    1.32
  -4   1  12    6.10    1.00
   4  -1  12    4.93    1.41
   4  -1 -12    3.73    1.14
  -4   1 -12    5.75    1.34
   4   1  12    4.45    0.64
  -4  -1  12    5.47    0.88
   4   2 -12   15.11    2.29
   4  -2  12   14.31    1.27
  -4   2  12   16.32    1.84
  -4  -2  12   14.24    1.38
   4   2  12   15.53    1.30
  -4   2 -12   15.07    2.30
   4  -2 -12   16.67    1.64
   4  -3  12    1.61    0.89
  -4   3  12    3.06    1.39
   4   3 -12    0.16    1.65
  -4   3 -12    1.55    1.54
  -4  -3  12    2.15    0.97
   4  -3 -12    1.79    0.95
   4   4 -12    4.49    2.13
  -4   4  12    0.79    1.59
   4  -4  12   -0.25    1.04
  -4  -4  12    0.53    0.98
  -4   4 -12    2.41    1.96
   4  -4 -12   -0.01    0.88
   4  -5  12   -0.12    1.14
   4   5 -12    0.11    1.82
  -4   5  12   -3.54    2.01
  -4   5 -12   -1.60    1.85
  -4  -5  12    0.35    1.34
   4  -6  12    0.56    1.43
   4   6 -12    2.91    2.44
  -4  -6  12    1.55    1.45
  -4   6 -12    0.44    2.23
   4   7 -12   -0.97    2.54
   4  -7  12    0.34    1.89
  -4   7 -12   -0.16    2.72
  -4  -7  12    0.90    1.54
   4  -8  12    6.17    2.19
   4   8 -12    3.84    3.39
  -4   8 -12    0.78    3.17
  -4  -8  12    4.35    1.99
  -4   0  13   -0.43    0.84
   4   0 -13   -0.06    1.17
  -4   0 -13    0.87    1.09
   4   0  13   -0.49    0.50
  -4   1  13    2.76    1.04
  -4  -1 -13    2.83    1.11
   4   1 -13    2.77    1.32
   4  -1  13    2.93    1.25
  -4  -1  13    1.45    0.86
  -4   1 -13    1.70    1.25
   4  -1 -13    2.70    1.18
  -4  -2 -13    2.06    1.02
  -4   2  13    2.23    1.23
   4  -2  13    2.69    0.83
   4   2 -13    4.72    1.69
  -4  -2  13    3.18    0.91
  -4   2 -13    4.65    1.77
   4  -2 -13    3.31    1.10
  -4   3  13   18.56    2.57
   4   3 -13   15.63    2.40
   4  -3  13   15.62    1.59
   4  -3 -13   17.21    1.76
  -4  -3  13   13.33    1.61
  -4   3 -13   18.66    2.34
   4   4 -13    0.57    1.91
   4  -4  13    2.36    1.15
  -4   4  13    2.13    1.80
  -4   4 -13    4.48    2.21
  -4  -4  13    1.36    1.11
   4  -5  13    0.01    1.37
   4   5 -13    3.06    2.11
  -4  -5  13    2.15    1.29
  -4   5 -13    0.34    2.28
   4  -6  13    6.10    1.74
   4   6 -13    9.47    2.91
  -4   6 -13    0.71    2.22
  -4  -6  13    8.01    1.62
   4   7 -13   -0.35    2.80
   4  -7  13    2.11    1.80
  -4   7 -13   12.07    3.68
  -4  -7  13    2.11    1.67
  -4   0  14    1.63    0.92
   4   0 -14    0.81    1.41
  -4   0 -14    0.42    1.29
   4   1 -14   41.97    3.36
  -4  -1 -14   40.73    2.73
  -4   1  14   33.62    2.35
  -4   1 -14   37.93    3.19
   4  -1 -14   36.90    2.65
  -4  -1  14   38.19    2.23
   4   2 -14    2.92    1.90
  -4   2  14    0.84    1.32
  -4  -2 -14    1.79    1.18
   4  -2  14    1.37    0.92
  -4  -2  14    2.60    1.11
   4  -2 -14    1.33    1.20
   4  -3  14   -0.75    1.02
   4   3 -14    0.75    2.12
  -4  -3  14   -0.41    1.09
  -4   3 -14    2.35    2.01
   4   4 -14    0.56    2.07
   4  -4  14    0.62    1.31
  -4  -4  14    0.62    1.26
  -4   4 -14    1.21    2.21
   4   5 -14    8.97    2.77
   4  -5  14   10.60    2.09
  -4  -5  14   10.57    1.68
  -4   5 -14   14.52    3.26
   4  -6  14   10.37    1.94
   4   6 -14   21.27    3.89
  -4  -6  14   14.76    1.90
  -4   6 -14   12.44    3.07
  -4   0  15   -1.23    1.12
  -4   0 -15    1.36    1.68
   4   0 -15    0.14    1.57
  -4  -1 -15   25.12    2.75
   4   1 -15   20.08    3.68
  -4   1 -15   29.44    2.83
   4  -1 -15   28.00    2.82
  -4  -1  15   24.49    2.09
   4   2 -15   30.19    3.37
   4  -2 -15   33.36    2.74
  -4   2 -15   35.27    3.58
  -4  -2  15   27.83    2.23
   4   3 -15   21.11    2.86
  -4  -3  15   24.56    2.26
  -4   3 -15   17.52    2.61
   4   4 -15   32.28    4.18
   4  -4  15   38.74    2.69
  -4  -4  15   34.74    2.64
  -4   4 -15   36.92    4.16
   4  -5  15   22.12    2.61
   4   5 -15   13.28    3.23
  -4  -5  15   13.21    1.79
  -4   5 -15    9.86    2.83
   4   6 -15    3.97    2.99
   4  -6  15    2.82    1.90
  -4   6 -15    6.48    3.05
  -4  -6  15    5.77    1.82
  -4   0 -16   -0.24    1.61
  -4  -1 -16    3.89    1.79
   4   1 -16    6.92    2.05
   4  -1 -16    5.17    1.72
  -4   1 -16    6.06    2.32
   4   2 -16   20.56    2.80
  -4  -2  16   22.39    2.28
  -4   2 -16   25.07    3.12
   4   3 -16    7.15    2.26
  -4   3 -16    3.80    2.21
  -4  -3  16    4.42    1.37
   4   4 -16    1.70    2.63
  -4   4 -16    3.60    3.07
  -4  -4  16   -2.75    1.41
   4   5 -16    5.60    3.51
  -4  -5  16    1.64    1.73
  -4   5 -16    0.52    2.76
   4   0 -17    0.39    2.09
  -4   0 -17   -0.21    1.91
   4   1 -17    3.21    2.27
   4  -1 -17   -3.22    2.13
  -4   1 -17    1.01    1.84
   4   2 -17   11.16    2.51
  -4   2 -17    9.17    2.49
   4   3 -17    3.45    2.47
  -4   3 -17    4.73    3.10
   4   4 -17   26.97    4.05
  -4   4 -17   23.64    3.38
   4   0 -18    3.92    2.34
  -4   0 -18    6.66    2.75
   4   1 -18    0.37    2.30
  -4   1 -18    2.15    2.65
   4   2 -18    8.51    2.97
  -4   2 -18    8.59    3.05
  -5   0   0    0.51    0.16
   5   0   0    0.50    0.16
   5   0   0    0.64    0.15
  -5   1   0  347.77   11.56
   5   1   0  319.53   11.56
  -5  -1   0  327.91   11.50
  -5   1   0  347.27   11.66
   5  -1   0  353.91   11.64
  -5  -1   0  305.16   11.57
   5   1   0  335.84   11.51
  -5  -2   0   -0.12    0.33
   5  -2   0   -0.32    0.41
  -5   2   0    0.42    0.39
   5   2   0   -0.42    0.27
  -5  -3   0   38.05    1.89
  -5   3   0   36.70    1.82
   5   3   0   37.87    1.70
  -5  -3   0   38.81    1.81
   5  -3   0   37.26    2.01
  -5  -4   0    0.62    0.68
  -5   4   0   -0.61    0.74
   5   4   0   -0.78    0.45
  -5   4   0   -0.34    0.67
  -5   5   0   17.47    1.91
   5   5   0   18.03    1.43
  -5   6   0    0.67    1.15
  -5   6   0    0.00    1.18
   5   6   0   -0.05    1.00
   5   7   0    9.83    1.47
  -5   7   0   13.20    2.17
  -5   7   0   10.10    1.71
  -5   8   0    0.14    1.48
  -5   8   0    1.76    2.23
   5   8   0    0.67    1.36
  -5   9   0    5.48    2.84
  -5  10   0   -3.21    2.80
   5   0  -1   -0.02    0.13
  -5   0  -1    0.16    0.14
  -5   0   1    0.18    0.17
   5   0  -1   -0.04    0.15
  -5   0  -1    0.04    0.11
   5   0   1    0.00    0.12
  -5   0   1   -0.13    0.15
   5   1  -1   62.16    2.41
  -5  -1  -1   61.48    2.29
  -5   1   1   60.52    2.31
  -5  -1  -1   61.95    2.25
   5   1  -1   66.51    2.31
   5  -1   1   64.59    2.43
  -5   1   1   61.73    2.41
   5  -1  -1   63.10    2.31
  -5  -1   1   63.18    2.43
   5   1   1   62.84    2.26
   5  -1  -1   65.53    2.40
  -5   1  -1   64.41    2.45
   5   1   1   63.12    2.27
  -5  -1   1   63.95    2.30
  -5   2   1    4.78    0.43
   5   2  -1    4.61    0.60
  -5  -2  -1    4.57    0.54
  -5   2   1    6.11    0.72
  -5  -2  -1    4.83    0.50
   5  -2   1    4.26    0.68
  -5  -2   1    4.51    0.43
   5  -2  -1    3.90    0.56
  -5   2  -1    5.19    0.71
  -5  -2   1    4.00    0.58
   5   2   1    3.97    0.42
  -5   3   1    0.48    0.30
  -5   3   1    0.97    0.61
   5  -3   1    0.43    0.64
  -5  -3  -1   -0.11    0.47
  -5   3   1    1.04    0.44
   5   3  -1    0.11    0.47
  -5  -3  -1    0.33    0.59
   5  -3  -1    0.26    0.59
  -5   3  -1    1.16    0.56
  -5  -3   1    1.14    0.57
  -5   3  -1    1.07    0.52
   5   3   1    0.67    0.32
  -5  -3   1    0.46    0.53
  -5  -4  -1    2.39    0.66
  -5   4   1    1.43    0.89
  -5  -4  -1    0.16    1.10
   5   4  -1    2.47    0.71
  -5   4   1    2.11    0.63
   5   4   1    1.34    0.44
  -5   4  -1    0.75    0.74
  -5  -4   1    2.36    0.84
  -5   4  -1    1.69    0.93
  -5   5   1   14.51    1.98
   5   5  -1   15.26    1.63
  -5  -5  -1   11.93    1.59
  -5   5   1   15.35    1.30
  -5   5  -1   13.32    1.74
  -5   5  -1   13.01    1.77
   5   5   1   14.31    1.71
   5   5   1   12.13    1.10
   5   6  -1   -0.31    0.95
  -5   6   1    2.42    1.12
  -5   6   1    3.78    1.63
   5   6   1    2.96    1.36
  -5   6  -1    0.96    1.10
  -5   6  -1    0.35    1.28
   5   6   1    0.07    0.73
  -5   7   1    5.41    1.54
  -5   7   1    8.15    2.00
   5   7  -1    3.88    1.39
  -5   7  -1    4.70    1.55
   5   7   1    3.87    1.01
  -5   7  -1    6.48    1.92
   5   8  -1   10.67    1.78
  -5   8   1   12.21    1.87
  -5   8   1   13.35    2.79
  -5   8  -1    9.60    2.40
  -5   8  -1    9.09    2.01
  -5   9   1    3.42    2.51
  -5   9  -1    2.22    2.55
  -5  10   1    2.00    3.19
  -5  10  -1   12.99    3.77
   5   0  -2  391.70   13.28
  -5   0   2  367.98   13.34
   5   0   2  383.43   13.21
   5   0  -2  405.04   13.36
  -5   0  -2  382.46   13.23
  -5   0   2  377.13   13.28
  -5   1   2   46.90    1.93
  -5   1   2   47.25    1.85
   5   1  -2   48.85    2.01
   5   1  -2   52.38    1.86
   5  -1   2   48.38    1.98
  -5  -1  -2   48.97    1.74
  -5  -1   2   48.63    1.84
   5  -1  -2   49.66    1.85
  -5   1  -2   47.84    1.97
  -5  -1   2   49.77    2.03
   5  -1  -2   49.28    1.91
   5   2  -2   56.08    2.65
  -5   2   2   67.64    2.71
  -5  -2  -2   69.97    2.42
  -5  -2  -2   69.04    2.58
   5  -2   2   64.48    2.76
  -5   2   2   66.51    2.43
   5  -2  -2   67.89    2.45
  -5  -2   2   67.92    2.50
  -5  -2   2   68.55    2.76
   5   2   2   60.31    2.38
  -5   2  -2   67.79    2.74
   5  -2  -2   65.64    2.66
  -5   3   2   13.79    0.89
  -5   3   2   13.50    0.75
   5  -3   2   10.14    1.18
   5   3  -2   14.31    1.09
  -5   3   2   13.23    1.20
  -5  -3  -2   12.83    1.19
  -5  -3  -2   14.04    0.86
   5   3   2   12.01    0.62
  -5   3  -2   13.47    1.22
  -5  -3   2   13.15    1.29
   5   3   2   13.92    1.03
  -5  -3   2   13.79    1.32
   5  -3  -2   12.75    1.26
  -5   3  -2   14.19    1.16
  -5  -4  -2   11.09    1.50
   5   4  -2    9.98    1.33
  -5   4   2   10.60    1.32
  -5  -4  -2   10.58    0.99
  -5   4   2   11.76    0.95
  -5   4   2   10.76    0.75
   5   4   2   11.37    0.68
  -5   4  -2   11.00    1.33
   5   4   2   12.13    1.42
  -5   4  -2   11.16    1.40
  -5   5   2    5.78    1.24
  -5   5   2    5.37    0.78
   5   5  -2    6.22    1.25
  -5   5   2    3.95    0.64
  -5  -5  -2    6.29    1.04
   5   5   2    5.16    1.16
  -5   5  -2    6.68    1.31
  -5   5  -2    6.14    1.19
  -5   6   2   34.15    2.01
   5   6  -2   33.38    2.30
  -5   6   2   29.77    2.74
  -5   6   2   30.03    1.72
   5   6   2   31.70    2.63
  -5   6  -2   37.73    2.66
   5   6   2   36.45    1.65
  -5   6  -2   34.11    2.73
  -5   7   2    0.93    1.69
   5   7  -2    1.58    1.41
  -5   7   2    0.24    1.00
  -5   7  -2    1.44    1.67
  -5   7  -2    1.88    1.60
   5   7   2    3.93    1.80
   5   7   2    0.97    0.66
  -5   8   2    0.73    3.81
   5   8  -2    2.74    1.71
  -5   8  -2    4.15    1.95
  -5   8  -2    3.76    2.20
  -5   9   2    7.87    2.93
  -5   9  -2    5.32    2.52
  -5   9  -2    5.16    2.32
  -5  10   2    9.30    3.84
  -5  10  -2    4.13    3.07
   5   0  -3    0.24    0.26
  -5   0  -3   -0.04    0.18
   5   0   3   -0.04    0.16
  -5   0   3    0.19    0.28
  -5   0   3   -0.12    0.17
   5   0  -3   -0.06    0.18
  -5   1   3    5.08    0.47
   5   1  -3    5.30    0.47
  -5  -1  -3    5.20    0.25
  -5   1   3    5.60    0.53
   5   1  -3    6.57    0.63
   5  -1   3    6.05    0.61
  -5  -1  -3    4.55    0.34
  -5  -1   3    5.54    0.43
   5  -1  -3    5.00    0.45
  -5  -1   3    5.31    0.65
  -5   1  -3    4.64    0.57
   5  -1  -3    5.97    0.49
   5  -2   3   48.28    2.21
  -5   2   3   46.94    2.08
  -5   2   3   48.84    1.80
   5   2  -3   49.30    2.18
  -5  -2  -3   48.04    1.72
  -5  -2  -3   48.12    1.95
   5   2   3   49.20    1.92
  -5   2  -3   51.09    2.17
  -5  -2   3   46.92    1.91
   5  -2  -3   48.48    2.01
  -5  -2   3   41.96    2.21
   5  -2  -3   46.69    1.82
  -5  -3  -3    5.31    0.81
   5  -3   3    6.58    1.02
  -5  -3  -3    6.26    0.52
  -5   3   3    4.90    0.55
  -5   3   3    6.66    0.94
   5   3  -3    5.50    1.08
  -5   3   3    4.01    0.49
  -5  -3   3    4.50    0.88
   5   3   3    5.01    0.73
  -5   3  -3    5.75    0.94
   5  -3  -3    6.76    0.82
  -5   3  -3    5.77    0.91
  -5  -3   3    5.01    0.99
   5  -3  -3    5.43    0.50
  -5   4   3   48.83    1.86
  -5  -4  -3   46.88    2.09
  -5   4   3   51.15    2.74
   5   4  -3   51.45    2.62
  -5  -4  -3   43.70    2.36
  -5   4   3   47.12    1.96
  -5   4  -3   46.74    2.59
   5   4   3   48.02    2.39
  -5   4  -3   47.46    2.63
  -5   5   3   -0.07    0.50
   5   5  -3   -0.23    0.96
  -5   5   3    0.15    0.40
  -5   5   3   -1.57    0.98
  -5  -5  -3   -0.52    0.72
  -5   5  -3    2.02    1.09
  -5   5  -3    0.15    0.88
   5   5   3    1.70    1.17
  -5   6   3   23.46    1.42
  -5   6   3   26.90    2.86
   5   6  -3   19.47    2.25
  -5  -6  -3   22.87    1.95
  -5   6   3   22.34    1.26
  -5   6  -3   20.59    2.31
  -5   6  -3   22.49    2.46
   5   6   3   21.76    2.45
  -5   7   3    0.54    0.81
  -5   7   3    3.99    2.02
   5   7  -3    0.15    1.33
   5   7   3   -1.03    1.52
  -5   7  -3    3.85    1.90
  -5   7  -3   -0.66    1.54
   5   8  -3    3.21    1.89
   5   8   3    3.87    2.14
  -5   8  -3    4.69    1.95
  -5   8  -3    2.37    1.97
  -5   9   3    5.84    3.31
   5   9  -3   -0.44    2.12
  -5   9  -3   -0.67    2.43
  -5   9  -3    2.51    2.40
  -5  10   3    1.28    3.33
  -5  10  -3    0.07    2.82
   5   0  -4  153.18    5.43
   5   0  -4  160.37    5.57
   5   0   4  150.25    5.35
  -5   0   4  147.36    5.43
  -5   0   4  155.11    5.56
  -5   1   4   50.30    1.91
   5   1  -4   46.00    2.13
   5   1  -4   50.65    1.93
   5  -1   4   51.44    2.07
  -5   1   4   50.44    2.00
  -5  -1   4   48.63    1.92
   5  -1  -4   48.93    1.95
  -5  -1   4   50.54    2.18
  -5   1  -4   48.30    2.01
   5  -1  -4   49.77    1.95
   5   2  -4    2.55    0.71
  -5  -2  -4    3.02    0.43
   5  -2   4    2.28    0.74
  -5   2   4    2.62    0.54
  -5  -2   4    3.42    0.77
   5  -2  -4    3.09    0.37
  -5   2  -4    2.64    0.61
   5  -2  -4    3.25    0.48
   5   2   4    2.42    0.41
  -5  -2   4    2.07    0.38
   5  -3   4   22.86    1.76
   5   3  -4   23.61    1.66
  -5   3   4   23.55    1.70
  -5  -3  -4   23.26    1.37
  -5  -3  -4   23.57    0.97
  -5   3  -4   20.81    1.85
   5   3   4   23.23    1.39
   5  -3  -4   24.84    1.47
  -5  -3   4   25.40    1.32
   5  -3  -4   24.53    1.05
  -5   3  -4   25.53    1.69
  -5  -4  -4    6.37    1.02
   5   4  -4    8.03    1.19
  -5   4   4    6.66    1.23
  -5  -4  -4    8.20    0.77
   5   4   4    7.26    1.02
  -5   4  -4    6.72    1.23
  -5   4  -4    8.48    1.21
  -5   5   4   63.67    3.40
  -5  -5  -4   56.04    2.66
   5   5  -4   61.20    3.22
  -5   5  -4   58.99    3.22
  -5   5  -4   56.71    3.21
   5   5   4   62.95    3.09
  -5   6   4    6.61    1.78
   5   6  -4    5.90    1.42
   5   6   4   10.11    1.75
  -5   6  -4    5.41    1.60
  -5   6  -4   10.72    1.79
  -5   7   4   15.16    2.37
   5   7  -4   19.89    2.53
   5   7   4   20.04    2.41
  -5   7  -4   13.81    2.13
  -5   7  -4   17.37    2.50
   5   8  -4    6.58    1.98
  -5   8  -4    5.69    2.34
   5   8   4    6.61    2.25
  -5   8  -4    7.59    2.22
  -5   9   4   -0.59    2.79
   5   9  -4    1.50    2.51
  -5   9  -4   -1.70    2.37
  -5   9  -4   -0.24    2.19
  -5  10   4   -0.57    3.30
  -5  10  -4    6.71    2.92
  -5   0   5   -0.15    0.23
  -5   0   5    0.42    0.41
   5   0  -5    0.15    0.26
   5   0  -5   -0.01    0.34
   5   0   5   -0.04    0.14
   5   0   5   -0.10    0.29
   5  -1   5   11.86    1.03
   5   1  -5   12.91    1.01
  -5   1   5   13.45    0.77
  -5   1   5   12.03    0.70
   5   1  -5   12.30    0.75
  -5   1  -5   11.53    0.84
   5  -1  -5   12.13    0.78
  -5  -1   5   12.05    0.74
  -5  -1   5   11.41    1.14
   5  -1  -5   13.00    0.76
  -5   2   5   96.61    3.72
   5  -2   5   88.36    3.83
   5   2  -5   93.80    3.94
  -5  -2  -5   94.09    3.43
  -5  -2   5   97.44    3.95
   5  -2  -5   94.68    3.59
   5   2   5   94.89    3.46
  -5   2  -5  101.62    3.78
  -5  -2   5   96.74    3.58
   5  -2  -5   92.81    3.47
  -5   3   5    3.77    0.85
   5   3  -5    4.17    0.92
  -5  -3  -5    3.45    0.63
  -5   3  -5    2.91    0.90
   5   3   5    2.96    0.57
  -5  -3   5    3.77    0.58
   5  -3  -5    2.37    0.38
   5  -3  -5    3.44    0.63
  -5   3  -5    1.78    0.78
  -5  -4  -5   15.10    1.52
   5   4  -5   22.79    2.01
  -5  -4  -5   18.18    0.93
  -5   4   5   17.30    1.85
  -5   4  -5   16.75    1.85
   5  -4  -5   16.94    0.94
  -5  -4   5   15.69    1.22
   5   4   5   18.12    1.39
  -5   4  -5   17.50    1.67
  -5   5   5    6.52    1.47
  -5  -5  -5    6.38    0.84
   5   5  -5    6.56    1.42
  -5   5  -5   11.99    1.57
  -5   5  -5    5.88    1.31
   5   5   5    5.84    1.38
  -5  -6  -5   31.69    2.19
  -5   6   5   42.12    3.19
   5   6  -5   35.81    2.96
  -5   6  -5   34.05    2.85
   5   6   5   36.01    2.69
  -5   6  -5   36.29    2.96
  -5   7   5   19.07    2.67
   5   7  -5   22.86    2.85
  -5   7  -5   23.67    3.13
   5   7   5   24.32    3.19
  -5   7  -5   21.24    2.95
   5   8  -5   -0.07    2.21
   5   8   5    1.10    2.10
  -5   8  -5    0.86    1.92
  -5   9   5   -1.20    3.02
   5   9  -5   -1.64    2.19
  -5   9  -5   -1.03    2.60
  -5   9  -5    2.67    2.44
  -5  10   5    1.03    3.55
  -5  10  -5    3.72    3.17
   5   0  -6  257.50    8.56
   5   0   6  231.95    8.25
   5   0   6  228.44    8.14
   5   0  -6  241.57    8.31
  -5   0   6  228.52    8.32
  -5   0   6  229.34    8.43
   5   1  -6   -0.40    0.67
  -5   1   6    0.47    0.36
   5   1  -6    0.35    0.35
   5  -1   6    0.74    0.54
   5  -1  -6   -0.02    0.36
   5  -1  -6   -0.50    0.33
  -5  -1   6    0.53    0.32
  -5  -1   6    0.79    0.64
  -5   2   6    3.68    0.62
   5  -2   6    4.01    0.90
   5   2  -6    2.61    0.80
  -5  -2  -6    2.78    0.34
   5   2   6    2.61    0.41
   5  -2  -6    3.38    0.49
   5  -2  -6    2.11    0.39
  -5  -2   6    3.64    0.60
   5   3  -6   90.99    4.02
  -5  -3  -6   90.16    3.44
  -5   3   6   81.88    4.06
   5  -3  -6   86.90    3.56
   5  -3  -6   89.97    3.32
   5   3   6   93.42    3.53
  -5   3  -6   89.22    3.90
  -5   3  -6  102.66    4.13
  -5  -3   6   90.82    3.57
  -5  -4  -6   12.12    0.64
   5   4  -6   11.45    1.74
  -5  -4  -6   11.03    1.32
  -5   4   6   12.05    1.48
   5  -4  -6   11.16    0.75
  -5   4  -6   11.34    1.41
   5   4   6   12.17    1.32
  -5   4  -6   10.80    1.50
  -5  -4   6   11.70    1.12
  -5  -5  -6   10.03    0.98
  -5   5   6   10.52    1.66
   5   5  -6   11.42    1.78
   5   5   6   13.04    1.65
  -5   5  -6   12.33    1.86
  -5  -5   6   10.10    1.16
  -5   5  -6    8.56    1.54
  -5  -6  -6    3.04    0.92
   5   6  -6    1.62    1.46
  -5   6   6    1.65    1.63
  -5   6  -6    1.85    1.43
   5   6   6    1.54    1.44
  -5  -6   6    1.75    1.07
  -5   6  -6    2.54    1.53
   5   7  -6    9.19    2.25
  -5   7   6   10.06    2.41
  -5   7  -6    8.45    2.15
   5   7   6   12.05    2.34
   5   8  -6    7.44    2.22
   5   8   6    4.95    2.29
  -5   8  -6    6.70    2.24
  -5   8  -6    5.42    2.43
   5   9  -6   18.02    3.01
  -5   9   6   14.93    3.59
  -5   9  -6   31.57    4.56
  -5  -9   6   18.93    2.51
   5   9   6   19.96    3.38
  -5  10   6    7.46    4.01
   5  10  -6   12.41    3.62
  -5 -10   6    3.18    2.28
  -5  10  -6    9.25    3.81
   5   0  -7    0.00    0.33
   5   0   7    0.45    0.44
  -5   0   7   -0.14    0.37
   5   0   7   -0.19    0.19
  -5   0   7    0.52    0.49
   5   0  -7    0.05    0.52
   5  -1   7   17.73    0.90
  -5   1   7   18.01    1.09
   5  -1   7   19.33    1.28
   5   1  -7   22.12    1.54
   5   1  -7   15.85    1.08
   5  -1  -7   18.09    1.07
  -5  -1   7   18.77    1.06
  -5  -1   7   18.28    1.42
   5  -1  -7   18.76    0.99
  -5  -2  -7   55.82    2.05
   5   2  -7   65.62    2.98
   5  -2   7   56.56    2.71
  -5   2   7   56.60    2.53
   5  -2  -7   54.88    2.32
   5   2   7   59.60    2.19
  -5  -2   7   54.31    2.36
   5  -2  -7   56.77    2.29
   5   3  -7    0.30    0.81
  -5  -3  -7   -0.10    0.42
  -5   3   7   -0.63    0.93
   5   3   7   -1.05    0.60
   5  -3  -7    0.54    0.34
  -5  -3   7    0.68    0.60
  -5   3  -7   -0.16    0.74
   5   4  -7   39.72    2.63
  -5  -4  -7   40.29    1.99
  -5   4   7   40.64    2.70
  -5   4  -7   41.63    2.71
   5   4   7   40.83    2.19
   5  -4  -7   39.30    1.70
  -5  -4   7   43.72    2.10
   5   5  -7    1.78    1.47
  -5   5   7   -0.19    1.43
  -5  -5  -7    1.01    0.50
   5  -5  -7    1.52    0.62
  -5   5  -7    0.96    1.23
   5   5   7    1.64    1.33
  -5  -5   7    0.41    0.80
  -5   5  -7    1.30    1.30
  -5   6   7   23.93    3.02
   5   6  -7   25.89    2.87
   5   6   7   26.65    2.78
  -5   6  -7   26.67    2.93
  -5  -6   7   28.36    1.99
   5   7  -7    9.92    2.43
  -5   7   7    7.03    2.40
  -5   7  -7    8.65    2.30
  -5  -7   7    6.45    1.51
   5   7   7   11.47    2.23
   5   8  -7    2.03    2.17
   5   8   7   -2.32    2.36
  -5   8  -7    2.59    2.50
  -5  -8   7   -0.63    1.45
   5   9  -7    2.07    2.80
  -5   9   7   11.32    3.66
   5   9   7    4.99    3.13
  -5   9  -7    8.62    3.47
  -5  -9   7    0.44    1.87
   5   0   8   88.76    3.44
   5   0  -8   91.85    3.42
   5   0  -8   89.84    3.79
   5   0   8   91.59    3.23
  -5   0   8   90.19    3.46
   5  -1   8   37.20    1.93
  -5   1   8   33.38    1.70
   5   1  -8   31.88    2.04
   5  -1   8   39.47    1.48
  -5  -1   8   34.44    1.96
   5  -1  -8   35.82    1.56
   5  -1  -8   34.73    1.81
  -5  -1   8   35.24    1.68
   5  -2   8   35.83    2.36
   5   2  -8   36.50    2.31
  -5   2   8   41.39    1.95
  -5  -2   8   39.35    1.79
   5  -2  -8   37.39    1.74
   5  -2  -8   39.48    1.74
  -5   2  -8   37.78    2.30
   5   3  -8    2.17    1.17
  -5   3   8    1.01    0.99
  -5  -3  -8    1.41    0.37
   5  -3  -8    1.55    0.43
  -5  -3   8   -0.46    0.55
  -5   3  -8    0.66    0.93
   5   3   8    1.19    0.60
   5   4  -8   -0.71    1.05
  -5  -4  -8    0.54    0.52
  -5   4   8   -0.69    1.08
   5  -4  -8   -0.01    0.42
  -5  -4   8   -1.17    0.64
  -5   4  -8   -0.37    1.10
   5   4   8    0.57    0.86
  -5  -5  -8    2.67    0.44
   5   5  -8    1.72    1.32
  -5   5   8    3.59    1.44
  -5  -5   8    2.42    0.94
   5   5   8    3.29    2.26
  -5   5  -8    2.69    1.38
   5   6  -8   16.74    2.73
  -5   6   8   18.20    2.44
   5   6   8   17.38    2.13
  -5  -6   8   15.48    1.78
  -5   7   8    3.93    2.27
   5   7  -8    2.70    2.10
  -5  -7   8    4.47    1.50
  -5   7  -8    4.09    2.07
   5   7   8    5.72    2.15
   5   8  -8   51.62    4.54
  -5   8   8   52.78    6.02
   5   8   8   52.63    4.69
  -5   8  -8   52.91    5.16
  -5  -8   8   61.81    3.66
  -5   9   8    5.24    3.77
   5   9  -8    4.30    3.12
  -5   9  -8    3.94    3.25
  -5  -9   8    2.50    2.19
  -5   0   9   -0.61    0.53
   5   0   9   -1.05    0.64
   5   0  -9   -0.10    0.77
   5   0   9    0.18    0.28
   5  -1   9    4.42    1.04
   5  -1   9    5.43    0.64
   5   1  -9    5.67    1.10
   5  -1  -9    5.93    0.91
  -5  -1   9    5.68    0.74
   5   1   9    6.02    0.58
   5  -1  -9    6.93    0.74
   5  -2   9   62.00    2.48
   5   2  -9   63.67    3.20
  -5   2   9   60.23    2.83
   5  -2   9   57.42    3.08
  -5  -2   9   61.64    2.57
   5  -2  -9   60.87    2.56
  -5   2  -9   57.15    3.13
   5   3  -9   15.57    2.19
  -5   3   9   11.51    1.38
  -5  -3  -9   11.74    0.69
   5   3   9   12.27    1.18
  -5  -3   9   11.02    1.15
  -5   3  -9   12.82    1.68
   5  -3  -9   11.73    0.99
   5   4  -9  172.57    6.97
  -5   4   9  151.56    6.56
  -5  -4  -9  156.77    5.83
   5  -4  -9  157.82    5.81
   5   4   9  170.20    6.12
  -5   4  -9  157.75    6.90
  -5  -4   9  164.72    6.16
   5   5  -9    1.26    1.50
  -5   5   9    4.94    1.65
  -5  -5   9    0.98    0.95
   5   5   9    2.64    1.72
  -5   5  -9    2.43    1.41
   5   6  -9    6.50    2.06
  -5   6   9    5.87    2.25
  -5  -6   9    6.43    1.72
   5   6   9    7.29    1.94
  -5   6  -9    3.33    1.99
   5   7  -9   -0.88    2.07
  -5   7   9    1.77    2.44
   5   7   9    2.58    2.14
  -5   7  -9    0.49    2.08
  -5  -7   9    2.35    1.40
  -5   8   9   -1.99    2.87
   5   8  -9   -0.45    2.39
  -5  -8   9   -1.75    1.51
  -5   8  -9    3.96    2.87
  -5   9   9   10.79    4.03
   5   9  -9    3.41    2.75
  -5   9  -9    6.41    3.32
  -5  -9   9   -0.11    1.90
   5   0 -10   73.86    3.47
   5   0  10   73.43    3.14
   5   0  10   77.22    2.82
  -5   0  10   78.98    3.10
   5   1 -10    2.94    1.10
   5  -1  10    3.66    0.49
  -5   1  10    2.39    0.77
   5  -1  10    1.16    1.10
   5   1  10    2.82    0.46
   5  -1 -10    3.56    0.88
   5   1  10    2.75    0.62
  -5  -1  10    4.48    0.75
   5   2 -10    8.71    1.51
  -5   2  10    8.30    1.14
   5  -2  10    9.02    1.08
  -5   2 -10    9.18    1.53
  -5  -2  10    7.97    1.06
   5  -2 -10    8.75    1.32
  -5   3  10   26.07    2.08
   5  -3  10   24.14    1.63
   5   3 -10   29.97    2.70
  -5  -3 -10   24.75    1.08
   5  -3 -10   25.82    1.54
  -5  -3  10   28.22    1.74
  -5   3 -10   22.58    2.51
   5   3  10   25.98    1.54
  -5   4  10    1.50    1.41
   5   4 -10   -0.98    1.34
   5   4  10    0.85    0.96
  -5  -4  10    0.38    0.83
  -5   4 -10    1.86    1.78
   5  -4 -10    0.78    0.53
  -5   5  10    9.95    2.01
   5   5 -10    8.00    1.91
   5   5  10    9.37    1.50
  -5   5 -10   10.08    2.08
  -5  -5  10   13.60    1.82
   5  -5 -10    8.51    1.07
   5   6 -10   51.22    4.31
  -5   6  10   59.98    4.26
  -5  -6  10   54.46    3.08
  -5   6 -10   48.80    4.15
  -5   7  10    5.96    2.80
   5   7 -10    2.63    2.41
  -5  -7  10    8.10    1.78
  -5   7 -10    4.53    2.41
   5   8 -10   32.71    4.09
  -5   8  10   29.82    3.97
  -5  -8  10   40.65    3.45
  -5   8 -10   33.53    4.97
   5   0  11   -0.82    0.94
   5   0  11   -0.27    0.37
  -5   0  11   -0.14    0.64
   5   0 -11   -0.18    0.87
  -5   1  11    0.56    0.70
   5  -1  11    0.82    0.48
   5   1 -11    0.76    1.14
   5  -1  11   -0.59    1.23
   5  -1 -11    0.39    0.76
  -5   1 -11    0.36    0.94
  -5  -1  11    0.33    0.65
   5   1  11    1.37    0.70
   5   1  11    1.12    0.47
   5  -2  11    8.51    0.89
   5   2 -11    9.37    1.72
  -5   2  11    7.65    1.16
  -5   2 -11    6.39    1.47
   5  -2 -11    7.99    1.10
  -5  -2  11    8.72    0.99
  -5   3  11    0.45    1.14
   5   3 -11    1.55    1.47
   5  -3  11    0.97    0.81
  -5   3 -11    0.44    1.33
  -5  -3  11    0.30    0.81
   5   3  11    1.25    0.73
   5  -3 -11    0.85    0.78
   5  -4  11   52.65    2.64
  -5   4  11   53.27    3.37
  -5   4 -11   50.81    4.07
   5  -4 -11   44.74    2.94
  -5  -4  11   47.53    2.53
   5  -5  11    5.57    1.42
   5   5 -11    4.07    1.87
  -5   5  11   10.00    2.25
  -5  -5  11    7.18    1.36
  -5   5 -11    9.39    2.34
  -5   6  11    3.86    2.44
   5   6 -11    1.11    2.17
  -5   6 -11   -2.64    1.96
  -5  -6  11    2.77    1.45
   5   7 -11   -1.31    2.32
  -5   7  11   -2.91    2.78
  -5   7 -11   -1.32    2.41
  -5  -7  11   -2.27    1.38
   5   8 -11    5.24    3.30
  -5   8 -11    0.60    2.84
  -5  -8  11   -2.79    1.88
   5   0  12   23.42    1.24
   5   0 -12   27.44    2.13
  -5   0  12   24.34    1.64
  -5   0 -12   21.02    1.91
  -5   1  12   12.42    1.42
   5   1 -12   12.36    1.77
   5  -1  12   10.94    1.02
   5   1  12   11.94    0.97
   5  -1 -12   11.94    1.75
  -5  -1  12   13.05    1.33
  -5   1 -12   12.07    1.76
  -5   2  12   15.19    1.72
   5  -2  12   17.39    1.35
   5   2 -12   16.98    2.56
  -5  -2  12   18.33    1.54
   5  -2 -12   14.08    1.74
  -5   2 -12   19.40    2.52
   5  -3  12   24.21    1.81
   5   3 -12   32.12    3.15
  -5   3  12   21.95    2.37
   5  -3 -12   23.70    1.82
  -5  -3  12   23.90    1.84
  -5   3 -12   22.43    2.90
  -5   4  12    1.69    1.80
   5   4 -12   -1.70    1.60
   5  -4  12    1.17    1.15
  -5   4 -12    0.04    1.61
   5  -4 -12    0.19    0.78
  -5  -4  12   -0.89    1.02
   5  -5  12    6.57    1.36
  -5   5  12   10.99    2.38
   5   5 -12    5.78    2.16
  -5  -5  12    3.47    2.21
  -5   5 -12    4.95    2.10
   5  -6  12    9.23    1.88
   5   6 -12    6.78    2.58
  -5   6  12   12.91    2.87
  -5  -6  12    9.60    1.62
  -5   6 -12    9.78    2.66
   5  -7  12    4.46    1.91
   5   7 -12    3.74    2.77
  -5  -7  12    5.89    1.83
  -5   7 -12    1.43    2.60
   5   8 -12   22.65    4.02
   5  -8  12   12.44    2.47
  -5  -8  12   16.18    2.30
  -5   8 -12    8.62    3.48
   5   0  13    0.21    0.49
   5   0 -13    1.10    1.10
  -5   0 -13    0.19    1.13
  -5   0  13   -0.69    0.81
   5   1 -13    7.61    1.47
   5  -1  13    6.06    0.86
  -5   1  13    7.96    1.25
  -5  -1 -13    8.11    1.25
  -5  -1  13    8.61    1.05
   5  -1 -13    6.53    1.42
  -5   1 -13    9.58    1.57
  -5   2  13   11.95    1.53
   5   2 -13    9.81    1.89
   5  -2  13   11.38    1.32
   5  -2 -13   10.54    1.38
  -5   2 -13    9.18    1.83
  -5  -2  13   10.88    1.42
   5  -3  13   35.30    2.11
  -5   3  13   33.22    2.81
   5   3 -13   32.97    3.30
   5  -3 -13   38.40    2.28
  -5  -3  13   34.96    2.23
  -5   3 -13   35.54    3.44
   5   4 -13   26.55    3.43
  -5   4  13   33.06    3.40
   5  -4  13   30.05    2.18
  -5  -4  13   25.07    2.02
  -5   4 -13   23.28    3.37
   5   5 -13    0.12    2.15
   5  -5  13    1.06    1.36
  -5   5 -13   -2.53    2.15
  -5  -5  13    1.03    1.23
   5  -6  13   12.48    1.91
   5   6 -13   16.30    3.19
  -5   6 -13   15.63    3.17
  -5  -6  13   13.05    1.92
   5   7 -13    8.71    3.20
   5  -7  13    8.37    1.93
  -5  -7  13   12.25    2.02
  -5   7 -13   17.95    3.63
  -5   0 -14   73.81    3.97
  -5   0  14   72.07    3.35
   5   0 -14   75.80    3.99
   5   1 -14   -0.08    1.36
  -5   1  14   -1.48    1.02
  -5  -1 -14   -0.39    1.18
   5  -1 -14   -0.99    1.15
  -5  -1  14   -0.25    0.91
  -5   1 -14   -0.68    1.38
  -5  -2 -14   15.75    1.99
   5   2 -14   12.87    2.16
  -5   2  14   14.00    1.75
   5  -2  14   15.75    1.47
  -5  -2  14   13.53    1.68
   5  -2 -14   11.63    1.60
   5  -3  14   12.64    1.73
   5   3 -14   13.44    2.37
  -5  -3  14   10.19    1.40
   5  -3 -14   16.01    2.40
  -5   3 -14    8.37    2.05
   5  -4  14    8.46    1.34
   5   4 -14    4.09    2.17
  -5  -4  14    6.73    1.57
  -5   4 -14    7.20    2.56
   5   5 -14    6.70    2.86
   5  -5  14    1.22    1.50
  -5   5 -14   -1.45    2.43
  -5  -5  14   -0.17    1.34
   5   6 -14    4.52    2.84
   5  -6  14    5.91    1.91
  -5  -6  14    6.42    1.76
  -5   6 -14    1.68    2.64
  -5   0  15   -0.85    1.15
   5   0 -15    1.49    1.80
  -5   0 -15    0.51    1.43
   5   1 -15    3.55    1.69
  -5  -1 -15    0.78    1.45
  -5   1 -15    1.92    2.07
   5  -1 -15    1.46    1.41
  -5  -1  15    2.04    1.15
   5   2 -15   27.86    3.00
   5  -2 -15   22.65    2.39
  -5  -2  15   25.70    2.13
  -5   2 -15   26.17    3.11
   5   3 -15    0.51    2.08
  -5  -3  15    0.57    1.20
  -5   3 -15   -0.05    2.16
   5   4 -15    1.94    2.49
  -5  -4  15    2.82    1.51
  -5   4 -15    0.14    2.26
   5   5 -15    6.07    2.91
   5  -5  15    2.69    1.54
  -5   5 -15    6.54    3.00
  -5  -5  15    4.30    1.73
   5  -6  15   12.15    2.12
   5   6 -15    8.05    3.38
  -5  -6  15   10.02    1.94
  -5   6 -15    9.97    3.18
  -5   0 -16   40.79    3.46
   5   0 -16   42.85    3.32
   5   1 -16    0.72    2.07
  -5  -1 -16    3.35    2.08
  -5   1 -16    1.04    1.76
   5  -1 -16    1.10    1.73
   5   2 -16   12.84    2.67
  -5   2 -16   12.19    2.60
  -5  -2  16   11.22    1.58
   5   3 -16    6.92    2.74
  -5   3 -16    7.73    2.35
  -5  -3  16    6.96    1.73
   5   4 -16    4.15    2.92
  -5  -4  16   -1.77    1.38
  -5   4 -16   -0.21    2.49
   5   5 -16   20.22    3.58
  -5   5 -16   16.74    3.54
  -5  -5  16   18.84    2.22
  -5   0 -17   -1.17    2.13
   5   0 -17   -1.50    1.82
   5   1 -17    6.13    2.16
  -5   1 -17    7.55    2.54
   5  -1 -17    7.12    2.18
   5   2 -17    4.95    2.35
  -5   2 -17    8.02    2.39
   5   3 -17    0.74    2.36
  -5   3 -17    4.25    2.61
   5   4 -17    4.32    2.81
  -5   4 -17    5.85    3.13
  -5   0 -18   -2.16    2.49
   5   0 -18    5.73    2.61
   5   1 -18    6.11    2.37
  -5   1 -18    4.96    2.49
   5   2 -18    4.41    2.50
  -5   2 -18    2.17    2.80
   6   0   0   83.89    3.00
  -6   0   0   84.53    3.04
  -6   0   0   83.86    3.01
   6  -1   0    0.13    0.27
   6   1   0    0.11    0.17
  -6   1   0    0.09    0.20
  -6  -1   0   -0.14    0.14
   6  -1   0    0.18    0.22
  -6  -1   0    0.15    0.21
  -6   1   0    0.12    0.30
   6   1   0   -0.07    0.21
   6  -2   0   33.50    1.60
  -6   2   0   32.09    1.66
   6   2   0   28.66    1.39
  -6  -2   0   34.41    1.48
  -6  -2   0   31.81    1.31
  -6  -3   0   -0.09    0.49
  -6   3   0    0.49    0.55
   6  -3   0   -1.36    0.72
   6   3   0    0.58    0.38
  -6  -3   0    0.27    0.51
  -6  -4   0   48.84    2.37
  -6   4   0   47.69    2.67
   6   4   0   50.06    2.21
  -6   4   0   46.77    2.36
  -6   5   0   -0.03    1.03
   6   5   0   -0.12    0.63
  -6   5   0    1.44    1.16
  -6   6   0    8.48    1.39
   6   6   0    6.90    1.30
  -6   6   0    6.90    1.66
  -6   7   0    2.04    1.95
  -6   7   0   -0.18    1.27
   6   7   0    0.32    1.05
  -6   8   0   54.47    4.59
  -6   8   0   53.10    3.69
   6   8   0   57.91    3.27
  -6   9   0   -0.97    2.47
  -6  10   0    6.00    3.33
  -6   0   1   -0.03    0.16
   6   0   1    0.17    0.14
   6   0  -1   -0.09    0.20
  -6   0  -1   -0.20    0.15
  -6   0   1   -0.07    0.20
  -6   0  -1   -0.06    0.15
   6   0  -1   -0.25    0.17
   6   1  -1   95.66    3.67
   6  -1   1   99.74    3.68
   6   1  -1   98.43    3.57
  -6   1   1  100.84    3.68
  -6   1   1   99.54    3.59
  -6  -1  -1   96.25    3.51
  -6  -1  -1   97.66    3.57
   6   1   1  102.41    3.52
  -6  -1   1  100.96    3.57
  -6  -1   1  101.49    3.71
  -6   1  -1  101.64    3.71
   6  -1  -1  102.16    3.59
   6   1   1  101.52    3.55
   6  -1  -1   99.50    3.65
   6  -2   1    4.32    0.74
  -6  -2  -1    5.23    0.51
  -6  -2  -1    6.03    0.44
  -6   2   1    5.10    0.50
   6   2  -1    4.71    0.63
  -6  -2  -1    4.89    0.68
  -6   2   1    5.07    0.65
   6   2   1    5.53    0.44
  -6  -2   1    4.69    0.64
  -6   2  -1    5.54    0.69
  -6  -2   1    5.00    0.44
   6  -2  -1    5.64    0.71
   6   3  -1    5.46    0.83
  -6   3   1    6.78    0.94
  -6   3   1    6.32    0.77
  -6  -3  -1    5.95    0.76
   6  -3   1    5.49    1.02
  -6  -3  -1    5.54    0.79
  -6  -3   1    6.89    0.88
  -6  -3   1    5.55    0.89
   6  -3  -1    5.17    0.77
  -6   3  -1    3.91    0.77
   6   3   1    5.20    0.56
   6   4  -1  163.86    6.17
  -6   4   1  174.19    6.54
  -6  -4  -1  166.58    6.14
  -6   4   1  161.37    6.12
  -6   4   1  159.41    5.89
  -6  -4   1  163.49    6.33
  -6   4  -1  157.70    6.58
  -6   4  -1  162.23    6.47
   6   4   1  160.29    5.92
  -6  -5  -1   -0.11    0.82
  -6   5   1    1.26    0.72
   6   5  -1   -0.36    0.84
  -6   5   1   -0.64    0.92
  -6   5  -1    0.20    0.96
  -6   5  -1   -0.05    0.83
   6   5   1    0.35    0.51
  -6   6   1   20.66    2.38
   6   6  -1   23.52    1.94
   6   6   1   22.09    1.50
  -6   6  -1   19.14    2.16
  -6   6  -1   23.70    2.46
  -6   7   1    9.21    1.58
  -6   7   1   10.00    2.10
   6   7  -1    9.95    1.55
  -6   7  -1   11.72    2.27
  -6   7  -1    9.17    1.89
   6   7   1   10.34    1.53
  -6   8   1   -1.46    2.39
  -6   8   1   -1.50    1.38
   6   8  -1   -1.15    1.45
  -6   8  -1   -1.11    2.00
  -6   8  -1   -2.23    1.70
  -6   9   1   -1.01    2.64
  -6   9  -1    6.11    2.95
  -6  10   1    8.33    3.78
  -6  10  -1    4.56    3.18
   6   0  -2  415.22   14.06
   6   0   2  402.01   13.98
  -6   0   2  423.63   14.15
  -6   0   2  391.17   14.06
   6   0  -2  416.21   14.13
  -6   0  -2  392.73   14.00
  -6  -1  -2  136.86    4.77
  -6   1   2  139.61    4.92
  -6  -1  -2  133.73    4.71
   6  -1   2  145.05    4.94
   6   1  -2  136.18    4.82
   6   1  -2  141.64    4.98
  -6   1   2  131.60    4.83
  -6  -1   2  135.73    4.82
   6  -1  -2  114.24    4.81
   6  -1  -2  139.04    4.88
   6   1   2  134.88    4.71
  -6  -1   2  139.34    5.00
  -6   1  -2  138.21    4.95
  -6   2   2   12.60    0.69
  -6  -2  -2   11.81    0.65
   6  -2   2   11.44    1.02
  -6  -2  -2   12.42    0.83
  -6   2   2   11.76    0.92
   6  -2  -2   12.62    0.66
  -6   2  -2   10.96    0.94
   6   2   2   12.28    0.54
   6  -2  -2   12.67    0.91
  -6  -2   2   10.19    0.96
  -6  -2   2   11.42    0.69
  -6   3   2    2.01    0.73
  -6   3   2    1.03    0.49
   6  -3   2    1.34    0.91
  -6  -3  -2    1.62    0.42
  -6   3   2    2.07    0.36
   6   3  -2    1.63    0.56
  -6  -3  -2    1.11    0.60
   6   3   2    1.72    0.27
   6  -3  -2    2.81    0.72
  -6  -3   2    1.35    0.42
  -6  -3   2    1.93    0.69
  -6   3  -2    1.00    0.63
  -6  -3   2    1.33    0.86
   6   4  -2    2.52    0.81
  -6   4   2    3.13    0.49
  -6   4   2    5.44    0.77
  -6  -4  -2    4.19    0.68
  -6  -4  -2    4.73    0.86
  -6   4   2    3.00    1.05
  -6   4  -2    3.45    0.96
   6   4   2    4.39    0.50
  -6   4  -2    2.78    0.95
  -6   5   2    4.33    1.29
  -6   5   2    4.33    0.75
  -6  -5  -2    3.87    0.90
   6   5  -2    3.17    0.98
  -6   5   2    5.24    0.80
  -6   5  -2    2.27    1.06
   6   5   2    3.60    0.56
   6   5   2    5.24    1.14
  -6   5  -2    3.53    1.17
   6   6  -2   13.09    1.95
  -6   6   2    9.12    1.23
  -6   6   2   12.29    2.01
  -6   6  -2    6.35    1.57
   6   6   2   10.93    1.64
   6   6   2   10.07    1.02
  -6   6  -2   10.43    1.60
   6   7  -2    8.63    1.66
  -6   7   2    8.85    1.27
  -6   7   2    8.91    2.19
  -6   7  -2   10.40    2.22
   6   7   2    7.63    0.94
  -6   7  -2    8.58    1.74
  -6   8   2   56.43    4.73
   6   8  -2   53.83    3.64
  -6   8  -2   54.79    4.19
  -6   8  -2   44.68    3.79
  -6   9   2    4.28    3.32
  -6   9  -2    0.32    2.39
  -6   9  -2   -0.43    2.42
  -6  10   2    0.72    3.11
  -6  10  -2    0.90    3.10
  -6   0  -3    0.04    0.20
  -6   0   3   -0.20    0.20
   6   0  -3    0.16    0.27
   6   0  -3   -0.22    0.19
  -6   0   3    0.39    0.30
   6   0   3   -0.09    0.16
   6   1  -3    1.61    0.41
  -6  -1  -3    1.43    0.17
   6   1  -3    1.58    0.32
  -6   1   3    1.17    0.31
   6  -1   3    1.33    0.47
  -6   1   3    2.01    0.36
  -6  -1   3    1.40    0.30
   6  -1  -3    1.03    0.33
  -6   1  -3    1.23    0.40
  -6  -1   3    0.53    0.47
   6  -1  -3    1.17    0.28
   6   2  -3   -0.20    0.43
  -6  -2  -3    0.26    0.30
  -6   2   3   -0.53    0.37
  -6   2   3   -0.08    0.25
   6  -2   3    0.19    0.59
   6  -2  -3   -0.44    0.35
   6  -2  -3    0.20    0.22
  -6   2  -3   -0.14    0.46
  -6  -2   3    0.28    0.25
  -6  -2   3    0.22    0.51
   6   3  -3   24.29    1.62
  -6  -3  -3   22.68    1.11
  -6   3   3   23.08    1.16
  -6   3   3   24.14    1.60
  -6   3   3   25.69    1.08
  -6  -3  -3   24.84    1.47
   6  -3   3   23.68    1.84
   6  -3  -3   23.29    1.47
  -6   3  -3   25.12    1.78
  -6  -3   3   22.89    1.68
   6  -3  -3   23.59    1.12
  -6  -3   3   24.94    1.28
  -6   4   3   53.04    1.98
  -6  -4  -3   46.41    2.49
   6   4  -3   52.04    2.61
  -6   4   3   47.38    2.11
  -6   4   3   51.96    2.75
  -6  -4  -3   50.24    2.18
   6   4   3   47.24    2.39
  -6   4  -3   54.67    2.69
  -6   4  -3   48.34    2.70
   6   5  -3   45.08    2.59
  -6  -5  -3   38.77    2.21
  -6   5   3   38.43    2.81
  -6   5   3   42.02    1.75
  -6   5   3   38.31    1.94
   6   5   3   39.71    2.50
  -6   5  -3   49.17    2.81
  -6   5  -3   40.05    2.73
  -6   6   3    1.77    1.41
  -6   6   3    2.41    0.71
  -6  -6  -3    1.01    1.23
   6   6  -3   -0.27    1.19
  -6   6   3    0.90    0.61
   6   6   3    2.46    1.29
  -6   6  -3    3.05    1.28
  -6   6  -3    2.79    1.51
   6   7  -3   56.90    3.40
  -6   7   3   49.50    2.44
  -6   7   3   47.44    3.72
  -6   7  -3   50.80    3.51
   6   7   3   55.75    3.73
  -6   7  -3   55.54    3.77
  -6   8   3   13.33    2.77
   6   8  -3   14.33    2.23
  -6   8  -3   15.38    2.37
  -6   8  -3    9.91    2.35
   6   9  -3    2.24    2.38
  -6   9   3    0.05    2.70
  -6   9  -3   -4.24    2.31
  -6   9  -3    2.32    2.47
  -6  10   3   -1.23    3.27
  -6  10  -3    0.44    2.81
   6   0  -4  125.47    4.82
   6   0  -4  133.93    4.71
  -6   0   4  135.26    4.73
   6   0   4  134.59    4.61
  -6   0   4  128.72    4.84
  -6   0  -4  130.43    4.61
  -6   1   4   19.49    0.98
   6  -1   4   17.79    1.11
   6   1  -4   18.20    0.93
  -6   1   4   18.65    1.01
   6   1  -4   19.60    1.14
   6  -1  -4   19.40    0.95
  -6  -1   4   17.81    0.90
  -6  -1   4   21.50    1.26
   6  -1  -4   17.59    0.94
  -6   1  -4   18.18    1.04
  -6  -2  -4  318.18   10.91
  -6   2   4  306.23   11.11
  -6   2   4  305.95   10.82
   6  -2   4  310.97   11.20
   6  -2  -4  301.17   10.89
   6  -2  -4  311.53   11.02
  -6  -2   4  315.05   11.29
  -6   2  -4  337.64   11.22
  -6  -2   4  309.85   10.97
   6  -3   4   27.54    1.96
  -6   3   4   29.26    1.13
  -6  -3  -4   28.61    1.31
  -6   3   4   29.48    1.84
   6   3  -4   31.73    1.93
  -6  -3  -4   29.54    1.56
  -6  -3   4   29.02    1.41
   6  -3  -4   29.52    1.26
   6  -3  -4   28.85    1.61
   6   3   4   31.01    1.51
  -6  -4  -4    1.48    0.71
   6   4  -4   -0.03    0.88
  -6   4   4    0.35    0.92
  -6  -4  -4    0.27    0.37
  -6   4  -4    0.14    0.87
  -6  -4   4   -0.25    0.50
  -6   4  -4   -0.47    0.78
   6   4   4    0.57    0.64
   6   5  -4   38.34    2.47
  -6  -5  -4   36.66    1.95
  -6   5   4   31.13    2.57
   6   5   4   33.76    2.43
  -6   5  -4   38.88    2.66
  -6   5  -4   33.33    2.49
  -6   6   4    1.68    1.63
   6   6  -4   -0.13    1.15
  -6  -6  -4    1.88    0.98
  -6   6  -4    2.02    1.67
  -6   6  -4   -0.45    1.27
   6   6   4    0.41    1.22
   6   7  -4    0.84    1.48
  -6   7   4   -0.27    1.78
   6   7   4    2.45    1.79
  -6   7  -4    0.27    1.73
  -6   7  -4    1.48    1.63
  -6   8   4   11.12    2.95
   6   8  -4   14.94    2.32
  -6   8  -4   11.23    2.53
  -6   8  -4   14.54    2.51
  -6   9   4   -2.47    3.08
   6   9  -4    2.81    2.43
  -6   9  -4    3.53    2.61
  -6   9  -4    0.01    2.42
  -6  10   4    3.18    3.57
  -6  10  -4   11.80    3.25
   6   0  -5    0.31    0.34
  -6   0   5   -0.61    0.46
   6   0  -5   -0.01    0.31
  -6   0   5   -0.18    0.25
   6   0   5    0.31    0.29
   6  -1   5  133.15    4.83
   6   1  -5  127.08    4.71
  -6   1   5  132.41    4.69
  -6   1   5  126.95    4.75
   6   1  -5  136.70    5.00
  -6   1  -5  130.32    4.76
   6  -1  -5  124.27    4.74
  -6  -1   5  126.20    4.99
   6  -1  -5  130.64    4.71
  -6  -1   5  130.93    4.71
  -6   2   5   12.69    1.04
   6  -2   5   13.13    1.27
   6   2  -5   11.88    1.25
  -6  -2  -5   12.11    0.67
   6  -2  -5   11.03    0.91
  -6   2  -5   11.42    1.06
  -6  -2   5   10.78    1.31
  -6  -2   5   11.56    0.99
   6  -2  -5   12.22    0.74
  -6  -3  -5    0.46    0.17
   6   3  -5   -0.07    0.75
  -6  -3  -5    0.65    0.53
  -6   3  -5    0.67    0.78
  -6   3  -5    1.10    0.76
   6   3   5   -0.22    0.51
  -6  -3   5   -0.36    0.42
   6  -3  -5    1.49    0.62
   6  -3  -5    0.90    0.28
  -6  -4  -5    1.77    0.73
  -6  -4  -5    0.90    0.37
  -6   4   5    0.24    0.94
   6   4  -5   -0.83    0.87
   6  -4  -5    0.06    0.33
  -6   4  -5   -0.62    0.85
   6   4   5    0.10    0.68
  -6  -4   5   -0.40    0.55
  -6   4  -5    1.21    0.88
  -6   5   5    1.97    1.31
  -6  -5  -5    1.63    0.59
   6   5  -5    2.71    1.29
  -6   5  -5    1.36    1.36
  -6   5  -5    1.93    1.26
   6   5   5    1.57    1.32
  -6  -5   5    0.49    0.67
   6   6  -5   -0.32    1.35
  -6   6   5   -3.42    1.43
  -6  -6  -5   -0.74    0.97
  -6   6  -5    0.95    1.55
   6   6   5   -0.80    1.32
  -6   6  -5    0.43    1.32
  -6   7   5   54.78    4.26
   6   7  -5   48.84    3.56
   6   7   5   46.95    3.51
  -6   7  -5   51.47    3.87
  -6   7  -5   52.46    4.12
   6   8  -5   -1.50    1.77
  -6   8   5   -0.07    2.45
  -6   8  -5    0.33    2.07
  -6   8  -5    2.35    2.78
   6   8   5    0.48    2.18
  -6   9   5    8.62    3.49
   6   9  -5   14.68    3.09
  -6   9  -5   13.35    3.28
  -6   9  -5   10.52    2.61
  -6  10   5    5.77    3.85
  -6 -10   5   -0.40    2.36
  -6  10  -5   11.74    3.76
  -6   0   6   21.50    1.32
   6   0  -6   23.09    1.10
   6   0  -6   23.96    1.38
   6   0   6   21.99    0.87
   6   0   6   21.41    1.06
  -6   0   6   23.20    1.13
  -6   1   6    0.21    0.36
   6   1  -6    0.01    0.61
   6   1  -6    0.36    0.35
  -6   1   6   -0.28    0.33
   6  -1   6   -0.66    0.59
  -6  -1   6    0.23    0.35
   6  -1  -6   -0.21    0.32
   6  -1  -6   -0.20    0.36
  -6  -1   6    1.28    0.64
  -6  -2  -6    8.60    0.48
   6   2  -6   13.49    1.43
   6  -2   6    9.29    1.18
  -6   2   6    8.10    1.04
  -6   2  -6    9.82    0.98
  -6  -2   6    8.71    0.85
   6  -2  -6   10.61    0.80
   6  -2  -6   10.24    0.74
  -6   3   6  100.35    4.29
  -6  -3  -6  104.08    3.83
   6   3  -6   90.27    4.37
  -6   3  -6  105.39    4.32
  -6   3  -6  104.81    4.40
   6  -3  -6  101.10    3.73
  -6  -3   6  103.97    3.93
   6   3   6  104.24    3.85
   6   4  -6   -0.44    0.85
  -6  -4  -6    1.24    0.69
  -6  -4  -6    0.85    0.30
  -6   4   6    2.06    1.15
  -6  -4   6    0.26    0.55
  -6   4  -6    0.41    0.93
   6   4   6    1.94    0.72
   6  -4  -6    0.67    0.41
  -6   4  -6   -0.13    0.93
   6   5  -6   11.37    1.76
  -6   5   6    7.73    1.66
  -6  -5  -6   11.33    1.02
   6   5   6   12.65    1.56
  -6   5  -6   11.44    1.74
  -6  -5   6   11.83    1.42
  -6   5  -6   10.78    1.76
  -6   6   6   23.89    2.98
   6   6  -6   26.06    2.96
  -6  -6  -6   23.64    1.90
  -6   6  -6   30.55    3.02
  -6   6  -6   20.45    2.66
   6   6   6   25.70    2.70
  -6  -6   6   22.73    1.89
   6   7  -6    7.50    2.12
  -6   7   6    5.99    2.32
  -6  -7   6    4.57    1.32
  -6   7  -6    8.36    2.29
   6   7   6    5.43    1.94
  -6   8   6    6.71    2.80
   6   8  -6    3.98    2.38
  -6  -8   6    4.13    1.53
  -6   8  -6    9.74    2.39
   6   8   6    9.23    2.49
  -6   8  -6    5.59    2.38
   6   9  -6    3.77    2.55
  -6   9   6    9.55    3.73
  -6   9  -6    5.46    2.84
  -6  -9   6    1.93    1.81
  -6  10   6    8.54    4.48
  -6 -10   6   -1.63    2.07
   6   0  -7    0.07    0.34
  -6   0   7   -0.15    0.39
  -6   0   7    0.71    0.53
   6   0   7   -0.06    0.19
   6   0   7    0.48    0.42
   6   1  -7   37.43    2.11
  -6   1   7   41.33    1.86
   6  -1   7   42.21    2.03
   6  -1  -7   39.99    1.84
  -6  -1   7   42.24    2.16
   6  -1  -7   40.80    1.76
   6   2  -7   16.36    1.59
  -6   2   7   17.51    1.30
   6  -2   7   19.96    1.60
  -6  -2   7   18.08    1.17
   6  -2  -7   17.63    1.10
   6  -2  -7   17.21    1.05
  -6   3   7   31.18    2.11
  -6  -3  -7   32.52    1.39
   6   3  -7   33.04    2.24
   6  -3  -7   32.20    1.42
  -6   3  -7   28.84    2.13
   6   3   7   31.44    1.59
  -6  -3   7   31.87    1.65
  -6  -4  -7    0.82    0.62
  -6   4   7    0.28    1.01
   6   4  -7    1.34    1.30
  -6   4  -7    0.74    1.08
   6  -4  -7    0.49    0.41
  -6   4  -7    1.77    1.04
  -6  -4   7   -0.76    0.63
   6   4   7   -0.74    0.77
   6   5  -7   36.23    2.76
  -6   5   7   40.95    2.97
  -6  -5  -7   35.91    1.67
  -6   5  -7   41.89    3.20
   6  -5  -7   39.24    1.77
  -6  -5   7   40.35    2.14
   6   5   7   39.09    2.98
  -6   5  -7   35.55    2.78
  -6   6   7   36.49    3.45
   6   6  -7   29.10    3.17
   6   6   7   36.30    3.03
  -6   6  -7   37.90    3.45
  -6   6  -7   36.39    3.29
  -6  -6   7   35.38    2.31
   6   7  -7    0.29    1.79
   6   7   7    0.26    1.76
  -6   7  -7    2.05    1.89
  -6   7  -7    0.04    1.88
  -6  -7   7    1.57    1.30
  -6   8   7    7.96    2.68
   6   8  -7    9.51    2.53
  -6  -8   7    7.30    1.67
  -6   8  -7    8.69    2.57
   6   8   7   10.15    2.79
  -6   9   7   20.10    3.78
   6   9  -7   24.28    3.29
  -6  -9   7   29.01    3.09
  -6   9  -7   24.07    3.43
   6   0   8   50.92    1.85
   6   0  -8   47.58    2.47
   6   0   8   50.96    2.09
   6  -1   8    9.74    0.67
  -6   1   8   10.65    1.06
   6   1  -8    8.34    1.27
   6  -1   8   12.10    1.27
  -6  -1   8    8.59    1.30
  -6  -1   8   10.78    0.92
   6  -1  -8    8.29    1.10
   6  -1  -8    9.19    0.87
  -6   2   8   -0.37    0.84
   6   2  -8   -0.16    0.84
   6  -2   8   -2.49    1.06
  -6  -2   8    0.02    0.48
   6  -2  -8    0.01    0.47
  -6  -3  -8   47.76    1.89
  -6   3   8   48.44    2.63
   6   3  -8   45.36    2.82
  -6  -3   8   51.99    2.29
   6   3   8   47.73    2.11
  -6   3  -8   55.98    3.04
   6  -3  -8   49.40    2.05
  -6   4   8    0.05    1.18
   6   4  -8    0.80    1.11
  -6  -4  -8    0.76    0.58
  -6   4  -8    2.04    1.38
  -6  -4   8    0.70    0.74
   6  -4  -8    0.10    0.42
   6   4   8   -1.05    0.84
  -6  -5  -8   33.34    1.46
   6   5  -8   31.45    2.84
  -6  -5  -8   34.90    1.93
  -6   5   8   34.59    3.01
  -6  -5   8   34.94    2.24
  -6   5  -8   32.89    3.12
   6  -5  -8   35.16    1.64
   6   5   8   34.53    3.02
   6   6  -8    2.90    3.24
  -6   6   8    5.23    2.03
   6   6   8   10.31    1.89
  -6  -6   8    6.37    1.25
  -6   6  -8    8.49    3.89
   6   7  -8    5.51    2.36
  -6   7   8    3.12    2.28
  -6  -7   8    5.53    1.42
  -6   7  -8    4.14    2.17
   6   7   8    3.85    2.02
   6   8  -8    0.38    2.24
  -6   8   8   -1.43    2.52
  -6   8  -8   -0.42    2.42
   6   8   8    3.93    2.74
  -6  -8   8   -0.77    1.42
   6   9  -8   13.43    3.10
  -6   9   8   11.86    3.37
  -6  -9   8    9.83    2.18
  -6   9  -8    9.81    3.32
   6   0   9    0.26    0.28
  -6   0   9   -0.59    0.50
   6   0  -9    0.61    0.78
   6   0   9   -0.44    0.61
   6  -1   9   51.99    2.47
   6   1  -9   47.55    2.63
   6  -1   9   49.90    1.98
  -6   1   9   49.15    2.34
   6  -1  -9   53.75    2.45
  -6  -1   9   48.67    2.19
   6  -2   9   21.95    2.19
  -6   2   9   21.88    1.71
   6  -2   9   21.94    1.34
   6   2  -9   20.94    1.95
  -6  -2   9   21.73    1.40
   6  -2  -9   26.14    1.50
  -6   2  -9   26.37    2.10
   6   3  -9   50.01    3.04
  -6   3   9   50.92    2.72
  -6  -3  -9   49.78    1.87
  -6   3  -9   52.19    3.05
   6  -3  -9   50.67    2.18
   6   3   9   49.31    2.12
  -6  -3   9   47.57    2.30
  -6   4   9   16.95    2.26
   6   4  -9   14.86    2.23
  -6  -4  -9   14.44    0.97
   6  -4  -9   12.26    1.04
   6   4   9   11.58    1.49
  -6  -4   9   13.76    1.47
  -6   4  -9   12.48    1.77
   6   5  -9   86.34    4.80
  -6   5   9   87.67    4.64
   6   5   9   89.15    3.97
  -6   5  -9   85.77    4.67
  -6  -5   9   88.93    3.82
   6  -5  -9   87.91    3.40
   6   6  -9   23.01    3.27
  -6   6   9   28.54    3.40
  -6   6  -9   21.50    3.24
   6   6   9   27.30    3.02
   6   7  -9   14.99    2.92
  -6   7   9   11.70    2.82
  -6  -7   9    9.72    1.70
  -6   7  -9   14.24    2.89
   6   7   9    4.25    2.27
  -6   8   9   -2.30    2.65
   6   8  -9   -0.39    2.48
  -6  -8   9    0.26    1.62
  -6   8  -9    0.42    2.68
  -6   9   9   17.79    3.89
   6   9  -9   22.93    3.73
  -6  -9   9   18.60    2.52
  -6   9  -9   19.71    3.74
  -6   0  10   67.19    2.78
   6   0  10   66.00    2.74
   6   0 -10   62.25    3.12
   6   0  10   65.56    2.43
   6  -1  10    1.08    0.47
  -6   1  10    1.47    0.72
   6  -1  10    1.33    1.04
   6   1 -10    1.87    0.97
   6  -1 -10    1.51    0.75
  -6  -1  10    1.46    0.63
   6   2 -10    9.86    1.55
  -6   2  10    8.88    1.17
  -6  -2  10    9.70    1.15
   6  -2 -10    8.97    1.29
  -6   2 -10   11.57    1.61
   6   3 -10   32.47    2.61
   6  -3  10   31.74    1.85
  -6   3  10   32.97    2.30
  -6  -3  10   30.56    1.85
  -6   3 -10   31.34    2.59
   6   4 -10   10.23    1.89
  -6   4  10    9.48    1.65
  -6  -4  10   11.61    1.47
   6  -4 -10    9.42    1.48
   6   4  10   10.23    1.17
  -6   4 -10   11.83    2.09
  -6   5  10    1.72    1.67
   6   5 -10    3.10    1.77
   6  -5 -10   -0.99    0.60
  -6   5 -10    0.10    1.46
   6   5  10   -0.12    1.06
  -6  -5  10   -0.13    1.09
   6   6 -10   14.13    2.47
  -6   6  10   16.63    2.66
  -6   6 -10   17.54    2.70
  -6  -6  10   15.24    1.95
   6   7 -10   11.05    3.00
  -6   7  10   12.72    3.17
  -6   7 -10   15.52    3.20
   6   8 -10    4.52    2.87
  -6   8  10   -0.08    3.04
  -6  -8  10    2.39    1.87
  -6   8 -10    5.05    2.99
   6   0 -11   -0.78    0.91
   6   0  11   -0.12    0.84
   6   0  11   -0.24    0.35
  -6   0  11   -1.08    0.64
  -6   1  11   49.26    2.42
   6  -1  11   51.90    2.06
   6   1 -11   48.59    2.86
   6  -1  11   46.73    2.78
   6  -1 -11   53.88    2.64
  -6  -1  11   50.62    2.36
   6  -2  11   13.09    1.29
   6   2 -11   11.97    1.75
  -6   2  11   13.44    1.40
   6  -2 -11   11.71    1.47
  -6   2 -11   10.56    1.73
  -6  -2  11   15.03    1.33
  -6   3  11   33.20    2.58
   6  -3  11   31.39    1.86
   6   3 -11   38.23    2.92
  -6  -3  11   35.68    2.05
   6  -3 -11   33.90    1.91
  -6   3 -11   41.68    3.23
   6   4 -11    5.46    2.93
  -6   4  11    5.77    1.62
   6  -4  11    5.97    1.12
   6  -4 -11    6.20    0.87
  -6  -4  11    6.07    1.13
   6   5 -11   14.91    2.46
  -6   5  11   18.94    2.37
   6  -5 -11   15.05    1.30
  -6  -5  11   21.01    2.01
  -6   5 -11   18.24    2.50
   6   6 -11    0.77    2.02
  -6   6  11   -1.35    2.24
  -6   6 -11    3.40    2.23
  -6  -6  11    4.47    1.42
  -6   7  11    7.64    3.38
   6   7 -11    3.12    2.77
  -6  -7  11    4.18    1.59
  -6   7 -11    7.39    2.91
   6   8 -11    1.23    3.00
  -6  -8  11    0.00    1.91
  -6   8 -11    4.63    3.21
   6   0 -12    0.90    1.19
  -6   0  12    0.19    0.74
   6   0  12   -0.54    0.45
   6   1 -12   -0.74    1.09
   6  -1  12    0.45    0.47
  -6   1  12    0.03    0.80
   6  -1 -12    0.49    0.89
  -6  -1  12   -0.73    0.72
  -6   1 -12   -0.54    1.01
  -6   2  12   92.38    4.01
   6  -2  12   91.12    3.59
   6   2 -12   88.49    4.53
  -6   2 -12   93.86    4.57
   6  -2 -12   89.84    3.92
  -6  -2  12   90.99    3.79
   6   3 -12   32.39    3.01
   6  -3  12   33.81    1.96
  -6   3  12   32.66    2.72
   6  -3 -12   35.84    2.12
  -6  -3  12   35.47    2.07
  -6   3 -12   36.22    3.13
   6   4 -12    1.48    1.73
   6  -4  12    1.65    1.04
  -6   4  12    1.63    1.67
  -6  -4  12    1.57    1.05
  -6   4 -12    3.80    1.99
   6  -4 -12    2.80    0.90
   6   5 -12   29.48    3.77
  -6   5  12   25.22    3.49
   6  -5  12   33.45    2.55
  -6  -5  12   29.02    2.36
  -6   5 -12   33.88    3.76
  -6   6  12   -3.70    2.34
   6  -6  12   -2.78    1.41
   6   6 -12   -2.37    2.10
  -6   6 -12   -0.31    2.16
  -6  -6  12    0.68    1.37
   6  -7  12    0.97    1.87
   6   7 -12    6.62    3.10
  -6  -7  12    3.20    1.71
  -6   7 -12   -2.14    2.52
   6   8 -12   -1.84    3.02
   6  -8  12   -1.29    2.21
  -6   8 -12    4.08    4.11
  -6  -8  12    0.99    2.00
  -6   0  13   -0.23    0.90
   6   0 -13    1.32    1.29
  -6   0 -13   -1.82    1.03
  -6   1  13   35.03    2.24
   6  -1  13   33.85    1.68
   6   1 -13   37.17    2.84
   6  -1 -13   35.91    2.45
  -6  -1  13   33.99    2.06
  -6   1 -13   35.93    2.66
  -6   2  13   17.85    2.01
   6  -2  13   16.11    1.38
   6   2 -13   14.76    2.07
  -6  -2  13   17.37    1.61
  -6   2 -13   16.49    2.28
   6  -2 -13   17.19    1.89
   6  -3  13    0.78    0.91
  -6   3  13   -0.11    1.45
   6   3 -13   -1.30    1.69
   6  -3 -13   -0.19    0.95
  -6  -3  13   -0.34    0.98
  -6   3 -13    0.37    1.84
  -6   4  13    3.43    1.94
   6   4 -13    8.11    2.46
   6  -4  13    3.20    1.24
  -6   4 -13    3.50    1.91
  -6  -4  13    6.12    1.32
   6   5 -13    4.27    2.40
   6  -5  13    7.71    1.53
  -6   5 -13    4.48    2.50
  -6  -5  13    5.34    1.46
   6   6 -13   19.88    3.30
   6  -6  13   21.35    2.56
  -6   6 -13   22.58    3.34
  -6  -6  13   21.70    2.44
   6   7 -13   14.91    3.65
   6  -7  13    9.91    2.21
  -6   7 -13    8.41    2.95
  -6  -7  13   14.61    2.26
   6   0 -14    0.14    1.31
  -6   0  14    1.56    0.98
  -6   0 -14    0.99    1.33
  -6   1  14   -1.06    1.08
   6   1 -14    0.95    1.73
  -6  -1 -14   -0.30    1.23
  -6  -1  14    0.72    0.91
  -6   1 -14   -0.11    1.49
   6  -1 -14    1.58    1.37
  -6   2  14   18.17    2.37
   6   2 -14    7.10    2.06
   6  -2 -14   11.30    1.69
  -6  -2  14   11.93    1.38
  -6   2 -14   11.89    2.79
  -6   3  14   38.52    3.22
   6  -3  14   44.35    2.43
   6   3 -14   46.58    4.03
  -6   3 -14   37.99    3.72
  -6  -3  14   43.48    2.55
   6  -3 -14   41.08    2.70
   6   4 -14    1.41    2.34
   6  -4  14   -0.42    1.24
  -6   4 -14    0.49    2.25
   6   5 -14    8.05    2.82
   6  -5  14    7.90    1.65
  -6  -5  14   10.82    1.60
  -6   5 -14   10.09    2.82
   6   6 -14    0.65    2.71
   6  -6  14    2.96    1.88
  -6  -6  14    6.96    1.89
  -6   6 -14   12.50    3.61
   6   0 -15    1.53    1.48
  -6   0 -15    0.90    1.66
  -6   0  15   -1.46    1.19
   6   1 -15   29.47    3.20
  -6   1  15   21.69    2.38
  -6  -1 -15   28.84    2.59
  -6  -1  15   32.42    2.29
  -6   1 -15   25.44    3.79
   6  -1 -15   24.62    2.85
   6   2 -15   -0.03    2.01
  -6  -2  15    1.33    1.21
   6  -2 -15   -0.64    1.33
  -6   2 -15    3.86    2.29
   6   3 -15    0.27    2.10
  -6  -3  15    0.00    1.22
  -6   3 -15    0.92    1.85
   6   4 -15   15.08    2.99
  -6   4 -15   11.95    2.93
  -6  -4  15   12.27    1.73
   6   5 -15    0.27    2.57
  -6   5 -15    1.37    2.73
  -6  -5  15    0.86    1.61
  -6   6 -15    2.68    4.08
  -6  -6  15    3.59    1.74
  -6   0 -16    1.13    1.83
   6   0 -16   -0.36    1.72
  -6  -1 -16   -1.99    1.72
   6   1 -16    2.49    1.82
  -6   1 -16    0.73    2.13
  -6  -1  16    0.97    1.58
   6  -1 -16    2.10    1.60
   6   2 -16    5.09    2.13
  -6   2 -16    1.57    1.89
  -6  -2  16    3.57    1.36
   6   3 -16   29.79    3.82
  -6   3 -16   22.73    3.33
  -6  -3  16   24.04    3.27
   6   4 -16    1.96    2.63
  -6  -4  16    4.36    1.65
  -6   4 -16    2.14    2.53
   6   5 -16   10.52    3.30
  -6  -5  16   10.41    2.05
  -6   5 -16   13.40    3.73
  -6   0 -17   -1.94    1.76
   6   0 -17    1.78    2.16
   6   1 -17    8.63    2.35
  -6   1 -17    7.38    2.11
   6  -1 -17    5.81    2.06
   6   2 -17    0.83    2.18
  -6   2 -17   -1.75    2.61
   6   3 -17   -1.05    2.23
  -6   3 -17    0.05    2.49
  -6   0 -18   71.01    5.32
   6   0 -18   49.71    4.29
   6   1 -18    0.77    2.65
  -6   1 -18    1.09    2.40
   6   2 -18   16.16    3.06
  -6   2 -18    9.74    3.00
  -7   0   0    0.46    0.21
   7   0   0    0.12    0.19
  -7   0   0    0.08    0.18
   7   0   0   -0.03    0.18
  -7   1   0   89.52    3.29
   7   1   0   89.81    3.23
  -7   1   0   93.24    3.38
   7   1   0   88.75    3.29
   7  -1   0   91.10    3.35
  -7  -1   0   89.47    3.22
  -7  -1   0   93.02    3.33
   7  -1   0   86.41    3.29
   7   2   0   -0.04    0.29
  -7  -2   0   -0.09    0.20
   7  -2   0    0.45    0.45
  -7   2   0    0.15    0.27
  -7  -2   0    0.28    0.35
  -7   2   0    0.13    0.39
  -7  -3   0   26.76    1.62
   7   3   0   31.32    1.47
  -7   3   0   31.49    1.83
  -7  -3   0   31.52    1.68
   7  -3   0   30.22    1.82
  -7   4   0   -0.71    0.80
   7   4   0   -0.11    0.48
  -7   4   0   -0.45    0.60
   7   5   0   65.83    2.93
  -7   5   0   69.64    3.53
  -7   5   0   66.68    3.27
   7   6   0   -0.23    1.01
  -7   6   0   -0.69    1.06
  -7   6   0    0.84    1.30
  -7   7   0    3.98    1.82
  -7   7   0    7.25    1.69
   7   7   0    5.97    1.31
   7   8   0    0.66    1.26
  -7   8   0   -1.31    2.10
  -7   8   0    0.40    1.64
  -7   9   0   20.14    3.38
  -7  10   0    2.38    3.38
   7   0  -1    0.02    0.19
  -7   0  -1   -0.08    0.15
  -7   0   1    0.00    0.25
   7   0   1   -0.02    0.23
  -7   0  -1   -0.07    0.21
  -7   0   1    0.15    0.19
   7   0  -1    0.02    0.20
   7   0   1    0.07    0.17
  -7   1   1   16.37    0.87
   7   1  -1   16.11    0.88
   7   1  -1   15.52    0.75
   7  -1   1   16.33    0.91
  -7   1   1   16.18    0.81
  -7  -1  -1   15.50    0.77
  -7  -1  -1   16.06    0.70
   7   1   1   16.11    0.71
  -7  -1   1   17.36    0.93
   7  -1  -1   18.11    0.80
  -7   1  -1   16.33    0.90
   7  -1  -1   15.91    0.85
  -7  -1   1   15.85    0.74
   7   1   1   17.10    0.75
   7   2  -1    8.97    0.75
  -7   2   1    9.52    0.87
  -7  -2  -1    8.80    0.69
   7  -2   1    6.81    0.96
  -7  -2  -1    9.32    0.53
  -7   2   1    8.54    0.61
   7  -2  -1    8.88    0.63
  -7  -2   1    9.12    0.58
  -7  -2   1   10.11    0.83
  -7   2  -1    8.17    0.87
   7   2   1    9.00    0.58
   7  -2  -1    8.63    0.83
   7  -3   1   49.04    2.46
   7   3  -1   48.79    2.18
  -7   3   1   48.54    1.98
  -7   3   1   52.23    2.44
  -7  -3  -1   45.95    2.22
  -7  -3  -1   47.13    2.10
   7   3   1   48.08    1.98
  -7   3  -1   47.34    2.40
  -7  -3   1   51.44    2.31
  -7  -3   1   51.23    2.02
   7  -3  -1   45.83    2.39
  -7   4   1    5.99    0.81
  -7   4   1    4.25    1.04
  -7   4   1    5.72    0.84
  -7  -4  -1    5.43    0.94
   7   4  -1    5.90    0.85
  -7   4  -1    5.27    1.01
   7   4   1    7.80    0.74
  -7   4  -1    6.98    1.06
  -7  -4   1    7.64    1.13
   7   5  -1   64.39    3.04
  -7  -5  -1   61.41    3.06
  -7   5   1   62.92    2.94
  -7   5  -1   64.31    3.19
   7   5   1   63.74    2.68
  -7   6   1   10.62    1.82
   7   6  -1   13.85    1.69
  -7   6   1   14.54    1.97
  -7   6  -1   12.90    1.96
  -7   6  -1   13.84    1.95
   7   6   1   11.02    1.34
   7   7  -1   17.04    2.24
  -7   7   1   19.37    2.35
  -7   7   1   23.26    2.65
  -7   7  -1   18.32    2.39
  -7   7  -1   22.10    2.53
   7   7   1   17.40    1.75
  -7   8   1    4.07    2.42
  -7   8   1    5.15    1.72
   7   8  -1    2.04    1.51
  -7   8  -1    7.31    2.74
  -7   8  -1    3.08    1.82
  -7   9   1   33.02    4.21
  -7   9  -1   22.24    3.27
  -7  10   1    0.30    3.01
  -7  10  -1   -2.15    2.89
  -7   0   2  204.33    7.33
  -7   0   2  212.74    7.42
  -7   0  -2  207.45    7.27
   7   0   2  210.90    7.25
   7   0  -2  212.55    7.33
   7   0  -2  205.04    7.39
   7   1  -2    3.51    0.40
  -7  -1  -2    3.96    0.36
  -7   1   2    3.47    0.47
   7  -1   2    3.44    0.47
  -7  -1  -2    3.50    0.27
  -7   1   2    4.35    0.47
   7   1  -2    4.27    0.55
  -7  -1   2    2.69    0.55
  -7  -1   2    4.02    0.38
  -7   1  -2    4.26    0.53
   7  -1  -2    3.51    0.41
   7  -1  -2    3.49    0.48
   7   1   2    3.75    0.29
  -7   2   2  178.71    6.63
  -7  -2  -2  180.39    6.46
   7   2  -2  181.90    6.44
  -7   2   2  183.00    6.39
   7  -2   2  180.93    6.67
  -7  -2  -2  185.86    6.37
   7   2  -2  200.57    6.66
  -7  -2  -2  176.55    6.32
  -7   2  -2  181.86    6.68
  -7  -2   2  164.11    6.63
   7  -2  -2  181.66    6.40
   7  -2  -2  175.64    6.55
  -7  -2   2  174.57    6.41
   7   2   2  182.72    6.29
  -7  -3  -2   29.81    1.67
   7  -3   2   33.10    1.94
  -7   3   2   31.52    1.38
  -7  -3  -2   33.35    1.46
   7   3  -2   32.22    1.74
  -7   3   2   32.86    1.89
  -7  -3   2   31.54    1.82
  -7   3  -2   30.88    1.94
   7   3   2   30.58    1.27
   7  -3  -2   31.19    1.81
  -7  -3   2   28.11    1.59
  -7   4   2    1.37    0.37
  -7   4   2    1.41    0.92
  -7  -4  -2    0.59    0.57
   7   4  -2    0.84    0.79
  -7  -4  -2    0.71    0.69
  -7   4   2    1.95    0.54
   7   4   2    0.34    0.37
  -7   4  -2    1.05    0.92
  -7   4  -2    1.16    0.89
  -7  -5  -2   91.20    3.77
  -7   5   2   83.37    3.33
  -7   5   2   88.44    3.60
  -7   5   2   87.60    4.19
   7   5  -2   84.86    3.81
  -7   5  -2   85.19    4.14
   7   5   2   87.47    3.27
  -7   5  -2   83.81    4.02
  -7   6   2    4.85    1.03
   7   6  -2    4.62    1.24
  -7   6   2    4.57    1.57
   7   6   2    4.55    0.66
  -7   6  -2    8.77    1.97
  -7   6  -2    5.12    1.51
  -7   7   2   18.94    2.45
   7   7  -2   19.69    2.38
  -7   7   2   17.90    2.01
   7   7   2   18.16    1.28
  -7   7  -2   17.11    2.17
  -7   7  -2   18.45    2.45
   7   8  -2   12.88    1.96
  -7   8   2   13.46    2.65
  -7   8  -2   13.80    2.26
  -7   8  -2   10.36    2.46
  -7   9   2   14.38    3.23
  -7   9  -2   11.13    2.70
  -7   9  -2   12.89    2.95
  -7  10   2   15.51    3.82
  -7  10  -2    9.80    3.35
   7   0  -3    0.23    0.22
   7   0   3   -0.11    0.17
  -7   0   3    0.42    0.24
  -7   0   3    0.02    0.36
   7   0  -3    0.03    0.27
  -7   0  -3    0.11    0.20
  -7   1   3  390.40   13.53
   7   1  -3  385.19   13.68
   7  -1   3  400.05   13.58
  -7   1   3  382.80   13.57
  -7  -1  -3  381.56   13.33
   7   1  -3  394.36   13.50
  -7  -1   3  392.00   13.71
  -7   1  -3  382.04   13.60
   7  -1  -3  392.27   13.53
  -7  -1   3  390.48   13.50
   7  -1  -3  386.84   13.53
  -7   2   3    6.30    0.76
  -7   2   3    6.08    0.58
  -7  -2  -3    5.20    0.39
  -7  -2  -3    5.89    0.64
   7   2  -3    5.23    0.64
   7  -2   3    4.77    0.76
  -7  -2  -3    4.51    0.41
   7   2  -3    6.92    0.79
  -7   2  -3    5.10    0.69
   7  -2  -3    5.79    0.55
  -7  -2   3    5.41    0.53
  -7  -2   3    6.26    0.87
   7  -2  -3    5.24    0.68
  -7  -3  -3   26.91    1.18
  -7   3   3   22.76    1.94
  -7   3   3   25.32    1.24
   7   3  -3   26.62    1.67
  -7   3   3   25.89    1.17
   7  -3   3   20.87    1.85
  -7  -3  -3   25.86    1.50
  -7   3  -3   27.08    1.77
   7  -3  -3   21.30    1.50
  -7  -3   3   26.30    1.77
  -7  -3   3   26.00    1.30
   7  -3  -3   24.67    1.19
  -7  -4  -3    1.14    0.80
   7   4  -3    1.97    0.87
  -7   4   3    2.18    0.44
  -7   4   3    1.65    0.52
  -7   4   3    2.68    1.04
  -7  -4  -3    1.12    0.51
  -7  -4   3    0.84    0.56
  -7   4  -3    1.71    0.93
  -7   4  -3    0.18    0.88
  -7   5   3   10.63    1.17
   7   5  -3   10.13    1.35
  -7  -5  -3   12.97    1.34
  -7   5   3   12.71    0.91
  -7   5   3   10.23    1.59
  -7   5  -3   11.32    1.50
  -7   5  -3   15.04    1.88
   7   6  -3    6.00    1.38
  -7  -6  -3    5.48    1.23
  -7   6   3    6.84    0.93
  -7   6   3    4.92    0.76
  -7   6   3    7.47    1.75
  -7   6  -3    5.63    1.50
  -7   6  -3    7.53    1.66
  -7   7   3   35.90    3.51
   7   7  -3   35.56    2.90
  -7   7   3   36.56    2.06
  -7   7  -3   39.24    3.45
  -7   7  -3   42.22    3.37
  -7   8   3    0.90    2.27
   7   8  -3    0.61    1.74
  -7   8  -3    3.02    2.36
  -7   8  -3   -0.42    2.11
  -7   9   3   30.32    3.91
   7   9  -3   30.61    3.56
  -7   9  -3   29.98    4.27
  -7   9  -3   22.53    3.19
  -7  10   3   -5.42    3.42
  -7  10  -3   -1.17    2.94
  -7   0   4  960.71   32.15
   7   0  -4  914.15   31.99
  -7   0  -4  905.16   31.91
   7   0   4  919.20   31.87
   7   0  -4 1000.00   32.16
  -7   0   4  886.87   32.01
  -7   1   4  362.98   13.10
   7   1  -4  367.15   13.04
  -7   1   4  372.80   13.06
   7   1  -4  368.92   13.25
   7  -1   4  390.19   13.13
  -7  -1   4  368.86   13.04
  -7   1  -4  384.46   13.13
   7  -1  -4  366.29   13.08
  -7  -1   4  386.53   13.30
   7  -1  -4  379.48   13.07
   7  -2   4   85.90    3.53
  -7   2   4   89.07    3.18
   7   2  -4   81.20    3.56
  -7  -2  -4   86.58    3.05
  -7  -2  -4   88.20    3.19
   7   2  -4   84.08    3.28
  -7   2   4   85.17    3.44
  -7  -2   4   88.11    3.63
  -7  -2   4   85.13    3.26
   7  -2  -4   88.32    3.20
   7  -2  -4   84.92    3.33
  -7   2  -4   84.12    3.47
  -7  -3  -4   98.47    3.55
   7   3  -4   98.97    4.12
  -7  -3  -4   99.58    3.84
  -7   3   4   97.67    3.58
  -7   3   4  100.53    3.56
   7  -3   4  104.61    5.41
  -7   3   4   93.64    4.41
   7  -3  -4   94.87    3.63
  -7  -3   4  100.45    3.78
   7   4  -4   96.00    4.15
  -7   4   4   91.09    3.50
  -7   4   4   95.66    3.46
  -7  -4  -4   95.37    3.93
  -7   4   4   99.10    4.29
  -7  -4  -4   91.91    3.63
  -7   4  -4  105.78    4.35
  -7   4  -4   97.36    4.27
  -7  -4   4   93.26    3.78
  -7   5   4  117.96    4.30
  -7  -5  -4  121.77    4.61
  -7   5   4  118.45    5.28
  -7   5   4  119.52    4.24
   7   5  -4  123.23    5.17
   7   5   4  122.10    4.96
  -7   5  -4  116.09    5.22
  -7   5  -4  115.33    5.22
  -7  -5   4  112.41    4.65
  -7   6   4    6.97    0.83
  -7   6   4    5.52    0.74
  -7  -6  -4    6.05    1.22
   7   6  -4    8.05    1.55
  -7   6   4    4.48    1.60
  -7   6  -4    7.67    1.62
  -7   6  -4    5.83    1.63
  -7   7   4    3.06    2.22
  -7   7  -4    4.71    1.95
  -7   7  -4    0.08    1.71
  -7   8   4   21.80    3.14
   7   8  -4   19.63    2.51
  -7   8  -4   18.36    2.58
  -7   8  -4   15.41    2.54
   7   9  -4   13.14    2.64
  -7   9   4   15.66    3.62
  -7   9  -4    9.81    2.81
  -7   9  -4    8.29    2.87
  -7  10   4    5.33    4.13
  -7 -10   4   -0.62    2.20
  -7  10  -4   -2.97    2.83
   7   0   5    0.06    0.26
   7   0  -5   -0.05    0.28
  -7   0   5   -0.22    0.27
  -7   0   5   -0.02    0.48
   7   0  -5    0.18    0.39
   7  -1   5   59.13    2.44
   7   1  -5   53.15    2.70
   7   1  -5   57.96    2.31
  -7   1   5   59.30    2.38
  -7   1   5   62.11    2.37
  -7  -1   5   60.18    2.62
  -7   1  -5   60.66    2.38
   7  -1  -5   59.82    2.32
   7  -1  -5   56.58    2.38
  -7  -1   5   57.68    2.31
   7   2  -5    1.41    0.69
   7  -2   5    0.64    0.69
  -7  -2  -5    1.39    0.32
  -7   2   5    0.78    0.30
  -7   2   5    1.48    0.55
   7  -2  -5    0.82    0.33
  -7  -2   5    0.53    0.71
   7  -2  -5    0.72    0.47
  -7  -2   5    0.76    0.45
  -7   2  -5    0.50    0.60
  -7  -3  -5    0.40    0.21
  -7  -3  -5   -0.51    0.51
  -7   3   5    0.04    0.80
   7   3  -5    0.17    0.75
  -7   3  -5    1.76    0.94
   7  -3  -5    0.35    0.30
  -7  -3   5   -0.48    0.39
   7   4  -5   -0.56    0.84
  -7  -4  -5    0.39    0.69
  -7   4   5    0.19    1.06
  -7  -4  -5   -0.11    0.41
  -7   4  -5    0.29    0.95
  -7   4  -5   -0.75    0.78
  -7  -4   5   -0.87    0.49
   7  -4  -5    0.33    0.39
   7   4   5   -0.32    0.69
   7   5  -5    5.81    1.34
  -7   5   5    2.56    1.43
  -7  -5  -5    7.25    0.98
  -7   5  -5    5.16    1.37
  -7   5  -5    4.51    1.34
  -7  -5   5    5.91    0.97
   7   5   5    5.93    1.27
   7   6  -5    0.00    1.37
  -7  -6  -5    2.46    0.89
  -7   6   5    0.55    1.53
   7   6   5    3.43    1.55
  -7   6  -5    2.50    1.59
  -7  -6   5    0.70    0.95
  -7   6  -5    2.34    1.49
   7   7  -5   35.59    3.34
  -7   7   5   36.27    3.70
  -7   7  -5   41.17    3.52
  -7   7  -5   47.84    3.54
  -7  -7   5   33.87    3.60
  -7   8   5   -0.20    2.17
   7   8  -5    0.54    2.01
  -7   8  -5    0.60    2.11
  -7   8  -5    4.14    2.43
  -7  -8   5   -0.07    1.41
   7   9  -5    7.65    2.73
  -7   9   5    8.20    3.13
  -7   9  -5    7.14    2.82
  -7  -9   5    5.72    1.81
  -7   9  -5    5.95    2.74
  -7  10   5    4.51    3.86
  -7  10  -5    4.02    3.13
  -7 -10   5   -1.05    2.08
  -7  10  -5   -4.30    3.15
   7   0  -6    3.38    0.47
  -7   0   6    4.56    0.54
   7   0  -6    3.41    0.70
   7   0   6    3.30    0.44
  -7   0   6    4.50    0.69
   7   0   6    3.22    0.30
   7   1  -6   44.78    1.93
  -7   1   6   44.83    1.96
   7  -1   6   46.09    2.06
   7   1  -6   41.27    2.27
  -7   1   6   46.09    1.91
  -7  -1   6   46.61    1.92
  -7  -1   6   46.52    2.29
   7  -1  -6   47.90    2.00
  -7   1  -6   46.59    1.95
   7  -1  -6   44.91    1.90
   7   2  -6   20.10    1.58
  -7   2   6   18.42    1.35
   7  -2   6   15.04    1.57
  -7   2  -6   19.85    1.23
   7  -2  -6   18.36    1.02
   7  -2  -6   19.23    1.14
  -7  -2   6   19.51    1.14
  -7   3   6    3.62    0.94
  -7  -3  -6    3.83    0.59
   7   3  -6    2.18    0.82
  -7   3  -6    3.35    0.94
  -7  -3   6    4.38    0.67
   7  -3  -6    4.04    0.53
  -7  -4  -6   17.29    1.40
  -7  -4  -6   15.77    0.93
  -7   4   6   15.06    1.91
   7   4  -6   16.48    1.86
  -7   4  -6   16.69    1.78
   7   4   6   17.43    1.45
  -7   4  -6   17.14    1.83
  -7  -4   6   16.40    1.28
   7  -4  -6   17.28    1.01
  -7  -5  -6    1.05    0.57
  -7   5   6    0.44    1.27
   7   5  -6    1.21    1.30
   7   5   6    0.78    1.24
  -7   5  -6    1.48    1.18
  -7  -5   6    0.03    0.72
  -7   5  -6    1.69    1.28
   7   6  -6   -1.27    1.37
  -7   6   6    1.32    1.86
   7   6   6    0.13    1.34
  -7  -6   6    0.82    1.00
  -7   6  -6    0.96    1.46
  -7   6  -6    2.12    1.56
  -7   7   6   -0.54    1.94
   7   7  -6    3.42    2.12
  -7  -7   6    1.72    1.07
  -7   7  -6    1.22    1.98
   7   7   6    1.11    1.84
  -7   8   6    3.86    2.41
   7   8  -6    5.75    2.23
  -7  -8   6    6.98    1.53
  -7   8  -6    9.13    2.45
  -7   8  -6    6.08    2.39
  -7   9   6    1.80    2.89
   7   9  -6    2.10    2.90
  -7  -9   6    2.29    1.68
  -7   9  -6    1.49    2.67
  -7   9  -6    6.92    2.92
  -7   0   7   -0.19    0.43
  -7   0   7    0.63    0.61
   7   0   7    0.31    0.40
   7   0   7    0.10    0.18
   7   0  -7   -0.51    0.61
   7   0  -7    0.11    0.38
   7   1  -7    7.51    1.12
  -7   1   7    7.90    0.78
  -7   1   7    7.44    0.83
   7  -1   7    9.26    1.11
  -7  -1   7    8.02    0.89
  -7  -1   7    7.10    1.12
   7  -1  -7    6.66    0.78
   7  -1  -7    7.83    0.88
  -7   2   7    3.81    0.94
   7   2  -7    2.45    0.86
   7  -2   7    4.41    0.97
   7  -2  -7    4.07    0.58
  -7  -2   7    3.31    0.60
   7   3  -7    1.12    0.88
  -7  -3  -7    1.67    0.43
  -7   3   7    1.77    0.89
  -7   3  -7    2.29    0.86
  -7  -3   7    2.19    0.63
   7  -3  -7    0.93    0.46
  -7   3  -7    2.23    1.04
  -7  -4  -7    4.14    0.80
  -7   4   7    5.93    1.42
   7   4  -7    2.64    1.13
  -7  -4  -7    3.05    0.43
  -7   4  -7    3.26    1.09
   7   4   7    5.14    0.87
   7  -4  -7    3.46    0.57
  -7  -4   7    3.67    0.79
  -7   4  -7    3.69    1.20
   7   5  -7    5.98    1.60
  -7   5   7    5.26    1.71
  -7  -5  -7    5.23    0.68
  -7  -5  -7    4.77    1.25
  -7   5  -7    7.82    1.75
   7  -5  -7    5.21    0.69
  -7   5  -7    5.61    1.51
  -7  -5   7    6.64    1.10
   7   6  -7   -0.97    1.52
  -7   6   7    0.73    1.63
  -7   6  -7   -0.01    1.57
   7   6   7   -0.48    1.37
  -7   6  -7    0.50    1.50
  -7  -6   7   -0.91    0.88
  -7   7   7   38.82    3.99
   7   7  -7   39.02    3.63
  -7  -7   7   36.53    2.57
  -7   7  -7   41.34    3.64
   7   7   7   44.63    3.62
  -7   7  -7   32.68    3.71
  -7   8   7   -0.59    2.69
   7   8  -7    4.09    2.33
  -7   8  -7    5.38    2.31
  -7   8  -7    1.73    2.30
  -7  -8   7    3.19    1.53
   7   9  -7   -0.18    2.51
  -7   9   7    0.38    3.16
  -7   9  -7    3.19    2.63
  -7  -9   7    0.16    1.79
   7   0   8  204.10    7.09
   7   0  -8  221.37    7.70
   7   0   8  205.93    7.24
  -7   0   8  206.87    7.41
  -7   0   8  186.34    7.45
   7  -1   8    0.42    0.87
   7   1  -8    0.20    0.72
   7  -1   8    1.75    0.38
  -7   1   8    2.26    0.73
   7  -1  -8    2.14    0.75
  -7  -1   8    1.89    0.53
   7  -2   8    9.04    1.44
   7   2  -8   11.18    1.57
  -7   2   8   10.86    1.35
  -7  -2   8   10.17    0.97
   7  -2  -8    9.89    1.01
   7   3  -8   11.60    1.72
  -7  -3  -8   14.26    0.74
  -7   3   8   12.83    1.68
   7  -3  -8   14.38    1.02
  -7   3  -8   14.41    1.74
  -7  -3   8   14.24    1.16
  -7   4   8   29.50    2.38
   7   4  -8   27.96    2.39
  -7  -4  -8   29.55    1.49
  -7   4  -8   25.51    2.42
   7   4   8   29.42    1.77
  -7  -4   8   29.17    1.77
   7   5  -8   15.94    2.43
  -7  -5  -8   20.98    1.66
  -7   5   8   22.54    2.65
  -7  -5   8   21.75    1.76
   7   5   8   23.33    2.15
   7  -5  -8   21.20    1.30
  -7   5  -8   19.31    2.55
  -7   6   8   -0.47    1.80
   7   6   8    0.69    1.52
  -7  -6   8    2.04    1.26
  -7   6  -8   -1.43    1.63
   7   7  -8   -0.16    1.93
  -7   7   8    0.03    2.56
  -7   7  -8   -2.16    1.92
   7   7   8    1.54    2.06
  -7  -7   8   -0.60    1.14
   7   8  -8    7.99    2.90
  -7   8   8    2.63    2.74
  -7   8  -8    2.82    2.55
  -7  -8   8    4.15    1.60
   7   9  -8   -2.42    2.55
  -7   9   8    5.07    3.47
  -7   9  -8   -2.21    2.94
  -7  -9   8   -1.54    1.76
  -7   0   9   -0.08    0.53
   7   0   9    0.02    0.25
   7   0   9   -0.04    0.60
   7   0  -9    0.15    0.71
   7  -1   9   13.59    1.50
  -7   1   9   10.80    1.22
   7  -1   9    9.72    0.75
   7   1  -9   10.22    1.31
  -7  -1   9   10.98    1.08
   7  -1  -9   11.69    1.15
   7   2  -9    1.63    1.21
  -7   2   9    0.44    0.79
   7  -2   9    2.95    1.18
   7  -2   9    1.13    0.58
  -7  -2   9    0.26    0.58
   7  -2  -9    0.31    0.68
  -7   3   9   17.27    1.90
   7   3  -9   14.60    2.25
  -7   3  -9   16.37    2.08
  -7  -3   9   16.35    1.38
  -7  -4  -9   27.63    1.33
  -7   4   9   24.36    2.38
   7   4  -9   29.29    2.55
  -7   4  -9   34.20    2.67
   7   4   9   29.17    1.73
  -7  -4   9   26.87    1.81
   7  -4  -9   26.86    1.51
  -7   5   9    0.04    1.67
   7   5  -9    0.58    1.58
  -7  -5   9    3.25    1.12
   7   5   9    0.77    1.17
  -7   5  -9    1.72    1.65
   7  -5  -9    0.65    0.53
  -7   6   9    3.23    1.99
   7   6  -9    6.45    2.29
   7   6   9    4.59    1.70
  -7  -6   9    1.75    1.27
  -7   6  -9    3.33    1.93
   7   7  -9   -1.92    2.08
  -7   7   9   -0.16    2.53
  -7   7  -9   -1.52    2.10
  -7  -7   9    1.34    1.37
  -7   8   9    8.11    3.19
   7   8  -9    3.80    2.64
  -7   8  -9    0.95    2.53
  -7  -8   9    9.65    2.16
   7   9  -9   -0.14    2.81
  -7   9   9   -2.00    3.46
  -7  -9   9    6.82    2.47
  -7   9  -9    0.08    3.12
   7   0  10    5.03    0.54
   7   0  10    4.11    0.84
   7   0 -10    7.22    1.09
  -7   0  10    6.41    0.82
   7  -1  10   12.67    1.61
   7  -1  10   12.28    0.81
   7   1 -10   12.34    1.74
  -7   1  10   11.06    1.27
   7  -1 -10   10.59    1.28
  -7  -1  10   10.55    1.14
  -7   2  10  136.36    5.42
   7   2 -10  159.55    6.07
   7  -2 -10  126.33    5.26
  -7   2 -10  130.15    5.84
  -7  -2  10  137.53    5.22
   7   3 -10    3.17    1.57
  -7   3  10    3.21    1.28
   7  -3 -10    2.69    0.76
  -7   3 -10    3.75    1.34
  -7  -3  10    1.67    0.78
   7   4 -10    0.35    1.49
  -7   4  10    0.15    1.37
  -7   4 -10    1.17    1.61
  -7  -4  10    0.84    0.88
   7  -4 -10    1.30    0.58
  -7   5  10    0.44    1.68
   7   5 -10   -0.89    1.54
   7  -5 -10    0.55    0.61
  -7  -5  10   -0.91    1.04
  -7   5 -10   -0.60    1.97
  -7   6  10    2.31    2.18
   7   6 -10   -1.37    2.04
  -7  -6  10    4.18    1.46
  -7   6 -10    1.74    2.16
  -7   7  10   -1.20    2.65
   7   7 -10   -2.47    2.10
  -7  -7  10   -1.91    1.33
  -7   7 -10   -1.58    2.28
  -7   8  10    3.78    3.66
   7   8 -10   -1.75    2.47
  -7   8 -10    1.81    2.69
   7   0 -11   -0.53    0.89
   7   0  11    0.04    0.85
  -7   0  11   -0.68    0.66
   7   0  11    0.38    0.34
   7  -1  11    0.59    0.46
  -7   1  11   -0.55    0.75
   7  -1  11    0.68    1.08
   7   1 -11    0.87    1.10
   7  -1 -11    1.40    0.83
  -7  -1  11    2.53    0.80
   7  -2  11   10.61    1.29
  -7   2  11    8.10    1.26
   7   2 -11   14.14    1.97
  -7  -2  11   10.64    1.25
   7  -2 -11   12.09    1.45
  -7   2 -11   12.06    1.73
   7   3 -11    9.52    2.03
  -7   3  11    9.57    1.50
   7  -3  11    7.97    1.00
   7  -3 -11    5.70    0.97
  -7   3 -11    6.02    1.63
  -7  -3  11    7.89    1.08
   7   4 -11   -1.35    1.59
   7  -4  11    0.07    1.03
  -7   4  11   -2.28    1.49
  -7  -4  11    1.12    1.00
   7  -4 -11   -0.85    0.64
  -7   5  11    2.01    1.79
   7   5 -11    1.80    1.72
  -7  -5  11    3.30    1.19
   7  -5 -11    3.33    0.76
  -7   5 -11    1.41    1.76
  -7   6  11    7.20    2.68
   7   6 -11    0.91    2.25
  -7  -6  11    2.96    1.42
  -7   6 -11    6.03    2.52
   7   7 -11   -0.86    2.54
  -7   7  11   -3.11    2.86
  -7  -7  11    6.14    1.73
  -7   7 -11    1.40    2.57
   7   8 -11   -1.62    2.75
  -7   8  11    5.96    4.42
  -7  -8  11    0.94    1.75
  -7   8 -11   -3.49    2.82
  -7   0  12    1.01    0.83
   7   0 -12    0.34    1.01
   7   0  12   -0.43    0.44
   7  -1  12    0.49    0.48
   7   1 -12    1.16    1.17
  -7   1  12    0.24    0.80
   7  -1 -12    1.39    0.97
  -7  -1  12    0.34    0.79
  -7   1 -12    0.99    1.09
   7   2 -12    9.88    1.90
  -7   2  12    8.45    1.32
   7  -2  12    8.46    0.95
   7  -2 -12    8.58    1.22
  -7   2 -12    9.89    1.73
  -7  -2  12    9.44    1.12
   7  -3  12    4.14    0.93
  -7   3  12    5.09    1.58
   7   3 -12    2.78    2.24
  -7  -3  12    2.91    1.01
  -7   3 -12    4.27    1.83
   7  -3 -12    3.43    0.99
   7  -4  12   17.08    1.77
  -7   4  12   16.07    2.17
   7   4 -12   17.32    2.43
  -7   4 -12   16.58    2.50
   7  -4 -12   15.09    1.44
  -7  -4  12   12.86    1.78
   7   5 -12   10.79    2.44
   7  -5  12   10.20    1.53
  -7   5  12    9.46    2.26
  -7  -5  12   11.35    1.48
  -7   5 -12    8.68    2.31
   7   6 -12   -0.37    2.26
   7  -6  12    1.01    1.71
  -7   6  12    3.45    2.87
  -7   6 -12    0.53    2.10
  -7  -6  12    2.52    1.44
   7   7 -12    0.42    2.66
  -7   7 -12    8.24    3.52
  -7  -7  12   -0.76    1.52
  -7   0  13    0.40    0.89
   7   0 -13    0.49    1.16
   7  -1  13   46.09    1.95
   7   1 -13   45.02    3.06
  -7   1  13   47.61    2.62
  -7   1 -13   48.64    3.18
  -7  -1  13   44.62    2.41
   7  -1 -13   43.35    2.71
  -7   2  13   -0.73    1.16
   7  -2  13   -0.64    0.75
   7   2 -13   -1.09    1.48
  -7   2 -13   -0.82    1.33
   7  -2 -13    0.68    1.02
  -7  -2  13    1.19    1.02
   7   3 -13    2.52    1.85
   7  -3  13    1.21    0.94
  -7   3  13    4.37    1.70
  -7   3 -13    3.14    1.86
   7  -3 -13    2.95    1.05
  -7  -3  13    1.68    1.04
  -7   4  13    9.77    2.18
   7   4 -13    8.32    2.34
   7  -4  13    7.56    1.41
  -7   4 -13    8.21    2.39
  -7  -4  13   11.97    1.52
  -7   5  13   -2.76    2.24
   7  -5  13   -1.18    1.26
   7   5 -13   -0.10    2.02
  -7   5 -13   -0.32    2.20
  -7  -5  13   -0.24    1.29
   7  -6  13    0.66    1.63
   7   6 -13    6.54    2.88
  -7  -6  13   -0.73    1.47
  -7   6 -13    2.09    2.57
   7  -7  13   20.49    2.59
   7   7 -13   15.74    3.40
  -7   7 -13   20.71    3.66
  -7  -7  13   22.61    2.80
  -7   0  14    3.14    1.07
  -7   0 -14    1.21    1.39
   7   0 -14    2.03    1.51
   7   1 -14   -1.00    1.39
  -7   1  14    0.53    1.14
  -7   1 -14    1.42    1.39
  -7  -1  14    0.32    0.90
   7  -1 -14    2.05    1.25
   7   2 -14   15.22    2.25
  -7   2  14   18.19    2.26
  -7  -2  14   13.44    1.78
   7  -2 -14   13.35    1.62
  -7   2 -14   14.55    2.37
   7  -3  14   12.91    1.56
   7   3 -14   13.80    2.44
  -7   3  14   10.82    2.08
  -7  -3  14   17.16    2.00
   7  -3 -14   12.76    1.59
  -7   3 -14   14.64    2.45
   7  -4  14   -2.08    1.23
   7   4 -14   -2.56    1.96
  -7  -4  14   -0.41    1.26
  -7   4 -14   -0.71    2.12
   7  -5  14   -0.41    1.57
   7   5 -14    0.71    2.44
  -7   5 -14    3.99    2.80
  -7  -5  14    3.24    1.33
   7   6 -14    3.33    3.06
   7  -6  14    4.62    1.99
  -7  -6  14    0.06    1.63
  -7   6 -14   -2.87    2.75
  -7   0  15   -0.34    1.22
   7   0 -15    0.53    1.80
  -7   0 -15    2.27    1.54
   7   1 -15    2.01    1.67
  -7  -1 -15    3.70    1.60
  -7   1  15   -2.67    1.37
   7  -1 -15    1.79    1.36
  -7  -1  15    1.19    1.17
   7   2 -15   -0.74    1.74
  -7  -2  15    3.06    1.27
   7  -2 -15    5.82    1.52
  -7   2 -15    3.52    2.04
   7   3 -15    0.69    2.05
  -7   3 -15    2.38    2.03
  -7  -3  15    1.89    1.20
   7   4 -15   13.64    2.84
  -7   4 -15   13.38    2.96
  -7  -4  15   15.56    1.77
   7   5 -15   -0.26    2.76
  -7   5 -15   -0.17    2.64
  -7  -5  15   -0.73    1.49
  -7  -6  15    2.54    1.72
   7   0 -16   -0.85    1.71
  -7   0 -16    2.13    2.03
  -7  -1 -16   11.52    2.23
   7   1 -16    8.40    2.24
   7  -1 -16   12.42    2.25
  -7  -1  16    8.74    1.56
  -7   1 -16   10.97    2.37
   7   2 -16    8.88    2.32
   7  -2 -16   16.86    2.71
  -7   2 -16   13.18    2.61
  -7  -2  16   16.42    2.27
   7   3 -16    3.77    2.17
  -7  -3  16    1.24    1.45
  -7   3 -16    2.69    1.99
   7   4 -16   -1.86    2.59
  -7   4 -16    1.00    2.55
  -7  -4  16    3.66    1.61
   7   5 -16   11.20    3.35
  -7  -5  16    6.86    1.99
  -7   5 -16   -0.24    2.94
   7   0 -17   -2.20    1.89
  -7   0 -17   -2.89    2.13
   7   1 -17   41.53    4.32
  -7   1 -17   39.00    3.93
   7  -1 -17   50.59    3.98
   7   2 -17    2.29    2.39
  -7   2 -17   -2.57    2.06
   7   3 -17    0.51    2.53
  -7   3 -17    1.10    2.87
  -7   0 -18    4.66    2.53
   7   0 -18    5.58    2.20
   7   1 -18    7.64    2.53
  -7   1 -18    8.60    2.86
  -8   0   0   21.27    0.96
  -8   0   0   23.18    1.02
   8   0   0   22.11    0.95
   8   0   0   20.84    0.98
  -8   1   0    0.09    0.28
   8  -1   0    0.06    0.27
   8  -1   0   -0.09    0.22
  -8   1   0   -0.07    0.23
   8   1   0    0.12    0.25
  -8  -1   0    0.11    0.17
   8   1   0    0.06    0.19
  -8  -1   0   -0.23    0.26
  -8   2   0  205.65    7.99
  -8  -2   0  229.77    7.95
  -8   2   0  229.77    8.25
   8  -2   0  227.09    8.17
   8   2   0  232.44    8.05
  -8  -2   0  236.15    8.12
  -8  -3   0   -0.42    0.30
  -8   3   0    0.50    0.73
  -8  -3   0   -0.30    0.67
   8   3   0    0.23    0.40
   8  -3   0    0.06    0.59
  -8  -3   0    0.06    0.48
  -8   3   0    0.09    0.43
  -8  -4   0    1.78    0.70
  -8   4   0    1.24    0.87
   8   4   0    0.88    0.52
  -8   4   0    1.05    0.81
  -8   5   0   -1.01    0.97
   8   5   0   -0.16    0.72
  -8   5   0   -0.23    1.01
  -8   6   0   29.42    2.36
   8   6   0   23.16    2.01
  -8   6   0   27.05    2.64
  -8   7   0   -0.66    1.24
  -8   7   0   -1.98    1.59
   8   7   0    0.23    1.11
   8   8   0    2.98    1.34
  -8   8   0    3.86    2.22
  -8   8   0    4.40    1.89
  -8   9   0    7.38    3.12
  -8  10   0   25.26    4.16
  -8   0  -1    0.23    0.22
  -8   0   1   -0.27    0.27
  -8   0   1   -0.09    0.19
   8   0   1    0.11    0.21
   8   0   1    0.10    0.20
  -8   0  -1   -0.12    0.16
   8   0  -1   -0.15    0.21
   8   0  -1   -0.05    0.21
  -8  -1  -1  126.04    4.63
   8  -1   1  133.32    4.71
  -8  -1  -1  126.15    4.55
   8   1  -1  127.96    4.60
  -8   1   1  130.72    4.73
   8   1  -1  129.92    4.72
  -8   1   1  116.34    4.64
   8   1   1  131.66    4.55
  -8  -1   1  128.51    4.60
  -8  -1   1  142.05    4.79
  -8   1  -1  128.18    4.74
   8  -1  -1  125.94    4.64
   8   1   1  128.07    4.60
  -8   1  -1  139.05    4.68
   8  -1  -1  125.39    4.68
   8  -2   1  129.66    4.91
   8   2  -1  133.12    4.69
  -8   2   1  128.81    4.68
  -8   2   1  129.21    4.92
   8   2  -1  129.66    4.81
  -8  -2  -1  125.32    4.60
  -8  -2  -1  131.72    4.73
   8   2   1  128.18    4.64
   8  -2  -1  135.00    4.71
  -8  -2   1  127.46    4.65
   8  -2  -1  128.94    4.86
  -8  -2   1  131.49    4.88
  -8   2  -1  124.48    4.94
  -8  -3  -1    9.12    0.87
   8  -3   1    8.71    1.11
  -8   3   1   11.06    1.66
  -8  -3  -1    8.58    0.67
  -8   3   1    8.55    0.81
  -8  -3  -1    8.71    1.00
   8   3  -1    9.45    0.92
  -8   3  -1   10.45    1.29
  -8  -3   1    9.36    1.07
  -8  -3   1    9.57    0.75
   8  -3  -1    9.07    1.18
   8   3   1    8.06    0.71
   8   4  -1    3.44    1.01
  -8   4   1    2.67    0.81
  -8  -4  -1    3.23    0.72
  -8   4   1    2.90    0.54
  -8   4   1    3.36    1.09
  -8   4  -1    2.72    0.90
   8   4   1    2.82    0.48
  -8   4  -1    2.72    0.99
  -8  -4   1    2.73    0.89
   8   5  -1    1.30    0.91
  -8   5   1   -0.36    0.99
  -8  -5  -1    1.37    0.90
  -8   5   1   -0.28    1.05
   8   5   1    0.59    0.55
  -8   5  -1    2.14    1.27
  -8   5  -1    0.87    0.91
   8   6  -1   60.96    3.13
  -8   6   1   56.04    3.61
  -8   6   1   61.47    3.25
  -8   6  -1   56.13    3.27
   8   6   1   58.84    2.66
  -8   6  -1   65.09    3.85
  -8   7   1    0.05    1.73
   8   7  -1    0.55    1.17
  -8   7   1    1.08    1.38
   8   7   1    1.08    0.90
  -8   7  -1    1.90    1.61
  -8   7  -1   -0.51    1.72
   8   8  -1    0.47    1.50
  -8   8   1   -1.18    1.53
  -8   8   1   -0.37    2.15
  -8   8  -1    0.87    1.79
  -8   8  -1   -0.24    2.14
  -8   9   1   -0.16    2.89
  -8   9  -1   -0.02    2.47
  -8  10   1   17.06    3.79
  -8  10  -1   15.52    3.80
  -8   0  -2   37.46    1.50
   8   0  -2   38.15    1.54
   8   0   2   39.92    1.48
  -8   0   2   37.22    1.66
   8   0  -2   40.19    1.63
  -8   0   2   38.43    1.56
   8   1  -2   10.90    0.64
  -8  -1  -2   11.17    0.61
  -8   1   2   10.71    0.76
  -8   1   2   10.23    0.73
   8   1  -2   11.63    0.79
  -8  -1  -2   10.10    0.50
   8  -1   2   11.36    0.77
   8  -1  -2   10.73    0.73
   8  -1  -2   10.48    0.68
  -8  -1   2   10.78    0.63
  -8   1  -2   10.51    0.78
   8   1   2   11.15    0.53
  -8  -1   2   10.91    0.86
  -8  -2  -2  238.19    8.48
  -8  -2  -2  242.65    8.41
   8   2  -2  247.49    8.73
   8  -2   2  246.78    8.76
  -8   2   2  239.33    8.74
   8   2  -2  239.58    8.53
  -8   2   2  243.87    8.51
  -8  -2   2  240.27    8.52
  -8   2  -2  236.88    8.78
  -8  -2   2  250.88    8.78
   8   2   2  225.69    8.40
   8  -2  -2  250.23    8.68
   8  -2  -2  243.86    8.52
  -8  -3  -2   22.50    1.29
  -8  -3  -2   24.85    1.43
  -8   3   2   25.79    1.23
   8   3  -2   24.34    1.59
   8  -3   2   23.66    1.80
  -8  -3   2   24.37    1.66
  -8   3  -2   25.98    2.00
   8   3   2   26.47    1.08
  -8  -3   2   24.94    1.53
  -8   4   2   24.19    1.19
  -8   4   2   21.20    1.91
  -8   4   2   23.02    1.38
  -8  -4  -2   22.22    1.44
  -8  -4  -2   21.87    1.72
   8   4  -2   23.31    1.68
   8   4   2   24.17    1.10
  -8   4  -2   22.09    1.85
  -8  -4   2   21.21    1.31
  -8   4  -2   23.01    1.77
  -8   5   2   32.76    1.84
  -8   5   2   29.14    1.57
  -8   5   2   33.79    2.54
   8   5  -2   29.84    2.03
  -8  -5  -2   27.76    1.85
  -8   5  -2   30.01    2.37
  -8   5  -2   31.09    2.35
   8   5   2   31.25    1.43
  -8   6   2   62.99    3.74
   8   6  -2   68.24    3.31
  -8   6   2   59.01    2.92
   8   6   2   52.43    2.46
  -8   6  -2   60.81    3.63
  -8   6  -2   64.60    3.47
   8   7  -2    9.60    1.56
  -8   7   2    9.07    1.82
  -8   7   2    7.80    2.09
  -8   7  -2   10.10    1.90
   8   7   2    8.86    1.09
  -8   7  -2    7.53    2.11
  -8   8   2    4.45    2.40
   8   8  -2    1.52    1.76
  -8   8  -2    0.87    2.21
  -8   8  -2    3.78    2.13
  -8   9   2   -0.09    3.07
  -8   9  -2    4.87    2.72
  -8   9  -2    5.98    2.76
  -8  10   2    3.00    3.46
  -8  10  -2   -2.45    2.90
   8   0   3    0.00    0.18
   8   0  -3   -0.05    0.29
   8   0  -3   -0.15    0.29
  -8   0  -3   -0.37    0.21
  -8   0   3    0.50    0.41
  -8   0   3    0.33    0.24
   8  -1   3   11.90    0.89
  -8   1   3   12.03    0.80
   8   1  -3   10.68    0.88
   8   1  -3   12.10    0.70
  -8   1   3   12.23    0.77
  -8  -1  -3   11.11    0.51
   8  -1  -3   12.68    0.76
  -8  -1   3   13.06    0.98
  -8   1  -3   10.54    0.82
   8  -1  -3   12.19    0.74
  -8  -1   3   12.17    0.69
   8   1   3   11.31    0.52
  -8  -2  -3   93.36    3.48
   8  -2   3   96.67    3.77
   8   2  -3  101.42    3.80
   8   2  -3   90.18    3.52
  -8   2   3   91.45    3.47
  -8  -2  -3   94.08    3.34
  -8  -2  -3   91.51    3.39
  -8   2   3   92.62    3.70
  -8  -2   3   97.52    3.83
  -8  -2   3   91.74    3.48
  -8   2  -3   96.11    3.76
   8  -2  -3   92.27    3.60
   8  -2  -3   91.72    3.48
   8   3  -3    5.37    0.93
  -8   3   3    3.89    0.95
   8  -3   3    5.25    1.08
  -8  -3  -3    4.06    0.76
  -8  -3  -3    5.00    0.59
  -8   3   3    4.26    0.53
  -8  -3   3    2.41    1.02
  -8  -3   3    5.53    0.72
   8  -3  -3    3.67    0.47
  -8  -4  -3  128.81    4.93
  -8   4   3  124.24    5.43
  -8   4   3  128.97    4.78
  -8   4   3  135.76    4.93
  -8  -4  -3  132.76    5.17
   8   4  -3  138.36    5.34
  -8  -4   3  129.34    4.95
  -8   4  -3  130.00    5.38
  -8   4  -3  134.78    5.46
  -8   5   3   11.85    0.96
  -8  -5  -3    9.66    1.28
  -8   5   3    9.52    1.21
  -8   5   3   12.68    1.73
   8   5  -3   12.52    1.85
  -8   5  -3   11.38    1.60
  -8  -5   3    8.78    1.15
  -8   5  -3   12.43    1.72
  -8   6   3   79.21    3.27
   8   6  -3   71.74    3.84
  -8   6   3   73.18    3.02
  -8  -6  -3   75.91    3.64
  -8   6   3   76.37    4.23
  -8   6  -3   76.25    3.97
  -8   6  -3   74.66    4.17
  -8   7   3    8.12    2.50
   8   7  -3    5.20    1.67
  -8   7   3    5.28    0.96
  -8   7  -3    7.21    1.85
  -8   7  -3    7.32    2.35
  -8   8   3    4.86    2.57
   8   8  -3    1.27    1.76
  -8   8  -3    0.08    2.03
  -8   8  -3   -0.56    1.92
   8   9  -3   -1.91    2.25
  -8   9   3    6.26    3.39
  -8   9  -3    3.55    2.72
  -8   9  -3   -1.58    2.47
  -8  10   3   15.32    4.51
  -8  10  -3    7.31    3.65
  -8 -10   3    4.18    2.37
   8   0   4  319.11   10.85
  -8   0   4  309.78   11.01
  -8   0   4  299.09   11.13
   8   0  -4  315.45   11.13
  -8   0  -4  319.58   10.91
   8   0  -4  323.09   11.00
   8  -1   4    6.41    0.79
   8   1  -4    5.29    0.79
  -8   1   4    5.22    0.60
   8   1  -4    5.14    0.55
  -8   1   4    4.84    0.71
   8  -1  -4    6.29    0.61
   8  -1  -4    5.28    0.61
  -8   1  -4    5.64    0.72
  -8  -1   4    3.78    0.74
  -8  -1   4    5.17    0.53
  -8  -2  -4   12.05    0.56
   8  -2   4   13.83    1.26
  -8  -2  -4   12.58    0.63
   8   2  -4   12.02    0.87
  -8   2   4   11.79    1.05
  -8   2   4   11.55    0.82
   8   2  -4   10.67    1.16
  -8  -2  -4   11.53    0.76
   8  -2  -4   12.97    0.94
  -8  -2   4   12.72    0.93
  -8  -2   4   13.08    1.41
  -8   2  -4   13.70    1.12
   8  -2  -4   11.18    0.81
   8   3  -4   95.67    3.95
  -8   3   4   93.34    3.43
  -8  -3  -4   94.60    3.40
  -8  -3  -4   92.70    3.65
   8  -3  -4   92.98    3.48
  -8   3  -4   92.12    4.09
  -8  -3   4   88.98    3.56
  -8  -4  -4    1.27    0.92
  -8  -4  -4    3.31    0.56
  -8   4   4    1.96    0.43
   8   4  -4    0.82    0.85
  -8   4   4    2.77    1.24
  -8   4   4    1.45    0.54
  -8   4  -4    2.62    0.91
  -8  -4   4    1.81    0.56
  -8   4  -4    1.70    1.00
   8   5  -4    1.21    1.03
  -8  -5  -4   -0.05    0.68
  -8   5   4   -0.43    1.23
  -8   5   4    0.98    0.56
  -8   5   4    0.38    0.44
  -8  -5   4    0.61    0.69
  -8   5  -4    0.51    1.14
  -8   5  -4    0.64    1.19
  -8   6   4    4.31    0.62
   8   6  -4    3.44    1.42
  -8   6   4    5.90    1.83
  -8   6   4    3.55    0.70
  -8  -6  -4    4.82    1.04
  -8   6  -4    8.26    1.94
  -8  -6   4    3.89    0.99
  -8   6  -4    5.42    1.58
  -8   7   4    0.99    1.98
   8   7  -4    2.09    1.70
  -8   7  -4    1.69    1.69
  -8   7  -4    1.52    1.77
  -8  -7   4    1.87    1.16
  -8   8   4    4.26    2.46
   8   8  -4    8.18    2.13
  -8  -8   4    6.27    1.62
  -8   8  -4    8.17    2.23
  -8   8  -4    8.52    2.49
  -8   9   4   -1.13    2.74
   8   9  -4    1.30    2.64
  -8   9  -4    0.65    2.47
  -8   9  -4   -2.48    2.30
  -8  -9   4   -0.92    1.61
  -8  10   4   -1.95    3.52
  -8  10  -4   -5.15    2.72
  -8 -10   4   -2.08    1.97
   8   0   5    0.06    0.23
  -8   0   5   -0.20    0.28
   8   0  -5    0.08    0.30
   8   0  -5    0.46    0.43
  -8   0  -5   -0.17    0.25
  -8   0   5    0.51    0.53
   8  -1   5    0.08    0.57
   8   1  -5    0.19    0.60
  -8   1   5    0.57    0.49
  -8   1   5    0.51    0.38
   8   1  -5    0.25    0.43
   8  -1  -5    0.76    0.40
  -8   1  -5    0.36    0.46
  -8  -1   5    1.25    0.68
  -8  -1   5    0.50    0.33
   8  -1  -5    1.09    0.41
   8   2  -5   60.64    2.70
  -8  -2  -5   54.70    1.96
  -8   2   5   55.85    2.15
  -8  -2  -5   55.68    2.09
  -8   2   5   54.51    2.48
   8  -2   5   55.20    2.61
   8  -2  -5   53.94    2.30
  -8  -2   5   55.54    2.28
   8  -2  -5   53.91    2.24
  -8   2  -5   50.82    2.46
   8   3  -5   13.17    1.38
  -8  -3  -5   12.93    0.68
  -8  -3  -5   11.59    1.01
  -8   3   5   12.44    0.66
  -8   3   5   16.07    1.59
   8  -3  -5   13.75    0.88
  -8   3  -5   11.62    1.58
  -8  -3   5   12.99    1.01
  -8   4   5   78.75    3.83
   8   4  -5   79.43    3.81
  -8  -4  -5   84.82    3.17
  -8  -4  -5   83.38    3.53
  -8  -4   5   85.51    3.41
   8  -4  -5   83.69    3.23
  -8   4  -5   81.58    3.85
  -8   4  -5   89.41    3.98
   8   5  -5   46.82    2.95
  -8  -5  -5   42.23    2.11
  -8   5   5   38.23    2.88
  -8   5  -5   46.71    3.05
  -8  -5   5   42.15    2.17
  -8   5  -5   41.27    2.86
   8   6  -5    1.04    1.36
  -8  -6  -5    1.35    0.85
  -8   6   5    4.87    1.92
  -8   6  -5   -0.47    1.31
  -8  -6   5    1.36    1.01
  -8   6  -5    0.85    1.51
   8   7  -5    1.61    1.67
  -8   7   5   -0.58    1.93
  -8   7  -5   -1.51    1.72
  -8   7  -5    0.05    1.80
  -8   8   5    2.69    2.55
   8   8  -5    0.63    2.12
  -8   8  -5   -1.47    1.95
  -8   8  -5   -2.59    1.98
  -8  -8   5   -2.25    1.25
  -8   9   5    3.91    3.02
   8   9  -5    0.80    2.41
  -8   9  -5    0.45    2.67
  -8  -9   5    0.10    1.58
  -8   9  -5    1.69    2.70
  -8  10   5    5.71    3.70
  -8 -10   5    9.18    2.26
  -8  10  -5    6.52    3.10
  -8  10  -5    5.48    3.43
  -8   0   6  291.80   10.46
   8   0   6  293.05   10.25
  -8   0   6  311.12   10.63
   8   0  -6  290.10   10.42
  -8   1   6  108.65    4.15
  -8   1   6  110.67    4.10
   8  -1   6  112.28    4.17
   8   1  -6  109.20    4.40
   8  -1  -6  105.94    4.07
  -8  -1   6  107.03    4.12
  -8  -1   6  100.37    4.38
  -8   1  -6  112.96    4.09
   8  -1  -6  114.27    4.19
  -8   2   6   -0.03    0.31
   8   2  -6    0.16    0.72
   8  -2   6   -0.97    0.79
  -8   2   6    0.04    0.71
   8  -2  -6    0.10    0.37
  -8  -2   6    0.38    0.44
  -8   2  -6    0.01    0.56
  -8   3   6   37.12    2.09
   8   3  -6   33.68    2.17
  -8  -3  -6   35.84    1.62
  -8  -3  -6   31.02    1.42
  -8   3  -6   32.21    2.09
   8  -3  -6   34.56    1.59
  -8  -3   6   36.76    1.71
  -8  -4  -6    4.85    0.61
  -8   4   6    5.98    1.37
  -8  -4  -6    5.16    0.99
   8   4  -6    3.79    1.10
  -8   4  -6    6.05    1.24
   8  -4  -6    5.71    0.80
  -8  -4   6    4.86    0.79
  -8   4  -6    3.96    1.15
   8   5  -6   -0.68    1.02
  -8   5   6    2.58    1.49
  -8  -5  -6    1.30    0.55
  -8  -5   6    0.30    0.77
  -8   5  -6    0.36    1.24
  -8   5  -6    1.28    1.44
   8   6  -6    2.09    1.59
  -8   6   6   -0.77    1.68
  -8  -6   6    0.49    0.87
  -8   6  -6    1.89    1.54
  -8   6  -6    2.35    1.73
   8   7  -6    0.53    1.79
  -8   7   6    3.03    2.48
  -8   7  -6    1.48    2.59
  -8  -7   6    3.11    1.16
  -8   7  -6   -3.18    3.02
   8   8  -6   56.51    4.28
  -8   8   6   47.53    5.02
  -8   8  -6   48.93    4.42
  -8   8  -6   50.79    4.49
  -8  -8   6   58.42    3.42
   8   9  -6    5.16    2.76
  -8   9   6    3.05    3.32
  -8  -9   6    6.76    2.04
  -8   9  -6    5.58    2.87
  -8   9  -6    5.53    2.59
  -8   0   7    0.96    0.62
   8   0  -7   -0.14    0.60
   8   0   7    0.32    0.34
  -8   0   7   -0.20    0.47
   8   0   7   -0.01    0.18
  -8   1   7  221.38    7.55
  -8   1   7  208.56    7.78
   8   1  -7  214.12    7.92
   8  -1   7  224.19    7.65
   8  -1  -7  182.81    8.05
  -8  -1   7  212.84    7.58
  -8  -1   7  209.59    8.03
   8   2  -7  125.50    5.65
   8  -2   7  150.11    5.54
  -8   2   7  149.54    5.48
  -8  -2   7  145.54    5.26
   8  -2  -7  132.77    5.23
  -8   2  -7  145.99    5.40
  -8   3   7   50.45    2.76
   8   3  -7   59.84    3.02
  -8  -3  -7   53.64    2.08
  -8   3  -7   55.89    2.77
  -8  -3   7   49.42    2.36
   8  -3  -7   52.49    2.21
   8   4  -7   10.31    1.56
  -8  -4  -7   10.75    1.14
  -8   4   7   11.46    1.52
   8  -4  -7   11.35    0.97
  -8   4  -7   14.06    2.03
  -8  -4   7   14.09    1.30
  -8   4  -7   11.84    1.58
  -8  -5  -7    2.59    0.57
  -8   5   7    1.24    1.50
   8   5  -7    2.48    1.46
  -8  -5  -7    3.79    0.93
  -8   5  -7    3.03    1.51
  -8   5  -7    4.48    1.62
  -8  -5   7    1.74    0.85
   8  -5  -7    2.19    0.60
   8   6  -7    7.94    1.87
  -8   6   7    8.70    2.11
  -8  -6   7    8.33    1.23
  -8   6  -7    6.61    1.76
  -8   6  -7    7.69    1.99
  -8   7   7   -0.85    2.17
   8   7  -7    2.30    2.13
  -8   7  -7    0.26    1.83
  -8   7  -7   -1.85    1.86
  -8  -7   7   -1.49    1.12
   8   8  -7    2.71    2.20
  -8   8   7    2.77    3.12
  -8   8  -7    5.65    2.45
  -8  -8   7   -0.20    1.39
  -8   8  -7    3.53    2.56
   8   9  -7   10.65    3.13
  -8   9   7   11.57    3.39
  -8   9  -7   12.64    3.26
  -8  -9   7   10.27    1.97
  -8   0   8    9.02    1.28
   8   0   8   11.65    0.90
  -8   0   8   12.36    1.04
   8   0   8   12.10    0.58
   8   0  -8   12.71    1.31
  -8   1   8   52.82    2.38
   8  -1   8   53.44    2.39
   8   1  -8   46.78    2.63
  -8   1   8   53.88    2.15
  -8  -1   8   51.61    2.23
   8  -1  -8   48.90    2.42
  -8   2   8    0.57    0.81
   8   2  -8    0.91    0.86
   8  -2   8   -0.85    1.03
  -8  -2   8   -0.05    0.50
   8   3  -8   70.48    3.61
  -8   3   8   71.78    3.43
  -8  -3   8   71.58    3.05
  -8  -4  -8    2.85    0.40
   8   4  -8    2.44    1.24
  -8   4   8    0.16    1.16
  -8  -4  -8    2.68    0.60
  -8   4  -8    2.92    1.23
   8  -4  -8    2.69    0.60
  -8  -4   8    2.97    0.83
  -8   4  -8    2.37    1.20
   8   5  -8   85.00    4.61
  -8  -5  -8   86.21    3.62
  -8  -5  -8   92.93    3.66
  -8   5   8   87.15    4.45
  -8   5  -8   86.08    4.56
  -8  -5   8   88.86    3.82
   8  -5  -8   79.31    3.42
  -8   5  -8   95.62    4.51
   8   6  -8    3.57    2.33
  -8   6   8    6.99    2.15
  -8   6  -8    5.36    1.97
  -8  -6   8    3.08    1.19
  -8   6  -8    4.32    1.84
   8   7  -8   11.13    2.38
  -8   7   8   11.88    2.63
  -8   7  -8    8.35    2.22
  -8  -7   8   18.13    2.27
  -8   7  -8   11.37    2.46
   8   8  -8   14.11    2.82
  -8   8   8   13.02    3.24
  -8   8  -8   11.78    2.96
  -8  -8   8   15.44    2.03
  -8   9   8    4.59    3.75
   8   9  -8   -1.20    2.91
  -8   9  -8    1.02    3.16
  -8  -9   8    1.92    1.84
  -8   0   9    1.27    0.62
   8   0   9    0.11    0.53
   8   0  -9   -0.18    0.72
   8   0   9   -0.23    0.24
  -8   0   9    0.01    0.77
  -8   1   9   16.68    1.32
   8   1  -9   13.10    1.68
   8  -1   9   13.32    1.53
   8  -1   9   14.20    0.86
   8  -1  -9   13.87    1.26
  -8  -1   9   13.01    1.11
   8  -2   9    0.40    1.13
   8   2  -9    0.22    1.01
  -8   2   9    0.82    0.84
  -8  -2   9    0.63    0.61
   8  -2  -9    0.76    0.61
   8   3  -9    4.71    1.33
  -8   3   9    5.39    1.15
  -8  -3   9    4.29    0.86
  -8   3  -9    4.75    1.31
   8   4  -9   17.35    2.32
  -8  -4  -9   14.64    0.92
  -8   4   9   17.26    2.38
  -8   4  -9   12.84    1.81
   8  -4  -9   16.09    1.24
  -8  -4   9   13.34    1.43
  -8   5   9    3.19    1.72
   8   5  -9    5.09    1.90
  -8   5  -9    2.15    1.60
  -8  -5   9    0.62    1.06
   8  -5  -9    2.69    0.63
   8   6  -9    1.72    1.93
  -8   6   9    2.80    2.21
  -8   6  -9    0.60    1.80
  -8  -6   9    2.38    1.15
  -8   7   9   32.06    3.47
   8   7  -9   26.50    3.62
  -8   7  -9   26.66    3.79
  -8  -7   9   26.24    2.49
  -8   8   9   -2.17    2.85
   8   8  -9    0.90    2.63
  -8  -8   9   -0.79    1.64
  -8   8  -9   -2.78    2.68
  -8   9   9   15.90    4.45
   8   9  -9    8.27    3.08
  -8   9  -9    9.59    3.59
  -8  -9   9    7.49    2.15
   8   0  10   42.05    1.60
  -8   0  10   42.06    2.06
   8   0 -10   42.88    2.40
   8   0  10   40.79    1.89
   8  -1  10    7.37    1.17
  -8   1  10    9.32    1.27
   8  -1  10    7.01    0.72
   8   1 -10    7.05    1.28
   8  -1 -10    9.38    1.22
  -8  -1  10    8.28    1.00
   8   2 -10   13.08    1.64
   8  -2  10   19.02    2.37
   8  -2  10    9.75    1.29
  -8   2  10   13.37    1.57
  -8  -2  10   11.71    1.23
   8  -2 -10   11.23    1.33
  -8   3  10   15.50    1.87
   8   3 -10   14.71    2.16
  -8   3 -10   13.69    1.87
  -8  -3  10   19.93    1.52
   8  -3 -10   17.46    1.32
  -8   4  10    3.58    1.63
   8   4 -10   -1.65    1.36
   8  -4 -10   -0.36    0.64
  -8   4 -10   -0.73    1.37
  -8  -4  10    0.01    0.87
  -8   5  10    1.67    1.95
   8   5 -10    3.76    1.87
  -8  -5  10    2.33    1.14
  -8   5 -10    0.50    1.84
   8  -5 -10    2.10    0.68
  -8   6  10   13.53    2.63
   8   6 -10   12.77    2.48
   8  -6 -10   11.66    1.16
  -8  -6  10   12.81    1.63
  -8   6 -10   14.18    2.49
   8   7 -10    6.98    2.50
  -8   7  10    4.23    2.62
  -8  -7  10    6.35    1.59
  -8   7 -10   -0.19    2.38
  -8   8  10   -5.04    3.10
   8   8 -10    4.44    3.07
  -8   8 -10    2.30    2.86
  -8  -8  10   -1.47    1.61
   8   0  11   -0.27    0.76
  -8   0  11    0.05    0.71
   8   0 -11   -0.26    0.81
   8   0  11   -0.50    0.32
   8  -1  11    7.66    1.30
   8   1 -11    9.12    1.49
   8  -1  11   10.22    0.78
  -8   1  11    7.48    1.08
  -8  -1  11    8.49    1.14
   8  -1 -11    9.30    1.28
  -8   2  11    8.98    1.32
   8  -2  11    6.53    0.93
   8   2 -11    5.18    1.42
   8  -2 -11    6.60    1.02
  -8   2 -11    7.33    1.57
  -8  -2  11    6.48    1.01
   8   3 -11    8.73    1.80
  -8   3  11   11.09    1.59
   8  -3  11   11.55    1.44
  -8  -3  11   10.12    1.19
  -8   3 -11    8.92    1.77
   8  -3 -11   11.32    1.37
   8   4 -11   22.00    2.90
  -8   4  11   28.41    2.91
   8  -4 -11   25.59    1.68
  -8  -4  11   25.20    1.92
  -8   4 -11   24.25    3.28
   8   5 -11    9.05    2.23
  -8   5  11    9.67    2.43
   8  -5 -11   11.74    1.33
  -8   5 -11   13.89    2.66
   8   6 -11    2.26    2.16
  -8   6  11    2.18    2.39
  -8   6 -11    3.96    2.30
  -8  -6  11    2.45    1.27
   8   7 -11   16.29    3.20
  -8   7  11   18.26    3.57
  -8   7 -11   17.01    3.10
  -8  -7  11   19.30    2.57
  -8   8  11   -7.72    3.26
   8   8 -11    8.48    3.67
  -8   8 -11    3.09    2.80
  -8  -8  11    3.17    1.95
   8   0 -12   27.14    2.22
   8   0  12   26.48    1.20
  -8   0  12   27.33    1.88
   8   1 -12   29.15    2.45
  -8   1  12   27.20    1.93
   8  -1  12   27.52    1.35
   8  -1 -12   24.24    2.22
  -8  -1  12   25.58    1.73
  -8   2  12   44.36    2.76
   8  -2  12   45.35    2.18
   8   2 -12   45.58    3.11
  -8  -2  12   43.86    2.36
  -8   2 -12   43.31    3.12
   8  -2 -12   47.45    2.58
   8  -3  12    5.17    1.06
  -8   3  12    5.88    1.47
  -8   3 -12    2.48    1.74
   8  -3 -12    6.64    1.06
  -8  -3  12    7.47    1.17
  -8   4  12    7.47    1.92
   8  -4  12    3.07    1.20
   8   4 -12    3.71    1.93
  -8   4 -12    5.35    2.00
  -8  -4  12    3.83    1.11
   8  -4 -12    4.32    0.89
   8   5 -12    7.66    2.26
  -8   5  12    8.18    2.58
   8  -5  12    4.53    1.46
  -8  -5  12    7.87    1.48
  -8   5 -12    3.26    2.03
   8   6 -12   -1.98    2.14
  -8   6  12    0.01    2.61
  -8   6 -12    4.07    2.76
  -8  -6  12   -0.09    1.37
   8   7 -12   -0.15    2.73
  -8   7 -12   -1.24    2.73
  -8  -7  12    4.40    1.87
  -8   0  13   -0.18    0.88
   8   0 -13    0.01    1.13
   8   1 -13   22.59    2.38
  -8   1  13   27.47    2.05
  -8  -1  13   24.50    1.84
  -8   1 -13   27.52    2.52
   8  -1 -13   20.63    2.36
   8   2 -13    4.36    2.02
  -8   2  13    4.79    1.42
   8  -2  13    5.70    0.96
  -8  -2  13    5.01    1.08
   8  -2 -13    5.92    1.25
  -8   2 -13    5.43    1.58
   8   3 -13   -0.55    1.69
   8  -3  13   -1.43    0.96
  -8   3  13    0.86    1.51
   8  -3 -13    0.65    1.06
  -8  -3  13    0.45    1.02
  -8   3 -13    2.75    2.08
  -8   4  13   35.87    3.58
   8  -4  13   37.59    2.42
   8   4 -13   28.72    3.63
  -8   4 -13   32.60    3.75
  -8  -4  13   30.84    3.40
   8  -5  13    1.83    1.41
  -8   5  13    5.52    2.77
   8   5 -13    4.27    2.51
  -8  -5  13    2.02    1.32
  -8   5 -13    1.44    2.03
   8   6 -13    1.46    2.52
   8  -6  13    0.46    1.82
  -8   6 -13   -3.21    2.42
  -8  -6  13    4.16    1.70
   8   7 -13    8.29    3.12
   8  -7  13   10.22    2.20
  -8   7 -13   11.74    3.62
  -8  -7  13    8.60    2.04
  -8   0  14   21.90    2.00
  -8   0 -14   16.02    2.30
   8   0 -14   18.71    2.35
   8   1 -14   -0.63    1.59
  -8   1  14    1.69    1.26
  -8   1 -14   -0.49    1.59
   8  -1 -14    0.41    1.36
  -8  -1  14    1.62    0.98
  -8   2  14    4.67    1.52
   8   2 -14    4.94    1.81
   8  -2 -14    5.00    1.38
  -8  -2  14    5.00    1.18
  -8   2 -14    5.64    1.81
  -8   3  14   25.86    3.20
   8   3 -14   23.73    2.91
  -8   3 -14   22.94    2.87
   8  -3 -14   26.35    2.40
  -8  -3  14   21.57    2.11
   8  -4  14    6.12    1.48
   8   4 -14   -0.82    2.22
  -8  -4  14    1.22    1.37
  -8   4 -14   -0.34    2.33
   8  -5  14    8.51    1.83
   8   5 -14   15.61    3.44
  -8  -5  14    9.06    1.72
  -8   5 -14    8.26    2.91
   8   6 -14   -2.71    2.76
   8  -6  14    1.99    1.75
  -8   6 -14   -1.09    2.65
  -8  -6  14   -0.67    1.52
  -8   0  15   -1.30    1.18
  -8   0 -15    0.50    1.67
   8   0 -15   -0.89    1.38
  -8   1  15   27.19    2.66
  -8  -1 -15   31.41    2.69
   8   1 -15   32.44    3.33
  -8  -1  15   32.78    2.39
   8  -1 -15   33.83    2.88
  -8   1 -15   33.18    4.86
   8   2 -15    8.03    2.25
  -8   2  15   10.77    2.25
  -8  -2  15    8.66    1.50
   8  -2 -15    8.40    1.74
  -8   2 -15    7.01    2.16
   8   3 -15   37.74    4.27
  -8   3 -15   38.62    4.20
  -8   4 -15   27.95    4.13
  -8  -4  15   26.90    2.57
   8   5 -15    2.71    2.91
  -8   5 -15    4.52    2.94
  -8  -5  15    0.40    1.56
   8   0 -16   10.21    2.03
  -8  -1 -16    3.14    1.81
   8   1 -16    5.59    2.06
   8  -1 -16    3.93    2.97
  -8   1 -16    5.45    2.15
  -8  -1  16    3.58    1.44
   8   2 -16    8.89    2.39
   8  -2 -16    4.86    1.86
  -8  -2  16   11.49    1.72
  -8   2 -16    8.71    2.40
   8   3 -16   12.24    2.98
  -8   3 -16    7.10    2.28
  -8  -3  16    9.53    1.71
   8   4 -16    2.33    2.84
  -8   4 -16   -0.34    2.70
  -8  -4  16   -0.40    1.53
   8   5 -16   -3.12    4.08
  -8  -5  16   -1.90    1.72
  -8   5 -16   -1.79    3.01
  -8   0 -17   -2.25    2.01
   8   0 -17    3.10    2.33
   8   1 -17    1.36    1.99
  -8   1 -17    1.65    2.20
   8  -1 -17   -2.82    1.84
   8   2 -17   17.87    2.82
  -8   2 -17   14.66    2.71
   8   3 -17   -0.69    2.15
  -8   3 -17   -0.74    2.49
  -8  -3  17    0.38    1.64
   8   0 -18   -1.18    2.30
  -8   0 -18    4.17    2.71
   8   1 -18    1.32    2.22
  -8   1 -18   -2.96    2.32
  -9   0   0    0.69    0.23
   9   0   0    1.07    0.27
  -9   0   0    0.63    0.31
   9   0   0    0.46    0.23
   9   1   0  183.37    6.63
  -9   1   0  185.55    6.71
   9  -1   0  198.33    6.65
  -9   1   0  180.80    6.62
   9  -1   0  187.45    6.66
  -9  -1   0  183.82    6.55
   9   1   0  188.29    6.55
  -9  -1   0  185.76    6.68
   9   2   0    0.39    0.30
  -9  -2   0    0.75    0.42
   9  -2   0   -0.46    0.50
   9   2   0    0.19    0.30
  -9  -2   0    0.18    0.25
  -9   2   0    0.13    0.48
  -9   2   0    0.21    0.32
   9   3   0   81.01    3.11
  -9   3   0   76.46    3.79
  -9  -3   0   78.94    3.26
  -9   3   0   77.09    3.05
  -9  -3   0   78.38    2.98
  -9   4   0    0.45    0.86
   9   4   0   -0.20    0.58
  -9  -4   0   -1.23    0.69
  -9  -4   0   -0.14    0.46
   9   5   0   25.76    1.74
  -9   5   0   26.29    2.12
  -9   5   0   22.41    2.22
  -9   6   0    2.25    1.72
   9   6   0    0.09    0.95
  -9   6   0    0.51    1.13
  -9   7   0   27.87    3.45
   9   7   0   21.62    2.14
  -9   7   0   23.91    2.76
  -9   8   0    2.83    2.47
  -9   8   0   -0.05    1.74
  -9   9   0    0.06    2.66
  -9  10   0   -5.41    3.05
   9   0  -1   -0.14    0.23
  -9   0  -1   -0.17    0.24
  -9   0   1    0.31    0.30
  -9   0   1    0.31    0.22
   9   0   1   -0.04    0.21
   9   0   1    0.00    0.23
   9   0  -1   -0.25    0.24
  -9   0  -1    0.05    0.19
  -9   1   1    1.52    0.39
  -9  -1  -1    1.47    0.33
   9   1  -1    1.32    0.28
   9  -1   1    1.49    0.40
  -9   1   1    1.29    0.38
   9   1  -1    1.48    0.37
  -9  -1  -1    1.09    0.22
   9  -1  -1    1.47    0.29
   9   1   1    1.37    0.24
   9  -1  -1    1.63    0.36
   9   1   1    1.61    0.29
  -9   1  -1    1.29    0.33
  -9   1  -1    1.48    0.41
  -9  -1   1    1.14    0.28
  -9  -1   1    1.45    0.39
   9   2  -1  144.18    5.31
  -9  -2  -1  142.35    5.23
   9  -2   1  142.60    5.39
  -9   2   1  134.99    5.19
  -9  -2  -1  142.55    5.10
   9   2  -1  143.39    5.17
  -9  -2   1  155.31    5.42
   9  -2  -1  151.36    5.22
  -9   2  -1  144.34    5.45
   9  -2  -1  140.71    5.33
   9   2   1  142.07    5.15
  -9  -2   1  141.73    5.15
   9   3  -1    2.43    0.57
  -9   3   1    2.15    0.46
  -9  -3  -1    2.53    0.38
  -9  -3  -1    1.75    0.57
  -9   3   1    2.95    0.89
  -9  -3  -1    2.44    0.66
   9   3   1    2.13    0.41
  -9  -3   1    2.62    0.80
  -9   3  -1    1.16    1.01
  -9  -3   1    1.60    0.45
  -9   4   1   35.00    1.94
  -9   4   1   34.29    1.65
  -9   4   1   35.58    2.28
  -9  -4  -1   37.04    1.90
  -9  -4   1   34.22    1.68
   9   4   1   33.84    1.63
  -9   4  -1   31.19    2.19
   9   5  -1   58.96    2.93
  -9  -5  -1   66.50    3.70
  -9   5   1   67.09    3.54
  -9   5   1   52.61    3.57
   9   5   1   59.50    2.57
  -9   5  -1   63.21    3.41
  -9   5  -1   62.30    3.13
  -9   6   1    3.99    1.37
   9   6  -1    3.69    1.13
  -9   6   1    2.29    1.42
   9   6   1    3.52    0.79
  -9   6  -1    2.35    1.40
  -9   6  -1    2.16    1.26
   9   7  -1    0.24    1.21
  -9   7   1   -1.85    1.23
  -9   7   1   -2.04    1.69
  -9   7  -1    0.27    1.44
  -9   7  -1    0.49    1.71
   9   7   1    0.29    0.93
  -9   8   1   26.89    3.73
   9   8  -1   33.08    2.96
  -9   8   1   37.32    3.19
  -9   8  -1   36.07    4.06
  -9   8  -1   38.75    3.62
  -9   9   1    2.41    3.17
  -9   9  -1    0.54    2.71
  -9  10   1   -0.46    3.33
  -9  10  -1    6.10    3.78
   9   0   2   32.51    1.27
  -9   0  -2   30.08    1.34
   9   0  -2   32.66    1.43
  -9   0   2   32.09    1.36
  -9   0  -2   30.64    1.29
  -9   0   2   32.28    1.47
   9   0  -2   32.51    1.37
  -9   1   2    8.77    0.73
   9   1  -2    9.05    0.62
  -9  -1  -2    9.67    0.59
   9  -1   2    9.00    0.75
  -9  -1  -2    9.28    0.49
   9   1  -2    8.89    0.80
  -9   1   2    8.97    0.74
   9   1   2    8.88    0.49
  -9  -1   2    8.67    0.60
   9  -1  -2    8.12    0.69
  -9   1  -2    9.10    0.79
   9  -1  -2    9.83    0.64
  -9  -1   2   10.21    0.84
   9   2  -2   14.67    1.08
  -9   2   2   15.95    0.91
   9  -2   2   14.36    1.15
  -9   2   2   14.88    1.12
  -9  -2  -2   15.39    0.84
  -9  -2  -2   14.02    0.72
   9   2  -2   15.49    0.87
  -9   2  -2   12.52    1.17
   9  -2  -2   16.33    0.85
   9   2   2   14.12    0.75
   9  -2  -2   15.43    1.03
  -9  -2   2   15.37    1.15
  -9  -2   2   15.05    0.82
  -9  -3  -2    6.68    0.62
   9   3  -2    5.92    1.55
  -9  -3  -2    7.13    0.91
  -9   3   2    5.79    0.99
  -9  -3  -2    9.49    0.78
  -9   3   2    5.61    0.65
   9   3   2    7.61    0.57
  -9  -3   2    7.79    0.76
  -9  -3   2    6.59    1.02
  -9   3  -2    7.01    1.30
  -9   4   2    1.06    0.50
  -9   4   2    2.00    0.63
  -9  -4  -2    2.33    0.65
  -9  -4  -2    3.54    0.89
   9   4  -2    1.75    0.79
  -9   4   2    1.68    0.92
  -9   4  -2    1.29    0.93
   9   4   2    1.49    0.43
  -9  -4   2    1.68    0.52
  -9  -5  -2    0.13    0.95
  -9   5   2    0.57    0.93
   9   5  -2    1.44    0.85
  -9   5   2    1.82    1.22
  -9   5  -2    0.56    1.03
   9   5   2    1.99    0.56
  -9   5  -2    1.16    1.16
  -9  -5   2    1.69    0.66
   9   6  -2    1.69    1.12
  -9   6   2    1.20    1.55
  -9   6   2    0.76    1.14
   9   6   2    1.83    0.56
  -9   6  -2    2.20    1.56
  -9   6  -2   -1.41    1.22
  -9   7   2    4.63    2.19
   9   7  -2    3.73    1.46
   9   7   2    4.96    0.78
  -9   7  -2    2.67    1.59
  -9   7  -2    6.46    2.17
   9   8  -2   42.97    3.16
  -9   8   2   39.29    4.25
  -9   8  -2   36.41    3.55
  -9   8  -2   41.74    4.38
  -9   9   2    5.09    3.20
  -9   9  -2    2.68    2.75
  -9   9  -2    5.04    2.61
  -9  10   2   10.28    4.34
  -9 -10   2   -2.18    2.03
  -9  10  -2    2.22    3.27
   9   0   3    0.06    0.21
  -9   0   3   -0.24    0.41
   9   0  -3    0.11    0.32
   9   0  -3   -0.08    0.30
  -9   0   3   -0.42    0.26
  -9   0  -3    0.15    0.26
   9   1  -3   79.52    2.95
  -9   1   3   81.87    3.04
   9  -1   3   78.32    3.01
  -9   1   3   77.13    3.03
  -9  -1  -3   79.61    2.89
   9   1  -3   71.55    3.08
  -9  -1  -3   77.05    2.77
  -9   1  -3   79.99    3.06
  -9  -1   3   73.93    3.15
  -9  -1   3   76.19    2.93
   9   1   3   79.81    2.77
   9  -1  -3   81.76    2.99
   9  -1  -3   77.72    2.98
   9  -2   3   18.28    1.33
  -9  -2  -3   17.67    0.91
  -9   2   3   18.57    1.29
  -9  -2  -3   18.56    0.81
   9   2  -3   18.33    1.01
  -9   2   3   20.91    1.04
  -9  -2   3   19.18    1.47
  -9  -2   3   17.30    0.97
  -9   2  -3   19.04    1.27
   9  -2  -3   18.34    0.98
   9  -2  -3   18.74    1.12
  -9   3   3    1.16    0.79
   9   3  -3    1.28    0.70
  -9   3   3    1.07    0.42
  -9  -3  -3    1.07    0.62
  -9  -3  -3    1.39    0.38
  -9  -3  -3    1.32    0.30
   9  -3  -3    1.39    0.40
  -9  -3   3    1.01    0.45
  -9   3  -3    1.17    0.85
  -9   4   3  256.08    8.94
  -9   4   3  256.29    9.09
  -9  -4  -3  253.04    9.09
   9   4  -3  253.92    9.41
  -9   4   3  261.68    9.62
  -9  -4  -3  243.12    9.25
   9   4   3  241.65    8.77
  -9   4  -3  253.63    9.61
  -9  -4   3  256.11    9.09
   9   5  -3   -0.07    0.93
  -9   5   3    0.85    1.30
  -9   5   3    0.35    0.74
  -9  -5  -3    0.27    0.83
  -9   5   3    0.45    0.52
   9   5   3   -0.20    0.39
  -9  -5   3    0.69    0.72
  -9   5  -3   -0.49    1.01
  -9   5  -3    1.58    1.21
  -9   6   3   23.54    2.76
  -9   6   3   26.26    1.58
   9   6  -3   23.51    2.36
  -9   6   3   21.49    1.75
  -9   6  -3   25.45    2.83
  -9   6  -3   23.45    2.78
  -9  -6   3   22.08    1.74
  -9   7   3    1.21    0.90
  -9   7   3   -0.95    1.88
   9   7  -3    0.00    1.53
  -9   7  -3    0.93    1.75
  -9   7  -3   -0.23    1.64
  -9  -7   3   -0.34    0.98
   9   8  -3   18.69    2.30
  -9   8   3   21.94    3.15
  -9   8  -3   19.27    2.60
  -9  -8   3   20.24    2.50
  -9   8  -3   15.78    2.74
  -9   9   3    3.66    2.97
   9   9  -3    4.87    2.32
  -9  -9   3   -0.40    1.58
  -9   9  -3    3.74    2.58
  -9   9  -3    3.89    2.84
  -9  10   3    4.40    3.56
  -9 -10   3    3.50    2.02
  -9  10  -3   -0.06    2.97
  -9   0  -4   25.44    1.13
   9   0  -4   26.22    1.19
  -9   0   4   25.02    1.19
  -9   0   4   20.79    1.41
   9   0  -4   26.79    1.35
   9   0   4   25.77    1.04
   9   1  -4   -0.06    0.47
   9   1  -4   -0.17    0.30
   9  -1   4   -0.33    0.44
  -9   1   4   -0.13    0.44
  -9  -1  -4    0.33    0.13
  -9   1   4    0.33    0.32
   9  -1  -4    0.51    0.30
   9   1   4    0.19    0.15
  -9  -1   4    0.62    0.54
  -9  -1   4   -0.02    0.32
  -9   1  -4   -0.43    0.43
   9  -1  -4    0.08    0.37
  -9   2   4    7.86    0.99
  -9   2   4    7.26    0.80
  -9  -2  -4    8.80    0.68
  -9  -2  -4    7.70    0.57
   9   2  -4    8.02    1.00
  -9  -2  -4    7.50    0.44
   9  -2   4    8.07    0.97
   9  -2  -4    9.40    0.73
  -9  -2   4    9.47    1.22
  -9   2  -4    9.20    0.99
  -9  -2   4    6.77    0.77
   9  -2  -4    7.57    0.87
   9   3  -4   98.31    3.92
  -9  -3  -4   87.02    3.53
  -9  -3  -4   90.97    3.33
  -9  -3  -4   89.85    3.28
  -9   3   4   91.59    3.88
  -9   3   4   90.83    3.37
  -9   3  -4   85.56    3.89
  -9  -3   4   89.27    3.49
   9  -3  -4   86.13    3.40
  -9  -4  -4    3.45    0.59
  -9  -4  -4    3.37    0.88
  -9   4   4    4.39    0.63
   9   4  -4    3.78    1.00
  -9   4   4    4.28    1.11
  -9   4   4    5.20    0.73
  -9  -4   4    4.83    0.71
  -9   4  -4    2.93    0.99
   9  -4  -4    4.48    0.66
  -9   5   4    2.14    1.34
   9   5  -4    3.77    1.26
  -9   5   4    1.77    0.61
  -9  -5  -4    2.35    0.85
  -9   5   4    3.49    0.67
  -9  -5   4    2.67    0.76
  -9   5  -4    5.19    1.50
  -9   5  -4    2.13    1.19
  -9   6   4    9.92    1.04
   9   6  -4    9.67    1.70
  -9   6   4   10.95    1.19
  -9   6   4   13.60    2.25
  -9  -6  -4   13.01    1.56
  -9  -6   4   13.50    1.56
  -9   6  -4   11.14    1.92
   9   7  -4    5.03    1.72
  -9   7   4    3.84    2.00
  -9   7  -4    4.01    1.97
  -9   7  -4    4.91    2.08
  -9  -7   4    2.43    1.13
   9   8  -4   25.91    3.45
  -9   8   4   17.06    2.99
  -9   8  -4   31.00    3.97
  -9   8  -4   21.69    2.98
  -9  -8   4   21.34    2.30
  -9   9   4    0.13    2.85
  -9   9  -4   -1.28    2.45
  -9   9  -4    0.06    2.52
  -9  -9   4   -0.52    1.57
  -9  10   4   -1.81    3.77
  -9  10  -4    0.34    3.12
  -9 -10   4    2.34    1.97
  -9   0   5   -0.18    0.62
  -9   0  -5    0.07    0.27
   9   0  -5    0.38    0.50
   9   0  -5   -0.49    0.31
   9   0   5    0.06    0.22
  -9   0   5   -0.12    0.29
  -9   1   5   17.74    1.16
   9   1  -5   17.10    1.32
  -9   1   5   16.55    1.04
   9   1  -5   16.17    0.96
   9  -1   5   15.30    1.10
  -9  -1   5   15.13    1.34
  -9  -1   5   15.87    1.10
  -9   1  -5   15.65    1.03
   9  -1  -5   17.38    1.05
   9  -1  -5   16.78    1.06
  -9   2   5    4.40    0.56
   9  -2   5    4.35    0.85
  -9   2   5    4.44    0.95
   9   2  -5    3.11    0.75
  -9  -2   5    3.66    0.55
  -9   2  -5    4.71    0.75
   9  -2  -5    4.57    0.66
  -9   3   5   32.91    2.02
  -9  -3  -5   32.82    1.37
  -9  -3  -5   33.98    1.62
  -9  -3  -5   33.22    1.34
   9   3  -5   32.88    2.04
  -9   3   5   34.34    1.44
  -9  -3   5   32.33    1.60
  -9   3  -5   31.75    2.15
   9  -3  -5   31.99    1.54
  -9   4   5    2.34    0.42
  -9  -4  -5    3.36    0.53
  -9   4   5    3.42    1.19
   9   4  -5    1.90    0.99
  -9  -4  -5    1.40    0.85
  -9  -4   5    1.94    0.63
  -9   4  -5    3.31    1.20
   9  -4  -5    3.63    0.56
  -9   4  -5    2.35    1.09
  -9   5   5    6.25    1.67
   9   5  -5    2.96    1.27
  -9  -5  -5    3.69    0.79
  -9   5  -5    4.92    1.44
  -9   5  -5    4.63    1.28
  -9  -5   5    3.82    0.82
  -9   6   5   47.06    3.61
  -9  -6  -5   55.13    2.76
   9   6  -5   56.13    3.40
  -9  -6   5   52.25    2.66
  -9   6  -5   51.32    3.62
  -9   6  -5   54.12    3.63
   9   7  -5    4.01    2.02
  -9   7   5    8.36    2.56
  -9   7  -5    5.67    3.39
  -9   7  -5    4.56    2.15
  -9  -7   5    6.01    1.49
  -9   8   5    1.88    2.50
   9   8  -5    3.31    2.48
  -9   8  -5    1.82    2.46
  -9  -8   5    5.47    1.70
  -9   8  -5    3.46    2.04
   9   9  -5    0.96    2.58
  -9   9   5   -0.65    3.03
  -9  -9   5    6.35    2.02
  -9   9  -5    6.17    3.00
  -9   9  -5    4.90    3.10
  -9  10   5    7.29    4.14
  -9  10  -5    5.62    3.22
  -9  10  -5   15.26    3.93
  -9 -10   5   11.97    2.52
  -9   0   6  334.56   12.34
   9   0   6  351.68   11.95
   9   0  -6  353.11   12.38
   9   1  -6   14.07    1.30
  -9   1   6   19.02    1.19
   9  -1   6   19.86    1.21
   9  -1  -6   17.41    1.20
  -9  -1   6   16.65    1.09
  -9  -1   6   17.30    1.49
  -9   1  -6   18.56    1.07
   9  -2   6  237.34    8.55
  -9   2   6  235.34    8.18
  -9   2   6  228.06    8.49
   9   2  -6  227.97    8.69
   9  -2  -6  230.91    8.30
  -9   2  -6  236.19    8.49
  -9  -2   6  227.10    8.30
   9   3  -6    1.05    0.91
  -9  -3  -6    0.49    0.55
  -9  -3  -6    1.16    0.27
  -9   3   6    0.67    0.81
  -9  -3  -6    0.65    0.27
  -9   3  -6    0.86    0.87
  -9  -3   6    0.21    0.52
   9  -3  -6    1.16    0.58
  -9  -4  -6    0.49    0.39
  -9  -4  -6    0.79    0.71
   9   4  -6   -0.44    1.03
  -9   4   6   -0.39    0.97
   9  -4  -6    0.60    0.53
  -9  -4   6    1.69    0.71
  -9   4  -6    0.76    1.01
  -9   4  -6    0.35    0.99
  -9  -5  -6    0.56    0.65
  -9   5   6    0.77    1.33
   9   5  -6    0.98    1.37
  -9   5  -6   -0.51    1.28
  -9   5  -6    0.61    1.18
  -9  -5   6    1.15    0.72
  -9   6   6   31.97    3.30
   9   6  -6   32.41    2.89
  -9  -6   6   31.31    2.07
  -9   6  -6   31.01    3.24
  -9   6  -6   31.75    3.13
   9   7  -6    0.62    1.75
  -9   7   6    0.07    2.07
  -9   7  -6   -1.84    1.80
  -9  -7   6   -0.21    1.04
  -9   7  -6    1.31    2.51
   9   8  -6   42.88    4.24
  -9   8   6   47.34    5.12
  -9   8  -6   40.82    4.47
  -9   8  -6   46.86    4.54
  -9  -8   6   35.06    2.78
   9   9  -6    1.08    2.52
  -9   9   6    0.81    3.21
  -9  -9   6    0.88    1.63
  -9   9  -6    0.62    2.47
  -9   9  -6    4.78    3.10
  -9   0   7    0.46    0.64
   9   0   7    0.03    0.30
  -9   0   7    0.06    0.45
   9   0   7    0.02    0.19
   9   0  -7    1.42    0.75
   9  -1   7    5.27    0.77
   9   1  -7    6.74    1.01
  -9   1   7    6.39    0.82
  -9   1   7    5.60    0.74
  -9  -1   7    6.82    0.75
   9  -1  -7    6.12    0.87
   9  -2   7  159.51    6.24
   9   2  -7  162.84    6.44
  -9   2   7  167.13    6.23
  -9  -2   7  166.49    6.04
  -9   2  -7  162.92    6.17
   9   3  -7    0.78    0.94
  -9  -3  -7    0.74    0.25
  -9   3   7    2.96    1.09
  -9  -3  -7    0.70    0.37
  -9  -3   7    1.06    0.62
  -9   3  -7    1.39    0.83
   9  -3  -7    0.28    0.57
   9   4  -7   97.38    4.47
  -9   4   7   93.15    4.35
  -9  -4  -7   94.73    3.46
  -9  -4  -7   94.00    3.76
  -9   4  -7   95.01    4.50
  -9  -4   7   97.12    3.88
  -9   4  -7   95.07    4.31
   9  -4  -7   93.70    3.67
  -9  -5  -7    1.65    0.53
   9   5  -7    1.06    1.31
  -9  -5  -7   -1.20    1.02
  -9   5   7   -1.96    1.38
  -9   5  -7   -0.20    1.26
  -9  -5   7    0.25    0.78
  -9   5  -7    0.85    1.09
   9  -5  -7    0.56    0.55
  -9   6   7   58.18    4.06
   9   6  -7   51.45    3.88
  -9   6  -7   60.09    4.10
  -9   6  -7   52.76    3.79
  -9  -6   7   55.78    2.93
  -9   7   7    7.98    2.37
   9   7  -7    5.37    2.03
  -9   7  -7    1.58    2.01
  -9   7  -7    5.29    2.31
  -9  -7   7    6.16    1.39
  -9   8   7    1.26    2.66
   9   8  -7    8.60    2.65
  -9   8  -7    1.82    2.25
  -9   8  -7    3.94    2.57
  -9  -8   7    3.75    1.51
   9   9  -7    0.72    2.77
  -9   9   7    4.44    3.62
  -9   9  -7    5.32    2.97
  -9  -9   7    0.07    1.75
  -9   9  -7    4.87    2.96
   9   0   8   90.75    3.32
  -9   0   8   88.27    3.81
  -9   0   8   93.74    3.61
   9   0  -8   94.14    3.87
   9  -1   8   29.83    1.79
  -9   1   8   29.37    1.62
  -9   1   8   35.02    1.80
   9   1  -8   31.70    2.01
  -9  -1   8   30.51    1.59
   9  -1  -8   30.11    1.79
   9   2  -8   58.31    2.94
  -9   2   8   54.02    2.63
   9  -2   8   54.35    2.92
  -9  -2   8   55.05    2.42
   9  -2  -8   53.56    2.47
   9   3  -8    3.68    1.16
  -9   3   8    4.75    1.10
  -9   3  -8    5.28    1.02
   9  -3  -8    5.21    0.80
  -9  -3   8    4.42    0.81
  -9  -4  -8    0.39    0.56
  -9   4   8    2.43    1.41
   9   4  -8    0.65    1.24
  -9   4  -8    2.09    1.39
  -9   4  -8    3.03    1.08
  -9  -4   8    2.26    0.81
   9  -4  -8    1.08    0.52
  -9   5   8    1.62    1.64
   9   5  -8    1.90    1.46
   9  -5  -8    1.92    0.70
  -9  -5   8    2.16    0.97
  -9   5  -8    0.81    1.59
  -9   5  -8    2.46    1.24
   9   6  -8   14.52    2.35
  -9   6   8   10.09    2.34
  -9   6  -8   13.79    2.05
  -9   6  -8   17.00    2.61
  -9   7   8    1.44    2.49
   9   7  -8    0.71    2.07
  -9   7  -8    4.23    2.46
  -9   7  -8    2.12    2.15
  -9  -7   8   -0.53    1.29
   9   8  -8    6.57    2.56
  -9   8   8    4.26    2.98
  -9   8  -8    7.60    2.97
  -9  -8   8   10.02    1.81
   9   9  -8   -2.45    2.72
  -9   9   8    2.13    3.41
  -9   9  -8    0.87    3.03
  -9  -9   8    3.15    2.11
  -9   0   9    0.06    0.52
   9   0  -9   -0.07    0.79
  -9   0   9    0.51    0.82
   9   1  -9    0.28    0.84
  -9   1   9    1.30    0.69
   9  -1   9    0.74    0.36
   9  -1   9    3.41    0.87
   9  -1  -9    0.21    0.66
  -9  -1   9    0.40    0.59
  -9   2   9   79.47    3.50
   9   2  -9   82.22    3.86
   9  -2   9   76.11    3.72
   9  -2  -9   81.10    3.37
  -9  -2   9   79.18    3.28
   9   3  -9    5.41    1.45
  -9   3   9    6.01    1.20
   9  -3  -9    5.11    0.76
  -9  -3   9    6.95    0.93
  -9  -4  -9    6.71    0.70
  -9   4   9    6.14    1.59
   9   4  -9    6.10    1.52
   9  -4  -9    5.55    0.77
  -9   4  -9    6.83    1.68
  -9  -4   9    4.40    0.94
  -9   5   9    1.22    1.85
   9   5  -9    0.17    1.94
  -9  -5   9    1.50    0.93
   9  -5  -9    1.14    0.60
  -9   6   9  111.92    5.98
   9   6  -9  115.60    5.90
  -9  -6   9  122.19    5.07
  -9   6  -9  119.18    6.19
  -9   7   9   11.67    2.95
   9   7  -9   12.95    2.76
  -9  -7   9    8.86    1.60
  -9   7  -9   15.95    3.10
  -9   8   9    4.52    3.23
   9   8  -9    1.10    2.55
  -9   8  -9    5.90    3.15
  -9  -8   9    1.98    1.74
   9   9  -9    3.27    3.49
  -9   9   9    0.11    3.54
  -9   9  -9   -2.75    3.10
  -9  -9   9   -2.23    2.02
   9   0 -10    7.88    1.26
  -9   0  10    5.40    0.88
  -9   1  10    0.24    0.71
   9  -1  10    0.63    0.95
   9   1 -10   -1.70    0.89
   9  -1  10    0.22    0.40
  -9  -1  10    1.25    0.72
   9  -1 -10   -0.82    0.84
   9  -2  10   45.40    2.04
   9   2 -10   39.75    2.91
  -9   2  10   43.18    2.44
   9  -2  10   47.85    2.75
  -9  -2  10   44.28    2.22
   9  -2 -10   42.10    2.23
  -9   3  10    1.71    1.12
   9   3 -10    2.37    1.56
   9  -3 -10    0.93    0.78
  -9   3 -10   -0.81    1.23
  -9  -3  10    0.60    0.77
   9   4 -10    7.75    1.84
  -9   4  10    4.60    1.62
  -9  -4  10    5.47    1.11
   9  -4 -10    6.65    0.97
  -9   4 -10    5.84    1.74
   9   5 -10    1.78    1.75
  -9   5  10    0.47    1.76
  -9   5 -10    1.06    1.57
  -9  -5  10    3.18    1.14
  -9   6  10   40.97    4.03
   9   6 -10   43.34    3.73
  -9  -6  10   42.38    2.68
   9  -6 -10   39.29    2.14
  -9   6 -10   39.78    3.79
  -9   7  10    1.72    3.52
   9   7 -10    3.05    2.68
  -9  -7  10   -0.42    1.46
  -9   7 -10   -0.46    2.34
   9   8 -10   13.05    3.09
  -9   8  10   12.20    3.50
  -9  -8  10   13.71    2.23
  -9   8 -10   19.30    3.98
  -9   0  11   -0.09    0.70
   9   0 -11    0.21    0.88
   9   1 -11   16.48    2.02
  -9   1  11   18.74    1.59
   9  -1  11   17.92    1.92
   9  -1  11   16.53    1.00
  -9  -1  11   16.88    1.41
   9  -1 -11   19.30    1.82
  -9   2  11   19.06    1.93
   9   2 -11   21.86    2.48
  -9  -2  11   18.36    1.50
   9  -2 -11   19.44    1.63
   9  -3  11    2.83    0.93
   9   3 -11    5.32    1.76
  -9   3  11    5.03    1.38
  -9  -3  11    4.07    1.00
  -9   3 -11    4.43    1.68
   9  -3 -11    5.11    0.89
   9   4 -11    3.54    1.91
  -9   4  11    1.58    1.56
   9  -4 -11    0.97    0.75
  -9   4 -11   -1.34    1.62
  -9  -4  11    0.77    0.97
   9   5 -11   -0.13    1.85
  -9   5  11    2.03    1.92
  -9   5 -11    1.28    1.98
  -9  -5  11    0.96    1.17
   9  -5 -11    2.48    0.84
  -9   6  11   19.55    2.98
   9   6 -11   25.03    3.16
  -9   6 -11   17.74    2.76
  -9  -6  11   26.43    2.52
   9   7 -11    2.96    2.68
  -9   7  11    5.49    3.97
  -9  -7  11   -0.68    1.50
  -9   7 -11   -2.51    2.38
   9   8 -11   25.22    3.94
  -9   8  11   19.61    4.06
  -9  -8  11   27.88    3.11
  -9   8 -11   36.56    5.31
   9   0 -12   25.68    2.11
  -9   0  12   23.21    1.82
  -9   1  12    1.22    0.89
   9   1 -12   -0.32    1.16
   9  -1  12    0.25    0.48
   9  -1 -12   -1.32    0.91
  -9  -1  12    0.43    0.75
  -9   2  12    0.72    1.27
   9  -2  12   -1.29    0.76
   9   2 -12    1.60    1.57
   9  -2 -12    0.54    1.07
  -9  -2  12    2.01    1.02
  -9   2 -12   -0.13    1.30
   9   3 -12    4.06    1.96
   9  -3  12    0.30    0.84
  -9   3  12   -0.82    1.34
  -9  -3  12    0.56    0.93
  -9   3 -12   -0.31    2.33
   9  -3 -12    0.97    0.95
  -9   4  12    7.01    1.93
   9   4 -12    8.53    2.33
   9  -4  12    6.18    1.26
  -9  -4  12    6.10    1.29
  -9   4 -12    6.50    2.22
   9  -4 -12    8.05    1.17
   9   5 -12    2.43    1.98
  -9   5  12    1.58    2.16
  -9   5 -12    7.34    2.49
  -9  -5  12    0.87    1.23
   9   6 -12   26.97    3.90
  -9   6  12   16.98    3.15
  -9  -6  12   24.05    2.45
  -9   6 -12   23.07    3.33
  -9   7  12   13.45    3.79
   9   7 -12   -2.48    2.57
  -9  -7  12    1.15    1.62
  -9   7 -12    1.50    2.92
   9   0 -13   -0.41    1.22
  -9   0  13    0.24    0.86
  -9   1  13    3.71    1.11
   9   1 -13    1.32    1.24
  -9  -1  13    2.22    0.95
   9  -1 -13    0.88    1.15
  -9   2  13   66.89    3.54
   9  -2  13   66.70    2.81
   9  -2 -13   64.38    3.38
  -9   2 -13   68.13    3.96
  -9  -2  13   64.33    3.16
   9  -3  13    9.38    1.18
   9   3 -13   11.18    2.48
  -9   3  13    8.59    1.72
  -9  -3  13   10.19    1.44
  -9   3 -13    5.90    2.08
   9  -3 -13    9.67    1.32
  -9   4  13   79.94    4.64
   9  -4  13   79.08    3.60
   9   4 -13   77.16    5.03
  -9  -4  13   72.66    3.95
   9  -4 -13   77.41    3.54
  -9   4 -13   77.79    4.95
  -9   5  13    7.67    2.63
   9   5 -13    1.06    2.33
   9  -5  13    3.80    1.60
  -9   5 -13    2.38    2.24
  -9  -5  13    4.25    1.40
   9   6 -13   17.12    3.17
   9  -6  13   15.46    2.14
  -9  -6  13   15.79    1.97
  -9   6 -13   18.52    3.58
   9   7 -13    2.39    2.95
   9  -7  13    2.16    2.14
  -9  -7  13    2.55    1.78
  -9   7 -13   -2.10    2.98
  -9   0  14  190.07    7.37
   9   0 -14  193.59    7.90
  -9   1  14    0.05    1.27
  -9  -1  14    0.02    0.97
  -9   1 -14   -0.17    1.36
   9  -1 -14   -0.63    1.28
   9   2 -14   21.97    3.05
  -9   2  14   18.44    2.48
  -9   2 -14   18.24    2.32
  -9  -2  14   21.25    2.04
   9  -2 -14   24.86    2.43
  -9   3  14    2.38    1.86
   9   3 -14    0.80    2.01
  -9   3 -14    0.36    2.12
  -9  -3  14   -0.72    1.12
   9  -3 -14   -0.83    1.15
   9  -4  14    0.46    1.34
   9   4 -14    0.18    2.21
  -9   4  14    2.67    2.26
  -9  -4  14   -2.13    1.17
  -9   4 -14    1.60    2.37
   9   5 -14    0.19    2.50
  -9   5 -14    0.97    2.38
  -9  -5  14    1.04    1.54
   9   6 -14   12.30    3.23
   9  -6  14   10.04    2.02
  -9   6 -14    9.76    3.08
  -9  -6  14    9.30    1.84
  -9   0  15   -2.45    1.19
  -9   0 -15    2.14    1.55
   9   1 -15    3.69    1.64
  -9   1  15    2.08    1.48
  -9   1 -15    3.70    1.81
   9  -1 -15    2.65    1.51
  -9  -1  15    3.85    1.32
   9   2 -15    6.74    1.98
  -9   2  15    5.46    1.73
  -9   2 -15    4.79    2.21
   9  -2 -15    7.23    1.74
  -9  -2  15    4.83    1.30
   9   3 -15   -0.10    1.97
  -9  -3  15    2.95    1.41
  -9   3 -15    2.24    2.10
   9   4 -15   61.31    5.00
  -9  -4  15   69.88    3.71
  -9   4 -15   72.83    5.52
   9   5 -15    3.86    2.68
  -9  -5  15    4.19    1.83
  -9   5 -15   -2.84    2.98
  -9   0  16   13.71    1.88
   9   0 -16   10.86    2.18
  -9  -1 -16    5.05    1.94
   9   1 -16    1.63    1.79
  -9  -1  16    5.44    1.61
   9  -1 -16    5.63    2.46
  -9   1 -16    4.10    2.26
   9   2 -16   -1.48    1.90
   9  -2 -16    7.56    2.02
  -9   2 -16   -0.61    1.96
   9   3 -16    5.59    2.42
  -9   3 -16    7.78    2.95
  -9  -3  16   10.80    1.77
   9   4 -16    5.13    2.83
  -9  -4  16    4.78    1.66
  -9   4 -16    1.99    2.54
   9   0 -17   -2.67    1.78
  -9   0 -17    5.94    2.53
   9   1 -17   -0.48    2.43
  -9   1 -17    0.47    2.04
   9  -1 -17    1.68    2.04
   9   2 -17    1.95    2.12
  -9   2 -17    2.21    2.76
   9   3 -17    1.37    2.27
  -9  -3  17   -4.38    1.61
  -9   3 -17   -0.39    2.37
   9   0 -18   -0.85    2.28
  -9   0 -18   -3.42    3.31
   9   1 -18   -1.90    2.43
  -9   1 -18    1.73    2.85
  10   0   0  359.87   12.60
  10   0   0  361.79   12.64
 -10   0   0  377.98   12.67
 -10   0   0  351.71   12.61
  10  -1   0    0.25    0.25
 -10  -1   0    0.57    0.36
 -10   1   0   -0.22    0.29
  10   1   0    0.10    0.32
  10   1   0    0.49    0.24
 -10   1   0    0.11    0.32
  10  -1   0    0.03    0.31
 -10  -1   0   -0.12    0.23
 -10   2   0    4.02    0.60
  10   2   0    2.25    0.46
 -10  -2   0    3.42    0.41
 -10  -2   0    3.61    0.57
  10  -2   0    3.42    0.64
 -10   2   0    4.37    0.64
  10   2   0    4.06    0.50
 -10  -3   0    0.22    0.35
 -10   3   0    0.49    0.44
 -10  -3   0   -0.03    0.56
 -10   3   0   -0.57    0.74
  10   3   0   -0.05    0.41
 -10  -4   0    1.26    0.75
  10   4   0    0.20    0.50
 -10  -4   0    1.09    0.51
 -10   4   0    2.88    1.03
 -10  -5   0   -1.15    0.56
 -10   5   0    0.59    1.10
 -10   5   0    0.17    0.97
 -10   6   0   36.35    3.06
  10   6   0   39.31    2.35
 -10   6   0   33.58    2.71
  10   7   0   -0.68    1.06
 -10   7   0   -2.28    1.64
 -10   7   0   -2.41    1.40
 -10   8   0    4.05    2.27
 -10   8   0    4.62    2.06
 -10   9   0    1.63    2.80
 -10  10   0    3.59    3.71
 -10   0   1    0.04    0.23
  10   0  -1    0.00    0.28
 -10   0  -1    0.02    0.20
 -10   0   1    0.25    0.33
  10   0  -1   -0.14    0.25
  10   0   1    0.25    0.25
 -10   0  -1   -0.08    0.25
  10   0   1   -0.16    0.25
 -10   1   1    0.75    0.37
 -10  -1  -1    0.27    0.19
 -10   1   1    0.24    0.29
  10   1  -1    0.64    0.31
  10   1  -1    0.19    0.25
  10  -1   1    0.54    0.33
 -10  -1  -1    0.65    0.31
 -10  -1   1    0.53    0.24
  10  -1  -1    0.81    0.35
  10   1   1    0.32    0.26
 -10   1  -1    0.76    0.35
  10   1   1    0.11    0.22
 -10  -1   1    0.32    0.39
  10  -1  -1    0.32    0.27
 -10   1  -1    0.61    0.32
  10   2  -1  149.29    5.50
 -10  -2  -1  144.34    5.28
  10   2  -1  153.56    5.37
 -10  -2  -1  150.29    5.44
  10  -2   1  148.14    5.56
 -10   2   1  153.22    5.64
 -10   2   1  152.04    5.41
 -10  -2   1  147.79    5.34
  10  -2  -1  144.26    5.52
  10   2   1  157.09    5.37
  10  -2  -1  148.95    5.42
  10   2   1  145.85    5.30
 -10  -2   1  144.96    5.57
 -10   2  -1  144.93    5.65
  10   3  -1   28.71    1.57
 -10  -3  -1   28.61    1.30
 -10   3   1   26.90    1.42
 -10   3   1   30.25    1.95
 -10  -3  -1   30.07    1.55
 -10   3  -1   30.33    1.99
  10   3   1   28.88    1.39
 -10  -3   1   29.02    1.70
 -10   4   1    6.08    1.17
  10   4  -1    6.06    0.97
 -10  -4  -1    6.09    0.89
 -10  -4  -1    5.32    0.66
 -10   4  -1    4.24    1.03
 -10  -4   1    4.88    0.66
  10   4   1    5.46    0.76
 -10   5   1   14.13    1.85
 -10   5   1   15.50    2.06
  10   5  -1   21.25    1.77
 -10   5  -1   19.97    2.18
 -10  -5   1   16.56    1.26
  10   5   1   14.30    1.26
 -10   5  -1   17.48    1.89
 -10   6   1   12.26    1.98
  10   6  -1   10.56    1.44
 -10   6   1    9.19    1.46
 -10   6  -1    9.19    1.86
 -10   6  -1    8.69    1.62
 -10  -6   1    8.19    1.16
  10   6   1    9.12    1.08
 -10   7   1   27.50    2.76
  10   7  -1   26.93    2.37
 -10   7   1   27.76    3.06
 -10   7  -1   26.16    3.14
 -10   7  -1   30.00    2.85
  10   7   1   24.87    2.04
  10   8  -1    7.60    1.69
 -10   8   1    8.39    2.52
 -10   8   1    5.52    1.85
 -10   8  -1    6.70    2.61
 -10   8  -1   10.45    2.07
 -10   9   1    2.36    3.09
 -10   9  -1   11.83    3.58
 -10  10   1   10.56    4.48
 -10 -10   1   11.35    2.14
 -10  10  -1    8.71    3.47
  10   0  -2   37.39    1.58
 -10   0  -2   36.61    1.51
 -10   0   2   36.20    1.56
  10   0  -2   38.29    1.64
 -10   0  -2   39.56    1.58
  10   0   2   36.82    1.48
 -10   0   2   37.09    1.70
 -10  -1  -2  142.63    5.10
 -10   1   2  141.83    5.27
  10  -1   2  148.04    5.26
 -10   1   2  144.93    5.32
 -10  -1  -2  129.91    5.18
  10   1  -2  149.21    5.21
  10   1  -2  148.51    5.36
 -10  -1   2  146.76    5.20
 -10  -1   2  148.22    5.42
  10   1   2  146.37    5.09
 -10   1  -2  145.26    5.33
  10  -1  -2  146.11    5.27
  10  -1  -2  145.33    5.26
 -10  -2  -2   84.54    3.11
 -10   2   2   84.24    3.46
  10   2  -2   85.45    3.24
  10   2  -2   84.16    3.43
 -10  -2  -2   85.42    3.23
 -10   2   2   85.56    3.27
  10  -2   2   87.82    3.48
  10   2   2   84.25    3.14
  10  -2  -2   84.70    3.40
 -10  -2   2   86.59    3.53
 -10   2  -2   85.17    3.50
  10  -2  -2   86.17    3.25
 -10  -2   2   89.28    3.23
 -10   3   2   28.19    1.85
 -10  -3  -2   29.44    1.45
  10   3  -2   24.74    1.72
 -10   3   2   26.90    1.39
 -10  -3  -2   24.63    1.24
 -10  -3  -2   29.68    1.56
 -10  -3   2   27.78    1.80
 -10  -3   2   28.13    1.40
  10   3   2   29.61    1.25
 -10   3  -2   28.37    1.94
 -10  -4  -2   36.57    2.35
 -10  -4  -2   31.00    1.73
  10   4  -2   31.03    2.02
 -10   4   2   32.61    2.28
 -10  -4  -2   32.56    1.81
 -10   4   2   32.09    1.60
  10   4   2   34.42    1.47
 -10  -4   2   33.22    1.64
 -10   4  -2   34.68    2.31
  10   5  -2   19.90    1.85
 -10   5   2   20.35    1.72
 -10   5   2   20.17    2.27
 -10  -5  -2   18.97    1.65
 -10   5  -2   19.73    2.13
  10   5   2   18.50    1.13
 -10  -5   2   17.36    1.41
 -10   5  -2   20.33    2.31
  10   6  -2   51.14    2.90
 -10   6   2   43.84    3.23
 -10   6  -2   45.00    3.38
  10   6   2   38.26    1.98
 -10   6  -2   40.18    3.05
 -10  -6   2   43.36    2.31
  10   7  -2    4.15    1.43
 -10   7   2    5.01    1.61
 -10   7   2    5.23    2.12
 -10   7  -2    6.27    1.97
 -10   7  -2    4.58    1.99
 -10  -7   2    3.45    1.14
  10   8  -2   41.16    3.23
 -10   8   2   39.04    4.28
 -10   8  -2   40.76    3.81
 -10   8  -2   32.68    4.06
 -10  -8   2   37.53    2.74
 -10   9   2   14.57    3.23
 -10  -9   2   13.97    2.00
 -10   9  -2   15.53    2.94
 -10   9  -2   15.37    3.17
 -10  10   2    2.36    3.73
 -10 -10   2    3.44    2.06
 -10  10  -2   11.22    3.67
 -10   0  -3   -0.27    0.25
  10   0  -3   -0.02    0.28
  10   0  -3    0.33    0.34
 -10   0   3    0.20    0.44
  10   0   3   -0.22    0.24
 -10   0   3   -0.03    0.25
 -10  -1  -3    3.32    0.43
 -10   1   3    2.66    0.43
  10  -1   3    3.17    0.55
 -10  -1  -3    3.31    0.33
  10   1  -3    4.18    0.54
  10   1  -3    3.98    0.62
 -10   1   3    3.72    0.56
  10   1   3    3.34    0.35
 -10  -1   3    4.10    0.79
  10  -1  -3    2.71    0.42
 -10  -1   3    3.89    0.48
  10  -1  -3    3.00    0.50
 -10   1  -3    2.83    0.51
  10   2  -3   27.53    1.67
 -10   2   3   27.32    1.35
  10  -2   3   26.33    1.62
 -10  -2  -3   27.59    1.24
 -10  -2  -3   28.92    1.11
  10   2  -3   26.44    1.36
 -10   2   3   28.78    1.59
  10  -2  -3   25.94    1.47
 -10  -2   3   25.23    1.66
 -10  -2   3   27.83    1.44
 -10   2  -3   27.19    1.63
  10  -2  -3   28.58    1.33
 -10   3   3   10.94    1.33
 -10  -3  -3    7.64    0.90
  10   3  -3    8.87    1.07
 -10   3   3   10.83    0.85
 -10  -3  -3    8.62    0.80
 -10  -3  -3    9.12    0.63
 -10  -3   3    8.42    0.82
 -10   3  -3    9.07    1.20
  10  -3  -3    8.58    0.81
 -10   4   3  148.97    5.38
 -10   4   3  149.09    5.55
 -10   4   3  141.91    6.04
 -10  -4  -3  147.44    5.36
  10   4  -3  151.99    5.87
 -10  -4  -3  145.87    5.51
 -10  -4  -3  142.32    5.71
 -10   4  -3  145.76    6.04
 -10  -4   3  146.68    5.50
  10   4   3  149.32    5.16
 -10   5   3    2.68    1.33
 -10   5   3    3.17    0.72
 -10  -5  -3    6.14    0.95
 -10   5   3    2.89    0.96
  10   5  -3    4.69    1.20
 -10   5  -3    5.21    1.43
  10   5   3    3.97    0.51
 -10   5  -3    2.46    1.22
 -10  -5   3    3.09    0.75
  10   6  -3   35.53    2.60
 -10   6   3   32.24    2.20
 -10   6   3   36.77    3.28
 -10   6  -3   36.79    2.98
 -10  -6   3   38.51    2.21
 -10   6  -3   41.02    2.89
  10   6   3   33.14    1.52
 -10   7   3    4.53    1.99
 -10   7   3    3.56    1.14
  10   7  -3    3.49    1.55
 -10   7  -3    1.95    1.90
 -10  -7   3    2.07    1.03
 -10   7  -3    5.38    1.83
  10   8  -3   13.47    2.30
 -10   8   3    9.47    2.59
 -10   8  -3   14.84    3.01
 -10   8  -3   14.78    2.74
 -10  -8   3   13.92    1.77
  10   9  -3    3.33    2.27
 -10   9   3    2.41    2.88
 -10  -9   3    4.92    1.60
 -10   9  -3    4.62    2.63
 -10  10   3    3.70    4.03
 -10 -10   3    7.04    2.11
 -10  10  -3    4.05    3.14
 -10   0  -4   94.04    3.38
  10   0   4   94.30    3.28
 -10   0   4   89.98    3.46
 -10   0   4   86.41    3.61
  10   0  -4   92.83    3.45
  10   0  -4   91.50    3.59
  10   1  -4    6.72    0.73
  10  -1   4    6.19    0.84
 -10   1   4    7.03    0.73
 -10  -1  -4    7.13    0.41
 -10   1   4    6.42    0.89
  10   1  -4    7.91    1.06
 -10  -1   4    7.73    0.99
 -10  -1   4    6.39    0.65
  10   1   4    6.89    0.40
  10  -1  -4    8.22    0.81
  10  -1  -4    7.00    0.78
 -10   1  -4    6.71    0.83
 -10   2   4   23.10    1.24
  10  -2   4   24.07    1.49
  10   2  -4   21.53    1.52
 -10   2   4   20.59    1.69
 -10  -2  -4   20.19    1.11
 -10  -2  -4   21.76    0.91
 -10  -2  -4   23.19    1.05
 -10   2  -4   23.42    1.49
 -10  -2   4   22.21    1.19
  10  -2  -4   22.81    1.19
 -10   3   4   18.02    1.58
 -10  -3  -4   15.96    0.93
 -10  -3  -4   14.44    1.19
  10   3  -4   16.05    1.50
 -10   3   4   12.38    1.01
 -10  -3  -4   14.50    0.80
  10  -3  -4   18.55    1.11
 -10  -3   4   15.75    1.07
 -10   3  -4   15.90    1.69
 -10   4   4    8.83    1.36
 -10   4   4   11.74    1.03
 -10  -4  -4   11.52    0.95
  10   4  -4   11.22    1.43
 -10  -4  -4   10.58    1.27
 -10   4   4   10.97    0.92
 -10  -4   4    9.94    1.01
 -10   4  -4    9.32    1.36
  10  -4  -4    9.95    0.98
 -10  -5  -4    5.11    0.91
 -10   5   4    4.50    0.78
 -10   5   4    2.90    0.65
 -10   5   4    4.33    1.51
  10   5  -4    2.22    1.19
 -10  -5   4    2.84    0.74
 -10   5  -4    4.43    1.41
 -10   5  -4    2.36    1.23
 -10   6   4    6.83    1.90
 -10   6   4    9.39    1.22
 -10   6   4    8.85    1.05
  10   6  -4    9.05    1.67
 -10  -6  -4    7.38    1.23
 -10   6  -4    8.38    1.73
 -10   6  -4    8.74    1.87
 -10  -6   4    6.02    1.06
 -10   7   4   12.63    2.78
  10   7  -4    7.79    1.86
 -10  -7   4    8.26    1.56
 -10   7  -4   10.86    2.63
 -10   7  -4    6.96    1.99
  10   8  -4   26.12    3.27
 -10   8   4   28.06    3.58
 -10   8  -4   26.95    3.79
 -10   8  -4   27.56    3.78
 -10  -8   4   34.88    2.69
 -10   9   4   -0.66    2.91
 -10   9  -4    0.56    2.49
 -10  -9   4    5.39    1.95
 -10   9  -4    5.69    2.88
 -10  10   4   -6.81    3.88
 -10 -10   4    1.19    2.12
 -10  10  -4    3.22    3.69
 -10   0   5    0.88    0.61
  10   0  -5   -0.61    0.31
 -10   0   5    0.19    0.42
  10   0   5    0.15    0.24
  10   0  -5    0.34    0.64
 -10   0  -5   -0.19    0.31
 -10   1   5  169.89    5.99
  10   1  -5  151.50    6.12
  10  -1   5  167.23    5.92
 -10  -1   5  147.43    6.15
 -10  -1   5  165.73    5.90
  10  -1  -5  169.32    5.99
 -10   1  -5  167.51    5.96
  10  -1  -5  157.98    5.91
  10  -2   5   32.18    1.92
 -10   2   5   36.32    1.61
 -10  -2  -5   31.73    1.38
  10   2  -5   35.20    1.98
 -10   2   5   29.98    1.83
 -10  -2  -5   31.12    1.39
 -10  -2  -5   32.26    1.24
 -10  -2   5   36.19    1.63
 -10   2  -5   35.80    1.83
  10  -2  -5   33.91    1.59
 -10  -3  -5    4.14    0.62
 -10   3   5    2.24    0.91
 -10  -3  -5    3.24    0.44
 -10   3   5    3.73    0.58
 -10  -3  -5    3.37    0.43
  10   3  -5    4.05    1.00
 -10  -3   5    3.33    0.61
  10  -3  -5    3.79    0.59
 -10   3  -5    3.06    0.93
 -10   4   5  168.89    6.81
  10   4  -5  168.94    6.77
 -10  -4  -5  177.35    6.44
 -10   4   5  162.53    6.08
 -10  -4  -5  169.79    6.15
 -10   4   5  166.91    6.05
  10  -4  -5  170.74    6.21
 -10   4  -5  177.77    6.88
 -10  -4   5  167.12    6.33
 -10  -5  -5    9.13    1.10
 -10   5   5    7.90    0.97
 -10   5   5    8.21    0.74
 -10   5   5    7.03    1.55
  10   5  -5    9.30    1.60
 -10  -5   5    7.87    1.01
 -10   5  -5    7.65    1.66
 -10   5  -5    8.75    1.70
  10   6  -5   14.01    1.93
 -10   6   5   14.34    2.23
 -10  -6  -5   17.27    1.58
 -10   6  -5   14.35    2.27
 -10   6  -5   17.21    2.56
 -10  -6   5   14.08    1.52
  10   7  -5   18.72    2.38
 -10   7   5   16.03    2.72
 -10   7  -5   12.77    2.31
 -10  -7   5   16.84    1.92
 -10   8   5    3.52    2.80
 -10  -8   5    0.29    1.27
 -10   8  -5    1.34    2.18
 -10   8  -5   -0.36    2.30
 -10   9   5    4.37    3.48
  10   9  -5   -0.18    2.29
 -10   9  -5   -0.66    2.61
 -10  -9   5   -1.63    1.60
 -10   9  -5   -0.79    2.42
 -10  10   5   11.86    4.59
 -10 -10   5    9.54    2.17
 -10  10  -5    5.39    3.39
  10   0  -6  320.43   11.82
 -10   0   6  342.56   11.86
 -10   0  -6  328.71   11.44
  10   0   6  339.15   11.39
 -10   0   6  319.12   11.65
  10   1  -6   26.36    1.70
 -10   1   6   27.16    1.48
  10  -1   6   23.85    1.45
 -10   1   6   26.77    1.49
 -10   1  -6   23.73    1.36
  10  -1  -6   27.93    1.55
 -10  -1   6   25.25    1.40
  10   2  -6   11.11    1.30
  10  -2   6    6.95    1.17
 -10   2   6    9.98    1.21
 -10   2   6   10.53    0.90
 -10  -2   6    7.80    0.86
 -10   2  -6   10.74    1.15
  10  -2  -6    7.61    1.28
 -10  -3  -6   25.99    1.07
  10   3  -6   22.47    1.77
 -10  -3  -6   25.33    1.15
 -10  -3  -6   25.97    1.38
 -10   3   6   25.53    1.93
 -10   3   6   27.33    1.19
 -10  -3   6   25.62    1.44
 -10   3  -6   26.10    1.96
  10  -3  -6   26.88    1.42
  10   4  -6    1.59    1.08
 -10  -4  -6    1.59    0.74
 -10  -4  -6    0.44    0.42
 -10   4   6    0.17    1.02
 -10   4  -6    2.38    1.19
 -10  -4   6    1.07    0.63
  10  -4  -6    1.05    0.52
 -10  -5  -6   14.23    1.13
 -10   5   6    9.04    1.67
  10   5  -6   11.65    1.78
 -10  -5   6   11.27    1.18
 -10   5  -6   12.40    1.81
 -10   5  -6   10.12    1.67
  10   6  -6    1.21    1.49
 -10   6   6    5.44    2.01
 -10   6  -6    3.24    1.56
 -10   6  -6    1.45    1.72
 -10  -6   6    3.53    1.06
 -10   7   6    8.47    2.47
  10   7  -6   12.32    2.44
 -10   7  -6   11.42    2.35
 -10  -7   6    9.94    1.45
 -10   7  -6   10.55    2.27
  10   8  -6   22.90    2.97
 -10   8   6   23.10    3.45
 -10   8  -6   21.14    2.99
 -10   8  -6   23.50    3.25
 -10  -8   6   22.15    2.36
  10   9  -6    2.85    2.82
 -10   9   6    1.69    3.23
 -10  -9   6    0.78    1.62
 -10   9  -6    1.61    2.64
 -10   9  -6    1.34    2.68
  10   0   7   -0.12    0.27
 -10   0   7    0.40    0.54
  10   0  -7   -0.23    0.61
 -10   0   7    1.31    0.66
 -10   1   7   67.10    2.78
  10   1  -7   62.71    3.03
 -10   1   7   66.68    2.82
  10  -1   7   63.68    2.77
 -10   1  -7   68.64    2.68
  10  -1  -7   65.69    2.86
 -10  -1   7   67.19    2.73
  10  -2   7   11.63    1.44
 -10   2   7   10.05    1.31
 -10   2   7   10.82    0.88
  10   2  -7    9.71    1.45
 -10  -2   7   11.62    1.03
  10  -2  -7    8.21    1.02
 -10   2  -7    8.80    1.19
 -10  -3  -7   24.72    1.01
 -10   3   7   26.74    1.97
 -10  -3  -7   25.41    1.17
  10   3  -7   23.32    2.11
 -10   3  -7   27.52    1.99
  10  -3  -7   25.53    1.39
 -10  -3   7   25.40    1.53
 -10   4   7   18.15    2.26
  10   4  -7   11.19    1.69
 -10  -4  -7   14.54    0.87
 -10  -4  -7   12.49    1.28
 -10   4  -7   11.45    1.68
 -10   4  -7   16.82    2.15
 -10  -4   7   17.15    1.41
  10  -4  -7   13.06    1.11
 -10  -5  -7    0.21    0.54
  10   5  -7   -1.23    1.38
 -10   5   7   -0.16    1.75
 -10  -5  -7    2.72    0.91
 -10   5  -7   -0.51    1.34
 -10   5  -7   -1.20    1.26
  10  -5  -7    0.07    0.62
 -10  -5   7    1.81    0.87
 -10   6   7   18.32    2.54
  10   6  -7   13.38    2.11
 -10  -6   7   13.81    1.75
 -10   6  -7   14.66    2.19
 -10   6  -7   16.22    2.53
  10   7  -7   13.30    2.41
 -10   7   7    9.65    2.67
 -10   7  -7   16.46    2.75
 -10   7  -7   10.38    2.32
 -10  -7   7    9.72    1.59
 -10   8   7   -3.12    2.58
  10   8  -7   -1.82    2.20
 -10   8  -7   -0.80    2.33
 -10  -8   7    3.15    1.69
 -10   8  -7   -0.72    2.33
  10   9  -7    2.75    2.86
 -10   9   7    2.21    2.97
 -10   9  -7    6.32    2.83
 -10  -9   7    9.76    2.25
 -10   9  -7    0.79    2.80
 -10   0   8  173.20    6.59
 -10   0   8  181.68    6.42
  10   0  -8  164.93    6.61
 -10   1   8   70.49    2.95
  10  -1   8   66.91    2.88
  10   1  -8   62.96    3.14
 -10   1   8   65.19    2.84
  10  -1  -8   72.19    3.00
 -10  -1   8   68.26    2.82
  10   2  -8   36.56    2.37
  10  -2   8   28.21    2.18
 -10   2   8   28.71    1.82
  10  -2  -8   30.23    1.64
 -10   2  -8   28.56    1.79
 -10  -2   8   29.50    1.64
  10   3  -8   47.86    2.87
 -10   3   8   46.73    2.69
 -10  -3   8   47.87    2.25
 -10   3  -8   48.45    2.58
  10  -3  -8   45.38    2.15
  10   4  -8    0.64    1.22
 -10   4   8   -1.12    1.17
 -10  -4  -8    0.33    0.49
 -10  -4  -8    0.67    0.31
 -10  -4  -8    0.74    0.35
  10  -4  -8   -0.45    0.50
 -10   4  -8    0.46    1.10
 -10  -4   8   -0.04    0.73
 -10   4  -8   -0.77    1.22
  10   5  -8   20.47    2.80
 -10   5   8   16.09    2.17
 -10  -5   8   14.91    1.63
  10  -5  -8   14.14    1.25
 -10   5  -8   13.72    2.05
 -10   5  -8   16.49    1.95
 -10   6   8   11.67    2.43
  10   6  -8   15.38    2.34
 -10   6  -8   13.12    2.38
 -10   6  -8   10.19    2.08
 -10  -6   8   14.87    1.90
  10   7  -8   19.16    2.66
 -10   7   8   22.20    3.34
 -10  -7   8   17.33    2.17
 -10   7  -8   20.11    2.68
 -10   7  -8   20.28    2.76
  10   8  -8   10.29    3.17
 -10   8   8   -2.64    2.79
 -10  -8   8    1.07    1.69
 -10   8  -8   -1.30    2.63
 -10   8  -8    4.48    2.74
 -10   9   8   -2.87    3.19
  10   9  -8    3.74    3.01
 -10  -9   8   -0.36    1.82
 -10   9  -8    4.15    2.86
 -10   0   9    1.65    0.94
 -10   0   9   -0.40    0.59
  10   0  -9   -0.42    0.82
  10  -1   9   49.35    1.92
 -10   1   9   44.99    2.18
 -10   1   9   49.36    2.37
  10   1  -9   51.09    2.74
  10  -1   9   46.87    2.38
  10  -1  -9   46.52    2.43
 -10  -1   9   48.65    2.23
  10  -2   9   19.46    2.10
  10   2  -9   17.87    1.84
 -10   2   9   18.36    1.65
 -10  -2   9   18.54    1.34
  10  -2  -9   17.54    1.48
  10   3  -9    9.58    1.49
 -10   3   9    6.15    1.26
 -10  -3   9   10.30    1.24
  10  -3  -9    5.73    0.81
 -10   4   9   23.16    2.48
 -10  -4  -9   24.02    1.04
  10   4  -9   19.88    2.46
 -10  -4  -9   24.28    1.08
 -10  -4  -9   23.31    1.24
  10  -4  -9   25.06    1.49
 -10   4  -9   23.94    2.63
 -10  -4   9   29.02    1.89
 -10   5   9    3.87    1.86
 -10   5  -9    2.95    2.14
  10  -5  -9    2.20    0.73
 -10   5  -9    2.38    1.46
 -10  -5   9    3.62    1.11
 -10   6   9   22.84    2.87
  10   6  -9   18.43    2.70
 -10  -6   9   26.01    2.21
 -10   6  -9   27.08    2.87
 -10   6  -9   22.77    3.51
  10   7  -9    8.40    2.56
 -10   7  -9    8.34    2.53
 -10  -7   9    8.90    1.77
  10   8  -9    1.66    2.63
 -10   8   9    4.11    3.17
 -10  -8   9   -0.52    1.43
 -10   8  -9   -2.53    2.63
 -10   9   9    9.23    3.76
 -10   9  -9    5.64    3.16
 -10  -9   9    3.24    1.99
 -10   0  10   14.42    1.36
  10   0 -10   13.97    1.60
  10   1 -10   16.26    2.04
  10  -1  10   12.36    1.52
 -10   1  10   11.40    1.33
  10  -1  10   10.51    0.81
 -10  -1  10   11.34    1.25
  10  -1 -10   10.15    1.36
  10  -2  10    2.94    1.32
 -10   2  10   -0.12    0.87
  10   2 -10    0.48    1.11
  10  -2 -10    0.12    0.73
 -10  -2  10   -0.01    0.71
 -10   3  10   34.24    2.44
  10   3 -10   32.16    2.75
 -10  -3  10   33.42    1.98
  10  -3 -10   34.85    1.88
 -10   4  10    2.09    1.47
  10   4 -10    3.64    1.57
  10  -4 -10    2.68    0.69
 -10   4 -10    4.70    1.81
 -10  -4  10    1.51    0.93
 -10   5  10   22.16    3.09
  10   5 -10   21.61    2.82
 -10  -5  10   23.86    2.22
 -10   5 -10   24.53    3.26
  10  -5 -10   20.88    1.57
 -10   6  10    3.51    2.38
  10   6 -10    6.40    2.42
 -10   6 -10    5.80    2.61
 -10  -6  10    4.71    1.45
 -10   7  10    0.66    2.84
  10   7 -10   -2.51    2.16
 -10   7 -10    2.92    2.74
 -10  -7  10    0.50    1.43
 -10   8  10    4.16    3.41
  10   8 -10    2.59    2.82
 -10   8 -10    0.06    2.85
 -10  -8  10    0.42    1.77
  10   0 -11   -1.00    0.93
 -10   0  11    0.46    0.80
 -10   1  11    0.14    0.83
  10   1 -11    1.59    1.18
  10  -1  11    0.34    0.41
  10  -1  11    0.41    0.95
 -10  -1  11   -0.24    0.69
  10  -1 -11    0.39    0.91
  10   2 -11    1.39    1.30
 -10   2  11    1.93    1.05
  10  -2 -11    3.80    1.05
 -10  -2  11    3.44    0.89
  10   3 -11    3.06    1.60
 -10   3  11    2.44    1.22
  10  -3 -11    2.73    0.95
 -10   3 -11    1.12    1.45
 -10  -3  11    3.04    1.02
  10   4 -11   15.12    2.21
 -10   4  11   19.49    2.25
 -10  -4  11   22.70    1.93
 -10   4 -11   18.89    2.82
  10  -4 -11   19.11    1.54
  10   5 -11    4.65    2.13
 -10   5  11    5.52    2.15
 -10   5 -11    8.59    2.29
  10  -5 -11    6.00    0.97
 -10  -5  11    9.46    1.49
  10   6 -11    1.51    2.21
 -10   6  11    1.54    2.63
 -10  -6  11    0.24    1.28
 -10   6 -11   -2.18    2.15
  10   7 -11   26.21    3.58
 -10   7  11   20.29    3.67
 -10   7 -11   22.47    3.66
 -10  -7  11   30.99    2.92
  10   8 -11   -2.31    2.93
 -10   8  11    0.34    3.92
 -10  -8  11   -2.14    1.70
 -10   8 -11    6.80    3.41
 -10   0  12   73.95    3.35
  10   0 -12   76.09    3.73
  10  -1  12    6.60    0.75
 -10   1  12    6.26    1.13
  10   1 -12    7.62    1.48
  10  -1 -12    5.15    1.18
 -10  -1  12    6.26    1.11
 -10   2  12    0.08    1.11
  10  -2  12    0.47    0.85
  10   2 -12   -0.65    1.37
 -10  -2  12    0.15    0.84
  10  -2 -12   -0.39    0.94
  10  -3  12   32.68    1.95
 -10   3  12   34.55    2.74
  10   3 -12   34.02    3.11
  10  -3 -12   35.01    2.09
 -10  -3  12   30.99    2.10
 -10   4  12    3.80    1.81
  10  -4  12    5.19    1.32
  10   4 -12    2.38    1.84
 -10  -4  12    3.72    1.17
  10  -4 -12    4.59    0.94
 -10   4 -12    3.50    2.01
  10   5 -12   20.30    2.79
 -10   5  12   14.73    2.68
 -10  -5  12   14.49    1.96
 -10   5 -12   15.49    2.86
 -10   6  12    6.61    3.02
  10   6 -12   -0.69    2.31
 -10  -6  12    6.17    1.65
 -10   6 -12   -0.98    2.14
 -10   7  12   -4.78    3.07
  10   7 -12   -0.33    2.62
 -10  -7  12   -2.98    1.55
 -10   7 -12    1.31    2.83
 -10   0  13    0.42    0.91
  10   0 -13    0.97    1.26
 -10   1  13   19.88    2.02
  10   1 -13   22.21    2.51
 -10  -1  13   20.74    1.75
  10  -1 -13   20.37    2.27
  10   2 -13   -0.62    1.50
 -10   2  13    1.75    1.38
 -10  -2  13    0.28    1.00
 -10   2 -13   -0.42    1.44
  10  -2 -13    2.38    1.10
 -10   3  13    1.57    1.53
  10   3 -13    0.07    1.74
  10  -3  13   -1.13    0.96
 -10  -3  13    1.91    1.11
 -10   3 -13   -1.64    1.78
  10  -3 -13    0.66    0.98
 -10   4  13   22.45    2.66
  10   4 -13   26.10    3.38
  10  -4  13   24.99    2.15
 -10   4 -13   25.30    3.19
 -10  -4  13   26.35    2.35
  10  -4 -13   27.36    2.19
 -10   5  13   -1.34    2.42
  10  -5  13    2.48    1.47
  10   5 -13   -1.70    2.13
 -10  -5  13    1.95    1.42
 -10   5 -13    7.04    2.72
  10  -6  13    1.09    1.87
 -10   6  13    4.54    3.13
  10   6 -13    1.26    2.69
 -10   6 -13   -0.03    2.63
 -10  -6  13   -0.70    1.48
  10  -7  13   13.35    2.65
  10   7 -13    9.96    3.10
 -10   7 -13    8.96    3.38
  10   0 -14   23.23    2.55
 -10   0  14   23.06    2.20
  10   1 -14    1.84    2.00
 -10   1  14    2.67    1.35
 -10  -1  14    2.94    1.22
  10  -1 -14    3.04    1.37
 -10   1 -14    1.84    1.52
 -10   2  14   -0.17    1.48
  10   2 -14   -0.59    1.57
  10  -2 -14    1.50    1.20
 -10  -2  14    1.48    1.16
 -10   2 -14    3.09    1.94
 -10   3  14   30.90    3.23
  10   3 -14   32.49    3.65
 -10   3 -14   40.58    3.81
  10  -3 -14   39.69    2.58
 -10   4  14   -2.62    2.09
  10   4 -14   -0.28    1.96
 -10  -4  14   -1.51    1.20
 -10   4 -14   -4.07    2.17
  10   5 -14   15.14    2.96
  10  -5  14   11.67    1.76
 -10  -5  14   15.21    1.83
 -10   5 -14    9.79    2.99
  10   6 -14    7.54    3.28
 -10  -6  14    5.75    1.78
 -10   6 -14    4.05    3.35
 -10   0  15   -0.60    1.31
  10   0 -15    0.93    1.62
  10   1 -15   21.68    2.82
 -10   1  15   22.03    2.52
 -10   1 -15   21.02    3.14
  10  -1 -15   26.62    2.74
 -10  -1  15   18.12    2.23
  10   2 -15    5.38    1.91
 -10   2  15   -0.35    1.68
 -10  -2  15    0.68    1.21
  10  -2 -15    0.34    1.30
 -10   2 -15    3.35    2.04
  10   3 -15    0.88    1.94
 -10  -3  15   -0.45    1.30
 -10   3 -15   -0.15    2.02
  10   4 -15    1.74    2.36
 -10  -4  15    4.31    1.55
 -10   4 -15    0.59    2.77
  10   5 -15    1.99    2.53
 -10  -5  15    0.76    1.61
 -10   5 -15   -1.64    2.55
  10   0 -16    0.89    1.89
 -10   0  16    5.24    1.71
 -10   0 -16    3.29    2.18
 -10  -1 -16    0.36    1.82
  10   1 -16    1.20    1.91
 -10  -1  16    6.36    1.74
  10  -1 -16    0.42    1.77
 -10   1 -16    2.74    1.99
  10   2 -16    2.56    2.25
 -10   2 -16    2.72    2.35
 -10  -2  16    2.68    1.46
  10  -2 -16   -0.09    1.75
  10   3 -16    1.49    2.27
 -10  -3  16    2.14    1.53
 -10   3 -16    4.62    2.51
  10   4 -16    0.74    2.67
 -10  -4  16   -0.78    1.45
 -10   4 -16    0.23    2.49
  10   0 -17   -3.54    1.98
 -10   0 -17   -4.12    2.07
  10   1 -17    5.28    2.31
 -10   1 -17    4.31    2.46
  10  -1 -17    3.41    2.10
  10   2 -17    2.18    2.63
 -10  -2  17    4.05    1.76
 -10   2 -17    1.39    2.51
  10   3 -17    2.80    2.89
 -10  -3  17   -3.36    1.63
 -10   3 -17    0.97    2.71
  10   0 -18    5.37    2.80
 -11   0   0    1.16    0.37
  11   0   0    0.35    0.28
 -11   0   0    0.56    0.26
  11   1   0    0.18    0.31
 -11   1   0    0.60    0.35
  11   1   0   -0.03    0.30
 -11  -1   0    0.51    0.39
  11  -1   0    0.60    0.34
  11  -1   0    0.26    0.31
 -11  -1   0    0.27    0.22
 -11   1   0    0.54    0.37
 -11   2   0    0.70    0.51
 -11   2   0    0.56    0.40
 -11  -2   0    0.42    0.25
  11   2   0    0.31    0.34
  11   2   0    0.08    0.32
  11  -2   0    0.52    0.48
 -11  -2   0    0.52    0.46
 -11   3   0  318.95   11.53
 -11  -3   0  322.52   11.32
 -11  -3   0  315.81   11.04
 -11   3   0  297.76   11.11
  11   3   0  317.73   11.16
 -11  -4   0   -0.05    0.46
  11   4   0    0.09    0.54
 -11   4   0    0.34    0.89
 -11  -4   0   -0.14    0.83
 -11   5   0   37.40    2.77
  11   5   0   32.32    2.05
 -11  -5   0   34.89    1.86
 -11   5   0   38.52    2.51
 -11  -6   0   -1.00    0.70
 -11   6   0   -1.25    1.32
  11   6   0    0.91    0.96
 -11   6   0   -0.98    1.24
 -11   7   0    2.06    1.62
 -11  -7   0    0.92    1.06
  11   7   0    2.44    1.17
 -11   7   0    0.93    1.71
 -11  -8   0    0.00    1.27
 -11   8   0   -2.56    2.07
 -11   8   0    0.60    1.77
 -11  -9   0   82.59    4.25
 -11   9   0   76.64    6.11
 -11 -10   0    0.08    1.72
 -11  10   0    4.95    3.91
  11   0   1    0.06    0.25
 -11   0   1   -0.05    0.22
 -11   0   1    0.31    0.38
  11   0   1   -0.44    0.29
 -11   0  -1    0.31    0.25
  11   0  -1   -0.22    0.28
  11   0  -1   -0.09    0.29
 -11   0  -1    0.15    0.30
  11   1  -1   26.12    1.20
  11   1  -1   25.73    1.28
 -11  -1  -1   26.51    1.26
 -11   1   1   27.02    1.32
  11  -1   1   27.34    1.29
 -11   1   1   25.79    1.28
 -11  -1  -1   25.41    1.11
 -11   1  -1   26.69    1.27
  11  -1  -1   26.77    1.28
  11   1   1   27.68    1.22
 -11   1  -1   26.29    1.29
  11   1   1   24.91    1.13
 -11  -1   1   22.83    1.37
  11  -1  -1   27.30    1.25
 -11  -1   1   26.49    1.17
 -11   2   1   51.02    2.34
  11  -2   1   50.88    2.27
  11   2  -1   50.43    2.05
 -11  -2  -1   52.66    1.96
 -11   2   1   46.95    2.09
 -11  -2  -1   51.86    2.14
  11   2  -1   48.40    2.16
  11  -2  -1   51.16    2.14
 -11  -2   1   51.23    2.01
 -11  -2   1   49.03    2.28
 -11   2  -1   50.35    2.13
 -11   2  -1   51.77    2.34
  11   2   1   51.00    1.98
  11   2   1   49.33    2.06
  11   3  -1    0.86    0.61
 -11   3   1   -0.11    0.68
 -11  -3  -1    0.72    0.50
 -11  -3  -1    0.44    0.37
 -11   3   1    1.12    0.46
 -11  -3   1    0.00    0.62
 -11  -3   1    0.32    0.42
  11   3   1    0.28    0.41
 -11   3  -1    0.41    0.73
 -11   4   1   -1.74    0.82
 -11  -4  -1   -0.62    0.40
  11   4  -1   -0.19    0.72
 -11  -4  -1    0.91    0.71
  11   4   1    0.54    0.40
 -11  -4   1    0.63    0.54
 -11   4  -1   -0.75    0.93
  11   5  -1   73.44    3.36
 -11   5   1   70.99    3.54
 -11   5   1   75.81    3.92
 -11  -5  -1   71.78    3.09
 -11   5  -1   75.61    3.63
  11   5   1   80.30    3.09
 -11   5  -1   77.65    3.96
 -11  -5   1   75.01    3.14
 -11   6   1    3.67    1.48
 -11   6   1    2.81    1.60
  11   6  -1    3.01    1.07
 -11   6  -1    5.25    1.42
 -11  -6   1    3.83    0.84
 -11   6  -1    6.53    1.78
  11   6   1    3.15    0.87
 -11   7   1    4.26    2.13
 -11   7   1    0.40    1.46
  11   7  -1    1.88    1.21
  11   7   1    1.43    1.51
 -11   7  -1    0.66    1.62
 -11   7  -1    4.11    1.98
 -11  -7   1    0.27    1.02
  11   8  -1    2.54    1.73
 -11   8   1    3.81    2.63
 -11   8   1    0.27    1.80
 -11   8  -1    1.60    2.04
 -11   8  -1    1.88    2.23
 -11  -8   1   -1.59    1.18
 -11   9   1   48.63    5.16
 -11  -9   1   33.63    2.80
 -11   9  -1   28.67    3.79
 -11  10   1    5.31    3.93
 -11 -10  -1   -1.37    1.63
 -11  10  -1   -2.43    3.19
 -11 -10   1    0.05    1.65
 -11   0  -2   74.66    2.76
  11   0   2   75.60    2.72
  11   0  -2   74.82    2.80
  11   0  -2   71.89    2.85
 -11   0   2   71.62    2.81
 -11   0  -2   70.42    2.80
 -11   0   2   73.06    2.92
  11   1  -2   74.30    2.96
 -11   1   2   71.04    2.89
  11  -1   2   74.44    2.87
 -11  -1  -2   72.99    2.70
  11   1  -2   73.91    2.81
 -11   1   2   71.05    2.91
 -11  -1  -2   74.04    2.82
  11  -1  -2   73.08    2.87
 -11  -1   2   72.87    2.81
  11  -1  -2   76.26    2.89
 -11   1  -2   72.91    2.93
  11   1   2   73.86    2.69
 -11  -1   2   75.95    3.03
  11   1   2   75.97    2.79
 -11  -2  -2    2.25    0.32
  11  -2   2    1.89    0.61
  11   2  -2    1.78    0.72
  11   2  -2    1.80    0.44
 -11   2   2    3.00    0.54
 -11  -2  -2    2.22    0.43
 -11   2   2    2.41    0.67
  11  -2  -2    2.54    0.46
 -11  -2   2    2.46    0.73
  11   2   2    3.11    0.41
  11  -2  -2    2.20    0.55
 -11   2  -2    2.53    0.72
 -11  -2   2    2.24    0.41
  11   2   2    2.17    0.39
 -11  -3  -2   67.62    2.96
 -11  -3  -2   75.53    3.08
 -11  -3  -2   74.19    2.78
 -11   3   2   75.75    2.92
 -11   3   2   79.41    3.43
  11   3  -2   65.64    3.15
 -11  -3   2   76.78    2.91
 -11   3  -2   73.54    3.45
  11   3   2   73.72    2.78
 -11   4   2    2.39    1.11
 -11  -4  -2    3.50    0.68
 -11   4   2    2.64    0.61
 -11  -4  -2    2.17    0.56
  11   4  -2    2.05    0.84
  11   4   2    2.09    0.48
 -11  -4   2    1.68    0.56
 -11   4  -2    2.03    1.10
 -11   5   2  129.77    5.57
 -11  -5  -2  141.82    5.19
 -11   5   2  138.36    6.02
 -11  -5  -2  134.71    5.55
  11   5  -2  139.32    5.57
  11   5   2  141.17    5.06
 -11   5  -2  140.44    5.81
 -11  -5   2  134.37    5.26
 -11   5  -2  137.79    6.01
 -11   6   2   31.42    3.02
  11   6  -2   31.99    2.46
 -11   6   2   30.88    2.55
  11   6   2   33.75    1.64
 -11   6  -2   29.64    2.92
 -11  -6   2   31.97    2.02
 -11   6  -2   33.10    2.88
 -11   7   2   14.13    1.83
 -11   7   2    8.66    2.16
  11   7  -2   12.94    1.83
 -11   7  -2   12.55    2.15
 -11   7  -2   13.36    2.07
 -11  -7   2   10.61    1.32
  11   8  -2    5.72    1.96
 -11   8   2    1.38    2.25
 -11   8  -2    1.72    2.46
 -11  -8   2    4.83    1.35
 -11   8  -2    5.52    2.29
 -11   9   2   -0.81    2.65
 -11  -9   2   -1.40    1.42
 -11   9  -2    3.20    2.96
 -11   9  -2    3.48    2.70
 -11  10   2    0.63    3.87
 -11  10  -2   10.85    3.66
 -11 -10   2    5.34    2.20
  11   0   3   -0.10    0.24
 -11   0   3    0.05    0.43
  11   0  -3    0.04    0.34
 -11   0   3   -0.27    0.28
 -11   0  -3    0.16    0.28
  11   0  -3    0.38    0.37
 -11   1   3  150.32    5.54
  11   1  -3  149.22    5.43
 -11  -1  -3  154.59    5.41
  11  -1   3  151.77    5.47
 -11  -1  -3  148.54    5.28
 -11   1   3  161.82    5.56
  11  -1  -3  141.83    5.49
 -11   1  -3  150.41    5.56
  11  -1  -3  149.67    5.48
 -11  -1   3  143.72    5.66
  11   1   3  153.18    5.26
 -11  -1   3  145.95    5.42
 -11   2   3   -0.23    0.43
  11  -2   3    1.27    0.61
 -11  -2  -3    0.23    0.20
 -11   2   3   -0.61    0.64
  11   2  -3    0.05    0.59
 -11  -2  -3   -0.08    0.30
 -11  -2   3    0.05    0.76
  11  -2  -3   -0.27    0.43
 -11   2  -3   -0.47    0.51
 -11  -2   3    0.88    0.45
 -11   3   3   25.16    1.32
 -11  -3  -3   24.56    1.11
 -11  -3  -3   22.84    1.44
 -11  -3  -3   22.42    1.32
  11   3  -3   24.72    1.74
 -11   3   3   24.42    1.77
  11  -3  -3   24.20    1.32
 -11   3  -3   27.83    2.04
 -11  -3   3   24.37    1.32
 -11  -4  -3   38.05    1.71
 -11   4   3   39.18    1.80
  11   4  -3   39.26    2.30
 -11  -4  -3   37.92    1.89
 -11   4   3   36.38    2.45
 -11  -4  -3   40.08    2.14
  11   4   3   37.66    1.52
 -11  -4   3   36.03    1.82
 -11   4  -3   37.73    2.47
 -11   5   3   13.87    1.43
 -11  -5  -3   12.59    1.50
  11   5  -3   13.59    1.79
 -11   5   3   15.18    1.88
 -11   5  -3   14.01    1.96
 -11  -5   3   14.53    1.30
  11   5   3   13.51    0.79
 -11   5  -3   11.31    1.62
  11   6  -3    4.76    1.50
 -11   6   3    6.15    1.76
 -11   6   3    7.72    1.19
 -11   6  -3    6.02    1.68
 -11   6  -3    8.28    1.82
 -11  -6   3    6.52    1.02
  11   6   3    5.98    0.66
  11   7  -3   48.43    3.40
 -11   7   3   53.36    4.26
 -11   7   3   41.72    2.57
 -11   7  -3   42.71    3.52
 -11   7  -3   43.37    4.01
 -11  -7   3   45.72    2.71
  11   8  -3    0.14    1.72
 -11   8   3   -3.88    2.31
 -11   8  -3    0.87    2.31
 -11  -8   3    2.86    1.45
 -11   8  -3   -2.14    1.92
  11   9  -3   34.99    4.65
 -11   9   3   32.50    4.08
 -11   9  -3   29.44    4.19
 -11  -9   3   37.22    3.29
 -11   9  -3   31.35    3.77
 -11  10   3   -6.44    3.91
 -11 -10   3   -0.82    1.95
 -11  10  -3   -3.30    3.17
 -11   0  -4    9.52    0.67
 -11   0   4    9.96    0.80
  11   0  -4    9.40    0.78
  11   0   4    9.83    0.61
 -11   0   4    9.60    1.05
 -11   1   4    5.47    0.77
 -11   1   4    6.28    0.89
 -11  -1  -4    6.38    0.43
 -11  -1  -4    5.71    0.60
  11   1  -4    6.75    0.90
  11  -1   4    5.43    0.68
  11  -1  -4    5.51    0.77
  11  -1  -4    6.51    0.74
  11   1   4    6.74    0.41
 -11  -1   4    5.46    0.89
 -11   1  -4    6.85    0.76
 -11  -2  -4   28.06    1.10
  11  -2   4   28.16    1.68
 -11  -2  -4   27.86    1.25
 -11   2   4   25.57    1.46
  11   2  -4   26.57    1.70
 -11   2  -4   28.53    1.73
 -11  -2   4   28.11    1.39
  11   3  -4  414.93   15.36
 -11  -3  -4  435.38   14.93
 -11  -3  -4  418.71   14.82
 -11   3   4  455.27   15.00
 -11   3   4  426.59   15.39
 -11  -3  -4  418.71   15.04
  11  -3  -4  444.67   15.02
 -11   3  -4  410.64   15.40
 -11  -3   4  430.60   15.04
 -11   4   4   51.99    3.09
  11   4  -4   62.61    2.98
 -11  -4  -4   53.33    2.22
 -11  -4  -4   51.56    2.60
 -11   4   4   54.84    2.43
 -11   4   4   54.35    2.31
 -11  -4  -4   57.76    2.43
 -11   4  -4   48.63    2.95
 -11  -4   4   57.13    2.47
  11  -4  -4   56.57    2.41
 -11   5   4   66.12    2.90
  11   5  -4   69.97    3.54
 -11   5   4   66.01    2.75
 -11  -5  -4   64.14    3.00
 -11   5   4   64.92    3.73
 -11  -5   4   68.62    2.96
 -11   5  -4   64.18    3.63
 -11   5  -4   71.39    3.70
 -11   6   4    0.96    0.77
 -11   6   4   -1.11    1.66
 -11   6   4    0.67    0.65
  11   6  -4    1.44    1.44
 -11  -6  -4    0.00    0.97
 -11  -6   4    0.24    0.75
 -11   6  -4    2.74    1.86
 -11   6  -4    2.24    1.84
  11   7  -4    3.58    1.65
 -11   7   4    3.86    2.14
 -11   7  -4    4.39    3.08
 -11   7  -4    5.86    1.93
 -11   8   4    3.21    2.71
  11   8  -4    1.38    1.95
 -11   8  -4   -0.20    2.43
 -11  -8   4   -0.54    1.14
 -11   9   4   10.56    3.70
  11   9  -4    5.60    3.03
 -11   9  -4    4.45    2.69
 -11   9  -4   10.88    3.33
 -11  -9   4    4.48    1.70
 -11  10   4   11.55    4.61
 -11  10  -4   -1.35    3.19
 -11 -10   4   -1.25    1.84
  11   0   5   -0.14    0.26
 -11   0   5    0.06    0.41
  11   0  -5    0.14    0.58
 -11   0  -5    0.28    0.34
 -11   0   5    0.07    0.63
 -11  -1  -5   10.37    0.54
 -11   1   5   11.76    1.09
 -11   1   5   11.16    1.05
  11   1  -5    9.72    1.17
  11  -1   5    8.37    0.96
 -11  -1   5   11.39    0.93
  11   1   5   10.63    0.47
 -11  -1   5    9.85    1.19
 -11   1  -5   10.32    0.93
  11  -1  -5    9.25    1.01
 -11   2   5   -0.17    0.63
 -11  -2  -5    0.41    0.19
  11   2  -5    0.90    0.75
 -11   2   5    0.61    0.54
  11  -2   5    0.39    0.69
 -11  -2  -5   -0.22    0.28
 -11  -2  -5    0.49    0.37
 -11  -2   5   -0.15    0.42
 -11   2  -5    1.05    0.61
  11  -2  -5   -0.20    0.48
 -11  -3  -5   19.31    1.20
 -11   3   5   17.86    1.63
 -11  -3  -5   18.42    1.01
 -11  -3  -5   17.66    0.85
 -11   3   5   18.66    1.14
  11   3  -5   18.95    1.69
  11  -3  -5   17.08    1.16
 -11   3  -5   17.94    1.65
 -11  -3   5   17.60    1.11
 -11  -4  -5   -0.37    0.38
 -11   4   5    1.32    1.06
 -11  -4  -5    1.21    0.48
  11   4  -5    0.11    1.02
 -11   4   5   -0.14    0.50
 -11  -4  -5    1.01    0.72
 -11   4   5    0.60    0.53
  11  -4  -5    1.07    0.48
 -11   4  -5    0.20    0.94
 -11  -4   5    0.07    0.52
  11   5  -5   -0.01    1.23
 -11   5   5    0.45    0.62
 -11   5   5   -0.65    1.30
 -11   5   5    0.67    0.53
 -11  -5  -5    0.01    0.73
 -11  -5   5    0.27    0.70
 -11   5  -5    4.00    1.42
 -11   5  -5   -0.62    1.30
 -11   6   5    3.03    1.93
  11   6  -5    0.60    1.45
 -11  -6  -5   -0.30    1.08
 -11  -6   5    1.57    0.99
 -11   6  -5    3.30    1.92
 -11   6  -5    0.35    1.41
  11   7  -5   27.59    3.02
 -11   7   5   18.67    2.92
 -11  -7   5   24.27    2.08
 -11   7  -5   25.01    3.55
 -11   7  -5   24.82    3.26
 -11   8   5   -1.34    2.56
  11   8  -5    0.83    2.25
 -11   8  -5   -0.81    2.18
 -11   8  -5    4.93    2.76
 -11  -8   5    0.24    1.27
  11   9  -5    1.47    2.55
 -11   9   5    4.75    3.07
 -11  -9   5    1.18    1.63
 -11   9  -5    1.00    2.56
 -11   9  -5    4.90    2.69
  11   0  -6   95.13    3.85
 -11   0  -6   94.05    3.44
 -11   0   6   94.70    3.66
 -11   0   6   88.75    3.85
  11   0   6   96.81    3.36
  11   1  -6   15.24    1.45
 -11   1   6   16.97    1.26
  11  -1   6   17.05    1.19
 -11   1   6   17.89    1.28
 -11   1  -6   19.28    1.13
 -11  -1   6   16.85    1.10
  11  -1  -6   18.42    1.33
 -11   2   6   10.14    1.26
 -11   2   6   10.01    1.01
  11   2  -6    8.19    1.15
  11  -2   6    8.28    1.21
 -11  -2   6   10.83    0.97
  11  -2  -6    9.67    0.97
 -11   2  -6    9.41    1.08
 -11  -3  -6   17.39    0.82
 -11  -3  -6   17.08    1.14
 -11   3   6   17.92    1.12
  11   3  -6   17.97    1.88
 -11   3   6   20.13    1.72
 -11  -3  -6   18.10    0.97
 -11   3  -6   22.33    1.93
  11  -3  -6   17.60    1.18
 -11  -3   6   17.25    1.24
 -11  -4  -6    0.39    0.38
 -11  -4  -6    0.11    0.80
 -11   4   6    3.14    1.31
  11   4  -6    0.62    1.13
  11  -4  -6    0.57    0.48
 -11   4  -6   -0.58    1.06
 -11  -4   6    1.08    0.67
 -11  -5  -6   10.90    1.27
 -11   5   6   12.90    2.19
  11   5  -6   19.01    2.47
 -11   5  -6   14.35    1.93
 -11   5  -6   19.41    2.47
 -11  -5   6   14.48    1.50
  11  -5  -6   15.82    1.31
  11   6  -6   -0.37    1.57
 -11   6   6   -0.41    1.69
 -11   6  -6    2.11    1.94
 -11  -6   6    2.16    1.01
 -11   6  -6    2.05    1.76
  11   7  -6    7.39    3.79
 -11   7   6   13.61    2.78
 -11  -7   6   10.31    1.47
 -11   7  -6   16.66    2.81
 -11   7  -6    6.57    2.23
 -11   8   6    5.53    2.81
  11   8  -6   10.62    2.51
 -11   8  -6    9.23    2.60
 -11   8  -6    6.90    2.60
 -11  -8   6   10.92    1.88
 -11   9   6    1.76    2.98
  11   9  -6    3.06    2.53
 -11   9  -6    3.77    2.97
 -11   9  -6    2.35    2.78
 -11  -9   6    4.64    1.84
 -11   0   7   -0.23    0.48
  11   0   7    0.67    0.29
 -11   0   7   -1.90    0.81
  11   0  -7   -0.13    0.65
  11   1  -7   22.15    1.74
 -11   1   7   29.66    1.63
 -11   1   7   25.45    1.62
  11  -1   7   28.43    1.52
  11  -1  -7   30.50    1.72
 -11   1  -7   26.63    1.45
 -11  -1   7   25.42    1.44
 -11   2   7    9.76    1.24
  11   2  -7   10.35    1.57
  11  -2   7    8.98    1.17
 -11   2   7    7.87    1.02
 -11   2  -7   10.62    1.14
  11  -2  -7    9.89    1.01
 -11  -2   7   10.46    1.01
 -11   3   7    0.60    0.87
 -11  -3  -7    0.48    0.39
  11   3  -7   -0.03    0.92
 -11  -3  -7    1.25    0.38
 -11  -3  -7    0.58    0.22
  11  -3  -7    1.17    0.61
 -11  -3   7    0.20    0.54
 -11   3  -7    0.21    0.81
 -11   4   7   -0.34    1.13
 -11  -4  -7   -0.03    0.32
 -11  -4  -7    1.29    0.64
 -11  -4  -7    0.46    0.44
  11   4  -7   -0.34    1.04
  11  -4  -7   -0.12    0.61
 -11   4  -7    0.35    0.98
 -11  -4   7    1.06    0.68
  11   5  -7    1.27    1.30
 -11   5   7    5.29    1.65
 -11  -5  -7    3.74    0.76
 -11  -5  -7    2.10    1.09
 -11  -5   7    2.88    0.88
 -11   5  -7    2.31    1.59
  11  -5  -7    2.93    0.72
 -11   5  -7    4.10    1.50
 -11   6   7   16.42    2.51
  11   6  -7   15.64    2.24
 -11   6  -7   15.47    2.27
 -11  -6   7   18.69    1.83
 -11   7   7   25.61    3.44
  11   7  -7   27.90    3.47
 -11   7  -7   26.70    3.42
 -11  -7   7   28.06    2.33
 -11   7  -7   22.12    2.83
  11   8  -7    1.17    2.36
 -11   8   7    2.81    2.75
 -11   8  -7    0.56    2.48
 -11  -8   7   -1.09    1.50
 -11   8  -7   -3.03    2.37
 -11   9   7   -5.37    3.25
  11   9  -7    2.06    3.06
 -11   9  -7   -4.35    2.59
 -11  -9   7    1.77    2.01
 -11   9  -7    1.50    2.88
 -11   0   8    5.76    0.81
  11   0  -8    6.08    1.02
 -11   1   8   24.52    1.56
  11   1  -8   22.10    1.94
 -11   1   8   23.11    1.63
  11  -1   8   24.87    1.59
  11  -1  -8   22.60    1.58
 -11  -1   8   24.63    1.41
  11   2  -8   29.31    2.13
 -11   2   8   28.76    1.91
  11  -2   8   26.19    2.25
 -11   2   8   31.33    1.45
 -11  -2   8   29.68    1.64
 -11   2  -8   29.78    1.81
  11  -2  -8   31.27    1.72
  11   3  -8   39.59    2.63
 -11   3   8   37.47    2.35
  11  -3  -8   36.09    1.89
 -11  -3   8   41.41    2.03
 -11   3  -8   34.58    2.25
 -11  -4  -8    1.29    0.55
 -11   4   8    0.64    1.33
  11   4  -8    0.71    1.28
 -11  -4  -8    0.70    0.40
 -11  -4  -8    1.11    0.35
 -11   4  -8    1.09    1.03
  11  -4  -8   -0.11    0.60
 -11  -4   8    0.85    0.74
 -11   4  -8    1.13    1.45
 -11  -5  -8    2.89    0.57
  11   5  -8    1.31    1.57
 -11   5   8    1.91    1.69
 -11  -5   8    2.72    1.00
 -11   5  -8    1.29    1.31
  11  -5  -8    1.48    0.74
 -11   5  -8    0.72    1.39
  11   6  -8   20.92    3.09
 -11   6   8   27.81    3.66
 -11   6  -8   24.71    3.23
 -11  -6   8   23.28    2.08
 -11   6  -8   26.53    3.06
  11   7  -8    3.72    2.30
 -11   7  -8    0.13    2.00
 -11   7  -8    1.70    1.89
 -11  -7   8    0.37    1.23
  11   8  -8   -5.83    2.36
 -11   8   8    3.09    3.27
 -11   8  -8    2.63    2.27
 -11   8  -8   -4.52    2.41
 -11  -8   8   -1.56    1.45
 -11   9   8   -0.45    3.56
  11   9  -8    0.60    2.81
 -11   9  -8   -1.14    2.77
 -11  -9   8   -3.26    1.74
 -11   9  -8    0.76    3.04
 -11   0   9   -0.89    0.55
  11   0  -9   -0.77    0.79
 -11   1   9   11.79    1.35
  11   1  -9   12.36    1.61
  11  -1   9   12.49    1.38
 -11   1   9   13.82    1.38
 -11  -1   9   14.46    1.23
  11  -1  -9   12.56    1.39
  11   2  -9    1.00    1.11
  11  -2   9    2.39    1.14
 -11   2   9    0.66    0.86
  11  -2  -9    1.79    0.70
 -11  -2   9    1.75    0.72
  11   3  -9   21.19    2.36
 -11   3   9   20.72    2.08
 -11  -3   9   16.92    1.44
  11  -3  -9   16.10    1.38
 -11  -4  -9    1.39    0.30
 -11   4   9    1.12    1.39
  11   4  -9    2.10    1.51
 -11  -4   9    0.21    0.84
 -11   4  -9    0.36    1.43
  11  -4  -9    1.97    0.72
 -11   4  -9    1.25    1.17
  11   5  -9   20.21    2.85
 -11   5   9   21.18    2.90
 -11  -5  -9   20.45    1.13
 -11   5  -9   23.57    2.55
  11  -5  -9   18.91    1.47
 -11   5  -9   18.23    2.42
 -11  -5   9   19.57    1.85
  11   6  -9    7.64    2.11
 -11   6   9   11.67    2.62
 -11   6  -9    4.67    2.28
 -11   6  -9    7.02    2.01
  11  -6  -9    8.62    1.14
 -11  -6   9    8.88    1.43
  11   7  -9    6.18    2.37
 -11   7   9    7.81    2.78
 -11   7  -9    6.93    2.34
 -11   7  -9    5.95    2.36
 -11  -7   9    9.98    1.78
  11   8  -9    0.71    2.62
 -11   8   9    3.89    3.57
 -11  -8   9    5.21    1.82
 -11   8  -9   -2.41    2.71
 -11   0  10    1.34    0.74
  11   0 -10    0.75    0.93
  11  -1  10    8.82    1.17
  11   1 -10    9.69    1.47
  11  -1  10    9.17    0.79
 -11   1  10    9.51    1.15
 -11  -1  10   10.34    1.25
  11  -1 -10   10.22    1.41
  11  -2  10   12.33    1.55
  11   2 -10   12.77    1.75
 -11   2  10    9.89    1.33
 -11  -2  10   12.63    1.29
  11  -2 -10   14.44    1.56
  11   3 -10    2.58    1.54
 -11   3  10    2.31    1.33
  11  -3 -10    0.73    0.70
 -11  -3  10    1.33    0.92
 -11   4  10    6.51    1.72
  11   4 -10    5.41    2.62
 -11  -4  10    3.89    1.04
  11  -4 -10    5.76    0.97
 -11   4 -10    2.67    1.81
 -11   5  10   11.65    2.22
  11   5 -10   11.28    2.24
  11  -5 -10   13.83    1.38
 -11   5 -10   11.65    2.22
 -11   6  10    1.90    2.27
  11   6 -10   -2.93    1.99
 -11  -6  10   -0.32    1.23
  11  -6 -10   -1.16    0.84
 -11   6 -10    2.89    2.36
 -11   7  10   -0.60    2.70
  11   7 -10    0.34    2.31
 -11  -7  10    3.47    1.52
 -11   7 -10    2.48    2.43
 -11   8  10    0.33    3.47
  11   8 -10    6.74    3.53
 -11   8 -10   -3.17    2.96
 -11  -8  10   -2.75    1.67
 -11   0  11    1.21    0.91
  11   0 -11    1.25    1.16
 -11   1  11    7.28    1.12
  11   1 -11    6.17    1.43
  11  -1  11    5.88    0.73
  11  -1 -11    5.13    1.19
 -11  -1  11    6.15    0.97
 -11   2  11   14.12    1.84
  11  -2  11   14.79    1.68
  11   2 -11   19.33    2.59
  11  -2 -11   18.99    1.70
 -11  -2  11   19.04    1.64
  11   3 -11    3.25    1.61
 -11   3  11    4.97    1.53
  11  -3 -11    3.24    0.91
 -11  -3  11    2.85    0.94
  11   4 -11    1.03    1.71
 -11   4  11    1.82    1.77
 -11   4 -11   -0.49    1.72
  11  -4 -11    0.33    0.71
 -11  -4  11   -0.48    1.01
 -11   5  11    8.72    2.46
  11   5 -11   10.20    2.65
  11  -5 -11    8.40    1.04
 -11  -5  11    7.87    1.42
 -11   5 -11    9.75    2.69
 -11   6  11    1.83    2.43
  11   6 -11   -1.51    2.04
 -11  -6  11    0.35    1.31
 -11   6 -11    3.59    2.77
 -11   7  11   -3.75    2.90
  11   7 -11    1.31    2.46
 -11   7 -11    2.44    2.82
 -11  -7  11    0.72    1.55
  11   8 -11    7.51    3.44
 -11   8  11   -2.84    3.68
 -11  -8  11    5.16    2.16
 -11   8 -11    1.15    3.10
 -11   0  12    6.78    1.12
  11   0 -12    6.18    1.46
  11  -1  12    2.02    0.49
  11   1 -12    3.14    1.29
 -11   1  12    1.76    0.98
 -11  -1  12    1.73    0.95
  11  -1 -12    1.25    1.08
  11   2 -12    8.46    2.07
  11  -2  12    4.19    1.29
 -11   2  12    3.86    1.21
 -11  -2  12    5.40    1.11
  11  -2 -12    5.11    1.09
  11  -3  12   37.39    2.18
  11   3 -12   36.57    3.19
 -11   3  12   37.85    3.02
  11  -3 -12   39.32    2.33
 -11   3 -12   36.77    3.30
 -11  -3  12   40.49    2.47
  11   4 -12   -1.75    1.77
 -11   4  12   -0.99    1.80
 -11   4 -12   -3.43    1.71
  11  -4 -12    0.85    0.91
  11   5 -12    6.58    2.56
 -11   5  12    7.46    2.49
 -11   5 -12    4.56    2.34
 -11  -5  12    6.99    1.41
  11  -5 -12    6.45    1.31
 -11   6  12    0.77    2.65
  11   6 -12   -1.25    2.37
 -11   6 -12    2.08    2.41
 -11  -6  12    1.07    1.40
  11   7 -12    8.23    3.09
 -11   7  12    4.32    3.47
 -11   7 -12   17.13    3.74
 -11  -7  12    8.57    1.90
 -11   0  13   -0.11    0.92
  11   0 -13   -1.08    1.36
  11   1 -13   34.29    2.75
 -11   1  13   31.07    2.36
 -11  -1  13   29.87    2.09
  11  -1 -13   30.22    2.48
 -11   2  13   15.76    1.95
  11   2 -13   18.19    2.58
 -11  -2  13   17.38    1.88
  11  -2 -13   13.85    2.07
 -11   3  13    6.28    1.68
  11  -3  13    4.96    1.09
  11   3 -13    4.69    2.02
 -11  -3  13    3.35    1.18
 -11   3 -13    6.39    2.24
  11  -3 -13    6.10    1.24
  11  -4  13    1.34    1.30
 -11   4  13    0.17    2.08
  11   4 -13    1.90    1.99
 -11  -4  13   -0.63    1.28
  11  -4 -13   -0.53    1.04
 -11   4 -13   -2.36    2.08
  11   5 -13   10.41    2.95
  11  -5  13    1.39    1.66
 -11   5  13    2.93    2.72
 -11  -5  13    1.53    1.38
 -11   5 -13    2.61    2.58
  11   6 -13    2.36    2.59
 -11   6 -13    4.72    2.75
 -11  -6  13    1.17    1.51
  11   7 -13    7.34    3.13
 -11   7 -13   10.34    3.91
 -11  -7  13   13.44    2.18
 -11   0  14    4.33    1.34
  11   0 -14    1.71    1.59
  11   1 -14    3.30    1.50
 -11   1  14    3.05    1.43
 -11  -1  14    2.14    1.20
  11  -1 -14    2.54    1.42
 -11   2  14    0.81    1.58
  11   2 -14    2.27    2.00
  11  -2 -14    1.98    1.48
 -11  -2  14    0.07    1.10
 -11   2 -14    2.13    1.66
 -11   3  14   11.02    2.08
  11   3 -14   13.34    2.67
 -11  -3  14   11.19    1.64
 -11   3 -14    9.70    2.31
  11  -3 -14    8.55    1.52
  11   4 -14    3.56    2.58
 -11   4  14   -3.96    2.24
 -11   4 -14    0.04    2.40
 -11  -4  14    1.71    1.38
  11   5 -14   21.90    3.60
 -11   5 -14   19.66    3.58
 -11  -5  14   15.64    1.92
  11   6 -14   11.96    3.17
  11  -6  14   10.12    2.53
 -11   6 -14    4.75    3.09
 -11  -6  14    8.32    2.04
  11   0 -15    0.15    1.84
 -11   0  15   -0.79    1.32
 -11   1  15    2.35    1.54
  11   1 -15    3.85    1.84
 -11  -1  15    3.12    1.39
 -11   1 -15    4.60    1.82
  11  -1 -15    3.58    1.59
  11   2 -15   -1.66    1.78
 -11   2  15   -1.54    1.70
 -11   2 -15    1.94    1.91
  11  -2 -15    2.06    1.70
  11   3 -15    4.90    2.78
 -11   3  15   -0.78    2.30
 -11  -3  15   -0.06    1.42
 -11   3 -15   -2.06    2.14
  11   4 -15   13.86    3.37
 -11   4 -15    4.50    2.87
 -11  -4  15    5.81    1.61
  11   5 -15    1.10    3.03
 -11  -5  15   -1.22    1.39
 -11   5 -15    2.12    2.85
  11   0 -16   26.64    3.58
 -11   0 -16   27.18    3.28
 -11   0  16   30.10    2.94
  11   1 -16   -0.07    1.80
 -11   1  16    0.77    1.75
 -11   1 -16    3.98    2.17
 -11  -1  16    2.34    1.88
  11  -1 -16    2.43    1.87
  11   2 -16    2.39    2.09
 -11   2 -16    2.16    2.12
 -11  -2  16    0.43    1.39
  11   3 -16   10.65    2.76
 -11   3 -16    7.22    2.60
 -11  -3  16    8.32    1.81
  11   4 -16    3.24    2.98
 -11   4 -16    6.84    3.46
 -11  -4  16    0.34    1.62
  11   0 -17    0.74    1.91
 -11   0 -17   -1.31    1.98
  11   1 -17   16.77    2.71
  11  -1 -17   19.03    2.74
 -11   1 -17   15.74    2.74
  11   2 -17    0.63    2.34
 -11  -2  17    5.36    1.81
 -11   2 -17   -4.15    2.34
  11   3 -17    5.10    2.68
 -11  -3  17    6.01    1.82
 -11   3 -17    5.07    3.18
 -12   0   0   61.99    2.41
  12   0   0   61.41    2.39
  12   0   0   60.44    2.43
 -12   0   0   62.66    2.49
 -12  -1   0   -0.35    0.23
  12  -1   0   -0.22    0.38
  12   1   0    0.30    0.33
 -12   1   0   -0.38    0.34
 -12  -1   0   -0.13    0.38
  12   1   0    0.15    0.27
 -12   1   0    0.17    0.33
  12  -1   0   -0.15    0.37
 -12  -2   0   28.16    1.23
  12  -2   0   25.58    1.50
 -12  -2   0   26.85    1.49
 -12   2   0   27.79    1.37
 -12   2   0   25.88    1.60
  12   2   0   28.20    1.29
  12   2   0   27.26    1.41
  12   3   0    0.39    0.49
 -12   3   0    0.99    0.74
 -12  -3   0    0.91    0.63
 -12  -4   0   50.10    2.21
  12   4   0   52.30    2.42
 -12   4   0   50.68    2.90
 -12   5   0   -0.49    1.12
 -12   5   0   -1.74    0.96
 -12  -5   0   -0.18    0.54
  12   5   0   -0.91    0.79
 -12   6   0   25.99    2.54
 -12  -6   0   30.53    1.85
  12   6   0   26.67    2.05
 -12   6   0   30.82    3.23
 -12   7   0   -0.57    1.50
 -12   7   0    1.87    1.94
  12   7   0    0.34    1.13
 -12  -7   0   -1.06    0.89
 -12  -8   0   -1.46    1.14
 -12   8   0    1.31    2.45
 -12   8   0    0.24    2.01
 -12   9   0    2.88    3.33
 -12  -9   0    0.49    1.31
 -12  10   0    7.85    4.28
 -12 -10   0   -0.87    1.65
 -12   0   1    0.48    0.42
  12   0  -1   -0.18    0.32
 -12   0  -1    0.06    0.31
  12   0   1   -0.10    0.27
  12   0  -1    0.07    0.33
 -12   0   1   -0.01    0.28
 -12   0  -1   -0.15    0.23
  12   0   1   -0.09    0.31
 -12  -1  -1  200.21    6.96
 -12   1   1  189.16    7.09
 -12  -1  -1  202.14    7.09
  12   1  -1  200.50    7.12
  12   1  -1  202.36    7.01
  12  -1   1  203.25    7.08
 -12   1   1  201.32    7.16
 -12   1  -1  196.53    7.15
 -12  -1   1  199.94    7.01
  12   1   1  167.81    6.99
  12   1   1  203.61    6.95
  12  -1  -1  202.81    7.09
 -12  -1   1  192.76    7.17
 -12   1  -1  206.00    7.09
  12  -1  -1  191.04    7.07
  12   2  -1    9.29    0.93
 -12   2   1    9.51    0.82
  12  -2   1    8.15    1.04
 -12  -2  -1    9.87    0.89
 -12   2   1    7.18    1.08
  12   2  -1    9.35    0.75
 -12  -2  -1    8.86    0.61
 -12   2  -1    8.24    1.14
 -12  -2   1    9.51    0.68
  12   2   1    7.96    0.69
  12  -2  -1    8.00    0.82
  12   2   1   10.03    0.78
  12  -2  -1    7.66    0.95
 -12   2  -1    7.17    0.83
 -12  -2   1    9.04    0.97
 -12  -3  -1    6.99    0.68
  12   3  -1    5.68    0.97
 -12  -3  -1    6.62    0.85
 -12   3   1    8.21    0.87
 -12   3   1    5.05    0.98
 -12   3  -1    7.08    1.12
  12   3   1    8.43    0.77
 -12  -3   1    7.52    0.79
 -12  -3   1    6.74    0.96
  12   4  -1   14.46    1.39
 -12  -4  -1   13.99    1.43
 -12  -4  -1   14.16    1.07
 -12   4   1   14.03    1.64
  12   4   1   16.22    1.06
 -12  -4   1   13.51    1.03
 -12   4  -1   19.29    1.97
 -12  -5  -1   13.87    1.16
  12   5  -1   17.91    1.71
 -12   5   1   18.17    2.26
 -12   5   1   11.29    1.74
 -12  -5   1   12.42    1.15
  12   5   1   12.88    1.24
 -12   5  -1   15.59    1.90
 -12   5  -1   11.96    1.81
 -12   6   1    8.44    1.53
 -12  -6  -1    8.96    1.06
  12   6  -1    9.28    1.40
 -12   6   1    8.18    1.93
 -12   6  -1    8.42    1.81
 -12  -6   1    9.58    1.28
  12   6   1    9.93    1.51
 -12   6  -1    8.18    1.66
 -12  -7  -1    0.36    0.88
  12   7  -1    1.13    1.42
 -12   7   1   -0.50    1.46
 -12   7   1   -0.36    1.84
 -12   7  -1   -0.80    1.80
 -12  -7   1    2.20    1.18
 -12   7  -1    0.45    1.50
  12   8  -1   -1.16    1.60
 -12   8   1   -2.47    1.80
 -12   8   1   -1.37    2.13
 -12   8  -1   -0.39    2.02
 -12   8  -1   -2.45    1.94
 -12  -8   1    1.49    1.20
 -12  -9  -1    2.45    1.51
 -12   9   1   -1.74    2.66
 -12  -9   1    1.48    1.49
 -12   9  -1    0.23    2.94
 -12  10   1   -2.10    3.85
 -12 -10  -1    1.65    1.55
 -12  10  -1   -3.10    3.58
 -12 -10   1    3.50    2.09
 -12   0   2   70.91    2.99
  12   0  -2   74.63    2.88
 -12   0  -2   77.97    2.90
 -12   0   2   73.26    2.89
 -12   0  -2   72.62    2.83
  12   0   2   76.83    2.80
  12   0  -2   76.59    2.98
 -12  -1  -2   12.76    0.81
 -12   1   2   14.38    0.97
 -12   1   2   12.46    0.90
  12  -1   2   12.50    0.93
 -12  -1  -2   12.13    0.68
  12   1  -2   11.33    0.82
  12  -1  -2   12.77    0.93
 -12   1  -2   11.57    0.91
  12   1   2   12.33    0.70
 -12   1  -2   12.90    0.88
  12  -1  -2   13.43    0.88
  12   1   2   13.11    0.80
 -12  -1   2   12.78    0.79
 -12  -1   2   12.58    1.05
 -12   2   2   17.76    1.18
  12   2  -2   19.46    1.18
 -12  -2  -2   17.42    0.87
 -12  -2  -2   17.00    1.05
  12  -2   2   16.94    1.41
  12   2  -2   17.21    1.30
 -12   2   2   18.15    1.43
  12   2   2   17.21    0.97
 -12   2  -2   18.19    1.33
  12  -2  -2   18.17    1.11
  12   2   2   17.26    0.93
 -12  -2   2   18.13    1.39
  12   3  -2    9.70    1.24
 -12   3   2   10.24    1.21
 -12  -3  -2   11.84    1.03
 -12  -3  -2   10.48    0.74
 -12   3   2   11.40    0.96
  12   3   2   11.70    0.74
 -12   3  -2   11.30    1.51
  12  -3  -2   11.38    1.04
 -12  -3   2   10.91    0.89
  12   4  -2   12.55    1.45
 -12  -4  -2   13.17    0.99
 -12   4   2    9.01    1.31
 -12  -4  -2   12.88    1.26
  12   4   2   12.25    0.93
 -12   4  -2   15.37    1.85
 -12  -4   2   12.08    1.02
  12   5  -2    9.26    1.35
 -12  -5  -2    9.65    1.05
 -12   5   2    6.78    1.50
 -12   5   2    8.39    1.51
 -12   5  -2    8.49    1.62
  12   5   2    8.81    0.95
 -12  -5   2    8.94    1.16
 -12   5  -2    8.91    1.49
  12   6  -2   33.81    2.58
 -12   6   2   35.96    3.21
 -12   6   2   31.67    2.62
 -12  -6  -2   30.93    1.81
 -12  -6   2   28.12    1.85
 -12   6  -2   29.38    2.96
 -12   6  -2   26.70    2.79
  12   6   2   30.92    1.65
  12   7  -2    2.23    1.42
 -12  -7  -2    2.94    1.04
 -12   7   2    2.58    1.98
 -12   7   2    1.03    1.47
 -12   7  -2    0.19    1.74
 -12  -7   2    3.34    1.08
 -12   7  -2    2.12    2.02
 -12   8   2    1.27    2.52
  12   8  -2    2.72    1.70
 -12  -8  -2    0.79    1.21
 -12   8  -2    3.84    2.61
 -12  -8   2    2.72    1.47
 -12   8  -2    4.34    2.15
 -12  -9  -2    4.90    1.49
 -12   9   2    2.76    2.83
 -12  -9   2    7.24    1.76
 -12   9  -2    7.82    3.17
 -12   9  -2    1.86    2.61
 -12 -10  -2    4.27    1.77
 -12  10   2   -3.74    3.72
 -12 -10   2    2.79    1.91
 -12  10  -2   -1.43    3.20
  12   0   3   -0.16    0.30
 -12   0  -3   -0.18    0.29
 -12   0  -3    0.21    0.34
  12   0  -3    0.19    0.36
 -12   0   3    0.06    0.50
 -12   0   3    0.16    0.31
  12   1  -3  130.33    5.11
  12   1  -3  126.52    4.89
 -12   1   3  133.50    5.07
  12  -1   3  130.33    4.93
 -12   1   3  145.08    5.06
 -12  -1  -3  133.10    4.89
 -12  -1  -3  135.88    4.77
  12  -1  -3  131.32    4.97
 -12  -1   3  137.79    5.19
 -12  -1   3  132.04    4.94
 -12   1  -3  141.67    5.05
  12   1   3  134.04    4.74
  12  -2   3   38.74    2.05
 -12   2   3   37.49    2.01
 -12  -2  -3   37.12    1.68
 -12   2   3   41.22    1.87
 -12  -2  -3   39.87    1.53
  12   2  -3   39.42    2.01
  12  -2  -3   41.73    1.83
 -12  -2   3   38.65    1.74
 -12   2  -3   36.14    2.03
  12   3  -3   35.58    1.99
 -12  -3  -3   32.70    1.68
 -12  -3  -3   28.71    1.60
 -12   3   3   31.54    1.59
 -12  -3  -3   31.27    1.37
 -12   3   3   33.03    2.12
  12   3   3   32.37    1.36
 -12  -3   3   32.75    1.57
  12  -3  -3   32.56    1.61
 -12   3  -3   31.21    2.09
  12   4  -3    4.61    1.00
 -12   4   3    5.32    0.77
 -12  -4  -3    4.65    0.71
 -12   4   3    6.08    1.25
 -12  -4  -3    4.01    0.83
 -12  -4  -3    6.55    1.06
  12   4   3    5.78    0.59
 -12   4  -3    5.55    1.30
 -12  -4   3    5.07    0.76
 -12   5   3   55.52    2.73
 -12  -5  -3   55.24    2.78
 -12  -5  -3   55.30    2.42
 -12   5   3   56.23    3.48
  12   5  -3   56.45    3.07
  12   5   3   54.23    2.15
 -12   5  -3   61.02    3.62
 -12  -5   3   57.49    2.59
 -12   5  -3   55.94    3.25
 -12   6   3   47.24    3.54
 -12  -6  -3   48.72    2.30
  12   6  -3   44.73    3.01
 -12   6   3   48.89    2.73
 -12   6  -3   46.27    3.38
 -12  -6   3   45.11    2.40
  12   6   3   44.15    1.85
 -12   6  -3   51.26    3.80
 -12   7   3    1.42    1.12
  12   7  -3    0.61    1.45
 -12   7   3   -1.00    2.05
 -12   7  -3   -0.79    2.15
 -12   7  -3    1.50    2.13
 -12  -7   3   -0.27    0.96
  12   8  -3   -1.54    1.75
 -12   8   3    4.29    2.99
 -12   8  -3    1.59    2.14
 -12   8  -3   -0.56    2.27
 -12  -8   3   -1.53    1.14
 -12  -9  -3   -1.35    1.42
 -12   9   3    7.63    3.56
 -12   9  -3   -1.18    2.75
 -12  -9   3   -3.04    1.44
 -12   9  -3    0.98    2.44
 -12 -10  -3    2.56    1.75
 -12  10   3    9.18    4.48
 -12  10  -3    4.81    3.55
 -12   0   4   90.86    3.81
 -12   0   4   85.93    3.77
  12   0   4   98.20    3.44
  12   0  -4  105.78    3.81
 -12   0  -4   93.14    3.52
  12  -1   4  117.46    4.35
 -12   1   4  105.19    4.45
 -12   1   4  113.75    4.46
  12   1  -4  118.48    4.58
 -12  -1  -4  118.75    4.29
 -12  -1  -4  115.08    4.14
  12  -1  -4  124.63    4.45
 -12  -1   4  116.18    4.36
 -12   1  -4  117.11    4.44
 -12  -1   4  117.67    4.64
  12   1   4  116.38    4.10
  12  -2   4   40.87    2.06
 -12   2   4   39.95    1.88
 -12  -2  -4   39.85    1.53
 -12   2   4   39.47    2.06
 -12  -2  -4   41.57    1.70
  12   2  -4   39.03    2.10
 -12   2  -4   42.35    2.10
 -12  -2   4   38.81    1.80
  12  -2  -4   37.72    1.83
  12   3  -4   15.89    1.56
 -12   3   4   15.90    1.09
 -12   3   4   16.37    1.55
 -12  -3  -4   15.00    0.80
 -12  -3  -4   13.87    0.99
 -12  -3  -4   11.75    1.21
 -12   3  -4   13.59    1.76
  12  -3  -4   15.87    1.13
 -12  -3   4   15.76    1.10
 -12  -4  -4    2.95    0.87
 -12  -4  -4    2.75    0.48
 -12   4   4    2.96    0.67
 -12  -4  -4    2.72    0.69
  12   4  -4    3.47    1.08
 -12   4   4    2.84    1.18
 -12   4  -4    3.70    1.24
  12  -4  -4    3.26    0.66
 -12  -4   4    2.95    0.70
 -12  -5  -4   27.29    1.49
 -12  -5  -4   25.18    1.80
 -12   5   4   26.72    2.63
 -12   5   4   27.51    1.59
  12   5  -4   27.09    2.23
 -12   5   4   29.69    1.75
 -12  -5   4   26.36    1.66
 -12   5  -4   25.86    2.46
 -12   5  -4   28.60    2.64
  12   6  -4    2.67    1.35
 -12  -6  -4    2.71    0.80
 -12   6   4    2.64    0.93
 -12   6   4    3.27    1.96
 -12   6   4    2.78    0.96
 -12  -6   4    3.90    1.00
 -12   6  -4    1.97    1.63
 -12   6  -4    4.15    1.71
 -12   7   4    8.73    2.41
  12   7  -4    6.39    1.93
 -12   7  -4   11.03    2.45
 -12  -7   4    8.93    1.62
 -12   8   4    6.67    2.72
  12   8  -4    3.95    2.07
 -12   8  -4    3.57    2.28
 -12  -8   4    3.98    1.39
 -12   8  -4    8.93    2.64
 -12   9   4    0.01    2.95
  12   9  -4    1.69    2.52
 -12   9  -4    3.99    2.98
 -12   9  -4    3.94    2.77
 -12  -9   4    0.73    1.48
 -12 -10  -4    1.78    1.89
 -12  10   4   -0.45    3.62
 -12 -10   4   -1.37    1.88
 -12  10  -4   -2.31    3.04
 -12   0   5   -0.13    0.44
  12   0   5    0.30    0.27
 -12   0  -5    0.69    0.35
  12   0  -5   -0.51    0.50
 -12   0   5   -0.64    0.72
 -12   1   5  266.71    8.72
  12  -1   5  232.25    8.48
  12   1  -5  238.78    8.79
 -12   1   5  236.18    8.63
 -12  -1  -5  232.41    8.28
  12  -1  -5  233.61    8.61
 -12  -1   5  236.68    8.54
 -12   1  -5  231.91    8.58
  12   1   5  237.26    8.22
  12  -2   5   14.88    1.29
 -12  -2  -5   13.23    0.79
 -12   2   5   10.75    1.13
 -12   2   5   10.86    1.24
 -12  -2  -5   13.59    0.62
 -12  -2  -5   11.79    0.81
  12   2  -5   12.80    1.40
 -12   2  -5   14.06    1.31
 -12  -2   5   13.49    0.97
  12  -2  -5   11.52    1.12
 -12  -3  -5    7.43    0.72
 -12   3   5    6.75    0.98
 -12  -3  -5    6.84    0.52
 -12   3   5    7.03    1.18
  12   3  -5    8.60    1.23
 -12  -3  -5    7.19    0.78
  12  -3  -5    5.48    0.72
 -12  -3   5    6.30    0.77
 -12   3  -5    7.74    1.25
 -12  -4  -5    0.86    0.89
 -12   4   5    1.32    1.11
  12   4  -5    1.42    1.04
 -12   4   5    0.99    0.60
 -12   4   5    1.90    0.65
 -12  -4  -5    0.48    0.40
 -12  -4  -5    1.28    0.56
  12  -4  -5    1.33    0.51
 -12   4  -5    2.05    1.31
 -12  -4   5    1.64    0.69
 -12  -5  -5   15.43    1.16
 -12   5   5   14.78    2.05
 -12   5   5   16.97    1.31
 -12   5   5   16.76    1.21
 -12  -5  -5   13.64    1.40
  12   5  -5   18.14    2.15
 -12   5  -5   13.12    1.82
 -12   5  -5   12.91    1.89
 -12  -5   5   19.17    1.52
 -12   6   5   18.99    2.52
  12   6  -5   24.08    2.73
 -12   6  -5   16.87    2.40
 -12  -6   5   19.36    1.74
 -12   6  -5   19.49    2.46
 -12   7   5   36.83    4.18
  12   7  -5   36.23    3.14
 -12  -7   5   37.22    2.52
 -12   7  -5   35.75    3.97
 -12   7  -5   35.29    4.33
 -12   8   5    4.96    2.83
  12   8  -5    5.22    2.27
 -12   8  -5    5.59    2.31
 -12   8  -5    6.46    2.64
 -12  -8   5    9.59    1.78
 -12   9   5    6.85    3.22
  12   9  -5    2.21    2.59
 -12   9  -5    3.59    2.94
 -12   9  -5    4.06    3.01
 -12  -9   5    3.38    1.71
 -12   0  -6   22.82    1.11
  12   0  -6   23.30    1.53
 -12   0   6   20.35    1.29
  12   0   6   21.65    0.96
 -12   0   6   21.94    1.60
  12  -1   6   39.93    1.77
 -12   1   6   38.55    1.90
  12   1  -6   37.70    2.12
 -12   1   6   38.17    2.01
 -12   1  -6   37.18    1.79
  12  -1  -6   33.61    1.89
 -12  -1   6   37.83    1.79
 -12   2   6    1.05    0.57
 -12   2   6    1.59    0.79
  12   2  -6    1.41    0.87
  12  -2   6   -1.50    0.82
 -12   2  -6    0.29    0.71
  12  -2  -6    0.44    0.54
 -12  -2   6    0.12    0.50
 -12   3   6    1.55    0.69
  12   3  -6    2.78    0.99
 -12  -3  -6    2.74    0.30
 -12   3   6    3.03    0.97
 -12  -3  -6    3.51    0.62
  12  -3  -6    2.79    0.60
 -12  -3   6    2.03    0.65
 -12   3  -6    2.73    0.91
 -12   4   6   48.11    2.00
 -12   4   6   46.90    2.00
 -12  -4  -6   49.29    2.05
 -12  -4  -6   45.31    1.91
 -12   4   6   48.67    3.02
  12   4  -6   48.15    2.95
 -12  -4  -6   44.32    2.37
 -12  -4   6   48.33    2.27
  12  -4  -6   47.94    2.17
 -12   4  -6   47.48    3.01
 -12   5   6   14.79    2.06
  12   5  -6   14.54    1.92
 -12  -5  -6   15.67    1.20
 -12  -5  -6   13.85    1.33
 -12   5  -6   12.49    1.91
  12  -5  -6   14.84    1.34
 -12   5  -6   16.00    2.04
 -12  -5   6   17.29    1.50
 -12   6   6    0.98    1.76
  12   6  -6    2.29    1.78
 -12   6  -6    0.46    1.69
 -12  -6   6    1.69    0.93
 -12   6  -6    0.86    1.66
 -12   7  -6    0.92    2.01
 -12  -7   6    1.78    1.15
 -12   7  -6    4.74    2.48
  12   8  -6    1.39    1.98
 -12   8   6    0.84    2.69
 -12  -8   6   -1.26    1.39
 -12   8  -6   -1.52    2.61
 -12   8  -6   -0.99    2.25
  12   9  -6   -0.51    2.65
 -12   9   6   -2.33    3.15
 -12  -9   6    0.07    1.77
 -12   9  -6   -1.29    3.00
 -12   9  -6    3.37    2.89
  12   0  -7   -0.28    0.65
 -12   0   7   -0.46    0.49
  12   0   7   -0.07    0.29
 -12   0  -7   -0.18    0.31
 -12   1   7   11.83    1.14
  12   1  -7   11.50    1.44
 -12   1   7   11.02    1.39
  12  -1   7   14.71    1.15
 -12   1  -7   13.23    1.07
 -12  -1   7   12.37    1.05
  12  -1  -7   11.42    1.21
  12   2  -7    4.54    1.05
 -12   2   7    4.14    0.85
  12  -2   7    3.95    0.96
 -12   2   7    5.63    0.96
 -12  -2   7    4.42    0.74
  12  -2  -7    5.27    0.75
 -12   2  -7    4.83    0.87
 -12  -3  -7    0.90    0.25
 -12   3   7    1.56    0.92
  12   3  -7    1.06    1.00
 -12   3   7    1.88    0.56
 -12  -3  -7    1.01    0.38
 -12  -3  -7    1.54    0.48
 -12  -3   7    1.95    0.70
 -12   3  -7    0.85    0.84
  12  -3  -7    2.35    0.60
 -12  -4  -7    5.31    0.63
 -12   4   7    3.49    1.33
 -12  -4  -7    5.05    0.62
  12   4  -7    5.90    1.52
 -12  -4  -7    6.11    0.86
 -12   4  -7    4.49    1.24
 -12  -4   7    4.46    0.87
  12  -4  -7    5.52    0.81
 -12  -5  -7   29.89    1.97
 -12   5   7   26.75    2.97
 -12  -5  -7   30.38    1.55
 -12  -5  -7   29.26    1.91
  12   5  -7   30.10    2.94
 -12  -5   7   31.70    1.99
 -12   5  -7   34.11    2.66
  12  -5  -7   29.59    1.71
 -12   5  -7   29.30    2.97
 -12   6   7    2.68    2.03
 -12  -6  -7    1.34    0.79
  12   6  -7    1.21    1.75
 -12   6  -7    2.45    1.98
 -12   6  -7    1.88    1.99
 -12   7   7   35.23    4.23
  12   7  -7   40.22    4.02
 -12   7  -7   40.53    3.81
 -12  -7   7   41.25    2.65
 -12   7  -7   56.23    4.67
  12   8  -7    4.82    2.40
 -12   8   7    2.01    3.34
 -12   8  -7    2.57    2.57
 -12   8  -7    6.06    2.93
 -12  -8   7    0.29    1.50
 -12   9   7   15.02    4.08
  12   9  -7   20.06    3.17
 -12   9  -7   17.13    3.47
 -12  -9   7   16.07    2.39
 -12   9  -7   18.55    3.79
  12   0  -8   17.23    1.61
 -12   0   8   16.94    1.29
  12   1  -8   11.60    1.57
 -12   1   8   11.69    1.50
  12  -1   8   11.11    1.25
 -12   1   8   12.86    1.33
  12  -1  -8   14.69    1.44
 -12  -1   8   14.11    1.20
 -12   1  -8   13.93    1.06
 -12   2   8   32.34    1.68
 -12   2   8   31.09    2.05
  12   2  -8   34.71    2.40
  12  -2   8   26.70    2.27
 -12   2  -8   32.74    1.89
  12  -2  -8   32.14    1.74
 -12  -2   8   32.95    1.80
  12   3  -8   58.68    3.30
 -12   3   8   62.69    3.21
 -12   3  -8   58.14    3.00
 -12  -3   8   59.40    2.73
  12  -3  -8   58.26    2.58
 -12  -4  -8    0.81    0.32
 -12  -4  -8    0.99    0.58
  12   4  -8   -0.17    1.15
 -12   4   8   -0.38    1.33
 -12  -4  -8    1.66    0.41
  12  -4  -8    0.87    0.67
 -12  -4   8   -0.20    0.77
 -12   4  -8    2.12    1.11
  12   5  -8   32.65    3.06
 -12  -5  -8   36.67    1.57
 -12   5   8   34.19    3.38
  12  -5  -8   33.87    1.91
 -12   5  -8   31.34    2.70
 -12  -5   8   33.59    2.18
 -12   5  -8   42.31    3.47
  12   6  -8   16.20    2.67
 -12  -6  -8   10.05    1.04
 -12   6   8   12.03    2.50
 -12   6  -8   13.98    2.64
 -12   6  -8   11.15    1.98
 -12  -6   8   10.63    1.48
 -12   7   8   23.67    3.28
  12   7  -8   26.26    3.18
 -12  -7   8   23.75    2.43
 -12   7  -8   27.73    4.07
 -12   7  -8   21.70    2.96
 -12   8   8   -2.74    2.95
  12   8  -8   -1.75    2.34
 -12   8  -8    1.65    2.77
 -12   8  -8   -0.16    2.10
 -12  -8   8    4.29    1.63
 -12   9   8   17.17    4.50
  12   9  -8   11.13    3.33
 -12  -9   8    8.88    2.13
 -12   9  -8    9.26    3.73
 -12   9  -8   17.95    3.81
  12   0  -9   -0.12    0.84
 -12   0   9    0.55    0.65
 -12   1   9    8.27    1.06
 -12   1   9    6.61    1.05
  12  -1   9    9.29    1.26
  12   1  -9    8.33    1.39
  12  -1  -9    6.82    1.03
 -12  -1   9    6.43    0.92
  12   2  -9    5.48    1.27
  12  -2   9    6.63    1.23
 -12   2   9    5.37    1.08
 -12   2   9    5.97    0.82
  12  -2  -9    5.15    0.92
 -12  -2   9    4.86    0.86
 -12   3   9   25.89    2.29
  12   3  -9   23.34    2.31
 -12   3  -9   25.10    1.94
  12  -3  -9   23.49    1.51
 -12  -3   9   20.80    1.61
 -12   4   9    4.37    1.60
  12   4  -9    1.92    1.36
 -12  -4   9    1.24    0.88
  12  -4  -9    1.38    0.66
 -12   4  -9    0.77    1.08
 -12   5   9   51.24    3.78
  12   5  -9   44.77    3.52
 -12  -5  -9   46.14    2.10
  12  -5  -9   45.52    2.29
 -12   5  -9   42.98    3.20
 -12   5  -9   42.45    3.46
 -12  -5   9   43.10    2.54
 -12   6   9    0.97    2.22
  12   6  -9    6.05    2.21
  12  -6  -9    3.95    1.00
 -12   6  -9    3.61    1.80
 -12  -6   9    5.54    1.43
 -12   6  -9    1.86    2.06
  12   7  -9   22.59    3.30
 -12   7   9   18.34    3.27
 -12   7  -9   18.80    3.11
 -12  -7   9   16.90    2.27
 -12   7  -9   24.54    3.36
  12   8  -9   -1.33    2.58
 -12   8   9   -0.66    3.01
 -12   8  -9   -0.61    2.73
 -12  -8   9   -1.55    1.60
 -12   8  -9    0.13    2.35
 -12   0  10   37.17    2.09
  12   0 -10   39.10    2.39
  12   1 -10   99.90    4.87
 -12   1  10  110.12    4.50
 -12   1  10  106.45    4.33
  12  -1  10  113.76    4.28
  12  -1  10  113.22    3.98
 -12  -1  10  109.06    4.40
  12  -1 -10  113.81    4.65
  12   2 -10   18.27    2.15
  12  -2  10   21.70    2.16
 -12   2  10   19.34    1.82
 -12  -2  10   21.90    1.63
  12  -2 -10   21.02    1.70
 -12   3  10    2.06    1.33
  12   3 -10   -0.63    1.28
 -12  -3  10    0.00    0.86
  12  -3 -10    0.83    0.77
 -12   4  10    5.09    1.90
  12   4 -10    3.11    1.98
 -12  -4  10    4.60    1.14
  12  -4 -10    2.74    0.86
  12   5 -10   17.51    2.35
 -12   5  10   18.88    2.75
 -12   5 -10   15.84    2.34
  12  -5 -10   18.93    1.50
 -12  -5  10   15.86    1.90
 -12   6  10   -2.07    2.30
  12   6 -10   -0.49    2.04
 -12   6 -10    0.99    2.18
 -12  -6  10    0.28    1.18
  12  -6 -10    0.50    0.88
 -12   7  10   -1.19    2.87
  12   7 -10    4.23    2.84
 -12  -7  10    3.22    1.60
 -12   7 -10    0.62    2.30
  12   8 -10   -5.62    2.83
 -12   8  10   -6.07    3.12
 -12   8 -10   -3.71    2.83
 -12  -8  10   -2.70    1.60
  12   0 -11   -0.49    0.96
 -12   0  11    0.17    0.88
  12  -1  11   31.75    1.38
 -12   1  11   28.25    2.02
  12   1 -11   34.82    2.71
 -12  -1  11   32.07    2.00
  12  -1 -11   25.57    2.13
  12  -2  11    6.13    0.96
 -12   2  11    7.47    1.32
  12   2 -11    5.84    1.58
  12  -2 -11    6.04    1.17
 -12  -2  11    7.00    1.09
 -12   3  11    3.22    1.49
  12   3 -11    0.50    2.28
 -12  -3  11    0.63    0.92
  12  -3 -11   -0.61    0.85
  12   4 -11    4.69    1.90
 -12   4  11    7.40    2.08
 -12   4 -11    4.61    1.92
 -12  -4  11    5.87    1.23
  12  -4 -11    5.91    0.94
  12   5 -11    1.95    1.97
 -12   5  11    1.66    2.24
 -12  -5  11    1.35    1.26
 -12   5 -11   -1.13    1.93
  12  -5 -11    0.82    0.84
 -12   6  11    0.82    2.46
  12   6 -11    1.18    2.36
  12  -6 -11   -1.02    1.53
 -12  -6  11    4.98    1.58
 -12   6 -11    1.02    2.27
 -12   7  11   11.25    3.33
  12   7 -11   10.92    3.04
 -12  -7  11    5.23    1.68
 -12   7 -11    5.02    2.73
 -12   8  11   -4.12    3.42
  12   8 -11   -2.67    2.86
 -12   8 -11   -3.32    3.23
 -12  -8  11   -0.65    1.85
 -12   0  12    7.00    1.16
  12   0 -12    5.16    1.40
 -12   1  12   57.23    2.95
  12   1 -12   56.85    3.38
  12  -1 -12   58.05    3.10
 -12  -1  12   55.76    2.76
 -12   2  12   13.40    1.64
  12   2 -12    9.27    1.87
 -12  -2  12   12.55    1.39
  12  -2 -12   12.46    1.51
  12   3 -12   33.20    3.31
  12  -3  12   33.62    2.11
 -12   3  12   37.16    2.99
  12  -3 -12   32.54    2.16
 -12  -3  12   33.80    2.27
 -12   3 -12   34.36    3.31
  12   4 -12    1.61    1.88
 -12   4  12    8.44    2.29
  12  -4 -12    5.34    1.03
 -12   4 -12    4.32    2.00
 -12  -4  12    7.43    1.47
  12   5 -12   23.95    2.95
 -12   5  12   24.86    3.18
 -12   5 -12   32.02    4.13
 -12  -5  12   29.72    2.48
  12  -5 -12   27.74    2.11
  12   6 -12    1.05    2.28
 -12   6  12   -2.08    3.13
 -12  -6  12   -1.39    1.37
 -12   6 -12   -0.08    2.76
 -12   7  12    4.49    3.39
  12   7 -12    1.52    2.96
 -12   7 -12    3.42    2.95
 -12  -7  12    6.38    2.04
  12   0 -13    0.01    1.29
 -12   0  13    2.20    0.98
 -12   1  13   35.71    2.52
  12   1 -13   37.23    2.93
 -12  -1  13   38.64    2.42
  12  -1 -13   40.26    2.70
  12   2 -13    2.50    1.71
 -12   2  13    5.15    1.50
  12  -2 -13    3.26    1.28
 -12  -2  13    3.42    1.14
  12   3 -13    3.37    1.99
 -12   3  13    8.51    1.92
  12  -3 -13    5.23    1.26
 -12   3 -13    3.56    2.05
 -12  -3  13    4.33    1.40
  12   4 -13   14.15    2.50
 -12   4  13   18.14    2.85
  12  -4  13   20.20    2.23
 -12  -4  13   17.96    2.03
 -12   4 -13   13.16    2.68
  12  -4 -13   18.59    1.94
  12   5 -13    2.91    2.28
 -12   5  13    7.56    3.00
  12  -5  13    1.14    1.76
 -12  -5  13    3.51    1.37
 -12   5 -13    2.18    2.36
  12   6 -13    1.47    2.52
 -12   6  13    1.01    2.95
 -12   6 -13    3.33    2.74
 -12  -6  13    4.42    1.61
 -12  -7  13   32.62    3.30
  12   0 -14   11.75    1.96
 -12   0  14   18.83    2.16
  12   1 -14    1.72    1.55
 -12   1  14    2.22    1.43
 -12  -1  14    0.92    1.21
  12  -1 -14    1.37    1.24
 -12   2  14    0.79    1.63
  12   2 -14    0.84    1.73
 -12  -2  14   -0.13    1.15
  12  -2 -14    0.94    1.30
 -12   2 -14   -1.10    1.63
 -12   3  14   36.78    3.39
  12   3 -14   41.81    3.91
 -12  -3  14   34.87    2.57
 -12   3 -14   36.66    3.75
  12  -3 -14   36.16    2.69
  12   4 -14    1.15    2.28
 -12   4  14    0.36    2.46
 -12  -4  14    2.06    1.55
 -12   4 -14    3.62    2.66
 -12   5  14   53.92    6.05
  12   5 -14   30.40    3.64
 -12   5 -14   39.54    4.91
 -12  -5  14   41.17    3.05
  12   6 -14   -3.06    2.48
 -12  -6  14    1.10    1.59
 -12   6 -14    1.08    2.76
 -12   0  15    0.25    1.43
  12   0 -15   -2.22    1.55
  12   1 -15   24.00    2.88
 -12   1  15   22.44    2.80
 -12  -1  15   27.45    2.40
  12   2 -15   -2.61    1.66
 -12   2  15   -1.44    1.68
 -12   2 -15    1.07    2.16
 -12  -2  15    0.74    1.30
  12  -2 -15    0.36    1.53
 -12   3  15   -1.65    1.97
  12   3 -15   -1.98    2.26
 -12  -3  15   -0.64    1.39
  12  -3 -15    4.60    1.76
 -12   3 -15    0.27    2.20
  12   4 -15    1.61    2.45
 -12  -4  15    0.83    1.43
 -12   4 -15    0.12    2.57
  12   5 -15   -1.14    2.64
 -12  -5  15    1.46    1.58
 -12   5 -15    2.95    3.37
 -12   0  16    3.29    1.84
  12   0 -16   -0.22    1.84
  12   1 -16   -0.68    2.30
 -12   1  16   -0.77    1.63
 -12   1 -16    2.25    2.13
  12  -1 -16    2.93    1.70
 -12  -1  16   -0.30    1.53
  12   2 -16    1.80    2.06
 -12  -2  16    3.88    1.50
  12  -2 -16    2.97    1.83
 -12   2 -16    8.61    2.31
  12   3 -16   23.00    3.25
 -12  -3  16   20.32    2.59
 -12   3 -16   21.40    3.39
  12   4 -16   -2.56    2.62
 -12   4 -16   -3.18    2.79
 -12  -4  16    3.72    1.73
 -12   0 -17    1.43    2.38
  12   0 -17   -0.34    2.00
  12   1 -17    1.84    2.42
  12  -1 -17    1.24    1.94
 -12   1 -17    3.01    2.27
 -12  -1  17    2.72    1.79
  12   2 -17    2.70    2.47
 -12  -2  17    7.05    1.91
 -12   2 -17    5.79    3.12
  12   3 -17   -0.56    2.51
 -12   3 -17    5.34    2.97
 -12  -3  17    4.20    1.69
  13   0   0    0.10    0.39
  13   0   0    1.19    0.39
 -13   0   0    0.53    0.43
 -13   0   0    0.73    0.31
 -13  -1   0   39.06    1.80
  13   1   0   39.94    1.62
  13  -1   0   39.42    1.76
 -13   1   0   39.34    1.75
  13  -1   0   39.83    1.92
 -13   1   0   39.71    1.80
 -13  -1   0   38.65    1.62
  13   1   0   35.89    1.74
 -13  -2   0    0.26    0.61
 -13   2   0   -0.25    0.44
  13   2   0    0.17    0.42
 -13  -2   0    0.05    0.31
  13  -2   0   -0.13    0.57
  13   2   0    0.59    0.38
 -13  -3   0   59.50    2.39
 -13   3   0   58.69    2.99
  13   3   0   58.68    2.49
 -13  -3   0   57.32    2.70
  13   4   0   -0.24    0.83
 -13   4   0    0.48    0.93
 -13  -4   0    1.00    0.53
 -13   5   0   23.70    2.36
  13   5   0   27.30    1.89
 -13  -5   0   25.99    1.58
 -13   6   0   -1.44    1.32
  13   6   0   -1.14    0.89
 -13  -6   0    0.18    0.74
 -13   6   0   -1.06    1.30
 -13   7   0   42.31    3.26
 -13  -7   0   45.41    2.56
  13   7   0   45.57    2.72
 -13   7   0   41.94    4.04
 -13   8   0   -1.10    1.96
 -13  -8   0   -0.55    1.31
 -13   8   0   -3.38    2.30
 -13   9   0   22.40    3.70
 -13  -9   0   20.63    2.62
 -13  10   0   -6.83    3.58
 -13 -10   0   -2.37    1.67
  13   0  -1    0.60    0.38
 -13   0   1    0.20    0.47
  13   0  -1    0.18    0.41
 -13   0  -1    0.23    0.36
  13   0   1    0.63    0.32
 -13   0  -1    0.00    0.26
  13   0   1    0.00    0.33
 -13   0   1   -0.15    0.33
 -13   1   1    5.91    0.72
 -13  -1  -1    6.95    0.76
 -13   1   1    6.29    0.79
  13  -1   1    5.93    0.68
  13   1  -1    5.43    0.81
  13   1  -1    4.72    0.63
 -13  -1  -1    5.23    0.53
 -13  -1   1    6.49    0.58
 -13   1  -1    5.29    0.69
  13   1   1    5.74    0.57
 -13  -1   1    5.67    0.75
 -13   1  -1    5.98    0.74
  13   1   1    7.40    0.68
  13  -1  -1    5.45    0.67
  13   2  -1   48.35    2.03
 -13   2   1   44.65    2.14
  13  -2   1   47.72    2.23
 -13  -2  -1   50.14    2.19
 -13   2   1   48.21    2.36
 -13  -2  -1   48.24    1.94
 -13   2  -1   51.08    2.37
  13   2   1   49.13    2.06
 -13   2  -1   48.84    2.13
  13  -2  -1   50.40    2.15
  13   2   1   49.18    1.98
 -13  -2   1   48.35    2.29
 -13  -2   1   50.97    2.03
  13   3  -1   81.98    3.43
 -13  -3  -1   87.35    3.16
 -13  -3  -1   78.10    3.39
 -13   3  -1   85.36    3.84
  13   3   1   78.06    3.22
 -13  -3   1   84.97    3.21
 -13  -4  -1    1.28    0.98
 -13   4   1    1.76    1.10
  13   4  -1    3.79    0.85
 -13  -4  -1    2.10    0.51
  13   4   1    3.18    0.64
 -13  -4   1    3.03    0.63
 -13   4  -1    2.12    1.11
 -13   5   1   71.61    3.90
  13   5  -1   70.47    3.29
 -13  -5  -1   71.66    2.98
  13   5   1   68.77    3.00
 -13  -5   1   71.72    3.02
 -13   5  -1   74.70    4.00
 -13  -6  -1    3.89    0.86
  13   6  -1    2.54    1.14
 -13   6   1    4.42    1.53
 -13   6   1    3.24    1.58
 -13   6  -1    1.84    1.40
 -13  -6   1    3.37    0.87
 -13   6  -1    4.10    1.73
 -13  -7  -1   23.50    1.93
  13   7  -1   23.09    2.33
 -13   7   1   23.30    2.73
 -13   7   1   20.37    2.77
 -13   7  -1   20.47    3.00
 -13   7  -1   28.61    3.10
  13   7   1   23.60    2.31
 -13  -7   1   24.63    1.85
 -13   8   1    7.97    2.27
 -13   8   1    6.69    2.57
  13   8  -1    8.75    1.74
 -13  -8   1   11.15    1.57
 -13   8  -1    7.58    2.73
 -13   8  -1   10.02    2.36
 -13   9   1   17.26    3.47
 -13  -9  -1   23.52    2.42
 -13   9  -1   23.34    3.83
 -13  -9   1   20.94    2.55
 -13  10   1    0.44    4.05
 -13 -10  -1    0.03    1.94
 -13 -10   1    0.19    1.61
 -13  10  -1    4.14    4.03
 -13   0  -2  279.01    9.81
 -13   0  -2  279.17    9.86
  13   0  -2  276.66    9.84
  13   0   2  280.93    9.75
 -13   0   2  280.22    9.98
 -13   0   2  276.93    9.87
  13  -1   2   51.52    2.10
 -13   1   2   49.90    2.19
 -13  -1  -2   47.21    2.10
 -13   1   2   54.46    2.22
  13   1  -2   52.58    2.28
 -13  -1  -2   51.84    1.96
  13   1  -2   48.07    2.04
  13  -1  -2   49.82    2.17
 -13  -1   2   49.35    2.06
  13   1   2   50.49    1.94
 -13  -1   2   48.25    2.30
 -13   1  -2   48.33    2.14
  13   1   2   51.70    2.05
 -13   1  -2   48.55    2.20
  13  -1  -2   49.65    2.11
 -13  -2  -2  250.88    8.58
  13  -2   2  244.75    8.87
 -13   2   2  255.78    9.01
  13   2  -2  253.81    8.91
 -13  -2  -2  246.89    8.74
 -13   2   2  214.74    8.73
 -13   2  -2  261.32    9.04
 -13  -2   2  254.85    8.70
  13   2   2  228.21    8.62
  13   2   2  262.24    8.60
 -13  -2   2  208.07    8.93
  13  -2  -2  253.24    8.76
 -13  -3  -2    2.90    0.43
 -13   3   2    1.89    0.86
 -13  -3  -2    3.84    0.68
  13   3  -2    3.10    0.80
 -13   3   2    3.14    0.67
 -13  -3   2    3.38    0.57
 -13   3  -2    4.08    1.08
  13  -3  -2    3.80    0.69
  13   3   2    4.35    0.57
 -13  -4  -2   35.80    1.69
  13   4  -2   33.98    2.15
 -13  -4  -2   38.01    2.12
 -13   4   2   38.39    2.49
 -13  -4   2   38.49    1.83
  13   4   2   40.03    1.70
 -13   4  -2   37.22    2.48
 -13   5   2   12.05    1.52
 -13   5   2   10.65    1.72
 -13  -5  -2   14.16    1.07
  13   5  -2   12.60    1.59
  13   5   2   14.04    1.13
 -13   5  -2   13.14    1.86
 -13  -5   2   13.01    1.23
 -13  -6  -2   20.19    1.51
 -13   6   2   19.96    2.73
 -13   6   2   23.31    2.31
  13   6  -2   21.25    2.10
  13   6   2   20.14    1.36
 -13  -6   2   20.37    1.67
 -13   6  -2   19.32    2.60
 -13   6  -2   26.86    3.11
 -13   7   2    3.31    1.54
 -13   7   2    3.42    2.21
  13   7  -2    2.93    1.48
 -13  -7  -2    2.77    0.92
 -13   7  -2    1.18    1.87
 -13   7  -2    4.23    3.44
 -13  -7   2    0.85    1.01
  13   8  -2   12.48    2.09
 -13   8   2   16.15    3.19
 -13  -8  -2   14.82    1.88
 -13   8  -2   13.70    2.75
 -13   8  -2   13.82    2.54
 -13  -8   2   12.36    1.68
 -13   9   2    7.65    3.39
 -13  -9  -2    3.87    1.35
 -13   9  -2    0.17    2.51
 -13   9  -2   -0.57    2.92
 -13  -9   2    6.35    1.62
 -13  10   2    4.75    4.16
 -13 -10  -2    0.15    1.90
 -13  10  -2   -5.05    3.31
 -13 -10   2   -1.09    1.66
 -13   0  -3    0.50    0.33
  13   0  -3    0.16    0.41
 -13   0   3   -0.24    0.53
  13   0  -3   -0.14    0.47
  13   0   3    0.19    0.31
 -13   0  -3    0.58    0.39
  13  -1   3    0.71    0.43
 -13  -1  -3    0.51    0.40
 -13   1   3    0.33    0.54
 -13  -1  -3    0.88    0.26
 -13   1   3    1.16    0.55
  13   1  -3    0.48    0.53
  13   1   3    0.52    0.28
 -13  -1   3    0.79    0.62
 -13  -1   3    0.93    0.44
  13  -1  -3    0.69    0.50
 -13   1  -3    0.32    0.47
  13   2  -3    4.20    0.84
 -13  -2  -3    2.61    0.35
 -13   2   3    3.91    0.81
 -13  -2  -3    2.61    0.51
  13  -2   3    3.51    0.72
 -13   2   3    2.84    0.72
 -13  -2   3    3.71    0.59
 -13   2  -3    3.26    0.76
  13   2   3    3.40    0.43
  13  -2  -3    3.43    0.58
 -13  -3  -3   26.43    1.42
 -13   3   3   23.60    1.81
  13   3  -3   24.96    1.69
 -13  -3  -3   24.26    1.14
 -13   3   3   26.21    1.44
  13   3   3   25.31    1.18
 -13  -3   3   25.20    1.35
  13  -3  -3   24.27    1.40
 -13   3  -3   23.85    1.95
 -13  -4  -3   32.42    2.25
  13   4  -3   31.85    2.13
 -13   4   3   31.93    2.42
 -13  -4  -3   30.61    1.84
  13   4   3   32.97    1.40
 -13  -4   3   32.30    1.67
 -13   4  -3   30.84    2.29
  13   5  -3   30.73    2.26
 -13   5   3   27.14    2.59
 -13  -5  -3   32.58    1.59
 -13  -5  -3   31.19    2.10
 -13   5   3   31.74    2.24
  13   5   3   30.44    1.39
 -13  -5   3   29.56    1.73
 -13   5  -3   28.58    2.66
 -13  -6  -3    2.24    0.86
 -13   6   3    2.99    1.78
  13   6  -3    3.78    1.39
 -13  -6   3    4.11    0.99
  13   6   3    2.84    0.52
 -13   6  -3    3.49    1.62
 -13   6  -3    0.81    1.52
 -13  -7  -3   12.68    1.50
 -13   7   3   12.17    2.90
  13   7  -3   16.41    2.49
 -13   7  -3   14.94    2.39
 -13  -7   3   14.80    1.86
 -13  -8  -3    3.57    1.19
  13   8  -3    4.43    1.91
 -13   8   3   -1.10    2.54
 -13   8  -3    1.24    2.47
 -13   8  -3    1.44    2.54
 -13  -8   3   -0.98    1.21
 -13   9   3   -2.66    2.83
 -13  -9  -3    0.11    1.29
 -13  -9   3   -0.31    1.49
 -13   9  -3    0.69    2.72
 -13   9  -3    4.71    3.29
 -13  10   3    6.78    4.10
 -13 -10  -3    2.03    1.70
 -13  10  -3    8.50    3.67
 -13 -10   3    1.43    1.93
 -13   0   4    0.42    0.44
  13   0   4    0.71    0.34
  13   0  -4    0.61    0.47
 -13   0   4    0.01    0.70
 -13   0  -4    1.15    0.37
  13   1  -4    1.30    0.64
 -13  -1  -4    0.95    0.28
 -13   1   4    0.64    0.53
  13  -1   4    0.48    0.51
 -13  -1  -4    1.24    0.40
 -13   1   4    1.96    0.62
 -13   1  -4    1.63    0.52
  13   1   4    1.21    0.27
  13  -1  -4    0.69    0.47
 -13  -1   4    1.45    0.50
  13   2  -4  104.10    4.06
 -13  -2  -4   96.37    3.45
 -13  -2  -4   98.30    3.64
 -13   2   4   88.92    3.75
  13  -2   4   91.86    3.90
 -13   2   4   97.14    3.95
  13  -2  -4   96.99    3.76
 -13  -2   4   94.79    3.69
 -13   2  -4   94.38    3.99
 -13  -3  -4   18.67    0.93
 -13   3   4   19.60    1.27
 -13  -3  -4   19.37    1.33
 -13   3   4   18.48    1.70
  13   3  -4   19.88    1.63
 -13  -3  -4   19.76    1.14
 -13   3  -4   17.05    1.80
 -13  -3   4   18.41    1.21
  13  -3  -4   20.39    1.27
 -13  -4  -4    0.80    0.87
 -13   4   4    0.97    0.71
  13   4  -4    3.06    1.20
 -13  -4  -4    1.65    0.43
 -13   4   4    1.21    1.08
 -13  -4  -4    1.15    0.69
 -13   4  -4    2.09    1.15
 -13  -4   4    1.53    0.66
  13  -4  -4    1.22    0.58
 -13  -5  -4    1.47    0.83
  13   5  -4    1.02    1.25
 -13   5   4    1.10    0.81
 -13   5   4    0.46    1.33
 -13  -5  -4   -0.16    0.46
 -13   5  -4   -0.43    1.20
 -13  -5   4    0.89    0.77
  13   6  -4    4.09    1.66
 -13  -6  -4    3.22    0.81
 -13   6   4    1.61    1.13
 -13   6   4    1.41    1.80
 -13   6  -4    2.28    1.72
 -13  -6   4    3.37    1.00
 -13   6  -4    3.08    1.74
 -13  -7  -4    0.49    0.92
  13   7  -4    1.10    1.57
 -13  -7   4    1.73    1.07
 -13   7  -4    2.49    2.16
 -13   7  -4   -1.69    1.88
  13   8  -4    2.18    2.06
 -13  -8  -4    5.69    1.33
 -13   8   4    2.81    2.57
 -13  -8   4    7.06    1.68
 -13   8  -4    4.46    2.49
 -13   8  -4    8.39    2.72
 -13   9   4    4.11    3.11
 -13  -9  -4    5.88    1.54
  13   9  -4   11.41    2.95
 -13   9  -4    1.48    3.03
 -13  -9   4    8.81    1.89
 -13   9  -4    9.19    3.37
 -13   0  -5    0.55    0.36
 -13   0   5   -0.09    0.45
  13   0  -5   -0.50    0.53
  13   0   5    0.17    0.28
 -13   0   5    0.42    0.66
 -13  -1  -5   26.35    1.11
 -13   1   5   23.28    1.65
 -13   1   5   26.62    1.49
  13   1  -5   26.37    1.75
  13  -1   5   25.58    1.38
  13   1   5   28.01    1.04
 -13  -1   5   24.92    1.33
  13  -1  -5   25.11    1.46
 -13   1  -5   25.36    1.51
 -13  -2  -5    0.94    0.25
 -13   2   5    1.45    0.57
 -13   2   5    1.33    0.72
  13  -2   5    1.58    0.73
  13   2  -5    0.81    0.67
 -13  -2  -5    0.70    0.41
  13  -2  -5    1.34    0.55
 -13   2  -5    1.95    0.68
 -13  -2   5    0.52    0.47
 -13   3   5    0.38    0.80
 -13  -3  -5    0.39    0.58
 -13  -3  -5    0.21    0.39
 -13  -3  -5    0.12    0.28
 -13   3   5    0.17    0.57
  13   3  -5    0.33    0.83
 -13  -3   5   -0.07    0.48
  13  -3  -5   -0.04    0.54
 -13   3  -5   -0.09    0.86
 -13   4   5   27.20    1.62
 -13   4   5   36.00    2.62
 -13  -4  -5   30.69    1.63
 -13  -4  -5   28.18    1.90
  13   4  -5   27.49    2.19
 -13  -4  -5   29.59    1.35
 -13  -4   5   28.28    1.64
  13  -4  -5   29.53    1.59
 -13   4  -5   26.34    2.27
 -13  -5  -5    3.50    0.84
 -13  -5  -5    1.19    0.55
  13   5  -5    0.64    1.15
 -13   5   5    2.71    0.70
 -13   5   5    3.11    1.71
 -13   5   5    3.07    0.82
 -13   5  -5    2.49    1.49
 -13  -5   5    1.81    0.81
  13   6  -5    8.09    1.64
 -13  -6  -5    9.18    1.20
 -13   6   5   10.76    2.21
 -13  -6   5    7.68    1.18
 -13   6  -5    7.83    1.97
 -13   6  -5   12.05    2.30
 -13  -7  -5   40.36    2.24
  13   7  -5   37.81    3.59
 -13   7   5   40.11    5.58
 -13   7  -5   40.23    3.91
 -13  -7   5   42.62    2.61
 -13  -8  -5    1.22    1.14
  13   8  -5    3.17    2.35
 -13   8   5    2.41    2.77
 -13  -8   5   -0.27    1.42
 -13   8  -5    2.76    2.49
 -13   8  -5   -3.94    2.23
 -13  -9  -5    2.39    1.45
  13   9  -5   -1.01    2.59
 -13   9   5   -2.86    3.17
 -13   9  -5    6.80    3.24
 -13  -9   5    4.85    1.86
 -13   9  -5    4.68    3.12
  13   0  -6   64.03    2.79
 -13   0   6   59.58    2.60
 -13   0  -6   59.45    2.40
  13   0   6   60.11    2.26
 -13   1   6   -0.06    0.58
  13   1  -6   -0.35    0.60
 -13   1   6    0.84    0.66
 -13   1  -6    1.30    0.52
  13  -1  -6    0.57    0.56
 -13  -1   6    0.48    0.51
  13   2  -6   45.21    2.41
 -13   2   6   39.95    2.07
 -13   2   6   42.54    2.28
  13  -2   6   41.21    2.24
 -13  -2  -6   41.35    1.78
 -13  -2   6   40.89    1.95
  13  -2  -6   40.81    1.98
 -13   2  -6   44.10    2.24
 -13  -3  -6    0.34    0.44
 -13  -3  -6    0.55    0.30
  13   3  -6    0.92    0.94
 -13   3   6    0.15    0.89
 -13   3   6    0.73    0.67
 -13  -3  -6    0.81    0.58
  13  -3  -6    0.65    0.53
 -13  -3   6    2.22    0.70
 -13   3  -6    1.90    1.12
 -13   4   6   16.20    2.14
 -13   4   6   20.20    1.27
 -13  -4  -6   18.78    1.54
  13   4  -6   17.81    2.09
 -13   4   6   17.19    1.34
 -13  -4  -6   19.48    1.02
 -13  -4  -6   19.16    1.21
 -13   4  -6   16.86    1.96
  13  -4  -6   20.40    1.30
 -13  -4   6   17.41    1.39
 -13   5   6    1.95    0.75
 -13   5   6    2.11    0.58
  13   5  -6    2.88    1.45
 -13  -5  -6    3.70    0.76
 -13   5   6    0.47    1.54
 -13  -5  -6    1.77    0.65
  13  -5  -6    1.74    0.77
 -13  -5   6    2.01    0.81
 -13   5  -6    3.03    1.61
 -13   5  -6    0.80    1.41
 -13  -6  -6   46.81    2.21
  13   6  -6   49.60    3.65
 -13   6   6   43.69    3.89
 -13   6  -6   51.44    3.77
 -13  -6   6   45.56    2.60
 -13   6  -6   38.26    3.67
 -13   7   6    0.54    2.26
 -13  -7  -6    1.36    0.94
  13   7  -6    0.39    1.78
 -13  -7   6   -2.21    1.08
 -13   7  -6    1.25    2.02
 -13   7  -6   -0.58    2.13
 -13   8   6   36.44    4.93
 -13  -8  -6   32.74    2.34
  13   8  -6   30.13    3.80
 -13  -8   6   32.33    2.70
 -13   8  -6   28.01    3.70
 -13   8  -6   29.79    4.30
 -13  -9  -6    0.38    1.55
 -13   9   6    7.20    3.86
  13   9  -6    5.02    2.91
 -13   9  -6    4.43    2.96
 -13  -9   6    1.49    1.84
 -13   9  -6    1.29    3.04
 -13   0   7    0.06    0.56
  13   0   7    0.30    0.30
  13   0  -7   -0.11    0.67
 -13   0  -7    0.05    0.38
  13   1  -7   41.38    2.34
  13  -1   7   42.16    1.92
 -13   1   7   39.23    2.09
 -13   1   7   39.76    2.15
  13  -1  -7   43.81    2.18
 -13   1  -7   38.44    1.95
 -13  -1   7   41.24    1.97
 -13   2   7   42.01    2.30
  13  -2   7   43.35    2.33
  13   2  -7   42.89    2.55
 -13   2   7   43.16    2.14
 -13  -2   7   45.34    2.07
  13  -2  -7   40.62    2.06
 -13   2  -7   36.32    2.22
 -13  -3  -7    3.21    0.39
  13   3  -7    1.81    0.95
 -13  -3  -7    3.19    0.53
 -13  -3  -7    2.86    0.51
 -13   3   7    2.28    1.05
 -13   3   7    2.78    0.68
 -13   3  -7    1.90    0.99
 -13  -3   7    2.95    0.74
  13  -3  -7    2.06    0.61
 -13  -4  -7   42.07    1.85
 -13  -4  -7   42.13    1.67
  13   4  -7   39.60    2.86
 -13   4   7   39.29    2.87
 -13  -4  -7   42.91    2.10
 -13   4  -7   36.65    2.59
 -13  -4   7   41.28    2.17
  13  -4  -7   41.25    2.00
 -13   5   7   21.05    2.95
 -13  -5  -7   20.92    1.30
  13   5  -7   23.58    2.70
  13  -5  -7   22.36    1.54
 -13  -5   7   20.54    1.72
 -13   5  -7   21.54    2.46
 -13   5  -7   22.41    2.70
 -13  -6  -7    2.38    0.79
 -13   6   7    2.02    2.11
 -13  -6   7    0.84    1.03
 -13   6  -7    1.22    1.89
 -13   6  -7    2.38    1.64
  13   7  -7    6.82    2.26
 -13  -7  -7    3.25    1.00
 -13   7   7    3.03    2.43
 -13  -7   7    5.30    1.42
 -13   7  -7    2.68    2.40
 -13   7  -7    2.35    2.29
 -13  -8  -7   -1.32    1.72
 -13   8   7   -1.43    2.79
  13   8  -7    0.40    2.04
 -13   8  -7   -1.64    2.34
 -13   8  -7    1.41    2.61
 -13  -8   7    0.54    1.48
  13   9  -7   -2.72    2.63
 -13   9   7   -3.94    3.71
 -13   9  -7   -0.37    2.94
 -13   9  -7    1.42    3.14
  13   0  -8    5.42    1.00
 -13   0   8    5.52    0.82
 -13   1   8    7.65    1.00
  13   1  -8    6.18    1.14
 -13   1   8    6.68    1.12
  13  -1   8    7.13    0.83
  13  -1  -8    5.62    0.92
 -13   1  -8    6.70    0.92
 -13  -1   8    5.90    0.86
  13  -2   8   89.72    4.01
 -13   2   8   93.41    3.67
  13   2  -8   87.68    4.20
 -13   2   8   93.55    3.99
  13  -2  -8   91.08    3.76
 -13   2  -8   98.25    3.94
 -13  -2   8   91.29    3.74
 -13  -3  -8    5.33    0.74
 -13   3   8    8.94    1.52
  13   3  -8    6.78    1.44
  13  -3  -8    6.87    1.02
 -13  -3   8    5.15    0.90
 -13   3  -8    5.46    1.14
 -13  -4  -8    0.19    0.31
 -13  -4  -8    0.35    0.46
 -13  -4  -8    1.17    0.56
 -13   4   8    0.37    1.43
  13   4  -8   -1.05    1.22
 -13  -4   8    0.34    0.78
 -13   4  -8   -0.20    1.20
  13  -4  -8   -0.15    0.57
 -13  -5  -8    1.37    0.46
  13   5  -8    0.83    1.55
 -13   5   8    2.23    2.03
 -13  -5   8    0.80    0.98
  13  -5  -8    0.28    0.78
 -13   5  -8    0.36    1.46
 -13   5  -8    4.11    2.65
 -13  -6  -8   18.65    1.44
  13   6  -8   21.89    2.72
 -13   6   8   17.55    2.73
 -13   6  -8   24.42    2.91
 -13   6  -8   19.44    2.70
 -13  -6   8   22.86    2.15
 -13   7   8    4.02    2.68
  13   7  -8    0.34    2.19
 -13   7  -8    1.45    2.41
 -13   7  -8    0.05    2.04
 -13  -7   8   -2.85    1.26
 -13   8   8   37.47    4.87
  13   8  -8   52.15    4.88
 -13  -8   8   37.18    3.08
 -13   8  -8   36.33    4.77
 -13   8  -8   42.34    4.32
  13   9  -8   -3.04    2.70
 -13   9   8   -0.21    3.34
 -13  -9   8    3.28    2.04
 -13   9  -8    1.58    3.22
 -13   9  -8   -0.76    2.58
  13   0  -9   -0.32    0.89
 -13   0   9    0.35    0.67
 -13   1   9   11.19    1.43
 -13   1   9   13.69    1.46
  13   1  -9   12.19    1.84
  13  -1   9   12.66    1.31
  13  -1  -9   14.76    1.60
 -13  -1   9   13.07    1.22
  13  -2   9    5.35    1.17
 -13   2   9    5.86    0.87
  13   2  -9    4.58    1.27
 -13   2   9    3.34    1.00
 -13   2  -9    5.29    1.06
  13  -2  -9    5.76    0.90
 -13  -2   9    5.13    0.85
  13   3  -9    2.24    1.37
 -13   3   9   -0.63    1.11
 -13  -3   9   -0.06    0.78
 -13   3  -9   -0.20    0.97
  13  -3  -9    0.48    0.73
  13   4  -9   42.36    3.21
 -13   4   9   32.17    3.08
 -13   4  -9   35.48    2.69
  13  -4  -9   32.26    1.88
 -13  -4   9   34.51    2.14
  13   5  -9    7.64    2.23
 -13   5   9    6.41    2.03
 -13   5  -9    6.53    1.72
 -13   5  -9    6.08    2.01
  13  -5  -9    5.35    0.95
 -13  -5   9    5.12    2.22
 -13   6   9   21.03    2.99
  13   6  -9   26.83    3.53
  13  -6  -9   28.22    1.97
 -13  -6   9   24.26    2.22
 -13   6  -9   28.86    3.85
 -13   6  -9   27.81    3.13
  13   7  -9    2.57    2.47
 -13   7   9    7.55    3.12
 -13   7  -9    1.16    2.02
 -13  -7   9    3.92    1.60
 -13   7  -9    7.44    2.89
  13   8  -9    5.11    2.73
 -13   8   9   -0.06    3.17
 -13   8  -9    3.84    2.74
 -13   8  -9    7.58    3.43
  13   0 -10   43.99    2.58
 -13   0  10   41.39    2.32
  13  -1  10    0.33    0.46
 -13   1  10    0.07    0.85
  13   1 -10   -0.29    1.13
  13  -1  10    0.38    0.79
 -13   1  10   -0.19    0.96
 -13  -1  10    1.63    0.80
  13  -1 -10    0.95    0.80
  13   2 -10    3.34    1.40
  13  -2  10    5.18    1.28
 -13   2  10    0.44    1.02
 -13  -2  10    2.92    0.90
  13  -2 -10    2.75    0.96
  13   3 -10    5.68    1.70
 -13   3  10    5.34    1.45
 -13  -3  10    5.01    1.03
  13  -3 -10    6.21    1.01
  13   4 -10   15.65    2.25
 -13   4  10   11.04    2.01
  13  -4 -10   11.70    1.41
 -13   4 -10   13.59    2.41
 -13  -4  10   12.29    1.41
 -13   5  10   -0.26    1.90
  13   5 -10   -0.58    1.78
  13  -5 -10    0.65    0.75
 -13  -5  10   -1.29    1.08
 -13   5 -10    2.08    1.68
 -13   5 -10    0.19    1.62
 -13   6  10    8.85    2.83
  13   6 -10   16.15    2.83
 -13  -6  10   16.29    2.11
  13  -6 -10   11.61    1.57
 -13   6 -10    8.11    2.45
  13   7 -10   -3.19    2.52
 -13   7  10    2.80    3.26
 -13   7 -10    5.72    2.91
 -13  -7  10   -1.90    1.50
  13   8 -10    3.00    2.99
 -13   8  10    6.16    3.52
 -13   8 -10    9.38    3.68
 -13  -8  10   10.80    2.23
 -13   0  11   -0.17    0.85
  13   0 -11    1.02    1.06
  13  -1  11    1.80    0.49
 -13   1  11    0.13    0.96
  13   1 -11    0.99    1.29
  13  -1 -11    1.73    0.97
 -13  -1  11    0.41    0.88
  13   2 -11   53.71    3.37
 -13   2  11   38.11    2.67
  13  -2 -11   42.73    2.46
 -13  -2  11   41.44    2.38
  13   3 -11    9.56    2.04
 -13   3  11   10.42    1.75
  13  -3 -11   10.00    1.20
 -13  -3  11   13.68    1.72
  13   4 -11    3.54    1.86
 -13   4  11    4.13    1.76
  13  -4 -11    3.75    1.04
 -13   4 -11    2.21    1.83
 -13  -4  11    4.77    1.92
  13   5 -11   42.82    3.94
 -13   5  11   36.52    3.80
 -13  -5  11   41.95    2.67
 -13   5 -11   32.90    3.65
  13  -5 -11   41.29    2.29
 -13   6  11   20.46    3.83
  13  -6 -11   14.88    1.75
 -13  -6  11   20.66    2.32
 -13   6 -11   20.89    3.23
 -13   7  11    2.68    3.22
  13   7 -11    1.57    2.70
 -13  -7  11    1.30    1.62
 -13   7 -11    2.53    2.71
 -13   0  12   19.34    1.85
  13   0 -12   26.01    2.48
 -13   1  12   19.40    2.00
  13   1 -12   22.85    2.50
  13  -1 -12   22.45    2.30
 -13  -1  12   23.16    1.82
 -13   2  12   -0.15    1.21
  13  -2 -12    0.93    1.00
 -13  -2  12    0.73    0.96
  13   3 -12    6.49    1.94
 -13   3  12   11.07    1.86
  13  -3  12    8.85    1.27
 -13  -3  12   11.38    1.41
  13  -3 -12    9.32    1.25
 -13   4  12    0.38    1.82
  13   4 -12   -0.08    1.82
 -13   4 -12    1.15    1.96
 -13  -4  12    0.72    1.14
  13  -4 -12   -0.07    0.95
  13   5 -12    1.59    2.21
 -13   5  12    2.82    2.27
 -13   5 -12    1.17    2.18
  13  -5 -12    2.20    1.11
 -13  -5  12    1.28    1.36
 -13   6  12   11.67    3.04
  13   6 -12   14.89    3.02
 -13  -6  12   10.11    1.80
 -13   6 -12    8.89    2.87
  13   7 -12    5.33    3.14
 -13   7  12    0.28    3.41
 -13  -7  12   -0.17    1.78
 -13   7 -12   -0.91    2.87
  13   0 -13   -2.29    1.30
 -13   0  13    0.79    1.09
 -13   1  13    0.23    1.16
 -13  -1  13    1.15    1.15
  13  -1 -13    0.04    1.33
 -13   2  13   23.67    2.55
  13   2 -13   30.41    3.37
  13  -2 -13   26.25    2.46
 -13  -2  13   23.70    2.05
  13   3 -13    1.39    1.83
 -13   3  13    5.27    2.03
  13  -3 -13    4.61    1.21
 -13  -3  13    3.59    1.62
 -13   3 -13    2.27    1.99
  13  -4  13   49.83    2.96
  13   4 -13   44.93    4.17
 -13   4  13   57.78    4.46
  13  -4 -13   57.07    2.83
 -13   4 -13   44.56    4.11
 -13  -4  13   51.37    2.98
 -13   5  13    2.24    2.55
  13   5 -13    0.75    2.25
 -13  -5  13    2.14    1.35
 -13   5 -13    7.63    2.76
  13   6 -13   19.28    3.29
 -13   6  13   18.66    3.75
 -13   6 -13   35.28    5.24
 -13  -6  13   28.62    3.05
 -13   0  14   41.34    2.74
 -13   1  14    2.12    1.46
  13   1 -14   -0.72    1.56
 -13  -1  14   -0.45    1.16
  13  -1 -14    1.22    1.48
  13   2 -14   67.02    5.54
 -13   2  14   67.96    4.06
  13  -2 -14   73.98    3.88
 -13   3  14   15.61    2.38
  13   3 -14   14.83    2.68
  13  -3 -14   16.41    2.07
 -13   3 -14   14.08    2.56
 -13  -3  14   14.79    1.75
 -13   4  14    4.03    2.87
  13   4 -14   -2.37    2.06
 -13  -4  14    0.18    1.38
 -13   4 -14   -2.43    2.43
 -13   5  14    5.13    2.97
  13   5 -14    1.08    2.69
 -13  -5  14    0.64    1.57
 -13   5 -14    4.71    2.74
  13   6 -14   10.28    3.39
 -13  -6  14    7.09    1.82
 -13   6 -14    6.13    3.03
  13   0 -15   -0.41    1.76
 -13   0  15   -2.23    1.32
 -13   1  15   11.66    2.00
  13   1 -15   16.01    2.43
  13  -1 -15   11.53    2.13
 -13   2  15    2.89    1.90
  13   2 -15    6.88    2.41
  13  -2 -15    4.47    1.93
 -13   2 -15    5.01    2.15
 -13  -2  15    4.31    1.52
 -13   3  15    1.59    2.19
  13   3 -15    0.71    2.28
  13  -3 -15    1.03    1.48
 -13   3 -15    4.20    2.36
 -13  -3  15    5.07    1.62
  13   4 -15   33.98    4.45
 -13   4 -15   39.78    5.08
 -13  -4  15   32.31    2.76
  13   5 -15   -2.25    2.78
 -13  -5  15    0.71    1.61
 -13   5 -15   -0.81    3.16
  13   0 -16    1.70    2.10
 -13   1  16   -0.13    1.73
  13   1 -16    0.03    2.01
  13  -1 -16   -2.37    1.82
 -13  -1  16   -3.04    1.43
 -13   1 -16    0.85    2.11
  13   2 -16   -2.62    2.40
  13  -2 -16    3.02    2.03
 -13   2 -16    1.28    2.31
 -13  -2  16    0.32    1.42
  13   3 -16    6.40    2.70
 -13   3 -16    6.09    2.60
 -13  -3  16    2.19    1.57
  13   4 -16    4.09    2.94
 -13   4 -16    2.05    2.91
 -13  -4  16   -0.53    1.65
 -13   0 -17   -3.16    2.11
  13   0 -17   -2.65    2.19
  13   1 -17   -0.30    2.23
  13  -1 -17    1.65    2.22
 -13   1 -17    3.11    2.49
 -13  -1  17    4.41    1.64
  13   2 -17    4.60    2.45
 -13  -2  17    0.37    1.85
 -13   2 -17    5.57    2.66
  14   0   0  268.53    9.00
 -14   0   0  264.87    9.11
  14   0   0  223.83    9.01
 -14   0   0  260.07    9.03
  14   1   0   -0.06    0.41
 -14  -1   0    0.23    0.44
  14  -1   0   -0.21    0.41
 -14   1   0    0.35    0.42
  14   1   0    0.13    0.33
 -14  -1   0   -0.09    0.32
 -14   1   0   -0.26    0.41
  14  -1   0    0.61    0.51
  14   2   0   77.72    3.16
 -14  -2   0   81.44    3.40
 -14  -2   0   83.58    3.14
 -14   2   0   86.31    3.57
  14   2   0   84.95    3.30
 -14   3   0    0.39    0.74
 -14  -3   0    0.02    0.43
 -14  -3   0    0.44    0.87
 -14  -4   0   12.35    0.99
 -14   4   0   12.89    1.59
  14   4   0   12.85    1.42
 -14   5   0    0.60    1.25
  14   5   0   -0.71    0.80
 -14  -5   0    0.53    0.59
 -14   6   0   18.29    2.38
  14   6   0   17.12    1.92
 -14   6   0   18.66    2.42
 -14  -6   0   16.03    1.47
  14   7   0   -1.75    1.19
 -14  -7   0    0.18    0.82
 -14   7   0    1.62    1.95
 -14   8   0    1.28    2.38
 -14  -8   0    3.06    1.11
 -14   8   0    3.24    2.13
 -14   9   0   -0.16    3.01
 -14  -9   0   -0.25    1.23
 -14 -10   0   18.53    2.11
 -14  10   0   11.01    4.30
 -14   0  -1    0.66    0.40
 -14   0   1    0.03    0.36
 -14   0   1   -0.12    0.49
 -14   0  -1   -0.06    0.29
  14   0   1   -0.15    0.39
  14   0  -1    0.12    0.39
  14   0  -1    0.03    0.51
  14   0   1    0.44    0.37
  14   1  -1  137.29    4.98
 -14   1   1  140.81    5.18
  14   1  -1  138.02    5.31
 -14  -1  -1  137.21    4.95
 -14   1   1  136.39    5.11
 -14  -1  -1  137.04    5.11
  14  -1   1  135.19    5.04
  14   1   1  142.11    5.04
 -14  -1   1  134.61    5.00
 -14   1  -1  133.59    5.14
  14  -1  -1  132.39    5.05
 -14  -1   1  137.79    5.20
  14   1   1  136.29    4.93
 -14   1  -1  139.28    5.09
  14  -1  -1  134.12    5.08
 -14   2   1  183.28    6.78
  14   2  -1  193.79    6.69
 -14  -2  -1  179.46    6.44
 -14  -2  -1  182.62    6.65
 -14  -2   1  173.89    6.75
 -14  -2   1  167.35    6.62
  14   2   1  184.82    6.45
 -14   2  -1  170.74    6.86
  14  -2  -1  182.86    6.62
  14   2   1  185.98    6.55
 -14  -3  -1   73.44    3.18
  14   3  -1   76.94    3.26
 -14   3   1   77.80    3.53
 -14   3  -1   72.80    3.48
 -14  -3   1   73.93    2.96
  14   3   1   76.99    3.02
  14   4  -1  101.52    4.19
 -14  -4  -1   99.95    3.91
 -14   4   1  103.10    4.72
 -14  -4   1  101.86    3.96
 -14   4  -1  102.09    4.67
  14   4   1  106.34    3.99
 -14   5   1   -0.53    1.19
  14   5  -1    0.23    0.90
 -14  -5  -1   -0.12    0.54
  14   5   1   -0.16    0.86
 -14   5  -1    0.14    1.20
 -14  -5   1    0.66    0.56
  14   6  -1   80.37    3.69
 -14   6   1   78.69    3.98
 -14   6   1   79.71    4.58
 -14  -6  -1   79.62    3.34
 -14  -6   1   78.73    3.43
  14   6   1   74.21    4.20
 -14   6  -1   77.43    4.65
 -14   6  -1   74.90    4.10
 -14  -7  -1   15.73    1.45
  14   7  -1   15.06    2.13
 -14   7   1   13.54    1.97
  14   7   1   12.06    1.86
 -14  -7   1   11.15    1.58
 -14   7  -1   13.02    2.19
 -14   8   1    2.12    2.37
 -14   8   1    0.67    2.50
 -14  -8  -1    1.00    1.22
  14   8  -1   -1.34    1.54
 -14   8  -1    1.41    2.28
 -14  -8   1   -0.47    1.08
 -14   8  -1    4.20    2.62
 -14   9   1    4.23    2.97
 -14  -9  -1    5.54    1.52
 -14   9  -1   13.71    3.83
 -14  -9   1    4.03    1.40
 -14 -10  -1   10.08    1.83
 -14  10   1    4.11    4.22
 -14  10  -1   11.87    4.11
 -14 -10   1   11.03    1.92
  14   0  -2   92.44    3.40
  14   0   2   89.52    3.30
 -14   0   2   85.01    3.57
  14   0  -2   86.76    3.49
 -14   0  -2   87.50    3.35
 -14   0   2   84.87    3.50
 -14   0  -2   91.57    3.42
 -14   1   2   11.06    0.99
  14  -1   2    8.90    0.89
  14   1  -2    9.39    1.06
 -14  -1  -2    9.99    0.67
 -14   1   2    9.40    0.90
 -14  -1  -2    9.11    0.87
 -14  -1   2    7.81    1.16
  14  -1  -2    9.47    0.91
 -14   1  -2    9.54    0.86
 -14   1  -2    9.17    0.92
  14   1   2    9.95    0.70
  14   1   2   11.29    0.81
  14  -2   2   47.94    2.35
 -14  -2  -2   52.58    2.03
  14   2  -2   53.29    2.41
 -14  -2  -2   52.23    2.23
 -14   2   2   51.77    2.33
 -14  -2   2   51.93    2.17
  14   2   2   51.28    2.13
  14  -2  -2   52.14    2.25
  14   2   2   51.30    2.06
  14   3  -2    9.46    1.21
 -14  -3  -2   12.75    1.10
 -14  -3  -2   11.36    0.76
 -14   3   2    7.89    1.15
  14   3   2   11.30    0.82
 -14  -3   2   11.14    0.89
 -14   3  -2    8.25    1.20
  14  -3  -2   11.66    1.03
 -14  -4  -2    0.61    0.71
  14   4  -2    0.45    0.82
 -14   4   2   -0.27    0.93
 -14  -4  -2   -0.15    0.42
  14   4   2    0.44    0.51
 -14  -4   2    1.02    0.62
 -14   4  -2    0.16    1.07
  14   5  -2    3.70    1.12
 -14  -5  -2    2.94    0.65
 -14   5   2    4.36    1.47
 -14   5  -2    3.26    1.42
 -14  -5   2    4.19    0.81
  14   5   2    2.78    0.72
 -14   6   2   43.26    3.48
  14   6  -2   49.76    3.00
 -14   6   2   49.55    3.15
 -14  -6  -2   49.22    2.29
 -14  -6   2   43.79    2.48
 -14   6  -2   55.96    3.53
  14   6   2   45.33    2.20
 -14   6  -2   45.24    3.57
 -14   7   2   15.89    2.09
 -14  -7  -2   13.09    1.44
  14   7  -2   18.81    2.66
 -14   7  -2   14.17    2.29
 -14  -7   2   16.09    1.89
 -14   7  -2   11.12    2.89
  14   8  -2   17.99    2.26
 -14  -8  -2   19.90    2.07
 -14   8   2   17.05    3.19
 -14   8  -2   15.26    2.78
 -14   8  -2   18.72    2.84
 -14  -8   2   15.65    2.05
 -14   9   2    8.44    3.38
 -14  -9  -2    2.20    1.49
 -14   9  -2    3.76    3.24
 -14  -9   2    0.68    1.50
 -14   9  -2   -3.16    3.14
 -14  10   2   11.92    4.09
 -14 -10  -2    2.95    1.71
 -14  10  -2    6.71    3.64
 -14 -10   2    7.33    2.02
 -14   0   3    0.28    0.62
 -14   0  -3   -0.35    0.29
 -14   0   3   -0.55    0.43
  14   0   3   -0.22    0.34
 -14   0  -3   -0.04    0.39
  14   0  -3   -0.03    0.43
 -14  -1  -3   14.73    0.96
 -14   1   3   14.54    1.17
 -14   1   3   15.01    1.12
 -14  -1  -3   13.59    0.79
  14  -1   3   15.04    1.00
  14   1  -3   13.80    1.13
  14   1   3   15.44    0.78
 -14  -1   3   14.14    0.98
 -14   1  -3   13.31    1.08
 -14   1  -3   14.36    1.07
  14  -1  -3   14.47    1.10
 -14  -2  -3  149.38    5.29
  14   2  -3  145.45    5.70
 -14   2   3  149.60    5.76
 -14  -2  -3  151.49    5.48
  14  -2   3  143.83    5.63
 -14   2  -3  146.82    5.83
 -14  -2   3  150.87    5.47
  14  -2  -3  152.06    5.54
  14   2   3  145.91    5.29
 -14   3   3  145.69    5.84
  14   3  -3  144.46    5.69
 -14  -3  -3  144.12    5.21
 -14  -3  -3  141.53    5.41
 -14   3  -3  139.58    5.87
 -14  -3   3  144.20    5.39
  14   3   3  151.09    5.23
  14  -3  -3  147.88    5.46
 -14   4   3   24.19    2.20
 -14  -4  -3   28.91    1.66
  14   4  -3   24.29    1.89
 -14  -4  -3   27.97    1.41
  14   4   3   28.05    1.30
 -14   4  -3   28.99    2.43
 -14  -4   3   28.02    1.57
 -14   5   3   21.67    2.50
 -14  -5  -3   26.14    1.42
  14   5  -3   24.23    2.31
 -14  -5   3   25.64    1.64
  14   5   3   24.05    1.25
 -14   5  -3   21.16    2.46
  14   6  -3    7.72    1.63
 -14  -6  -3    6.86    0.93
 -14   6   3    5.23    1.57
 -14   6   3    6.54    1.99
  14   6   3    5.64    0.80
 -14   6  -3    5.74    1.82
 -14  -6   3    5.73    1.06
 -14   6  -3    6.57    1.88
  14   7  -3   20.61    2.48
 -14  -7  -3   20.96    1.67
 -14   7   3   15.80    3.36
 -14   7   3   18.72    2.18
 -14   7  -3   15.42    2.53
 -14   7  -3   18.57    2.51
 -14  -8  -3    3.49    1.34
 -14   8   3    3.48    2.75
  14   8  -3    9.31    2.09
 -14  -8   3    7.47    1.62
 -14   8  -3    3.85    2.87
 -14   8  -3    6.46    2.35
 -14  -9  -3    2.15    1.54
 -14   9   3    1.95    2.91
 -14   9  -3    4.97    3.19
 -14  -9   3    4.51    1.96
 -14   9  -3    2.43    2.98
 -14   0  -4  345.60   12.39
 -14   0   4  343.36   12.43
 -14   0  -4  351.48   12.33
  14   0   4  366.08   12.23
 -14  -1  -4    4.89    0.63
 -14   1   4    4.04    0.74
 -14   1   4    4.66    0.68
  14  -1   4    5.65    0.75
  14   1  -4    3.81    0.74
 -14  -1  -4    4.16    0.51
 -14   1  -4    4.69    0.70
  14  -1  -4    4.49    0.69
  14   1   4    4.35    0.49
 -14  -1   4    4.59    0.63
 -14   2   4    0.18    0.60
  14   2  -4   -0.23    0.65
  14  -2   4    0.61    0.66
 -14  -2  -4    0.46    0.41
 -14   2   4    0.56    0.66
 -14  -2  -4    0.09    0.25
 -14   2  -4    0.26    0.74
  14  -2  -4    0.60    0.59
 -14  -2   4    0.60    0.42
 -14   3   4    5.12    0.77
 -14  -3  -4    4.62    0.56
 -14   3   4    7.75    1.24
 -14  -3  -4    5.62    0.78
 -14  -3  -4    6.15    0.81
  14   3  -4    5.01    0.97
 -14   3  -4    6.53    1.22
 -14  -3   4    4.22    0.65
  14  -3  -4    4.87    0.71
 -14   4   4    6.38    1.31
 -14  -4  -4    5.66    1.15
 -14  -4  -4    7.51    1.11
  14   4  -4    5.84    1.30
 -14  -4  -4    8.35    0.77
  14  -4  -4    6.89    0.88
 -14   4  -4    6.24    1.38
 -14  -4   4    5.40    0.81
 -14   5   4    2.42    1.71
 -14  -5  -4    1.17    0.54
 -14  -5  -4    1.83    0.95
 -14   5   4    1.40    1.00
  14   5  -4   -0.74    1.11
 -14   5  -4   -0.61    1.43
 -14  -5   4    1.07    0.76
 -14   6   4   74.46    3.50
 -14  -6  -4   73.42    3.13
 -14   6   4   72.93    4.50
  14   6  -4   71.17    3.96
 -14  -6   4   76.13    3.45
 -14   6  -4   87.32    4.60
 -14   6  -4   74.91    4.59
  14   7  -4    0.26    1.66
 -14   7   4    0.67    2.34
 -14  -7  -4   -0.77    0.85
 -14   7  -4    0.11    2.08
 -14   7  -4    1.35    1.97
 -14  -7   4   -1.43    1.07
  14   8  -4   31.49    3.82
 -14   8   4   28.72    3.73
 -14  -8  -4   31.35    2.39
 -14  -8   4   25.30    2.51
 -14   8  -4   30.09    3.75
 -14   8  -4   28.49    3.92
  14   9  -4    5.44    2.39
 -14   9   4    1.18    3.35
 -14  -9  -4    5.98    1.70
 -14  -9   4    6.05    1.80
 -14   9  -4    3.71    2.97
 -14   9  -4    2.92    2.87
 -14   0  -5   -0.05    0.39
  14   0  -5   -0.28    0.57
  14   0   5   -0.58    0.32
 -14   0   5   -0.40    0.42
  14   1  -5   17.61    1.43
 -14  -1  -5   20.87    1.13
  14  -1   5   16.58    1.19
 -14   1   5   18.08    1.29
 -14   1   5   19.13    1.49
 -14  -1  -5   20.97    0.95
 -14  -1   5   20.43    1.16
 -14   1  -5   20.81    1.29
  14  -1  -5   18.52    1.30
  14   1   5   19.99    0.87
  14   2  -5    4.57    0.98
  14  -2   5    3.64    0.85
 -14  -2  -5    4.01    0.44
 -14   2   5    2.71    0.79
 -14  -2  -5    3.67    0.55
 -14   2   5    3.33    0.84
 -14  -2   5    4.68    0.68
 -14   2  -5    3.47    1.01
  14  -2  -5    3.57    0.71
 -14  -3  -5    0.51    0.48
 -14   3   5    0.52    0.93
 -14  -3  -5   -0.11    0.56
 -14  -3  -5    0.56    0.33
 -14   3   5    1.09    0.65
  14   3  -5    0.16    0.71
 -14   3  -5    0.65    0.87
  14  -3  -5    0.18    0.57
 -14  -3   5    0.75    0.59
  14   4  -5   96.32    4.45
 -14  -4  -5   94.61    3.58
 -14  -4  -5   96.25    3.85
 -14   4   5   92.00    3.79
 -14   4   5   96.62    4.53
 -14  -4  -5   97.79    3.97
 -14   4  -5   99.84    4.56
  14  -4  -5   96.45    3.85
 -14  -4   5   96.92    3.89
 -14   5   5   22.00    2.62
  14   5  -5   23.30    2.40
 -14  -5  -5   22.34    1.33
 -14   5   5   20.65    1.66
 -14  -5  -5   23.14    1.64
 -14   5   5   19.55    1.56
 -14  -5   5   22.52    1.67
 -14   5  -5   24.55    2.82
  14   6  -5   11.76    1.98
 -14   6   5    6.20    2.08
 -14  -6  -5    9.18    0.97
 -14   6  -5    8.33    2.09
 -14   6  -5   11.04    2.14
 -14  -6   5   10.11    1.34
  14   7  -5    5.17    2.02
 -14   7   5    4.81    2.45
 -14  -7  -5    3.06    0.98
 -14   7  -5    6.23    2.34
 -14  -7   5    2.99    1.20
 -14   7  -5    5.50    2.29
 -14  -8  -5    1.67    1.31
 -14   8   5    3.80    2.97
  14   8  -5    0.52    2.16
 -14  -8   5    0.89    1.38
 -14   8  -5    1.29    2.61
 -14   8  -5   -0.71    2.27
 -14  -9  -5   -0.36    1.50
  14   9  -5    2.97    2.71
 -14   9   5    3.19    3.76
 -14  -9   5   -0.42    1.71
 -14   9  -5   -3.50    2.73
 -14   9  -5    3.03    3.08
  14   0  -6  351.31   11.97
 -14   0  -6  319.54   11.58
 -14   0   6  319.07   11.76
  14   0   6  331.26   11.44
 -14   1   6   -0.28    1.47
  14   1  -6    1.93    0.81
 -14   1   6    1.40    0.66
  14  -1   6    1.67    0.54
  14  -1  -6    1.63    0.67
  14   1   6    1.78    0.27
 -14   1  -6    1.66    0.56
 -14  -1   6    0.83    0.53
  14   2  -6    0.89    0.87
 -14   2   6    1.78    0.73
  14  -2   6    2.36    0.85
 -14  -2  -6    0.88    0.25
 -14  -2  -6    0.25    0.41
 -14   2   6    0.85    0.72
 -14  -2  -6    0.87    0.41
 -14  -2   6    0.25    0.57
  14  -2  -6   -0.65    0.50
 -14   2  -6    1.48    0.75
 -14  -3  -6   11.46    1.12
 -14  -3  -6   11.38    0.69
 -14   3   6   15.07    1.39
 -14   3   6   11.21    1.44
 -14  -3  -6   11.91    0.93
  14   3  -6   12.78    1.54
 -14  -3   6   10.73    1.10
 -14   3  -6   11.62    1.58
  14  -3  -6   14.90    1.25
 -14   4   6    1.25    0.78
 -14   4   6   -0.39    1.12
  14   4  -6   -0.12    0.95
 -14  -4  -6    0.40    0.54
 -14  -4  -6    0.63    0.36
 -14  -4  -6    1.08    0.75
  14  -4  -6    0.61    0.59
 -14  -4   6   -0.22    0.63
 -14   4  -6   -2.06    0.99
 -14  -5  -6   -0.70    0.58
 -14   5   6   -0.13    1.43
 -14  -5  -6    1.04    0.72
 -14   5   6    0.09    0.69
 -14   5   6   -0.08    0.82
  14   5  -6   -0.15    1.34
 -14  -5   6    0.25    0.79
 -14   5  -6    2.59    1.66
  14  -5  -6    0.25    0.68
 -14   6   6    5.07    2.17
  14   6  -6   -1.50    1.48
 -14  -6  -6   -0.04    0.66
 -14  -6   6    0.22    1.53
 -14   6  -6    1.23    1.75
 -14   6  -6    2.38    1.84
 -14   7   6    4.36    2.42
  14   7  -6    0.89    1.95
 -14  -7  -6    4.31    0.96
 -14   7  -6    3.25    2.22
 -14   7  -6    3.77    2.23
 -14  -7   6    4.22    1.39
 -14  -8  -6   13.26    1.62
  14   8  -6   12.77    2.84
 -14   8   6    8.15    3.20
 -14  -8   6   11.96    1.79
 -14   8  -6   11.03    2.74
 -14   8  -6   12.49    2.98
  14   9  -6   -0.53    2.66
 -14   9   6    4.43    3.58
 -14   9  -6    0.22    2.94
 -14   9  -6    3.42    3.04
 -14  -9   6   -0.10    1.63
 -14   0  -7   -0.41    0.39
  14   0  -7   -0.24    0.65
  14   0   7   -0.16    0.31
 -14   0   7   -0.06    0.56
 -14   1   7   49.15    2.40
  14   1  -7   48.54    2.59
  14  -1   7   50.84    2.21
  14  -1  -7   50.08    2.42
 -14   1  -7   50.52    2.27
 -14  -1   7   50.33    2.31
  14   2  -7    1.97    0.92
 -14   2   7    2.63    0.81
 -14   2   7    2.17    0.90
  14  -2   7    1.00    0.92
  14  -2  -7    1.26    0.67
 -14   2  -7    1.95    0.75
 -14  -2   7    1.89    0.66
 -14  -3  -7    1.17    0.27
 -14   3   7    2.94    1.16
 -14  -3  -7    1.16    0.51
 -14   3   7    0.71    0.70
  14   3  -7    2.11    1.02
 -14  -3  -7    1.01    0.51
 -14   3  -7    0.28    1.03
  14  -3  -7    1.20    0.64
 -14  -3   7    0.71    0.62
 -14   4   7   16.51    1.19
 -14   4   7   20.65    2.49
 -14   4   7   18.25    1.12
 -14  -4  -7   18.53    1.20
  14   4  -7   19.99    2.28
 -14  -4  -7   17.80    1.44
 -14  -4  -7   16.99    0.94
 -14   4  -7   19.55    2.19
  14  -4  -7   21.23    1.37
 -14  -4   7   15.92    1.46
  14   5  -7    4.06    1.63
 -14   5   7    1.04    1.91
 -14  -5  -7    0.28    0.56
  14  -5  -7    0.09    0.72
 -14  -5   7   -0.60    0.78
 -14   5  -7    1.29    1.74
 -14   5  -7   -0.50    1.32
 -14   6   7    1.51    2.07
 -14  -6  -7    3.76    0.80
  14   6  -7    4.33    1.99
 -14   6  -7    3.81    2.05
 -14   6  -7    2.96    1.74
 -14  -6   7    3.65    1.22
 -14   7   7   20.71    3.30
  14   7  -7   20.65    2.71
 -14  -7  -7   19.71    1.59
 -14   7  -7   17.43    2.88
 -14  -7   7   15.25    1.78
 -14   7  -7   19.75    2.91
  14   8  -7   -2.06    2.36
 -14   8   7    3.23    2.98
 -14  -8   7    1.49    1.53
 -14   8  -7    3.66    2.58
 -14   8  -7   -1.46    2.40
  14   9  -7    7.63    3.12
 -14   9   7   -0.23    3.48
 -14  -9   7    7.30    2.10
 -14   9  -7    3.01    3.00
 -14   9  -7   12.66    3.86
  14   0   8  107.09    3.75
 -14   0   8  109.33    4.27
  14   0  -8  101.32    4.43
  14   1  -8    0.93    0.94
 -14   1   8    0.55    0.72
  14  -1   8    1.49    0.68
  14  -1  -8    2.11    0.92
 -14  -1   8   -0.36    0.61
 -14   1  -8    0.86    0.57
 -14   2   8    0.60    0.84
  14   2  -8    0.52    0.96
 -14   2   8   -0.22    0.82
  14  -2   8   -2.48    1.09
 -14   2  -8    0.42    0.79
 -14  -2   8   -0.36    0.62
  14  -2  -8    0.80    0.75
 -14   3   8    5.48    0.75
  14   3  -8    8.32    1.47
 -14  -3  -8    7.02    0.75
 -14   3   8    6.90    1.30
  14  -3  -8    5.11    0.91
 -14  -3   8    7.05    1.03
 -14   3  -8    7.18    1.29
 -14  -4  -8   20.22    0.90
 -14  -4  -8   18.07    1.58
 -14   4   8   20.26    2.46
 -14  -4  -8   18.38    1.21
  14   4  -8   16.93    2.30
 -14   4  -8   20.20    2.11
 -14  -4   8   20.02    1.62
  14  -4  -8   17.21    1.40
 -14   5   8   48.21    3.83
 -14  -5  -8   48.82    2.00
 -14   5  -8   46.19    3.36
  14  -5  -8   48.26    2.43
 -14  -5   8   52.48    2.71
 -14   5  -8   44.92    4.24
 -14   6   8   14.62    2.64
  14   6  -8   13.07    2.36
 -14  -6  -8   13.77    1.43
 -14  -6   8   11.02    1.56
 -14   6  -8   14.41    2.28
 -14   6  -8   10.53    2.40
 -14   7   8    5.97    2.99
  14   7  -8    3.51    2.56
 -14   7  -8    2.79    1.93
 -14  -7   8    0.77    1.20
 -14   7  -8   -1.28    2.33
 -14   8   8    5.86    3.36
  14   8  -8    5.04    2.49
 -14   8  -8    2.97    2.68
 -14   8  -8    4.18    2.74
 -14  -8   8    5.14    1.75
 -14   9   8    1.40    3.68
 -14  -9   8    0.04    1.80
 -14   9  -8    5.07    2.94
  14   0  -9   -1.04    0.83
 -14   0   9    1.41    0.83
  14   1  -9   11.75    1.63
  14  -1   9    9.05    0.99
 -14   1   9   12.08    1.41
 -14  -1   9   11.58    1.24
  14  -1  -9   11.97    1.44
  14   2  -9   -0.01    0.98
 -14   2   9   -0.83    0.85
  14  -2   9    2.98    1.11
 -14   2   9    0.38    0.93
 -14   2  -9   -0.40    0.89
 -14  -2   9    1.52    0.91
  14  -2  -9   -0.50    0.67
 -14   3   9    2.01    1.21
 -14  -3  -9    4.09    0.58
  14   3  -9    4.33    1.47
 -14  -3   9    2.79    0.88
 -14   3  -9    2.61    1.07
  14  -3  -9    2.87    0.80
 -14   4   9   -0.07    1.48
  14   4  -9   -1.24    1.40
 -14   4  -9    0.40    1.13
 -14  -4   9   -0.66    0.91
  14  -4  -9    0.64    0.75
 -14   5   9    7.93    2.10
  14   5  -9   11.56    2.22
 -14  -5   9    9.51    1.46
  14  -5  -9   10.51    1.39
 -14   5  -9    8.78    1.77
 -14   5  -9   10.05    2.30
 -14   6   9    2.85    2.43
  14   6  -9   -0.42    1.97
 -14   6  -9   -0.02    2.03
 -14   6  -9    4.07    2.19
  14  -6  -9    2.55    0.98
 -14  -6   9    2.49    1.17
 -14   7   9   20.66    3.47
  14   7  -9   24.84    3.19
 -14   7  -9   22.58    3.60
 -14  -7   9   19.78    2.42
 -14   7  -9   19.73    2.92
 -14   8   9   -4.07    3.29
  14   8  -9    6.09    2.84
 -14  -8   9    4.40    1.93
 -14   8  -9    1.91    2.21
 -14   8  -9    0.14    2.85
 -14   0  10    2.85    0.88
  14   0 -10    3.91    1.23
 -14   1  10   10.35    1.23
  14  -1  10    8.70    0.96
  14   1 -10   11.74    1.66
 -14  -1  10   10.26    1.43
  14  -1 -10    9.02    1.41
  14   2 -10   30.83    2.61
 -14   2  10   30.17    2.28
  14  -2  10   30.74    2.19
  14  -2 -10   28.47    1.94
 -14  -2  10   28.18    1.90
 -14   3  10   17.12    2.28
  14   3 -10   17.20    2.52
 -14  -3  10   19.69    1.70
  14  -3 -10   18.83    1.63
 -14   4  10    2.14    1.60
  14   4 -10   -0.44    1.56
 -14   4 -10    2.26    1.38
  14  -4 -10    2.32    0.98
 -14  -4  10    0.24    0.98
 -14   5  10    3.04    1.98
  14   5 -10    2.92    1.89
 -14  -5  10    2.63    1.14
 -14   5 -10    4.74    1.75
 -14   5 -10    5.23    2.22
  14  -5 -10    2.95    0.83
 -14   6  10    7.20    3.06
  14   6 -10    9.96    2.67
 -14  -6  10    9.57    1.61
 -14   6 -10    8.96    2.84
  14  -6 -10    7.61    1.19
 -14   7  10    0.76    3.05
  14   7 -10    1.60    2.60
 -14   7 -10    6.75    3.03
 -14  -7  10    1.52    1.59
 -14   7 -10    3.44    2.40
  14   8 -10    4.42    3.12
 -14   8  10   -1.28    3.43
 -14   8 -10   -2.31    3.27
 -14  -8  10   -1.97    1.68
  14   0 -11    0.93    1.11
 -14   0  11   -0.55    0.82
 -14   1  11   -0.20    0.88
  14  -1  11   -0.60    0.43
  14   1 -11    0.09    1.26
 -14  -1  11   -0.28    0.79
  14  -1 -11   -1.07    0.90
 -14   2  11   -1.26    1.05
  14   2 -11    0.66    1.39
 -14  -2  11   -0.17    0.89
  14  -2 -11   -0.27    0.91
 -14   3  11   32.10    2.78
  14   3 -11   33.97    3.07
  14  -3 -11   35.52    2.21
 -14  -3  11   30.24    2.25
  14   4 -11    2.34    1.95
 -14   4  11   -1.23    1.79
 -14  -4  11    2.26    1.24
  14  -4 -11    0.75    0.85
 -14   4 -11    0.42    1.89
 -14   5  11    2.71    2.18
  14   5 -11    2.59    2.17
 -14   5 -11    1.67    2.01
 -14  -5  11    2.08    1.27
  14  -5 -11    4.30    1.08
 -14   6  11   -0.86    2.66
  14   6 -11    0.98    2.34
 -14   6 -11   -0.32    2.34
  14  -6 -11   -1.24    1.05
 -14  -6  11   -0.31    1.34
 -14   7  11    6.57    3.17
  14   7 -11    8.96    2.94
 -14  -7  11    9.79    1.98
 -14   7 -11    6.91    3.34
 -14   0  12   26.81    2.03
  14   0 -12   23.80    2.30
  14   1 -12    0.64    1.42
 -14   1  12   -0.48    1.00
  14  -1 -12    1.65    1.18
 -14  -1  12   -1.34    0.85
 -14   2  12   11.61    1.68
  14   2 -12    9.20    1.90
  14  -2 -12   12.10    1.50
 -14  -2  12   12.67    1.71
  14   3 -12    2.63    1.99
 -14   3  12    0.03    1.54
 -14  -3  12   -0.20    1.06
  14  -3 -12    1.90    1.03
  14   4 -12   14.98    2.69
 -14   4  12   11.62    2.30
 -14   4 -12    8.04    2.28
 -14  -4  12   14.00    1.63
  14  -4 -12   17.79    1.92
  14   5 -12    4.86    2.50
 -14   5  12    0.35    2.29
  14  -5 -12   -1.11    1.00
 -14   5 -12   -0.86    2.21
 -14  -5  12   -3.18    1.19
  14   6 -12    3.81    2.61
 -14   6  12    4.48    3.03
 -14  -6  12    6.34    1.80
 -14   6 -12    1.78    2.81
  14   7 -12   -4.13    2.75
 -14   7  12    0.03    3.26
 -14   7 -12   -2.64    2.65
 -14  -7  12   -0.98    1.70
 -14   0  13    0.71    1.25
  14   0 -13    0.24    1.29
 -14   1  13    5.32    1.36
  14   1 -13    4.09    1.66
  14  -1 -13    5.26    1.41
 -14  -1  13    5.08    1.28
  14   2 -13   -0.87    1.68
 -14   2  13   -1.55    1.32
  14  -2 -13   -1.21    1.08
 -14  -2  13   -0.25    1.08
 -14   3  13   10.00    2.06
  14   3 -13    8.51    2.33
 -14  -3  13   10.05    1.54
  14  -3 -13    9.59    1.41
 -14   4  13   19.36    2.68
  14   4 -13   27.17    4.06
 -14  -4  13   22.16    2.47
  14  -4 -13   17.96    1.94
 -14   4 -13   27.20    4.13
 -14   5  13    0.36    2.56
  14   5 -13    3.03    2.76
 -14  -5  13    0.16    1.48
 -14   5 -13    0.00    2.24
  14   6 -13    2.81    2.86
 -14   6  13    2.68    3.14
 -14  -6  13    0.98    1.66
 -14   6 -13   -2.01    2.99
  14   0 -14   66.25    3.86
 -14   0  14   65.53    3.43
  14   1 -14    7.60    1.95
 -14   1  14    9.05    1.77
 -14  -1  14    8.08    1.50
  14  -1 -14    8.37    1.69
  14   2 -14   -0.66    1.96
 -14   2  14    2.12    1.81
 -14  -2  14    2.10    1.36
  14  -2 -14   -1.34    1.23
  14   3 -14   10.33    2.52
 -14   3  14    9.88    2.46
 -14   3 -14    7.07    2.32
 -14  -3  14    8.18    1.57
  14  -3 -14    7.96    1.55
  14   4 -14    8.55    3.01
 -14   4  14    1.82    2.97
 -14   4 -14   -2.25    2.41
 -14  -4  14   -0.69    1.40
  14   5 -14    9.51    3.19
 -14   5  14    5.92    2.99
 -14  -5  14    9.11    1.79
 -14   5 -14    4.63    2.99
 -14  -6  14   -0.19    1.71
 -14   0  15   -0.65    1.41
  14   0 -15    1.54    1.64
  14   1 -15   17.70    2.48
 -14   1  15   19.46    2.22
 -14  -1  15   21.50    2.55
  14  -1 -15   20.21    2.83
  14   2 -15   15.24    2.60
 -14   2  15   13.76    2.36
 -14   2 -15   14.17    2.55
  14  -2 -15   12.99    2.38
 -14  -2  15   15.00    1.79
  14   3 -15   13.54    2.76
 -14   3  15   15.19    2.94
 -14   3 -15    8.37    2.85
 -14  -3  15   13.98    1.83
  14  -3 -15   10.83    2.04
  14   4 -15   15.11    3.30
 -14  -4  15   21.36    2.69
 -14   4 -15   19.83    3.43
  14   5 -15    8.45    3.30
 -14  -5  15    5.52    1.85
 -14   5 -15   -1.23    3.01
 -14   0  16   22.51    2.46
  14   0 -16   18.34    2.43
  14   1 -16    2.53    1.95
 -14   1  16    3.80    1.95
 -14  -1  16    4.64    1.65
  14  -1 -16    5.26    1.86
 -14   1 -16    5.37    2.47
 -14   2  16   13.28    2.51
  14   2 -16   13.57    2.73
  14  -2 -16   17.65    2.23
 -14  -2  16   20.46    2.61
 -14   2 -16   14.36    2.88
  14   3 -16   -2.20    2.61
 -14  -3  16   -0.46    1.52
 -14   3 -16    2.42    2.43
  14   4 -16    1.85    2.87
 -14   4 -16   -4.42    2.61
 -14  -4  16    0.23    1.79
 -14   0 -17    0.95    2.45
  14   0 -17    2.43    2.19
  14   1 -17    6.22    2.65
 -14  -1  17    8.29    1.98
 -14   1 -17    7.85    2.57
  14  -1 -17    7.12    2.21
  14   2 -17    8.68    2.78
 -14   2 -17    9.61    2.68
 -14  -2  17    5.94    1.91
  15   0   0    0.59    0.39
 -15   0   0   -0.07    0.50
 -15   0   0    0.30    0.43
  15   0   0    0.88    0.49
 -15  -1   0   23.02    1.38
 -15  -1   0   22.91    1.15
  15  -1   0   27.49    1.39
  15   1   0   22.99    1.17
 -15   1   0   24.36    1.45
 -15   1   0   19.93    1.36
  15  -1   0   23.72    1.30
 -15   2   0    0.61    0.73
 -15  -2   0    0.20    0.41
  15   2   0   -0.04    0.43
 -15  -2   0    0.39    0.61
  15   2   0    0.27    0.69
 -15   3   0   46.79    2.58
 -15  -3   0   48.38    2.03
  15   3   0   44.88    2.30
 -15   4   0   -1.25    0.95
  15   4   0   -0.44    0.68
 -15  -4   0   -0.31    0.46
 -15  -5   0   83.43    3.38
  15   5   0   78.76    3.54
 -15  -6   0   -0.84    0.71
  15   6   0   -1.97    0.94
 -15   6   0    0.26    1.67
 -15   6   0   -0.10    1.49
 -15   7   0    2.20    1.87
 -15   7   0    1.83    1.99
  15   7   0   -0.35    1.20
 -15  -7   0    2.15    1.10
 -15  -8   0   -1.49    0.96
 -15   8   0   -0.03    2.36
 -15   8   0    1.72    2.38
 -15  -9   0   -1.76    1.26
 -15   9   0   -2.63    2.75
 -15 -10   0   -0.63    1.65
 -15  10   0    0.37    3.96
  15   0  -1    0.24    0.44
 -15   0  -1   -0.51    0.47
 -15   0   1    0.30    0.43
  15   0   1   -0.11    0.42
  15   0  -1   -0.48    0.41
 -15   0   1    0.03    0.55
 -15   0  -1   -0.28    0.33
  15   1  -1    1.82    0.61
 -15  -1  -1    0.91    0.65
  15   1  -1    1.22    0.45
 -15   1   1    1.77    0.60
 -15   1   1    1.98    0.62
  15  -1   1    1.93    0.55
 -15  -1  -1    1.34    0.39
  15  -1  -1    2.02    0.54
 -15   1  -1    2.38    0.56
 -15  -1   1    1.28    0.62
 -15  -1   1    2.18    0.61
  15   1   1    1.66    0.53
 -15   1  -1    2.37    0.57
  15   1   1    2.06    0.43
 -15  -2  -1    5.18    0.60
 -15   2   1    6.09    0.91
 -15  -2  -1    4.47    0.77
  15   2   1    4.37    0.61
  15  -2  -1    4.09    0.64
  15   2   1    3.83    0.68
 -15  -2   1    6.71    0.77
 -15   2  -1    6.25    1.01
  15   3  -1   27.96    1.68
 -15  -3  -1   27.65    1.68
 -15   3   1   27.56    1.94
 -15  -3  -1   27.95    1.40
 -15  -3   1   28.57    1.45
  15   3   1   26.79    1.53
 -15   3  -1   27.26    1.98
  15   4  -1    1.53    0.86
 -15  -4  -1    0.36    0.50
 -15   4   1    0.59    1.02
  15   4   1   -0.90    0.68
 -15  -4   1    0.20    0.50
 -15   4  -1    0.89    1.24
 -15   5   1    6.23    1.56
  15   5  -1    5.65    1.11
 -15  -5  -1    5.35    0.81
 -15   5  -1    7.98    1.64
 -15  -5   1    4.69    0.85
 -15  -6  -1   15.87    1.44
  15   6  -1   12.51    1.89
 -15   6   1   17.28    2.35
 -15   6   1   15.66    2.00
 -15  -6   1   16.33    1.56
 -15   6  -1   15.12    2.07
 -15   6  -1   16.80    2.42
  15   6   1   13.03    1.94
 -15  -7  -1   21.26    1.83
 -15   7   1   27.02    3.26
  15   7  -1   20.77    2.29
 -15   7   1   26.04    3.13
 -15   7  -1   19.19    2.91
 -15  -7   1   22.53    1.91
  15   7   1   22.35    2.19
 -15   7  -1   27.03    3.70
 -15  -8  -1    0.91    1.10
 -15   8   1    6.93    3.07
 -15  -8   1   -0.13    1.27
 -15   8  -1    0.66    2.55
 -15   8  -1   -0.57    2.12
 -15  -9  -1   14.57    1.75
 -15   9   1   19.12    3.90
 -15  -9   1   11.11    1.81
 -15   9  -1   17.43    3.38
 -15  10   1   11.76    4.79
 -15 -10  -1   -1.18    1.55
 -15  10  -1   -1.84    3.58
 -15 -10   1    0.90    1.97
  15   0   2   26.66    1.23
 -15   0   2   23.87    1.56
 -15   0  -2   26.42    1.37
  15   0  -2   28.38    1.50
 -15   0   2   23.94    1.36
 -15   0  -2   23.61    1.28
 -15  -1  -2    0.32    0.44
 -15  -1  -2   -0.13    0.32
  15   1  -2    0.03    0.49
  15  -1   2    0.08    0.45
 -15   1   2   -0.12    0.48
  15   1   2    0.46    0.42
 -15   1  -2   -0.26    0.45
 -15  -1   2   -0.09    0.40
 -15   1  -2   -0.26    0.41
  15  -1  -2    0.01    0.44
  15   1   2   -0.22    0.35
 -15  -2  -2   28.66    1.32
 -15   2   2   27.49    1.70
 -15  -2  -2   29.15    1.52
  15   2  -2   28.91    1.70
  15  -2  -2   33.17    1.62
 -15   2  -2   29.70    1.93
  15   2   2   29.55    1.36
 -15  -2   2   30.24    1.50
  15   2   2   31.83    1.46
  15   3  -2  289.79   10.23
 -15  -3  -2  274.38   10.10
 -15  -3  -2  280.26    9.86
  15   3   2  288.12    9.91
 -15  -3   2  276.16    9.97
 -15   3  -2  272.33   10.44
  15  -3  -2  278.74   10.08
 -15   4   2    1.17    1.20
  15   4  -2    0.23    0.81
 -15  -4  -2    0.12    0.47
  15   4   2   -0.24    0.50
 -15  -4   2    0.13    0.48
 -15   4  -2    1.38    1.18
  15   5  -2   24.74    2.12
 -15   5   2   22.62    2.47
 -15  -5  -2   26.03    1.49
 -15   5  -2   24.57    2.55
 -15  -5   2   25.85    1.64
  15   5   2   28.04    1.51
  15   6  -2   -0.48    1.22
 -15  -6  -2    0.40    0.72
 -15   6   2   -1.26    1.63
 -15   6   2    1.23    1.37
  15   6   2    0.50    0.78
 -15   6  -2   -0.80    1.49
 -15   6  -2   -0.12    1.64
 -15  -6   2   -0.18    0.74
 -15   7   2    3.50    2.21
  15   7  -2    0.53    1.50
 -15   7   2    0.77    1.59
 -15  -7  -2    1.16    0.89
 -15   7  -2    2.26    2.14
 -15   7  -2   -0.40    1.94
 -15  -7   2   -0.33    1.04
 -15   8   2    9.20    2.92
  15   8  -2   13.41    2.17
 -15  -8  -2   11.42    1.90
 -15   8  -2   11.43    2.47
 -15   8  -2   12.61    2.86
 -15  -8   2   12.21    1.66
 -15   9   2    4.91    3.17
 -15  -9  -2    4.42    1.42
 -15  -9   2    5.72    1.74
 -15   9  -2    6.80    3.52
 -15   9  -2    7.35    3.29
 -15   0  -3    0.16    0.32
 -15   0   3   -0.01    0.45
 -15   0  -3   -0.22    0.40
  15   0   3   -0.91    0.39
  15   0  -3   -0.08    0.42
 -15   1   3  139.56    5.37
 -15  -1  -3  144.43    5.09
 -15  -1  -3  142.59    5.24
  15  -1   3  141.30    5.22
  15   1  -3  137.93    5.41
  15   1   3  142.24    5.04
 -15  -1   3  138.74    5.24
 -15   1  -3  141.23    5.36
  15  -1  -3  143.32    5.33
 -15   2   3    2.59    0.85
  15   2  -3    1.20    0.68
 -15  -2  -3    1.47    0.53
 -15  -2  -3    1.43    0.33
 -15   2  -3   -0.11    0.92
  15  -2  -3    0.93    0.50
 -15  -2   3    1.52    0.51
 -15  -3  -3   13.26    1.15
 -15   3   3   12.68    1.57
  15   3  -3   13.05    1.43
 -15  -3  -3   13.37    0.81
 -15  -3   3   14.58    1.10
 -15   3  -3   13.35    1.61
  15  -3  -3   12.31    1.09
  15   3   3   15.44    0.92
 -15   4   3   18.34    2.08
 -15  -4  -3   20.84    1.20
 -15  -4  -3   22.72    1.59
  15   4  -3   18.81    1.79
 -15   4  -3   18.89    2.04
  15   4   3   19.48    1.13
 -15  -4   3   19.92    1.32
 -15  -5  -3    2.15    0.63
 -15   5   3    2.54    1.38
  15   5  -3    1.07    1.12
 -15  -5   3    1.18    0.75
  15   5   3    2.15    0.56
 -15   5  -3    4.64    1.63
 -15   6   3    8.25    1.68
  15   6  -3    7.82    1.56
 -15   6   3    7.83    1.99
 -15  -6  -3    9.94    1.30
 -15  -6   3   11.09    1.52
 -15   6  -3    8.88    2.17
 -15   6  -3    6.79    1.85
  15   6   3    8.31    0.99
  15   7  -3   28.57    2.82
 -15   7   3   35.96    3.60
 -15  -7  -3   31.81    1.94
 -15   7   3   35.15    4.28
 -15   7  -3   33.39    3.98
 -15   7  -3   30.81    3.80
 -15  -7   3   28.47    2.21
 -15  -8  -3    0.19    1.00
 -15   8   3   -1.66    2.56
  15   8  -3    3.59    2.10
 -15   8  -3    5.42    2.73
 -15  -8   3    0.97    1.32
 -15  -9  -3   15.78    1.79
 -15   9   3    7.22    3.43
 -15  -9   3   14.66    2.07
 -15   9  -3   10.26    3.34
 -15   9  -3   16.21    3.25
  15   0   4  300.75   10.39
 -15   0  -4  292.88   10.49
 -15   0  -4  303.21   10.58
  15   0  -4  301.27   10.71
 -15   0   4  288.55   10.60
  15   1  -4   11.98    1.19
 -15   1   4   13.50    1.15
  15  -1   4   11.53    0.96
 -15  -1  -4   10.65    0.74
 -15  -1  -4   11.69    0.92
 -15   1  -4   11.81    1.08
  15   1   4   12.25    0.71
  15  -1  -4   10.73    1.06
 -15  -1   4   12.52    0.98
 -15  -2  -4    5.08    0.73
 -15   2   4    3.67    0.85
  15   2  -4    6.05    1.08
 -15  -2  -4    4.06    0.50
  15  -2   4    5.21    0.96
  15   2   4    4.52    0.61
 -15  -2   4    3.84    0.64
  15  -2  -4    3.79    0.67
 -15   3   4   18.59    1.86
 -15  -3  -4   18.71    0.96
  15   3  -4   16.60    1.58
 -15  -3  -4   19.87    1.23
 -15   3  -4   16.56    1.74
 -15  -3   4   19.47    1.26
  15  -3  -4   17.86    1.30
 -15  -4  -4    0.84    0.55
 -15  -4  -4    1.62    0.86
 -15   4   4    1.93    1.34
 -15  -4  -4    0.95    0.66
  15   4  -4    2.87    1.16
 -15   4  -4    0.12    1.13
  15  -4  -4    0.37    0.63
 -15  -4   4    1.96    0.76
 -15  -5  -4   55.58    2.50
 -15   5   4   59.17    3.09
 -15   5   4   57.02    3.63
  15   5  -4   61.62    3.41
 -15  -5   4   62.76    2.84
 -15   5  -4   61.80    3.74
 -15   6   4    5.43    1.32
 -15  -6  -4    4.04    0.86
 -15   6   4    2.58    1.91
  15   6  -4    5.26    1.62
 -15  -6   4    4.82    1.04
 -15   6  -4    3.50    1.77
 -15   6  -4    4.12    1.86
  15   7  -4    3.77    1.98
 -15   7   4   -1.30    2.12
 -15  -7  -4    0.21    0.82
 -15  -7   4    1.90    1.09
 -15   7  -4    3.73    2.46
 -15   7  -4    1.24    2.01
 -15  -8  -4   22.69    1.95
  15   8  -4   21.60    3.31
 -15   8   4   26.11    3.91
 -15   8  -4   23.47    3.04
 -15   8  -4   27.38    3.81
 -15  -8   4   20.67    2.33
  15   9  -4    0.34    2.35
 -15  -9  -4    0.56    1.26
 -15   9   4    1.49    3.58
 -15   9  -4    1.91    3.19
 -15  -9   4   -2.49    1.54
 -15   9  -4    0.07    2.81
 -15   0   5    0.87    0.58
 -15   0  -5   -0.63    0.44
  15   0   5    0.56    0.35
  15   0  -5   -1.14    0.54
 -15  -1  -5   18.27    0.91
 -15   1   5   16.03    1.25
 -15  -1  -5   15.28    1.09
  15   1  -5   19.86    1.56
  15  -1   5   19.84    1.16
  15   1   5   18.51    0.86
  15  -1  -5   18.74    1.32
 -15   1  -5   18.51    1.30
 -15  -1   5   17.79    1.19
  15  -2   5   -0.32    0.81
 -15  -2  -5    0.13    0.25
 -15   2   5    0.77    0.78
 -15  -2  -5    0.43    0.42
  15   2  -5    0.22    0.75
 -15   2  -5    1.30    0.92
  15  -2  -5    0.09    0.62
 -15  -2   5    0.19    0.49
 -15  -3  -5   33.82    1.72
 -15   3   5   37.93    2.73
 -15   3   5   33.68    2.25
 -15  -3  -5   34.14    1.43
 -15  -3  -5   34.70    1.75
  15   3  -5   34.11    2.22
 -15  -3   5   34.34    1.79
  15  -3  -5   31.94    1.78
 -15   3  -5   34.67    2.25
 -15  -4  -5   43.08    2.24
  15   4  -5   44.27    2.71
 -15  -4  -5   44.81    1.90
 -15   4   5   44.54    2.93
 -15  -4  -5   42.90    2.42
 -15  -4   5   46.86    2.24
 -15   4  -5   48.37    3.05
  15  -4  -5   47.26    2.18
 -15  -5  -5    8.04    1.19
 -15   5   5   13.31    2.06
 -15   5   5    8.76    1.22
  15   5  -5    8.82    1.57
 -15  -5  -5    9.54    1.04
 -15   5  -5    9.46    1.79
 -15  -5   5   10.52    1.29
 -15  -6  -5   12.56    1.31
  15   6  -5   10.17    1.84
 -15   6   5   12.61    2.55
 -15   6  -5   11.20    2.22
 -15  -6   5   10.88    1.36
 -15   6  -5   12.46    2.17
 -15  -7  -5   29.10    1.88
  15   7  -5   26.58    3.37
 -15   7   5   25.73    3.34
 -15  -7   5   32.42    2.41
 -15   7  -5   23.26    3.13
 -15   7  -5   32.73    3.96
 -15  -8  -5    3.26    1.20
  15   8  -5    4.09    2.33
 -15   8   5   -0.17    2.68
 -15   8  -5    7.99    3.29
 -15   8  -5    0.73    2.36
 -15  -8   5    6.31    1.57
 -15  -9  -5    2.56    1.44
  15   9  -5    9.70    2.83
 -15   9   5    5.28    3.44
 -15   9  -5    2.43    2.93
 -15  -9   5    2.28    1.65
 -15   9  -5    1.27    2.98
 -15   0   6   53.28    2.43
  15   0   6   55.50    2.07
 -15   0  -6   53.30    2.23
  15   0  -6   49.58    2.53
 -15   1   6   28.44    1.65
  15  -1   6   27.81    1.46
 -15  -1  -6   26.04    1.22
  15   1  -6   26.83    1.77
  15   1   6   26.62    1.09
 -15  -1   6   25.50    1.51
  15  -1  -6   30.61    1.76
 -15   1  -6   26.35    1.60
 -15  -2  -6   18.32    0.85
 -15   2   6   16.31    2.18
  15   2  -6   16.83    1.70
 -15  -2  -6   16.88    1.00
 -15  -2  -6   18.13    1.12
 -15   2   6   17.80    1.56
  15  -2   6   20.40    1.54
  15  -2  -6   19.80    1.45
 -15   2  -6   18.27    1.94
 -15  -2   6   17.84    1.28
 -15  -3  -6   28.08    1.58
  15   3  -6   26.57    2.21
 -15  -3  -6   27.02    1.20
 -15   3   6   29.90    1.89
 -15   3   6   28.44    2.17
 -15  -3  -6   28.22    1.46
 -15   3  -6   26.84    2.26
 -15  -3   6   27.39    1.63
  15  -3  -6   28.51    1.67
 -15  -4  -6    1.68    0.92
 -15   4   6    0.60    0.77
 -15   4   6    2.68    1.39
 -15  -4  -6    1.72    0.43
 -15  -4  -6    2.24    0.63
  15   4  -6    3.75    1.35
 -15  -4   6    1.96    0.74
  15  -4  -6    1.88    0.67
 -15   4  -6    3.28    1.31
  15   5  -6    6.49    1.61
 -15  -5  -6    7.18    0.97
 -15   5   6    7.87    1.01
 -15   5   6   10.17    2.02
 -15  -5  -6    6.81    1.03
 -15   5  -6    6.77    1.66
 -15  -5   6    8.71    1.12
  15  -5  -6    8.04    1.21
  15   6  -6   14.54    2.27
 -15  -6  -6   12.57    1.26
 -15   6   6   12.47    2.39
 -15   6  -6   10.60    2.20
 -15  -6   6   10.75    1.95
 -15   6  -6   15.83    4.36
 -15   7   6    3.72    2.56
 -15  -7  -6    0.15    0.86
  15   7  -6    2.41    2.29
 -15  -7   6   -0.55    1.12
 -15   7  -6    7.30    2.63
 -15   7  -6    3.27    2.36
  15   8  -6   24.56    3.54
 -15  -8  -6   24.87    2.09
 -15   8   6   24.59    3.82
 -15  -8   6   26.36    2.61
 -15   8  -6   19.97    3.19
 -15   8  -6   24.00    3.49
 -15   9   6    9.06    3.66
  15   9  -6    8.33    2.95
 -15   9  -6    6.71    3.47
 -15   9  -6    5.42    3.10
 -15  -9   6   11.73    2.26
  15   0  -7    0.59    0.72
 -15   0  -7   -0.23    0.50
 -15   0   7    1.02    0.69
 -15   1   7    7.81    0.98
  15  -1   7    8.15    1.03
  15   1  -7    8.09    1.15
 -15  -1   7    7.04    0.87
  15  -1  -7    7.09    1.00
 -15   1  -7    9.53    1.06
 -15   2   7    3.41    0.98
 -15  -2  -7    5.26    0.80
 -15   2   7    2.71    0.93
  15  -2   7    2.36    1.11
  15   2  -7    4.04    1.10
  15  -2  -7    4.48    0.79
 -15  -2   7    3.75    0.71
 -15   2  -7    2.45    1.17
 -15   3   7    2.78    0.78
  15   3  -7   -1.00    1.06
 -15  -3  -7    0.64    0.51
 -15  -3  -7    1.51    0.48
 -15   3   7    2.65    1.20
  15  -3  -7    0.10    0.59
 -15   3  -7    1.34    0.97
 -15  -3   7    1.58    0.74
 -15   4   7    0.90    0.78
 -15  -4  -7    1.28    0.70
 -15  -4  -7    1.32    0.39
 -15  -4  -7    2.39    0.62
 -15   4   7    3.59    1.58
  15   4  -7    1.25    1.24
  15  -4  -7    1.59    0.62
 -15   4  -7    3.60    1.42
 -15  -4   7    2.60    0.80
 -15   5   7    8.64    2.00
  15   5  -7    6.57    1.66
 -15  -5  -7    7.94    0.96
  15  -5  -7    8.03    1.09
 -15   5  -7    9.76    1.75
 -15  -5   7   13.97    1.63
 -15   6   7    3.26    2.17
  15   6  -7    2.99    1.75
 -15  -6  -7    2.40    0.70
 -15   6  -7    4.70    2.04
 -15   6  -7    5.44    2.34
 -15  -6   7    1.03    1.04
 -15   7   7    1.78    2.66
 -15  -7  -7    3.39    1.05
  15   7  -7   -0.08    2.10
 -15   7  -7   -4.34    2.11
 -15  -7   7   -0.96    1.13
 -15   7  -7    1.07    1.91
 -15   8   7    5.32    3.23
  15   8  -7    6.43    2.82
 -15  -8   7    5.73    1.62
 -15   8  -7    2.48    2.49
 -15   8  -7    4.20    2.82
 -15   9   7    2.19    3.62
  15   9  -7   -2.33    2.75
 -15  -9   7   -0.53    1.82
 -15   9  -7   -2.67    2.87
 -15   9  -7    2.23    2.95
 -15   0   8    2.52    0.84
  15   0  -8    0.22    0.84
  15   0   8    0.79    0.34
 -15   0  -8    1.47    0.46
  15   1  -8   55.82    2.89
 -15   1   8   50.66    2.59
  15  -1   8   56.43    2.34
 -15   1  -8   53.95    2.43
 -15  -1   8   55.30    2.55
  15  -1  -8   51.71    2.64
  15   2  -8   50.80    3.00
 -15   2   8   52.28    2.73
  15  -2   8   52.38    2.73
 -15   2   8   50.84    2.81
 -15  -2   8   53.79    2.56
  15  -2  -8   57.25    2.59
 -15   2  -8   52.58    2.95
 -15   3   8    0.90    0.78
 -15   3   8    1.02    1.22
  15   3  -8   -0.75    0.95
 -15  -3  -8   -0.72    0.52
 -15   3  -8    1.18    1.06
  15  -3  -8    0.66    0.65
 -15  -3   8    0.57    0.75
  15   4  -8   16.20    2.47
 -15  -4  -8   15.56    0.79
 -15   4   8   15.66    2.01
  15  -4  -8   13.94    1.39
 -15  -4   8   15.68    1.57
 -15   4  -8   14.08    1.87
  15   5  -8    0.80    1.93
 -15   5   8   -1.86    1.80
 -15  -5  -8    0.65    0.45
 -15   5  -8    0.64    1.34
  15  -5  -8    1.56    0.81
 -15  -5   8    0.26    1.11
 -15   6   8    0.81    2.47
  15   6  -8    0.89    1.82
 -15   6  -8    1.24    2.16
 -15   6  -8    2.87    2.08
 -15  -6   8    0.91    1.12
 -15   7   8   -4.04    2.60
  15   7  -8   -0.14    2.05
 -15   7  -8   -0.10    2.42
 -15  -7   8    0.24    1.33
 -15   7  -8    0.09    1.98
  15   8  -8    0.31    2.68
 -15   8   8    6.48    3.35
 -15   8  -8   -0.35    2.62
 -15  -8   8    1.49    1.61
 -15   8  -8    1.76    2.54
 -15   0   9   -0.45    0.78
  15   0  -9   -0.49    0.94
  15  -1   9   39.39    1.94
 -15   1   9   37.80    2.30
  15   1  -9   39.96    2.68
 -15  -1   9   41.18    2.17
  15  -1  -9   42.60    2.46
 -15   1  -9   40.91    1.96
 -15   2   9   -0.23    0.99
 -15   2   9    0.90    0.98
  15   2  -9   -0.28    1.09
  15  -2   9    1.91    1.13
 -15  -2   9    1.78    0.83
  15  -2  -9    0.82    0.74
 -15   3   9    4.04    1.33
 -15  -3  -9    3.93    0.64
  15   3  -9    6.56    1.63
 -15  -3   9    5.21    0.99
  15  -3  -9    4.43    0.90
 -15   3  -9    4.70    1.21
 -15   4   9   -0.82    1.52
 -15   4  -9   -0.64    1.25
  15  -4  -9   -0.51    0.83
 -15  -4   9   -0.87    0.91
  15   5  -9   16.48    2.45
 -15   5   9   11.53    2.33
 -15   5  -9   16.51    2.05
  15  -5  -9   14.91    1.53
 -15   5  -9   12.70    2.37
 -15  -5   9   15.76    1.79
 -15   6   9    5.66    2.83
  15   6  -9    7.15    2.32
 -15  -6   9    8.36    1.58
  15  -6  -9    5.57    1.14
 -15   6  -9    5.83    2.13
 -15   6  -9    3.09    2.16
  15   7  -9    5.61    2.51
 -15   7   9    3.27    2.75
 -15   7  -9    4.81    2.54
 -15  -7   9    6.12    1.52
 -15   7  -9    2.26    2.77
 -15   8   9    5.63    3.89
  15   8  -9    1.67    2.54
 -15   8  -9   -1.31    2.81
 -15  -8   9    3.29    1.84
 -15   8  -9    5.57    2.59
 -15   0  10    0.22    0.85
  15   0 -10    0.06    1.00
  15  -1  10    1.52    0.85
 -15   1  10    1.00    0.90
  15   1 -10    0.19    1.19
  15  -1 -10    2.26    0.98
 -15  -1  10   -0.17    0.79
  15   2 -10   71.96    4.24
 -15   2  10   84.14    3.90
  15  -2 -10   87.14    3.72
 -15  -2  10   85.25    3.62
  15   3 -10    1.84    1.49
 -15   3  10    2.30    1.40
 -15  -3  10    3.94    1.06
  15  -3 -10    0.90    0.83
 -15   3 -10    3.08    1.20
 -15   4  10    9.89    2.05
  15   4 -10    9.15    2.02
 -15   4 -10    9.12    1.63
  15  -4 -10   10.85    1.43
 -15  -4  10    9.71    1.55
  15   5 -10    1.07    1.95
 -15   5  10    2.27    2.15
 -15  -5  10    4.12    1.40
 -15   5 -10    4.72    1.63
 -15   5 -10    1.87    2.08
  15  -5 -10    2.60    0.89
 -15   6  10    1.65    3.00
  15   6 -10   -0.44    2.06
 -15  -6  10    1.46    1.33
 -15   6 -10   -0.21    2.24
 -15   6 -10    1.98    2.09
  15  -6 -10    0.21    1.02
 -15   7  10    5.94    3.14
  15   7 -10   14.29    3.15
 -15  -7  10   10.73    1.96
 -15   7 -10    1.96    2.87
 -15   7 -10    9.34    2.73
  15   8 -10   -5.86    2.45
 -15   8  10    1.60    3.69
 -15   8 -10    3.96    2.65
 -15   8 -10   -3.52    2.99
 -15  -8  10   -0.61    1.71
  15   0 -11   -0.16    1.06
 -15   0  11   -0.07    0.86
  15  -1  11    4.10    0.52
 -15   1  11    3.73    1.11
  15   1 -11    3.91    1.42
 -15  -1  11    3.97    0.96
  15  -1 -11    4.64    1.14
  15   2 -11   44.92    3.33
 -15   2  11   42.22    2.86
  15  -2 -11   46.34    2.60
 -15  -2  11   46.73    2.56
  15   3 -11    4.71    1.90
 -15   3  11    5.50    1.67
  15  -3 -11    6.91    1.15
 -15  -3  11    6.66    1.29
 -15   4  11   54.17    4.04
  15   4 -11   61.17    4.15
  15  -4 -11   57.17    2.90
 -15  -4  11   62.88    3.18
 -15   5  11   -0.08    2.21
  15   5 -11   -2.42    1.93
  15  -5 -11    0.74    1.06
 -15   5 -11    1.43    2.37
 -15  -5  11   -1.98    1.16
 -15   6  11   54.73    5.37
  15   6 -11   49.45    4.62
 -15   6 -11   54.86    4.90
 -15  -6  11   46.42    3.04
  15  -6 -11   42.18    2.66
  15   7 -11    3.46    2.63
 -15   7  11   -0.43    3.02
 -15   7 -11    0.98    3.08
 -15  -7  11    0.66    1.72
 -15   0  12    5.04    1.18
  15   0 -12    4.14    1.54
  15   1 -12   40.47    3.15
 -15   1  12   43.36    2.74
  15  -1 -12   46.18    3.05
 -15  -1  12   47.38    2.63
  15   2 -12   24.86    2.84
 -15   2  12   22.43    2.47
 -15  -2  12   23.92    2.02
  15  -2 -12   20.85    2.08
  15   3 -12    5.07    2.02
 -15   3  12    3.53    1.58
 -15  -3  12    5.05    1.64
  15  -3 -12    6.18    1.31
  15   4 -12    1.71    2.07
 -15   4  12    0.58    2.02
 -15  -4  12    1.50    1.21
 -15   4 -12    2.15    2.16
  15  -4 -12   -0.12    1.08
  15   5 -12    9.18    2.67
 -15   5  12    6.71    3.07
  15  -5 -12    9.15    1.42
 -15   5 -12   10.55    2.65
 -15  -5  12   14.20    1.80
 -15   6  12   13.52    3.64
  15   6 -12    6.62    2.73
 -15  -6  12    8.91    1.91
 -15   6 -12    5.51    2.88
 -15   7  12   -0.36    3.41
  15   7 -12   -2.51    2.85
 -15   7 -12    6.44    3.46
 -15  -7  12   -0.76    1.68
  15   0 -13   -1.62    1.36
 -15   0  13    0.92    1.22
  15   1 -13   11.49    1.98
 -15   1  13   11.60    1.66
 -15  -1  13   14.50    1.89
  15  -1 -13   12.41    1.69
  15   2 -13    3.72    1.96
 -15   2  13    4.32    1.53
  15  -2 -13    3.41    1.53
 -15   3  13    9.71    2.12
  15   3 -13    6.63    2.18
 -15  -3  13    9.86    1.55
  15  -3 -13   11.06    1.53
 -15   4  13    7.06    2.33
  15   4 -13    7.38    2.44
 -15  -4  13    3.57    1.44
  15  -4 -13    6.14    1.38
 -15   4 -13    4.74    2.50
 -15   5  13   -2.97    2.70
  15   5 -13   -0.47    2.43
 -15  -5  13   -1.65    1.46
 -15   5 -13   -0.57    2.49
  15   6 -13   -2.52    2.81
 -15   6  13    7.79    3.74
 -15  -6  13   -0.84    1.56
 -15   6 -13   -1.70    2.85
  15   0 -14    0.76    1.70
 -15   0  14    4.32    1.46
 -15   1  14   20.39    2.67
  15   1 -14   22.92    2.94
  15  -1 -14   16.43    2.72
 -15   2  14    5.24    1.97
  15   2 -14    1.39    2.01
  15  -2 -14   -0.67    1.36
 -15  -2  14    1.83    1.35
  15   3 -14   -0.57    2.15
 -15   3  14    2.03    2.18
 -15  -3  14    1.75    1.32
  15  -3 -14    1.30    1.32
 -15   3 -14    0.76    2.07
  15   4 -14    1.50    2.46
 -15   4  14    5.27    2.53
 -15  -4  14    3.32    1.41
  15  -4 -14    5.28    1.54
 -15   4 -14    7.98    2.76
  15   5 -14    0.88    2.76
 -15   5  14   -3.82    2.79
 -15  -5  14    1.67    1.59
 -15   5 -14    4.81    3.24
 -15   0  15    0.86    1.51
  15   0 -15    0.22    1.72
  15   1 -15    6.63    2.10
 -15  -1  15    6.46    1.67
  15  -1 -15    4.86    1.83
  15   2 -15    1.89    1.92
 -15  -2  15   -0.67    1.29
  15  -2 -15    2.38    1.63
  15   3 -15   -1.72    2.32
 -15   3  15    2.92    2.25
  15  -3 -15    2.12    1.62
 -15  -3  15   -1.08    1.42
 -15   3 -15   -1.02    2.37
 -15   4  15   18.51    3.13
  15   4 -15   10.65    3.14
 -15   4 -15   11.00    3.10
 -15  -4  15   12.01    1.93
 -15  -5  15    1.80    1.74
 -15   5 -15   -0.49    2.74
  15   0 -16   22.19    2.82
 -15   0  16   26.34    3.05
 -15   1  16    2.67    1.84
  15   1 -16    2.96    2.05
  15  -1 -16    1.26    1.77
 -15  -1  16    3.06    1.58
  15   2 -16    4.79    2.29
 -15   2  16    1.01    2.14
  15  -2 -16    3.38    1.94
 -15   2 -16    5.42    2.43
 -15  -2  16    6.61    1.83
  15   3 -16   -4.56    2.39
 -15  -3  16   -0.41    1.55
 -15   3 -16    1.83    2.54
  15   0 -17   -0.44    2.41
  15   1 -17    9.99    2.42
  15  -1 -17    2.88    2.17
 -15  -1  17    8.94    2.21
 -15   1 -17    2.85    2.42
  15   2 -17    2.82    2.68
  15  -2 -17   -1.26    2.43
 -15  -2  17    1.25    1.90
 -15   2 -17    6.46    2.82
 -16   0   0   26.82    1.39
  16   0   0   26.71    1.46
  16   0   0   26.78    1.36
  16   1   0   -0.32    0.41
 -16  -1   0    0.64    0.57
 -16  -1   0    0.34    0.38
 -16   1   0   -0.44    0.56
  16   1   0    0.35    0.55
  16  -1   0    0.52    0.54
  16   2   0   20.11    1.37
 -16   2   0   21.98    1.66
 -16  -2   0   21.03    1.15
 -16  -3   0   -0.49    0.44
 -16   3   0    0.34    0.89
  16   3   0   -0.45    0.63
 -16   4   0   38.42    2.75
 -16  -4   0   34.55    1.72
  16   4   0   36.15    1.99
 -16   5   0   -0.96    1.24
  16   5   0    0.11    0.85
 -16  -5   0   -0.16    0.62
  16   6   0    5.12    1.29
 -16  -6   0    2.36    0.84
 -16   6   0    1.99    1.55
 -16   6   0    5.33    2.02
  16   7   0    2.33    1.41
 -16   7   0    0.37    2.08
 -16   7   0    0.80    1.82
 -16  -7   0   -0.32    0.87
 -16  -8   0   14.46    1.87
 -16   8   0   14.37    3.13
 -16   8   0   11.91    2.59
 -16   9   0   -3.61    2.76
 -16  -9   0    2.05    1.45
 -16   0   1    0.09    0.46
 -16   0  -1    0.00    0.41
  16   0  -1   -0.36    0.49
  16   0   1   -0.42    0.46
 -16   0  -1    0.43    0.52
  16   0   1    0.55    0.56
  16  -1   1   34.60    1.71
 -16   1   1   36.40    1.85
 -16  -1  -1   35.89    1.86
  16   1  -1   36.57    1.79
 -16  -1  -1   36.20    1.58
  16   1   1   33.31    1.57
 -16  -1   1   35.21    1.67
  16  -1  -1   35.60    1.73
 -16   1  -1   32.72    1.94
  16   2  -1   69.79    2.92
 -16   2   1   66.02    2.98
 -16  -2  -1   66.58    2.59
 -16  -2  -1   62.40    2.85
  16  -2  -1   66.50    2.78
  16   2   1   60.19    2.90
  16   2   1   64.00    2.58
 -16   2  -1   67.70    3.03
 -16  -2   1   65.61    2.64
  16   3  -1    1.28    0.77
 -16   3   1   -0.30    0.79
 -16  -3  -1   -0.07    0.42
 -16   3  -1    0.48    0.93
 -16  -3   1   -0.01    0.46
  16   4  -1   20.72    1.70
 -16   4   1   21.50    2.15
 -16  -4  -1   21.12    1.25
 -16  -4   1   22.89    1.36
 -16   4  -1   22.66    2.12
  16   4   1   19.83    1.88
 -16  -5  -1    0.02    0.59
 -16   5   1    2.72    1.66
  16   5  -1    1.82    1.09
  16   5   1    0.43    0.91
 -16   5  -1   -0.56    1.28
 -16  -5   1   -0.08    0.61
 -16  -6  -1   88.80    3.60
 -16   6   1   84.55    4.80
 -16   6   1   87.05    4.45
  16   6  -1   89.01    4.03
  16   6   1   84.08    3.74
 -16   6  -1   80.14    4.73
 -16   6  -1   82.72    4.45
 -16  -6   1   87.62    3.71
 -16   7   1    3.70    2.21
 -16  -7  -1    4.60    1.01
 -16   7   1    4.06    1.86
  16   7  -1    6.25    1.55
 -16   7  -1    4.88    2.16
  16   7   1    1.53    1.22
 -16  -7   1    2.31    1.09
 -16   7  -1    1.86    2.16
 -16   8   1    6.06    2.68
 -16  -8  -1    7.15    1.46
 -16   8  -1    3.45    2.66
 -16   8  -1    6.22    2.39
 -16  -8   1    7.25    1.44
 -16   9   1   -2.41    3.20
 -16  -9  -1   -2.82    1.45
 -16   9  -1   -0.83    2.91
 -16  -9   1   -0.44    1.45
 -16   0  -2   -0.23    0.40
 -16   0   2    0.98    0.58
  16   0   2    0.50    0.40
 -16   0  -2    0.43    0.46
  16   0  -2   -0.27    0.45
 -16  -1  -2    9.33    0.92
 -16   1   2    9.62    1.02
  16  -1   2    8.21    0.93
 -16  -1  -2   10.35    0.72
  16   1  -2   10.27    1.05
 -16   1  -2    9.02    1.01
  16   1   2    8.94    0.77
  16  -1  -2    8.32    0.97
 -16  -1   2   10.69    0.92
  16   1   2   10.89    0.92
 -16  -2  -2    7.09    0.92
  16   2  -2    6.56    0.93
 -16  -2  -2    8.04    0.65
 -16   2   2    5.19    0.89
  16   2   2    6.35    0.71
 -16   2  -2    6.57    1.09
 -16  -2   2    6.19    0.79
  16  -2  -2    9.18    1.00
  16   2   2    7.17    0.80
  16   3  -2   -0.41    0.66
 -16  -3  -2    0.90    0.67
 -16   3   2    0.52    0.79
 -16  -3   2   -0.10    0.48
 -16   3  -2    1.53    1.13
  16  -3  -2   -0.06    0.57
  16   3   2   -0.35    0.44
 -16  -4  -2   19.50    1.19
 -16   4   2   22.06    2.10
  16   4  -2   19.02    1.70
 -16  -4   2   19.43    1.36
 -16   4  -2   20.71    2.22
  16   4   2   20.79    1.26
 -16  -5  -2    1.02    0.58
  16   5  -2    2.19    1.08
 -16   5   2    0.93    1.47
 -16   5  -2    3.02    1.71
 -16  -5   2    2.40    0.76
  16   5   2    3.44    0.74
 -16  -6  -2    1.74    0.72
 -16   6   2    2.51    1.65
  16   6  -2    0.27    1.24
 -16   6   2    4.18    1.91
 -16   6  -2    1.37    1.72
 -16   6  -2   -0.78    1.47
 -16  -6   2    0.81    0.87
  16   6   2    1.54    0.76
 -16   7   2   -1.34    2.22
 -16  -7  -2    0.75    0.86
  16   7  -2    1.35    1.45
 -16   7   2   -0.68    1.79
 -16   7  -2    0.17    2.07
 -16   7  -2    0.31    1.91
 -16   8   2    4.86    2.65
  16   8  -2    1.30    1.90
 -16  -8   2    2.20    1.29
 -16   8  -2    4.29    2.63
 -16   8  -2    3.17    2.27
 -16   9   2    1.98    3.04
 -16  -9  -2   10.22    1.77
 -16  -9   2   10.84    1.74
 -16   9  -2    8.25    3.05
 -16   9  -2   14.91    3.88
  16   0  -3    0.33    0.61
 -16   0  -3    0.12    0.52
 -16   0   3   -0.21    0.43
 -16   0  -3    0.14    0.35
  16   0   3    0.68    0.35
  16  -1   3   55.64    2.31
 -16   1   3   56.10    2.49
 -16  -1  -3   54.51    2.36
  16   1  -3   52.70    2.47
 -16  -1  -3   56.77    2.20
  16  -1  -3   56.34    2.47
  16   1   3   53.95    2.16
 -16  -1   3   56.01    2.37
 -16   1  -3   54.79    2.47
 -16  -2  -3    6.28    0.87
 -16  -2  -3    5.21    0.55
 -16   2   3    4.25    0.87
  16   2  -3    4.57    0.83
 -16   2  -3    4.56    0.99
  16  -2  -3    3.33    0.64
  16   2   3    4.87    0.55
 -16  -2   3    4.01    0.62
  16   3  -3    6.69    1.06
 -16  -3  -3    8.26    0.76
 -16   3   3   10.53    1.40
 -16  -3  -3    9.29    1.10
 -16   3  -3   10.73    1.49
 -16  -3   3    9.22    0.96
  16   3   3   11.02    0.87
  16  -3  -3    9.09    1.01
  16   4  -3   11.61    1.61
 -16   4   3    9.93    1.47
 -16  -4  -3   11.16    0.96
 -16  -4   3   11.89    1.13
  16   4   3   11.17    0.95
 -16   4  -3   10.37    1.64
 -16   5   3   27.16    2.95
 -16  -5  -3   25.51    1.48
  16   5  -3   28.38    2.37
 -16   5  -3   25.42    2.66
 -16  -5   3   27.51    1.75
  16   5   3   25.30    1.36
 -16   6   3   35.29    2.68
 -16  -6  -3   31.87    1.82
  16   6  -3   35.11    2.90
 -16   6   3   34.64    3.32
 -16   6  -3   30.76    3.09
 -16   6  -3   27.32    3.22
 -16  -6   3   33.33    2.10
 -16   7   3   -0.12    2.12
 -16  -7  -3    1.51    0.95
 -16   7   3   -0.91    2.27
  16   7  -3   -0.16    1.78
 -16  -7   3    1.89    1.21
 -16   7  -3   -1.42    2.05
 -16   7  -3   -1.88    1.97
 -16   8   3   14.57    3.48
 -16  -8  -3   10.79    1.53
  16   8  -3    7.98    2.12
 -16   8  -3    8.57    2.87
 -16   8  -3    9.12    2.80
 -16  -8   3    7.84    1.55
 -16   9   3    1.61    3.43
 -16  -9  -3    1.75    1.46
 -16  -9   3    2.43    1.65
 -16   9  -3    0.51    3.41
 -16   9  -3    1.95    2.83
 -16   0  -4    0.41    0.57
 -16   0   4    1.39    0.52
  16   0  -4    2.20    0.69
 -16   0  -4    0.94    0.42
  16   0   4   -0.21    0.42
  16   1  -4   28.84    1.78
 -16  -1  -4   31.17    1.40
 -16   1   4   31.93    1.78
  16  -1   4   30.70    1.56
 -16  -1  -4   31.67    1.56
 -16  -1   4   31.61    1.59
  16  -1  -4   31.13    1.72
 -16   1  -4   32.16    1.70
  16   1   4   32.80    1.35
 -16  -2  -4   97.67    3.44
 -16  -2  -4   86.72    3.65
 -16   2   4   94.34    3.98
  16   2  -4   91.94    3.98
  16  -2  -4   94.24    3.76
 -16   2  -4   94.59    4.06
 -16  -2   4   93.30    3.68
  16   2   4   93.76    3.43
  16   3  -4    0.16    0.87
 -16   3   4    0.50    0.90
 -16  -3  -4    0.83    0.54
 -16  -3  -4   -0.15    0.32
 -16  -3   4   -0.08    0.54
 -16   3  -4   -1.00    0.98
  16  -3  -4    0.42    0.58
 -16   4   4    0.29    1.07
 -16  -4  -4    1.27    0.75
  16   4  -4   -0.39    0.92
 -16  -4  -4   -0.03    0.57
 -16  -4  -4   -0.01    1.34
 -16  -4   4   -0.45    0.64
 -16   4  -4   -2.53    0.96
  16  -4  -4   -0.01    0.67
  16   5  -4   51.07    3.05
 -16  -5  -4   49.69    2.18
 -16   5   4   45.37    3.43
 -16   5  -4   46.98    3.38
 -16  -5   4   51.52    2.48
  16   6  -4    3.95    1.55
 -16  -6  -4    4.16    0.80
 -16   6   4    6.63    2.22
 -16   6  -4    1.54    1.75
 -16  -6   4    3.52    1.02
 -16   6  -4    2.30    1.86
 -16   7   4    0.85    2.20
 -16  -7  -4    0.55    0.91
  16   7  -4   -1.03    1.57
 -16   7  -4   -2.99    1.93
 -16  -7   4    0.88    1.16
 -16  -8  -4   -1.59    1.15
  16   8  -4   -0.25    2.25
 -16   8   4   -2.02    2.63
 -16   8  -4   -1.44    2.51
 -16   8  -4    1.18    2.89
 -16  -8   4    3.44    1.54
 -16   9   4    3.36    3.66
 -16  -9  -4   -0.51    1.37
 -16   9  -4    0.78    2.82
 -16  -9   4    2.73    1.63
 -16   9  -4    5.18    3.86
  16   0   5   -0.52    0.40
 -16   0   5    0.15    0.52
 -16   0  -5   -0.16    0.61
  16   0  -5    0.76    0.71
 -16   0  -5    0.44    0.40
 -16  -1  -5   75.03    3.02
 -16  -1  -5   73.37    2.84
  16   1  -5   79.19    3.37
  16  -1   5   76.00    2.98
 -16   1   5   72.08    3.20
 -16  -1   5   73.42    3.07
  16   1   5   75.95    2.77
  16  -1  -5   74.35    3.19
 -16   1  -5   77.16    3.17
 -16  -2  -5    6.24    0.57
  16   2  -5    6.06    1.08
 -16  -2  -5    6.65    0.81
 -16   2   5    6.45    1.07
  16  -2  -5    5.83    0.86
 -16   2  -5    6.41    1.22
 -16  -2   5    6.55    0.82
 -16   3   5   12.11    1.64
  16   3  -5   16.52    1.80
 -16  -3  -5   15.15    0.84
 -16  -3  -5   15.47    1.28
 -16  -3  -5   15.03    1.16
 -16  -3   5   15.59    1.27
 -16   3  -5   14.74    1.76
  16  -3  -5   13.70    1.19
  16   4  -5   72.35    3.62
 -16  -4  -5   71.78    3.18
 -16  -4  -5   61.85    3.03
 -16  -4  -5   70.97    2.69
 -16  -4   5   70.20    3.03
  16  -4  -5   70.97    3.04
 -16   4  -5   64.65    3.70
 -16  -5  -5    4.37    1.24
 -16   5   5    5.82    1.81
  16   5  -5    4.72    1.44
 -16  -5  -5    5.52    0.75
 -16   5   5    6.81    1.08
 -16  -5   5    3.97    0.94
 -16   5  -5    6.55    1.77
 -16   6   5   33.47    3.54
 -16  -6  -5   35.95    1.87
  16   6  -5   31.09    3.23
 -16  -6   5   37.34    2.40
 -16   6  -5   34.68    3.48
 -16   6  -5   33.93    3.53
 -16  -7  -5   25.24    1.74
  16   7  -5   24.15    3.14
 -16   7   5   15.70    2.89
 -16  -7   5   18.43    2.09
 -16   7  -5   24.89    3.42
 -16   7  -5   21.92    3.01
 -16   8   5    4.35    2.93
  16   8  -5    8.25    2.52
 -16  -8  -5    8.31    1.48
 -16   8  -5    6.40    2.88
 -16  -8   5    8.79    1.79
 -16   8  -5   10.32    3.34
 -16   9   5    4.94    3.74
 -16  -9  -5   14.75    1.90
  16   9  -5   11.00    2.95
 -16   9  -5   13.20    3.34
 -16   9  -5   10.49    3.46
  16   0   6   23.72    1.14
 -16   0   6   25.73    1.54
 -16   0  -6   24.66    1.32
  16   0  -6   20.97    1.65
 -16  -1  -6    2.31    0.55
 -16  -1  -6    2.21    0.42
 -16   1   6    1.70    0.66
  16   1  -6    2.66    0.82
  16  -1   6    1.32    0.64
  16  -1  -6    2.31    0.77
  16   1   6    2.31    0.34
 -16   1  -6    2.72    0.68
 -16  -1   6    1.98    0.62
 -16  -2  -6   15.43    0.81
 -16   2   6   15.91    1.52
  16   2  -6   14.35    1.71
 -16  -2  -6   16.35    1.11
  16  -2  -6   13.97    1.35
 -16  -2   6   14.89    1.21
 -16   2  -6   13.52    1.91
 -16   3   6   63.48    3.20
 -16  -3  -6   50.94    2.44
  16   3  -6   54.82    2.99
 -16  -3  -6   55.21    2.14
 -16  -3  -6   56.75    2.45
 -16   3  -6   55.23    3.00
 -16  -3   6   58.09    2.57
  16  -3  -6   55.66    2.58
  16   4  -6   -0.37    1.10
 -16   4   6    0.94    0.88
 -16  -4  -6   -0.66    0.65
 -16  -4  -6    0.31    0.43
 -16  -4  -6    0.73    0.87
 -16   4   6    1.96    1.45
  16  -4  -6    1.04    0.70
 -16  -4   6    1.30    0.77
 -16   4  -6    0.75    1.03
 -16   5   6   11.97    2.11
 -16   5   6   14.54    1.48
 -16  -5  -6   12.33    1.07
  16   5  -6   12.20    1.82
 -16  -5  -6   10.51    1.73
 -16   5  -6   10.47    1.92
 -16  -5   6   16.10    1.60
  16  -5  -6   15.97    1.46
 -16   6   6    6.22    2.26
  16   6  -6    2.45    1.74
 -16  -6  -6    3.50    0.85
 -16  -6   6    4.26    1.10
 -16   6  -6    3.01    2.05
 -16   6  -6    6.64    2.32
 -16  -7  -6   11.06    1.46
 -16   7   6   12.47    3.05
  16   7  -6    6.67    2.18
 -16   7  -6   10.84    2.53
 -16   7  -6   11.37    2.66
 -16  -7   6    8.66    1.47
 -16   8   6   14.03    3.48
 -16  -8  -6   18.70    2.11
  16   8  -6   10.59    2.70
 -16   8  -6   18.72    3.69
 -16   8  -6   10.87    3.05
 -16  -8   6   15.34    1.98
 -16   9   6    4.78    3.51
  16   9  -6   12.84    3.44
 -16  -9   6    8.08    1.95
 -16   9  -6    8.41    3.48
 -16   9  -6   11.35    3.86
 -16   0   7    0.43    0.65
 -16   0  -7    0.07    0.52
  16   0   7   -0.57    0.36
  16   0  -7    0.73    0.79
 -16   1   7  122.08    4.95
  16   1  -7  114.21    5.08
  16  -1   7  126.71    4.64
 -16  -1   7  126.35    4.85
 -16   1  -7  126.29    4.83
  16  -1  -7  129.24    4.98
 -16   2   7   35.11    2.24
  16   2  -7   36.71    2.42
 -16  -2  -7   36.18    1.78
 -16  -2   7   39.51    2.02
  16  -2  -7   37.58    2.00
 -16   2  -7   35.32    3.24
 -16   3   7    5.52    1.25
 -16  -3  -7    5.67    0.71
 -16  -3  -7    4.63    0.65
 -16   3   7    2.85    1.11
  16   3  -7    4.61    1.34
 -16  -3  -7    4.31    0.51
 -16  -3   7    3.94    0.86
 -16   3  -7    4.18    1.28
  16  -3  -7    3.72    0.81
 -16   4   7   83.88    3.43
 -16  -4  -7   82.97    3.37
 -16  -4  -7   87.34    3.42
 -16   4   7   84.71    4.27
  16   4  -7   80.23    4.22
 -16  -4  -7   81.79    3.06
  16  -4  -7   79.85    3.46
 -16   4  -7   80.64    4.02
 -16  -4   7   81.32    3.57
  16   5  -7    2.90    1.64
 -16   5   7    3.96    1.82
 -16  -5  -7    2.71    0.62
  16  -5  -7    1.74    0.85
 -16   5  -7    1.49    1.49
 -16  -5   7    1.15    0.95
  16   6  -7   24.23    3.24
 -16  -6  -7   24.16    1.54
 -16   6   7   27.56    4.12
 -16   6  -7   21.36    2.92
 -16   6  -7   25.26    3.35
 -16  -6   7   21.92    2.00
 -16   7   7   55.30    4.91
  16   7  -7   61.44    4.66
 -16   7  -7   54.96    4.38
 -16  -7   7   60.32    3.36
 -16   7  -7   67.41    5.17
 -16   8   7   12.53    3.84
  16   8  -7    8.30    2.59
 -16   8  -7   12.04    3.41
 -16   8  -7   12.30    3.46
 -16  -8   7    8.35    1.74
 -16   9   7    9.94    3.97
  16   9  -7   11.52    3.20
 -16  -9   7   12.51    2.20
 -16   9  -7    6.56    3.24
 -16   9  -7   15.10    3.58
  16   0   8   10.11    0.69
 -16   0   8   10.06    1.29
 -16   0  -8   10.74    0.93
  16   0  -8    9.23    1.31
  16  -1   8    2.35    0.66
  16   1  -8    0.35    0.97
 -16   1   8    1.86    0.85
 -16  -1   8    1.27    0.75
 -16   1  -8    1.58    0.71
  16  -1  -8    1.04    0.85
  16   2  -8   21.90    2.15
 -16   2   8   20.68    1.93
 -16  -2  -8   21.76    1.36
 -16  -2   8   19.86    1.55
  16  -2  -8   20.65    1.61
 -16   3   8   14.59    1.76
 -16  -3  -8   13.69    1.10
  16   3  -8   14.15    2.17
 -16   3   8   17.36    1.49
 -16  -3   8   13.21    1.39
 -16   3  -8   14.90    1.88
  16  -3  -8   11.61    1.38
  16   4  -8    7.44    1.76
 -16   4   8    6.42    1.72
 -16  -4  -8    7.95    0.60
 -16   4  -8    7.35    1.57
 -16  -4   8    7.14    1.12
  16  -4  -8    7.35    1.08
 -16  -5  -8    0.48    0.48
 -16   5   8    0.61    1.82
  16   5  -8    0.57    1.50
  16  -5  -8    0.47    0.77
 -16  -5   8    0.65    1.26
 -16   5  -8    0.47    1.43
 -16   6   8   -0.20    2.44
  16   6  -8   -1.29    1.82
 -16   6  -8   -1.31    1.58
 -16  -6   8    3.19    1.35
 -16   6  -8    3.03    2.43
  16   7  -8   -0.38    2.25
 -16   7   8   -1.81    2.57
 -16   7  -8    1.78    2.32
 -16   7  -8    2.82    2.65
 -16  -7   8   -3.00    1.15
 -16   8   8   13.49    3.59
  16   8  -8   18.41    3.43
 -16   8  -8   13.67    2.88
 -16  -8   8   11.69    1.99
 -16   8  -8   13.81    3.40
 -16   0   9   -1.16    0.71
  16   0  -9   -0.63    0.89
 -16   1   9   53.91    2.73
  16  -1   9   51.82    2.33
  16   1  -9   57.11    3.11
 -16  -1   9   54.22    2.61
 -16   1  -9   50.48    2.38
  16  -1  -9   53.67    2.81
 -16   2   9    1.54    1.07
  16   2  -9   -0.11    1.28
 -16   2   9   -0.80    0.95
  16  -2  -9   -0.23    0.83
 -16  -2   9   -0.11    0.76
 -16   3   9    0.20    1.28
  16   3  -9    1.58    1.32
 -16  -3   9    2.77    0.99
 -16   3  -9    2.70    1.21
  16  -3  -9    1.84    0.99
  16   4  -9   -1.04    1.41
 -16   4   9    1.89    1.66
 -16   4  -9    0.40    1.52
 -16  -4   9    2.09    1.04
  16  -4  -9    2.99    0.91
 -16   5   9   -1.30    1.96
  16   5  -9    0.37    1.75
 -16   5  -9    3.27    2.19
 -16   5  -9    3.11    1.63
  16  -5  -9    1.50    0.93
 -16  -5   9    2.60    1.21
  16   6  -9   24.01    3.03
 -16   6   9   28.03    3.68
  16  -6  -9   25.88    2.00
 -16  -6   9   20.63    2.22
 -16   6  -9   21.01    2.95
  16   7  -9   23.30    3.16
 -16   7   9   20.88    3.64
 -16  -7   9   26.19    2.58
 -16   7  -9   21.82    3.06
 -16   7  -9   15.55    3.26
  16   8  -9   -2.46    2.64
 -16   8   9   -2.38    3.13
 -16  -8   9   -1.01    1.56
 -16   8  -9   -3.39    2.77
 -16   8  -9    0.90    2.53
 -16   0  10   -0.82    0.83
  16   0 -10    1.14    1.21
  16   1 -10    1.40    1.27
 -16   1  10   -0.48    0.85
 -16  -1  10    0.11    0.80
  16  -1 -10    1.49    1.14
  16   2 -10    0.75    1.39
 -16   2  10    1.73    1.18
  16  -2 -10    0.50    0.83
 -16  -2  10    1.57    0.88
 -16   3  10  119.48    5.42
 -16   3 -10  122.18    5.11
  16  -3 -10  118.50    4.87
 -16  -3  10  122.05    4.96
 -16   4  10   -0.14    1.77
  16   4 -10    2.47    1.90
 -16  -4  10    1.09    1.27
  16  -4 -10   -0.39    0.88
 -16   4 -10    0.04    1.41
  16   5 -10   55.98    4.19
 -16   5  10   44.00    3.97
 -16   5 -10   40.04    3.34
 -16   5 -10   40.35    3.88
 -16  -5  10   44.17    2.77
  16  -5 -10   43.81    2.47
  16   6 -10    0.64    2.30
 -16   6  10    0.78    2.61
 -16   6 -10   -0.21    1.90
 -16  -6  10   -1.42    1.24
  16  -6 -10   -0.83    1.08
 -16   6 -10   -3.06    2.26
 -16   7  10    2.35    3.02
  16   7 -10    5.07    2.60
 -16   7 -10    5.99    2.30
 -16   7 -10   -0.03    2.82
 -16  -7  10    4.67    1.62
 -16   8  10   -3.18    3.61
  16   8 -10   -3.44    2.94
 -16   8 -10    3.93    3.21
 -16  -8  10    3.33    1.89
 -16   8 -10    0.70    3.16
 -16   0  11   -0.23    0.92
  16   0 -11   -0.60    1.09
  16   1 -11   11.48    1.83
 -16   1  11   16.75    1.78
  16  -1 -11   14.47    1.88
 -16  -1  11   13.04    1.66
 -16   2  11    1.68    1.31
 -16  -2  11    2.96    1.09
  16  -2 -11    4.73    1.12
 -16   3  11    2.69    1.60
  16   3 -11    3.32    1.98
 -16  -3  11    1.00    1.04
  16  -3 -11    2.68    1.08
 -16   4  11   10.80    2.32
  16   4 -11   12.85    2.29
 -16  -4  11    9.33    1.47
  16  -4 -11   12.99    1.73
  16   5 -11    4.98    2.10
 -16   5  11    7.74    3.06
  16  -5 -11    5.69    1.19
 -16   5 -11    3.57    2.36
 -16  -5  11    5.57    1.46
  16   6 -11    4.29    2.68
 -16   6  11    2.83    2.92
 -16   6 -11   -0.54    2.47
 -16  -6  11    5.55    1.67
  16   7 -11   19.59    3.44
 -16   7  11   33.75    4.16
 -16   7 -11   26.91    4.13
 -16  -7  11   25.79    2.84
  16   0 -12    0.31    1.23
 -16   0  12   -0.05    1.15
 -16   1  12   17.26    2.12
 -16  -1  12   19.17    2.04
  16  -1 -12   17.30    2.13
 -16   2  12   41.56    3.02
  16   2 -12   35.77    3.24
 -16  -2  12   43.43    2.58
  16  -2 -12   45.44    2.72
 -16   3  12   23.10    2.99
  16   3 -12   34.88    3.43
  16  -3 -12   27.21    2.16
 -16  -3  12   25.31    2.21
 -16   4  12    1.43    2.21
  16   4 -12    2.76    2.02
 -16  -4  12    4.39    1.38
  16  -4 -12    2.76    1.14
 -16   5  12   47.56    4.83
  16   5 -12   43.70    4.30
  16  -5 -12   47.38    2.78
 -16   5 -12   43.31    4.71
 -16  -5  12   46.90    3.10
  16   6 -12    0.79    2.54
 -16   6  12   -0.26    3.00
 -16  -6  12    0.54    1.61
 -16   6 -12    3.70    3.05
  16   7 -12    7.42    3.43
 -16   7  12    0.06    3.34
 -16   7 -12   -0.99    3.82
 -16  -7  12    6.43    1.98
  16   0 -13    1.93    1.44
 -16   0  13    0.26    1.18
 -16   1  13   19.02    2.50
  16   1 -13   18.85    2.80
 -16  -1  13   15.62    2.14
  16  -1 -13   18.18    2.29
 -16   2  13   19.18    2.45
  16   2 -13   22.75    3.24
 -16  -2  13   22.31    2.23
  16  -2 -13   20.45    2.26
 -16   3  13    2.68    1.85
  16   3 -13    2.48    1.90
 -16  -3  13    1.97    1.30
  16  -3 -13    2.60    1.22
 -16   4  13   -0.14    2.28
  16   4 -13   -0.06    2.29
  16  -4 -13    0.68    1.23
 -16  -4  13    1.05    1.31
 -16   4 -13   -2.96    2.19
 -16   5  13   12.54    3.22
  16   5 -13   10.64    2.87
 -16   5 -13    8.13    2.83
 -16  -5  13    8.89    1.72
 -16   6  13    8.18    3.53
  16   6 -13    3.48    2.89
 -16  -6  13    4.35    1.85
 -16   6 -13    2.99    2.88
  16   0 -14    4.12    1.65
 -16   1  14    1.83    1.53
  16   1 -14    4.02    1.79
  16  -1 -14    0.66    1.63
 -16  -1  14    1.93    1.39
  16   2 -14    3.79    2.09
 -16   2  14    4.22    2.09
 -16  -2  14    2.42    1.36
 -16   3  14    7.81    2.58
  16   3 -14    4.70    2.36
  16  -3 -14   13.15    2.30
 -16  -3  14   11.60    1.80
  16   4 -14    0.06    2.37
 -16   4  14   -0.93    2.48
 -16   4 -14    3.66    2.97
 -16  -4  14    2.86    1.69
  16  -4 -14    1.85    2.21
  16   5 -14    5.10    3.03
 -16   5  14    7.70    3.20
 -16   5 -14    1.71    2.81
 -16  -5  14    8.56    1.87
  16   0 -15   -0.56    1.73
 -16   0  15    1.07    1.61
 -16   1  15    3.68    1.84
  16   1 -15    6.79    2.04
 -16  -1  15    5.56    1.64
  16  -1 -15    9.12    2.16
  16   2 -15    1.28    2.20
 -16   2  15   -0.83    2.02
 -16  -2  15   -0.11    1.25
  16  -2 -15   -0.31    1.58
 -16   3  15    7.77    2.69
  16   3 -15    4.28    2.47
  16  -3 -15    3.99    1.73
 -16   3 -15    0.65    2.33
 -16  -3  15    0.10    1.49
  16   4 -15    9.06    2.79
 -16   4  15    4.77    2.90
 -16   4 -15    6.49    2.96
 -16  -4  15    7.95    1.84
 -16   0  16   -1.83    1.66
  16   0 -16   -0.23    1.83
 -16   1  16    4.93    1.99
  16   1 -16    2.00    2.23
  16  -1 -16    5.36    2.23
 -16  -1  16    4.63    1.66
 -16   2  16    8.54    2.48
  16   2 -16   10.40    2.56
  16  -2 -16    9.78    2.08
 -16   2 -16   11.61    2.72
 -16  -2  16   10.49    1.94
  16   3 -16   18.24    3.33
 -16  -3  16   10.81    2.13
 -16   3 -16    5.72    3.13
  16   0 -17    0.12    2.15
 -16   0  17    0.30    1.87
  16   1 -17   15.09    2.88
 -16   1 -17   10.59    2.88
  16  -1 -17   16.70    2.89
 -16  -1  17   16.55    2.37
  17   0   0    0.48    0.51
 -17   0   0   -0.38    0.46
  17  -1   0   70.85    3.04
 -17  -1   0   77.79    2.98
 -17   1   0   80.06    3.16
  17   1   0   65.94    3.02
 -17  -2   0    0.34    0.46
  17   2   0   -0.20    0.63
 -17   2   0    0.46    0.68
  17   3   0   58.59    2.71
 -17  -3   0   60.86    2.53
 -17   3   0   61.90    3.22
 -17   4   0    1.01    1.29
 -17  -4   0    0.33    0.52
  17   4   0    0.70    0.87
 -17  -5   0  210.90    7.75
 -17   5   0  208.25    8.67
  17   5   0  213.30    7.88
 -17  -6   0   -0.46    0.73
 -17   6   0   -1.04    1.53
  17   6   0    0.61    1.02
 -17   6   0   -1.38    1.65
 -17   7   0   40.56    4.17
 -17  -7   0   30.77    2.15
 -17   7   0   36.22    3.58
  17   7   0   30.21    2.42
 -17   8   0   -0.61    2.08
 -17   8   0    5.75    3.24
 -17  -8   0    0.71    1.14
 -17   9   0    8.19    3.95
  17   0  -1    1.12    0.61
  17   0   1    0.40    0.56
  17   0   1   -0.47    0.44
 -17   0  -1    0.49    0.49
 -17   0   1   -0.16    0.45
  17   1  -1   50.94    2.27
 -17   1   1   47.42    2.27
 -17  -1  -1   47.28    2.05
  17   1   1   47.00    2.04
  17   1   1   49.68    2.20
 -17  -1   1   47.23    2.10
  17  -1  -1   45.56    2.14
 -17   1  -1   50.73    2.33
 -17   2   1   91.02    3.89
  17   2  -1   90.72    3.70
 -17   2  -1   89.48    3.85
 -17  -2   1   90.36    3.52
  17  -2  -1   89.32    3.64
  17   2   1   90.50    3.61
 -17   3   1    0.67    0.83
 -17  -3  -1    0.89    0.48
  17   3  -1    0.39    0.68
 -17  -3   1    0.99    0.52
 -17   3  -1    0.51    0.92
  17   3   1   -0.01    0.69
 -17  -4  -1   -0.14    0.49
  17   4  -1   -0.77    0.85
 -17   4   1   -0.70    1.06
 -17  -4   1   -0.25    0.57
 -17   4  -1    1.18    1.09
  17   4   1   -0.65    0.75
 -17   5   1   -0.12    1.33
  17   5  -1   -0.77    0.97
 -17  -5  -1    0.98    0.68
 -17  -5   1   -0.44    0.63
 -17   5  -1    2.75    1.68
  17   5   1    1.39    0.96
  17   6  -1   22.06    2.26
 -17   6   1   19.75    2.64
 -17   6   1   22.56    3.06
 -17  -6  -1   24.16    1.63
  17   6   1   26.40    1.98
 -17   6  -1   21.45    2.71
 -17  -6   1   23.80    1.76
  17   7  -1    6.13    1.59
 -17   7   1    7.38    2.49
 -17   7   1    6.51    2.14
 -17  -7  -1    7.29    1.13
 -17  -7   1    6.58    1.31
 -17   7  -1    5.63    2.08
 -17   7  -1    8.68    2.50
 -17   8   1    7.81    2.93
 -17  -8  -1   20.57    2.05
 -17   8  -1   13.60    2.82
 -17   8  -1   14.51    3.08
 -17  -8   1   13.13    1.85
 -17  -9  -1    4.73    1.55
 -17   9   1    4.97    3.16
 -17   9  -1    1.30    2.99
 -17  -9   1    7.58    1.57
  17   0  -2   -0.28    0.51
 -17   0   2    0.05    0.48
  17   0   2   -0.23    0.47
 -17   0  -2    0.20    0.49
  17   1  -2    2.92    0.76
 -17  -1  -2    3.62    0.48
 -17   1   2    2.69    0.67
  17  -1   2    2.06    0.58
 -17  -1  -2    2.48    0.67
 -17  -1   2    1.95    0.50
  17   1   2    1.12    0.49
  17  -1  -2    1.96    0.57
 -17  -2  -2    3.79    0.75
 -17  -2  -2    1.67    0.42
 -17   2   2    1.54    0.77
  17   2  -2    2.00    0.73
  17   2   2    2.45    0.56
 -17   2  -2    1.55    0.80
  17   2   2    1.43    0.54
  17  -2  -2    2.22    0.63
 -17  -2   2    2.33    0.57
  17   3  -2   37.83    2.14
 -17  -3  -2   40.59    1.75
  17   3   2   39.98    1.82
  17  -3  -2   36.78    1.99
 -17   3  -2   37.48    2.38
 -17  -3   2   38.52    1.87
  17   4  -2    1.65    0.96
 -17   4   2    0.71    1.10
 -17  -4  -2    1.19    0.47
  17   4   2    2.41    0.65
 -17   4  -2    0.65    1.16
 -17  -4   2    2.03    0.64
  17   5  -2   12.37    1.77
 -17   5   2   16.89    2.13
 -17  -5  -2   12.73    1.20
 -17  -5   2   14.68    1.31
 -17   5  -2   12.94    2.01
  17   5   2   15.94    1.41
 -17   6   2   -1.59    1.60
  17   6  -2   -0.07    1.24
 -17   6   2   -2.10    1.42
 -17  -6  -2    0.52    0.78
 -17   6  -2    1.39    1.78
  17   6   2    0.86    0.81
 -17  -6   2    0.52    0.89
 -17   7   2   -0.38    1.75
 -17  -7  -2    0.57    0.86
  17   7  -2   -0.88    1.49
 -17   7   2    3.59    2.52
 -17  -7   2    1.26    1.27
 -17   7  -2    1.77    2.06
 -17   7  -2    8.20    2.78
 -17  -8  -2    4.12    1.35
 -17   8   2    6.02    2.93
  17   8  -2    5.38    1.96
 -17   8  -2    7.08    3.13
 -17   8  -2    8.09    2.94
 -17  -8   2    5.54    1.45
 -17   9   2   10.11    3.68
 -17  -9  -2   12.37    1.81
 -17  -9   2   11.45    1.78
 -17   9  -2   11.37    3.06
 -17   9  -2   13.38    3.67
 -17   0  -3    0.37    0.39
  17   0  -3   -0.57    0.56
 -17   0   3   -0.28    0.47
  17   0   3    0.84    0.41
 -17  -1  -3   15.05    1.14
 -17   1   3   17.54    1.27
 -17  -1  -3   17.23    0.97
  17  -1   3   14.83    1.14
 -17  -1   3   16.16    1.13
  17  -1  -3   17.17    1.33
  17   1   3   15.89    0.96
 -17   1  -3   17.59    1.28
 -17  -2  -3   57.58    2.50
 -17   2   3   58.87    2.79
 -17  -2  -3   54.26    2.22
  17   2  -3   47.58    2.68
  17  -2  -3   55.67    2.50
  17   2   3   58.70    2.24
 -17   2  -3   56.48    2.87
 -17  -2   3   59.01    2.45
 -17  -3  -3    2.51    0.51
 -17  -3  -3    2.06    0.76
  17   3  -3    2.49    0.94
 -17   3   3    2.55    0.98
  17  -3  -3    1.53    0.67
 -17   3  -3    1.60    1.08
  17   3   3    2.58    0.56
 -17  -3   3    3.12    0.72
 -17  -4  -3   25.37    1.39
  17   4  -3   25.91    2.05
 -17   4   3   30.51    2.56
 -17  -4   3   24.74    1.57
 -17   4  -3   28.00    2.43
  17   4   3   28.39    1.44
  17   5  -3    1.93    1.24
 -17  -5  -3    2.20    0.66
 -17   5   3    3.24    1.67
 -17   5  -3    2.47    1.49
  17   5   3    3.52    0.60
 -17  -5   3    2.06    0.84
 -17   6   3   36.04    2.87
 -17   6   3   24.06    3.17
 -17  -6  -3   28.40    1.78
  17   6  -3   25.11    2.69
 -17  -6   3   31.19    2.02
 -17   6  -3   25.43    3.21
  17   7  -3   13.67    2.10
 -17   7   3   15.23    2.69
 -17  -7  -3   13.77    1.53
 -17   7  -3   16.28    2.56
 -17  -7   3   13.42    1.86
 -17   7  -3   14.76    2.72
 -17   8   3   17.90    3.58
 -17  -8  -3   15.46    1.98
  17   8  -3   18.67    2.45
 -17  -8   3   20.50    2.56
 -17   8  -3   17.56    3.13
 -17   8  -3   12.10    2.92
 -17   9   3   10.16    4.34
 -17  -9  -3    2.97    1.38
 -17  -9   3    2.44    1.65
 -17   9  -3    0.85    3.00
 -17   9  -3    0.43    3.46
 -17   0   4    1.99    0.60
  17   0   4    2.82    0.46
 -17   0  -4    1.26    0.51
  17   0  -4    1.47    0.65
  17   1  -4   18.31    1.58
  17  -1   4   20.27    1.21
 -17  -1  -4   20.42    1.06
 -17   1   4   21.53    1.49
 -17  -1  -4   18.54    1.29
  17  -1  -4   21.53    1.41
  17   1   4   21.05    1.02
 -17   1  -4   17.78    1.44
 -17  -1   4   21.18    1.32
  17   2  -4   73.93    3.34
 -17  -2  -4   71.25    2.78
 -17   2   4   76.34    3.35
 -17  -2  -4   72.50    3.03
 -17   2  -4   75.77    3.43
  17   2   4   73.22    2.79
 -17  -2   4   72.83    3.04
  17  -2  -4   72.53    3.13
 -17  -3  -4    0.89    0.59
  17   3  -4    1.69    0.96
 -17  -3  -4    1.75    0.40
 -17   3   4    1.18    0.93
 -17   3  -4    1.69    1.02
 -17  -3   4    1.78    0.65
  17  -3  -4    1.33    0.67
  17   4  -4    2.01    1.05
 -17  -4  -4    1.11    0.55
 -17   4   4    1.19    1.15
 -17  -4   4    2.28    0.72
  17  -4  -4    2.02    0.80
 -17   4  -4    2.61    1.38
 -17  -5  -4    0.81    0.55
 -17   5   4    1.04    1.57
  17   5  -4   -0.04    1.24
 -17  -5   4    1.51    0.81
 -17   5  -4    1.38    1.57
 -17  -6  -4   11.64    1.28
 -17   6   4    9.75    1.78
 -17   6   4   12.12    2.54
  17   6  -4   12.21    1.99
 -17   6  -4   14.90    2.51
 -17  -6   4   12.37    1.71
 -17   6  -4   11.50    2.35
 -17   7   4   -2.42    2.31
 -17  -7  -4    1.90    0.90
  17   7  -4   -0.23    1.70
 -17  -7   4    0.53    1.14
 -17   7  -4    1.29    2.23
 -17   7  -4    0.68    2.04
 -17  -8  -4   -0.19    1.13
 -17   8   4   -3.49    2.77
 -17   8  -4    5.17    3.17
 -17   8  -4   -0.04    2.70
 -17  -8   4    1.11    1.42
 -17  -9  -4    0.84    1.45
 -17   9   4    0.54    3.52
 -17   9  -4    3.75    3.27
 -17  -9   4    2.24    1.78
 -17   9  -4    5.62    3.59
 -17   0  -5   -0.69    0.44
 -17   0   5   -0.69    0.50
  17   0  -5   -0.07    0.66
  17   0   5    0.30    0.42
  17   1  -5   25.53    1.76
 -17  -1  -5   27.19    1.50
  17  -1   5   26.68    1.51
 -17   1   5   28.96    1.71
 -17  -1  -5   26.49    1.29
 -17  -1   5   27.63    1.58
  17   1   5   26.26    1.21
 -17   1  -5   27.24    1.68
  17  -1  -5   28.05    1.74
 -17  -2  -5   13.81    1.17
 -17  -2  -5   15.00    0.85
  17   2  -5   15.81    1.58
 -17   2   5   16.58    1.63
  17   2   5   15.74    0.93
 -17  -2   5   15.87    1.27
 -17   2  -5   12.40    1.61
  17  -2  -5   14.39    1.28
 -17  -3  -5   -1.10    0.76
 -17  -3  -5   -0.14    0.56
  17   3  -5   -0.37    0.93
 -17   3   5   -0.12    1.02
 -17  -3  -5    0.38    0.36
 -17   3  -5    0.49    1.09
 -17  -3   5    0.15    0.62
  17  -3  -5   -0.72    0.57
 -17  -4  -5    2.65    0.92
 -17   4   5    2.63    1.36
 -17  -4  -5    0.36    0.91
 -17  -4  -5    2.54    0.54
  17   4  -5    1.59    1.18
 -17   4  -5    4.09    1.41
 -17  -4   5    2.95    0.90
  17  -4  -5    0.86    0.73
 -17   5   5   35.30    3.47
  17   5  -5   33.93    2.97
 -17  -5  -5   31.92    1.66
 -17   5  -5   32.29    3.14
 -17  -5   5   34.26    2.10
 -17  -6  -5   10.80    1.21
 -17   6   5   12.08    2.43
  17   6  -5    9.23    2.04
 -17   6  -5   15.58    2.66
 -17   6  -5   10.83    2.74
 -17  -7  -5   12.57    1.54
 -17   7   5   17.21    3.26
 -17   7  -5   12.37    2.69
 -17  -7   5   11.91    1.59
 -17   7  -5   12.93    2.76
 -17  -8  -5    4.29    1.21
  17   8  -5    6.85    2.27
 -17   8   5    2.86    3.15
 -17  -8   5    2.22    1.51
 -17   8  -5    0.65    2.73
 -17   8  -5    5.63    2.87
 -17  -9  -5    2.48    1.59
  17   9  -5    6.13    2.83
 -17   9   5   -2.89    3.32
 -17   9  -5    9.17    3.48
 -17   9  -5    0.08    3.35
 -17  -9   5    3.66    1.80
 -17   0   6    7.93    0.97
  17   0   6    6.17    0.74
 -17   0  -6    6.27    0.76
  17   0  -6    7.41    1.04
 -17   1   6    2.24    0.75
 -17  -1  -6    2.84    0.62
  17  -1   6    3.49    0.63
 -17  -1  -6    2.77    0.50
  17   1  -6    2.50    0.93
  17  -1  -6    3.35    0.94
  17   1   6    2.87    0.41
 -17   1  -6    3.74    0.83
 -17  -1   6    4.25    0.79
 -17   2   6   19.50    1.70
 -17  -2  -6   20.04    1.33
 -17  -2  -6   21.98    1.04
  17   2  -6   22.93    1.87
 -17  -2   6   21.70    1.44
  17  -2  -6   20.63    1.58
 -17   2  -6   20.19    1.89
 -17  -3  -6   89.26    3.67
 -17   3   6  101.21    4.43
 -17  -3  -6   90.69    3.37
  17   3  -6   92.13    4.36
 -17  -3  -6   86.72    3.62
  17  -3  -6   91.27    3.83
 -17  -3   6   94.78    3.80
 -17   3  -6   92.43    4.21
 -17  -4  -6   16.08    1.02
 -17   4   6   18.64    2.51
  17   4  -6   15.79    2.25
 -17  -4  -6   19.12    1.49
 -17  -4   6   17.43    1.49
  17  -4  -6   15.59    1.45
 -17   4  -6   17.20    2.01
  17   5  -6   21.45    2.64
 -17  -5  -6   25.47    1.44
 -17   5   6   25.68    1.87
 -17   5   6   24.07    2.93
  17  -5  -6   25.66    1.79
 -17   5  -6   27.67    3.03
 -17  -5   6   22.61    1.83
  17   6  -6    4.06    3.43
 -17  -6  -6   10.26    1.23
 -17   6  -6    9.44    2.09
 -17   6  -6    8.21    2.15
 -17  -6   6    8.49    1.38
  17   7  -6   30.42    3.79
 -17   7   6   22.86    3.51
 -17  -7  -6   37.45    2.09
 -17   7  -6   26.08    3.95
 -17   7  -6   30.96    4.26
 -17  -7   6   31.53    2.46
 -17   8   6   12.93    3.75
  17   8  -6   13.49    3.14
 -17  -8  -6    8.28    2.22
 -17   8  -6    7.80    3.01
 -17  -8   6    8.43    1.71
 -17   8  -6    8.35    3.05
 -17   9   6    1.51    3.73
  17   9  -6    0.16    2.70
 -17   9  -6   -2.40    3.05
 -17   9  -6    2.91    3.49
 -17  -9   6   -2.55    1.76
  17   0  -7   -1.43    0.68
 -17   0  -7   -0.26    0.57
 -17   0   7   -0.78    0.66
  17   0   7    0.41    0.39
  17   1  -7    2.15    0.99
 -17   1   7    3.84    0.94
  17  -1   7    4.14    0.69
 -17  -1  -7    3.71    0.54
  17  -1  -7    3.17    0.86
 -17  -1   7    4.02    0.90
  17   1   7    4.29    0.49
 -17   1  -7    3.04    0.89
 -17   2   7   -0.98    0.86
 -17  -2  -7    0.90    0.53
  17   2  -7    2.20    1.25
 -17   2  -7    0.17    1.03
 -17  -2   7   -0.36    0.65
  17  -2  -7    0.58    0.80
  17   3  -7   33.15    2.56
 -17   3   7   35.58    2.59
 -17  -3  -7   35.68    1.44
 -17  -3  -7   35.08    1.69
 -17  -3  -7   36.17    1.83
 -17   3  -7   32.97    2.48
 -17  -3   7   37.13    2.00
  17  -3  -7   35.50    2.05
  17   4  -7   37.60    2.85
 -17   4   7   37.02    2.95
 -17  -4  -7   40.53    1.62
 -17   4   7   41.98    2.15
 -17  -4  -7   36.54    2.07
  17  -4  -7   38.23    2.11
 -17  -4   7   35.97    2.18
 -17   4  -7   39.07    2.69
  17   5  -7    7.18    1.73
 -17   5   7    3.43    1.88
 -17  -5  -7    7.28    0.96
  17  -5  -7    7.21    1.16
 -17   5  -7    7.15    1.93
 -17  -5   7    5.26    1.10
 -17  -6  -7    6.17    0.92
  17   6  -7    5.56    1.97
 -17   6   7    3.47    2.55
 -17   6  -7    5.97    2.31
 -17   6  -7    4.68    2.00
 -17  -6   7    7.77    1.49
  17   7  -7   -0.16    1.98
 -17   7   7    0.59    2.67
 -17   7  -7    2.68    2.29
 -17   7  -7   -0.94    2.60
 -17  -7   7   -0.02    1.27
 -17   8   7    3.71    3.30
  17   8  -7    3.00    2.62
 -17   8  -7    2.44    3.07
 -17  -8   7    3.58    1.67
 -17   8  -7    0.37    2.30
 -17   0   8  160.15    6.20
  17   0   8  156.68    5.66
 -17   0  -8  158.94    5.83
  17   0  -8  168.68    6.45
 -17   1   8    6.71    1.10
  17   1  -8    5.66    1.14
  17  -1   8    5.79    0.78
  17  -1  -8    6.97    1.08
 -17  -1   8    5.26    0.91
 -17   1  -8    6.58    0.90
 -17   2   8    3.49    1.03
 -17  -2  -8    7.10    0.97
  17   2  -8    5.91    1.38
  17  -2  -8    5.40    0.92
 -17  -2   8    5.01    0.93
 -17   2  -8    3.23    1.18
 -17   3   8   -0.36    0.96
 -17   3   8    0.93    1.23
  17   3  -8    0.18    1.17
 -17  -3  -8   -1.17    0.59
 -17  -3   8    0.78    0.85
 -17   3  -8    0.55    1.21
  17  -3  -8    0.51    0.85
 -17   4   8   -0.04    1.51
 -17  -4  -8    0.46    0.36
  17   4  -8    2.22    1.62
 -17  -4   8    1.90    0.95
 -17   4  -8    1.37    1.34
  17  -4  -8   -0.21    0.83
 -17   5   8    0.21    1.90
  17   5  -8    2.52    1.77
 -17  -5   8    2.53    1.09
  17  -5  -8    1.64    0.83
 -17   5  -8   -0.18    1.72
  17   6  -8   24.14    2.97
 -17   6   8   18.95    3.31
 -17   6  -8   19.59    2.98
 -17  -6   8   14.93    2.06
 -17   6  -8   19.05    2.94
 -17   7   8   -3.06    2.48
  17   7  -8    3.39    2.45
 -17  -7   8   -0.97    1.33
 -17   7  -8   -2.54    2.35
 -17   7  -8    2.48    2.48
 -17   8   8   17.93    3.97
  17   8  -8   20.42    3.20
 -17   8  -8   27.28    4.33
 -17   8  -8   23.81    3.31
 -17  -8   8   22.25    2.74
 -17   0   9   -0.60    0.73
  17   0  -9    0.81    1.04
  17  -1   9    0.87    0.72
  17   1  -9    0.29    1.11
 -17   1   9    0.01    0.85
  17  -1  -9    0.56    0.88
 -17   1  -9    0.70    0.76
 -17  -1   9   -0.21    0.71
  17   2  -9   29.33    2.55
 -17   2   9   31.51    2.35
 -17   2  -9   31.19    2.24
  17  -2  -9   35.11    2.13
 -17  -2   9   35.47    2.07
 -17   3   9   -0.84    1.29
  17   3  -9    0.56    1.37
 -17  -3   9   -1.56    0.77
  17  -3  -9    0.39    0.78
 -17   3  -9   -0.68    1.02
  17   4  -9  104.29    5.38
 -17   4   9  114.57    5.49
  17  -4  -9  116.26    4.60
 -17  -4   9  106.99    4.70
 -17   4  -9  110.74    5.09
 -17   5   9    6.19    2.37
  17   5  -9    7.86    2.01
  17  -5  -9    7.62    1.16
 -17   5  -9    6.96    2.01
 -17  -5   9    4.82    1.25
 -17   6   9    0.35    2.35
  17   6  -9    2.00    2.02
 -17   6  -9    3.92    2.52
 -17   6  -9   -0.42    2.38
  17  -6  -9    0.68    1.08
 -17  -6   9    0.87    1.21
 -17   7   9    3.21    2.97
  17   7  -9   -0.14    2.50
 -17   7  -9    0.18    3.13
 -17   7  -9    0.52    2.10
 -17  -7   9   -0.29    1.49
  17   8  -9    3.96    3.01
 -17   8   9   -1.36    3.32
 -17  -8   9   -0.07    1.59
 -17   8  -9    7.23    3.71
 -17   8  -9    3.12    2.80
  17   0 -10   85.33    4.00
 -17   0  10   81.53    3.71
 -17   1  10   -0.39    0.93
  17   1 -10    0.44    1.27
  17  -1 -10    0.46    0.96
 -17  -1  10   -0.83    0.82
 -17   2  10   10.97    1.58
  17   2 -10   11.84    1.90
  17  -2 -10    6.39    1.31
 -17   2 -10    9.55    1.40
 -17  -2  10   10.97    1.29
  17   3 -10   26.95    2.92
 -17   3  10   22.63    2.61
 -17  -3  10   24.78    1.93
 -17   3 -10   27.32    2.44
  17  -3 -10   27.57    1.93
  17   4 -10    1.52    1.73
 -17   4  10    2.73    1.98
 -17  -4  10    2.82    1.15
 -17   4 -10    5.61    1.58
  17  -4 -10    2.99    1.04
 -17   5  10    4.86    4.30
  17   5 -10   -2.46    1.67
 -17   5 -10    2.97    2.19
 -17  -5  10   -1.67    1.15
 -17   5 -10   -0.05    1.84
  17  -5 -10   -0.44    1.02
 -17   6  10    4.40    2.74
  17   6 -10    3.94    2.33
  17  -6 -10    4.61    1.33
 -17  -6  10    9.64    1.70
 -17   6 -10    3.41    2.25
 -17   6 -10    8.35    2.74
 -17   7  10    7.11    3.25
  17   7 -10    2.73    2.74
 -17  -7  10    4.85    1.66
 -17   7 -10    7.01    2.57
 -17   7 -10    1.11    2.94
  17   0 -11    0.48    1.38
 -17   0  11   -0.05    0.94
  17   1 -11    6.86    1.63
 -17   1  11    6.17    1.31
 -17  -1  11    8.11    1.36
  17  -1 -11    6.17    1.40
  17   2 -11   12.33    1.99
 -17   2  11   12.95    1.75
 -17  -2  11   13.14    1.53
  17  -2 -11   12.27    1.79
 -17   3  11    0.70    1.55
  17   3 -11   -3.47    1.43
 -17  -3  11    0.11    1.90
  17  -3 -11   -1.20    0.87
  17   4 -11   14.38    2.29
 -17   4  11   17.28    2.60
  17  -4 -11   15.88    1.87
 -17   4 -11   15.71    2.16
 -17  -4  11   22.08    2.14
  17   5 -11   -2.02    1.92
 -17   5  11    3.93    2.77
 -17  -5  11    1.73    1.57
  17  -5 -11   -0.09    1.00
 -17   5 -11   -1.83    2.18
 -17   5 -11    0.53    2.02
 -17   6  11   -0.81    2.56
  17   6 -11   -0.86    2.27
 -17   6 -11   -0.98    2.54
  17  -6 -11    1.01    1.31
 -17   6 -11    0.60    2.29
 -17  -6  11   -0.82    1.50
  17   7 -11    0.78    2.74
 -17   7  11    4.48    3.81
 -17  -7  11    0.29    1.63
 -17   7 -11   -3.30    3.07
 -17   0  12   48.74    2.96
  17   0 -12   44.34    3.21
 -17   1  12    0.71    1.12
  17   1 -12    1.13    1.59
 -17  -1  12    1.58    1.15
  17  -1 -12    1.26    1.22
 -17   2  12   -0.11    1.42
  17   2 -12   -0.86    1.73
  17  -2 -12   -0.31    1.12
  17   3 -12   -0.35    1.81
 -17   3  12   -2.30    1.59
  17  -3 -12    1.06    1.24
 -17  -3  12   -0.25    1.16
 -17   4  12    0.95    2.91
  17   4 -12    2.25    2.04
 -17  -4  12    1.12    1.28
  17  -4 -12    4.16    1.26
 -17   5  12    5.13    3.00
  17   5 -12    1.38    2.43
  17  -5 -12    3.99    1.40
 -17   5 -12    1.80    2.60
 -17  -5  12    0.18    1.35
  17   6 -12    6.25    2.83
 -17   6  12    5.25    3.07
 -17   6 -12    5.78    2.96
 -17  -6  12    3.54    1.71
  17   0 -13   -0.39    1.38
 -17   0  13   -1.24    1.17
  17   1 -13   24.69    3.08
 -17   1  13   21.58    2.57
  17   2 -13    8.21    2.21
 -17   2  13    9.09    1.83
 -17  -2  13    9.67    1.53
  17  -2 -13    9.36    1.57
  17   3 -13   -1.26    1.81
  17  -3 -13    0.03    1.21
 -17  -3  13    1.35    1.23
  17   4 -13    5.22    2.57
 -17   4  13   -1.53    2.31
 -17   4 -13    0.02    2.29
 -17  -4  13    3.79    1.35
  17  -4 -13    0.24    1.31
  17   5 -13    7.56    2.87
 -17   5  13    6.73    3.19
 -17  -5  13    2.20    1.56
 -17   5 -13    3.04    2.68
 -17   6  13   24.36    3.91
  17   6 -13   22.40    3.42
 -17   6 -13   24.42    4.09
 -17  -6  13   26.46    3.31
  17   0 -14    1.67    1.61
 -17   0  14   -1.16    1.37
  17   1 -14    0.58    1.90
 -17   1  14    0.28    1.66
 -17  -1  14    1.48    1.52
  17  -1 -14   -0.74    1.44
 -17   2  14   12.73    2.24
  17   2 -14    5.31    2.21
  17  -2 -14   10.51    1.73
 -17  -2  14   10.23    1.55
  17   3 -14    8.08    2.54
 -17   3  14   10.58    2.38
 -17  -3  14    9.88    1.80
  17  -3 -14    9.04    1.67
  17   4 -14    5.02    2.74
 -17   4  14   -0.81    2.56
  17  -4 -14    0.08    1.53
 -17  -4  14   -2.34    1.37
 -17   4 -14   -3.08    2.65
  17   5 -14   10.83    3.20
 -17   5  14    4.19    3.39
 -17  -5  14    3.15    1.67
 -17   5 -14   -1.69    2.81
  17   0 -15    0.46    1.73
 -17   0  15   -0.10    1.85
  17   1 -15   28.28    3.59
 -17   1  15   23.85    3.00
 -17  -1  15   26.48    2.69
  17  -1 -15   26.55    2.96
 -17   2  15   11.12    2.37
  17   2 -15    9.34    2.35
  17  -2 -15   12.21    1.98
 -17  -2  15   12.80    1.96
  17   3 -15    8.03    2.82
 -17   3  15   15.37    2.98
 -17   3 -15   14.17    2.88
 -17  -3  15   11.14    1.88
  17  -3 -15   12.34    2.00
  17   4 -15    2.18    2.94
 -17   4  15   -3.62    2.88
 -17   4 -15   -2.53    2.80
 -17  -4  15    0.09    1.57
  17   0 -16    4.58    2.12
 -17   0  16   -0.44    1.79
 -17   1  16    3.36    2.00
  17   1 -16    4.72    2.54
 -17  -1  16    4.29    1.60
  17  -1 -16    4.87    1.94
 -17   2  16   36.24    3.97
  17   2 -16   43.54    4.05
  17  -2 -16   40.02    3.56
 -17  -2  16   36.27    3.28
  17   3 -16   11.11    2.96
 -17  -3  16   16.14    2.25
 -17   3 -16   14.88    3.23
 -17   0  17   -3.08    1.87
  17   0 -17   -0.66    2.30
  18   0   0  139.26    5.30
 -18   0   0  141.51    5.29
  18  -1   0    0.94    0.60
  18   1   0   -0.06    0.55
 -18   1   0    0.32    0.64
 -18  -1   0   -0.99    0.44
 -18   2   0  163.82    6.43
  18   2   0  165.19    6.23
 -18  -2   0  168.53    6.07
 -18   3   0    0.24    0.84
  18   3   0    0.19    0.73
 -18  -3   0   -0.25    0.49
 -18   4   0    6.75    1.50
  18   4   0    6.60    1.03
 -18  -4   0    6.04    0.78
  18   5   0    0.23    1.03
 -18  -5   0   -1.08    0.60
 -18   5   0    0.61    1.48
  18   6   0   15.58    1.83
 -18   6   0   13.46    2.29
 -18  -6   0   15.54    1.49
 -18   7   0   -2.17    1.82
 -18   7   0   -0.23    2.01
  18   7   0   -1.56    1.26
 -18  -7   0   -0.51    1.00
 -18   8   0   73.05    5.64
 -18   8   0   83.84    5.41
 -18  -8   0   85.78    4.00
 -18  -9   0    0.10    1.31
 -18   9   0   -4.12    3.01
  18   0  -1    0.05    0.53
 -18   0  -1    0.46    0.65
  18   0   1   -0.65    0.49
 -18   0   1    0.64    0.51
 -18   1   1   18.33    1.35
  18   1  -1   20.60    1.44
 -18  -1   1   18.94    1.23
  18  -1  -1   19.02    1.31
 -18   1  -1   18.40    1.49
  18   1   1   21.80    1.37
 -18  -2  -1   36.69    1.69
  18   2  -1   33.84    1.95
 -18   2   1   39.32    2.24
  18  -2  -1   36.89    1.89
  18   2   1   34.31    1.83
 -18  -2   1   35.53    1.74
 -18   2  -1   33.49    2.11
 -18  -3  -1   -0.31    0.42
 -18   3   1    1.04    1.01
  18   3  -1    0.30    0.72
 -18  -3   1   -0.38    0.44
  18   3   1    0.06    0.72
 -18   3  -1   -0.64    0.88
 -18   4   1  186.63    7.68
 -18  -4  -1  180.73    6.80
  18   4  -1  197.86    7.13
  18   4   1  195.04    6.98
 -18   4  -1  175.97    7.58
 -18  -4   1  182.04    6.86
 -18  -5  -1   -0.53    0.60
  18   5  -1    0.00    1.02
 -18   5   1    0.52    1.43
  18   5   1   -0.27    0.87
 -18  -5   1    1.08    0.66
 -18   5  -1   -0.32    1.48
  18   6  -1    8.31    1.48
 -18   6   1   13.06    2.46
 -18  -6  -1    8.96    1.24
  18   6   1    9.12    1.29
 -18  -6   1    7.87    1.19
 -18   6  -1   10.60    2.34
  18   7  -1    0.35    1.42
 -18   7   1    2.64    2.04
 -18  -7  -1    0.95    1.06
 -18   7   1    0.54    2.29
 -18  -7   1    1.35    1.23
 -18   7  -1    0.17    2.15
 -18   7  -1    3.79    2.00
 -18   8   1   -2.18    2.46
 -18  -8  -1    1.01    1.17
 -18   8  -1   -0.41    2.60
 -18   8  -1   -0.75    2.68
 -18  -8   1    0.86    1.37
 -18  -9  -1   -1.54    1.34
 -18  -9   1   -0.30    1.55
 -18   9  -1    0.48    2.97
 -18   0  -2   14.14    1.08
  18   0  -2   15.00    1.26
 -18   0   2   12.05    1.09
  18   0   2   11.07    1.00
 -18   1   2   37.70    1.95
  18   1  -2   37.18    1.97
 -18  -1  -2   37.79    1.70
  18  -1  -2   37.76    1.89
 -18  -1   2   36.30    1.76
  18   1   2   35.03    1.66
 -18   1  -2   38.71    2.07
  18   1   2   36.83    1.89
  18   2  -2    3.36    0.80
 -18  -2  -2    3.89    0.55
 -18   2   2    3.34    0.88
 -18   2  -2    3.28    0.92
  18  -2  -2    4.25    0.71
 -18  -2   2    2.87    0.60
  18   2   2    4.43    0.59
  18   2   2    4.11    0.94
 -18   3   2    4.99    1.13
  18   3  -2    7.34    1.04
 -18  -3  -2    7.75    0.89
 -18   3  -2    6.82    1.29
 -18  -3   2    6.79    0.88
  18   3   2    9.72    1.30
  18  -3  -2    7.69    1.14
  18   4  -2    0.05    1.05
 -18   4   2   -0.36    1.14
 -18  -4  -2    0.70    0.54
 -18  -4   2    0.99    0.61
  18   4   2    1.43    0.73
 -18   4  -2   -0.76    1.23
 -18   5   2   28.51    3.05
  18   5  -2   24.46    2.12
 -18  -5  -2   25.84    1.49
  18   5   2   25.37    1.75
 -18  -5   2   24.80    1.69
 -18   5  -2   21.11    2.67
 -18   6   2    2.66    1.70
 -18   6   2    2.35    1.80
  18   6  -2    3.95    1.40
 -18  -6  -2    4.31    0.88
 -18   6  -2    1.25    1.82
  18   6   2    4.10    1.00
 -18  -6   2    6.21    1.17
 -18   7   2   -0.64    2.29
 -18   7   2   -0.35    1.97
 -18  -7  -2   -1.54    0.91
  18   7  -2   -1.34    1.42
 -18  -7   2   -0.82    1.05
 -18   7  -2   -0.83    2.11
 -18   7  -2    1.34    2.10
 -18  -8  -2   20.71    2.10
  18   8  -2   33.27    3.45
 -18   8   2   26.55    4.01
 -18   8  -2   20.21    3.48
 -18  -8   2   23.52    2.31
 -18  -9  -2    0.16    1.35
 -18   9   2    3.35    3.66
 -18   9  -2   -3.89    2.86
 -18   9  -2    9.19    3.60
 -18  -9   2    1.66    1.58
  18   0   3    0.01    0.47
 -18   0  -3   -0.22    0.43
  18   0  -3   -0.44    0.60
 -18   0   3    1.23    0.63
 -18  -1  -3   -0.67    0.39
 -18   1   3   -0.47    0.54
  18   1  -3   -0.47    0.57
  18  -1   3    0.36    0.57
  18  -1  -3   -0.40    0.60
  18   1   3   -0.67    0.42
 -18  -1   3   -0.39    0.44
  18   2  -3   34.55    2.04
 -18   2   3   34.51    2.11
 -18  -2  -3   37.87    1.61
 -18  -2   3   37.15    1.82
 -18   2  -3   37.18    2.19
  18   2   3   36.11    1.65
  18  -2  -3   39.34    1.96
 -18   3   3    0.26    0.99
  18   3  -3    0.58    0.84
  18   3   3    0.14    0.54
  18  -3  -3   -0.51    0.57
 -18  -3   3   -0.46    0.51
 -18   3  -3    0.80    0.98
 -18   4   3   23.85    2.42
 -18  -4  -3   23.03    1.34
  18   4  -3   21.05    1.98
 -18  -4   3   22.14    1.56
 -18   4  -3   25.92    2.67
  18   4   3   22.28    1.36
  18   5  -3   14.98    2.12
 -18  -5  -3   17.75    1.29
 -18   5   3   21.33    2.46
 -18  -5   3   18.41    1.66
  18   5   3   20.93    1.25
 -18   5  -3   14.78    2.26
 -18   6   3   13.79    2.47
 -18  -6  -3   12.78    1.34
 -18   6   3    9.25    1.80
  18   6  -3   11.26    1.72
 -18   6  -3   12.90    2.40
 -18  -6   3   11.98    1.66
 -18   7   3   10.63    2.74
 -18  -7  -3   11.05    1.31
  18   7  -3    9.04    1.96
 -18   7  -3    8.77    2.62
 -18  -7   3    9.84    1.44
 -18   7  -3    8.42    2.42
  18   8  -3    5.11    2.14
 -18   8   3    2.61    3.02
 -18  -8   3    5.46    1.49
 -18   8  -3    4.63    2.80
 -18   8  -3    3.23    2.69
 -18  -9  -3   -0.25    1.32
 -18   9   3   -2.62    3.27
 -18   9  -3   -1.57    3.50
 -18   9  -3    1.78    3.09
 -18  -9   3    0.89    1.75
 -18   0   4   86.78    3.53
  18   0  -4   85.41    3.62
 -18   0  -4   83.27    3.40
  18   0   4   88.34    3.27
  18  -1   4    6.65    0.80
  18   1  -4    8.74    1.12
 -18  -1  -4    9.78    0.76
 -18   1   4   11.40    1.25
  18   1   4   10.58    0.75
  18  -1  -4    9.64    1.17
 -18  -1   4    7.44    0.93
 -18   1  -4    9.98    1.11
 -18  -2  -4   51.23    2.49
 -18  -2  -4   53.34    2.10
 -18   2   4   50.08    2.64
  18   2  -4   52.54    2.63
 -18  -2   4   52.13    2.36
  18  -2  -4   55.14    2.49
  18   2   4   49.63    2.10
 -18   2  -4   50.14    2.79
 -18  -3  -4    1.19    0.46
  18   3  -4    0.83    0.90
 -18   3   4    0.95    0.91
 -18  -3   4    1.57    0.66
 -18   3  -4    1.32    1.03
  18  -3  -4    1.71    0.70
 -18  -4  -4   33.40    1.62
 -18   4   4   33.37    2.69
  18   4  -4   33.95    2.44
 -18  -4   4   34.44    1.94
  18  -4  -4   33.63    2.00
 -18   4  -4   36.71    2.84
 -18  -5  -4   11.10    1.14
  18   5  -4   11.24    1.75
 -18   5   4   10.23    1.97
 -18   5  -4   12.84    2.27
 -18  -5   4   10.27    1.38
 -18  -6  -4   48.68    2.43
 -18   6   4   43.79    4.30
 -18   6   4   49.62    3.37
  18   6  -4   55.68    3.62
 -18   6  -4   57.78    4.33
 -18  -6   4   48.56    2.75
 -18   7   4    3.23    2.63
 -18  -7  -4   -0.19    0.91
  18   7  -4    2.51    1.99
 -18   7  -4   -1.09    2.13
 -18   7  -4    4.79    2.69
 -18  -7   4    2.00    1.41
 -18  -8  -4   19.94    2.00
  18   8  -4   17.02    2.79
 -18   8   4   18.36    3.41
 -18   8  -4   17.05    3.19
 -18   8  -4   16.71    3.12
 -18  -8   4   19.09    2.02
 -18  -9  -4    0.67    1.42
 -18   9   4   -0.38    3.48
 -18   9  -4   -2.19    3.46
 -18   9  -4    1.61    3.06
 -18  -9   4    0.05    1.69
 -18   0   5   -0.35    0.50
 -18   0  -5    0.44    0.49
  18   0  -5   -0.14    0.67
  18   0   5    0.90    0.44
 -18  -1  -5   19.92    1.09
  18   1  -5   17.79    1.54
  18  -1   5   19.81    1.26
 -18   1   5   19.94    1.48
  18   1   5   17.83    1.01
  18  -1  -5   19.74    1.50
 -18  -1   5   16.63    1.30
 -18   1  -5   21.85    1.48
 -18  -2  -5   55.05    2.51
 -18   2   5   57.08    2.93
  18   2  -5   58.13    2.90
 -18  -2  -5   56.70    2.25
  18  -2  -5   61.59    2.73
 -18  -2   5   54.94    2.55
  18   2   5   57.22    2.25
 -18   2  -5   56.08    2.89
 -18   3   5    4.36    1.15
 -18  -3  -5    4.27    0.85
 -18  -3  -5    4.17    0.53
  18   3  -5    7.33    1.42
 -18   3  -5    2.93    1.11
 -18  -3   5    4.04    0.73
  18  -3  -5    4.10    0.88
 -18  -4  -5    1.45    1.00
  18   4  -5    1.34    1.11
 -18   4   5    2.42    1.52
 -18  -4   5    1.97    0.78
 -18   4  -5    2.92    1.32
  18  -4  -5    0.55    0.74
 -18  -5  -5    0.62    0.61
  18   5  -5   -0.50    1.40
 -18   5   5    2.31    1.71
 -18   5  -5    2.95    1.65
 -18  -5   5    0.03    0.89
 -18  -6  -5   35.86    1.94
  18   6  -5   36.76    3.10
 -18   6  -5   33.39    3.55
 -18  -6   5   35.81    2.30
 -18   7   5    8.34    2.90
  18   7  -5   12.27    2.25
 -18  -7  -5   13.29    1.64
 -18  -7   5   14.72    2.00
 -18   7  -5   13.74    2.73
 -18   7  -5   10.36    2.61
  18   8  -5    1.39    2.25
 -18  -8  -5    4.25    1.27
 -18   8   5    7.33    3.28
 -18   8  -5    1.81    2.79
 -18   8  -5   -1.06    3.09
 -18  -8   5    0.98    1.42
  18   9  -5    0.71    2.77
 -18   9   5   -2.82    3.47
 -18   9  -5   -1.19    2.99
 -18   9  -5    7.59    3.61
 -18  -9   5   -0.74    1.68
 -18   0   6    3.26    0.77
  18   0  -6    5.20    1.09
 -18   0  -6    3.80    0.71
  18   0   6    3.85    0.51
 -18  -1  -6    4.53    0.61
  18   1  -6    3.79    0.97
 -18   1   6    4.93    0.99
  18  -1   6    4.22    0.69
 -18   1  -6    5.85    0.87
  18   1   6    5.05    0.63
  18  -1  -6    3.61    0.83
 -18  -1   6    4.29    0.74
 -18  -2  -6  137.04    5.01
  18   2  -6  153.71    5.84
 -18  -2  -6  131.18    5.25
 -18   2   6  133.39    5.63
 -18  -2   6  142.26    5.39
 -18   2  -6  133.60    5.65
  18  -2  -6  147.52    5.52
 -18  -3  -6   18.81    1.00
  18   3  -6   18.14    1.94
 -18   3   6   21.45    2.26
 -18  -3  -6   17.25    1.36
 -18  -3  -6   20.57    1.42
 -18   3  -6   21.24    2.24
 -18  -3   6   21.08    1.53
  18  -3  -6   20.32    1.65
 -18  -4  -6    0.89    0.52
  18   4  -6    0.42    1.32
 -18  -4  -6   -0.25    0.86
 -18  -4  -6    0.57    0.89
 -18   4   6   -0.73    1.25
 -18   4  -6    0.00    1.39
  18  -4  -6    1.05    0.81
 -18  -4   6    0.31    0.73
 -18   5   6    1.42    1.73
 -18  -5  -6    2.36    0.64
  18   5  -6    4.27    1.80
  18  -5  -6    2.13    0.97
 -18   5  -6    0.73    1.37
 -18  -5   6    0.97    0.90
  18   6  -6   27.34    3.28
 -18   6   6   20.03    3.05
 -18  -6  -6   19.12    1.40
 -18  -6   6   21.14    2.07
 -18   6  -6   21.45    2.74
 -18   6  -6   20.54    2.95
 -18  -7  -6    0.56    0.91
  18   7  -6    1.01    2.14
 -18   7   6   -1.26    2.52
 -18   7  -6   -2.19    2.35
 -18   7  -6   -0.31    2.24
 -18  -7   6    0.05    1.18
 -18   8   6    3.62    3.23
  18   8  -6    4.53    2.35
 -18   8  -6    1.09    2.80
 -18  -8   6    2.58    1.54
 -18   8  -6    6.54    3.44
 -18   9   6    4.81    4.06
 -18   9  -6   -4.36    3.05
 -18   9  -6   -0.59    3.17
 -18  -9   6    3.74    2.13
 -18   0   7   -0.42    0.62
  18   0  -7    0.14    0.81
  18   0   7   -0.57    0.43
 -18   0  -7   -1.55    0.61
  18   1  -7   -0.41    0.86
 -18   1   7   -0.60    0.75
 -18  -1  -7    0.80    0.49
  18  -1   7   -0.97    0.64
  18   1   7   -0.03    0.33
 -18  -1   7   -0.86    0.60
 -18   1  -7    1.69    0.75
  18  -1  -7   -1.23    0.74
 -18  -2  -7   53.64    2.10
 -18  -2  -7   53.22    2.47
  18   2  -7   51.84    2.95
 -18   2   7   54.62    2.91
  18  -2  -7   54.42    2.67
 -18  -2   7   56.00    2.61
 -18   2  -7   57.92    2.90
 -18  -3  -7    3.58    0.44
 -18  -3  -7    4.44    0.74
  18   3  -7    4.00    1.43
 -18   3   7    4.04    1.32
 -18  -3  -7    4.07    0.70
 -18   3  -7    3.70    1.25
 -18  -3   7    3.39    0.86
  18  -3  -7    3.87    0.99
 -18   4   7   10.48    1.89
  18   4  -7   14.37    1.93
 -18  -4  -7   12.41    1.43
 -18  -4  -7   12.78    0.85
 -18  -4   7   15.29    1.58
  18  -4  -7   13.11    1.49
 -18   4  -7   14.63    2.10
 -18   5   7   -0.71    1.84
 -18  -5   7    4.13    2.00
  18  -5  -7    2.83    1.08
 -18   5  -7    2.70    1.49
  18   6  -7   36.74    3.66
 -18   6   7   43.54    4.53
 -18  -6  -7   39.88    2.07
 -18   6  -7   39.09    4.00
 -18   6  -7   36.74    3.96
 -18  -6   7   34.47    2.48
 -18   7   7    1.16    2.67
  18   7  -7   -2.58    2.10
 -18   7  -7    1.72    2.59
 -18   7  -7   -3.67    2.38
 -18  -7   7    0.18    1.28
 -18   8   7    1.80    3.32
  18   8  -7    9.29    3.18
 -18   8  -7    1.33    3.13
 -18  -8   7    1.33    1.58
 -18   8  -7    1.28    2.59
  18   0   8    0.78    0.44
 -18   0  -8    0.35    0.58
 -18   0   8    0.62    0.76
  18   0  -8    0.70    0.94
 -18   1   8    1.45    0.85
  18   1  -8    1.42    1.01
  18  -1   8    1.50    0.70
  18  -1  -8    2.57    1.08
 -18  -1   8    1.90    0.79
 -18   1  -8    1.96    0.82
  18   2  -8   58.34    3.33
 -18   2   8   55.67    2.95
 -18  -2  -8   53.84    2.46
 -18  -2   8   52.29    2.65
  18  -2  -8   54.84    2.70
 -18   2  -8   54.49    2.98
 -18  -3  -8   29.01    1.49
 -18   3   8   25.64    2.43
  18   3  -8   22.05    2.47
 -18   3  -8   27.17    2.24
  18  -3  -8   24.70    1.77
 -18  -3   8   25.32    1.80
 -18  -4  -8    7.76    0.94
 -18   4   8    5.98    1.83
  18   4  -8    6.23    2.54
 -18   4  -8    6.12    1.67
 -18  -4   8    7.77    1.28
  18  -4  -8    7.21    1.08
  18   5  -8    7.40    1.92
 -18   5   8    7.26    2.35
 -18   5  -8    4.54    1.61
 -18  -5   8    6.60    1.27
  18  -5  -8    7.40    1.11
  18   6  -8    1.59    1.98
 -18   6   8    5.32    2.48
 -18  -6   8    2.07    1.26
 -18   6  -8    8.32    2.56
 -18   7   8    6.11    3.12
  18   7  -8    7.45    2.62
 -18  -7   8   10.07    1.77
 -18   7  -8    2.01    2.22
 -18   7  -8    6.24    2.92
  18   8  -8   -0.84    2.82
 -18   8   8   -2.03    3.20
 -18   8  -8    5.18    2.77
 -18  -8   8    1.35    1.71
 -18   8  -8   -2.96    3.33
 -18   0   9   -1.38    0.72
  18   0  -9    1.40    1.04
  18  -1   9   -0.32    0.64
 -18   1   9    0.09    0.83
  18   1  -9   -1.74    1.02
  18  -1  -9    0.30    0.91
 -18  -1   9   -0.55    0.79
 -18   1  -9   -1.56    0.65
 -18   2   9    3.08    1.20
  18   2  -9    1.48    1.32
 -18  -2   9    1.97    0.95
  18  -2  -9    0.98    0.99
 -18   2  -9    1.70    1.18
 -18   3   9    6.72    1.61
  18   3  -9    5.50    1.48
 -18   3  -9    7.08    1.57
 -18  -3   9    5.86    1.11
  18  -3  -9    6.33    1.10
 -18   4   9    7.02    2.05
  18   4  -9   10.42    2.06
  18  -4  -9   11.38    1.57
 -18   4  -9   10.20    1.69
 -18  -4   9    6.75    1.48
  18   5  -9    2.54    2.04
 -18  -5   9   -0.59    1.10
 -18   5  -9   -0.13    1.54
  18  -5  -9    0.89    0.98
  18   6  -9    5.92    2.61
 -18   6   9   -1.15    2.44
 -18   6  -9   -3.17    2.23
 -18  -6   9    1.21    1.32
  18  -6  -9    2.71    1.19
 -18   6  -9   -0.73    2.43
 -18   7   9    2.42    3.39
  18   7  -9   -1.93    2.33
 -18   7  -9    0.70    2.22
 -18  -7   9   -1.30    1.29
 -18   7  -9   -0.63    2.79
 -18   8   9   -2.54    3.44
  18   8  -9    0.20    2.85
 -18   8  -9    2.46    3.18
 -18  -8   9    5.07    2.00
 -18   8  -9   -0.01    3.40
  18   0 -10   20.61    2.21
 -18   0  10   18.45    1.77
 -18   1  10   -1.19    0.95
  18   1 -10    2.55    1.46
  18  -1 -10    0.83    0.99
 -18  -1  10    1.91    1.04
  18   2 -10    6.85    1.66
 -18   2  10    6.46    1.43
 -18   2 -10    8.06    1.40
 -18  -2  10    5.87    1.21
  18  -2 -10    6.89    1.18
 -18   3  10   -0.67    1.47
  18   3 -10    5.43    2.03
 -18   3 -10    1.02    1.16
 -18  -3  10    2.40    1.22
  18  -3 -10    0.86    1.06
 -18   4  10    2.76    2.02
  18   4 -10    2.85    1.91
 -18   4 -10    4.89    1.50
 -18  -4  10    6.06    1.30
  18  -4 -10    5.45    1.27
  18   5 -10    3.12    2.08
 -18   5  10    5.07    2.56
 -18   5 -10    4.44    1.80
  18  -5 -10    4.64    1.26
 -18  -5  10    5.57    1.47
  18   6 -10    2.31    2.43
 -18   6  10    0.63    2.58
 -18   6 -10   -0.53    2.32
 -18  -6  10   -0.61    1.34
 -18   6 -10    4.09    2.99
  18   7 -10    8.97    3.21
 -18   7  10    8.20    3.65
 -18   7 -10    3.35    2.57
 -18   7 -10    8.87    3.67
 -18  -7  10    4.05    1.70
 -18   0  11    1.53    1.18
  18   0 -11   -1.20    1.21
 -18   1  11    2.56    1.19
  18   1 -11    3.10    1.81
 -18  -1  11    5.96    1.24
  18  -1 -11    4.15    1.23
 -18   2  11   -1.11    1.29
  18   2 -11    0.21    1.47
  18  -2 -11    1.26    1.36
 -18  -2  11   -1.77    0.96
 -18   3  11    1.14    1.55
  18   3 -11    0.36    1.73
  18  -3 -11    1.37    1.03
 -18   3 -11    0.66    1.37
 -18  -3  11    0.53    1.16
  18   4 -11    0.19    1.89
 -18  -4  11    3.39    1.35
  18  -4 -11    2.91    1.17
 -18   4 -11    2.76    1.60
  18   5 -11   -2.67    2.19
 -18   5  11    0.03    2.33
 -18   5 -11   -0.42    2.26
  18  -5 -11    1.28    1.06
 -18  -5  11    0.50    1.31
 -18   5 -11    0.83    1.80
 -18   6  11   -0.64    2.92
  18   6 -11    0.05    2.48
 -18  -6  11    1.73    1.52
 -18   6 -11    0.45    2.52
 -18   6 -11    3.02    2.22
  18  -6 -11    0.59    1.24
 -18   7  11    1.80    3.31
  18   7 -11   -3.44    2.85
 -18   7 -11   -0.82    2.78
 -18   7 -11   -5.95    2.97
 -18  -7  11    0.67    1.86
 -18   0  12   44.15    2.89
 -18   1  12    6.94    1.39
  18   1 -12    5.56    1.73
 -18  -1  12    5.77    1.39
  18  -1 -12    4.84    1.44
 -18   2  12   -0.36    1.44
  18   2 -12    2.47    1.98
  18  -2 -12   -0.47    1.10
 -18  -2  12    2.88    1.31
 -18   3  12    5.27    2.22
  18   3 -12    4.71    2.03
  18  -3 -12    3.91    1.21
 -18  -3  12    4.16    1.30
 -18   4  12    7.56    2.60
  18   4 -12    8.71    2.43
  18  -4 -12    7.73    1.51
 -18  -4  12    8.37    1.55
 -18   5  12    8.51    2.76
  18   5 -12    1.54    2.32
 -18   5 -12    2.95    2.63
 -18  -5  12    3.71    1.52
 -18   6  12   -2.29    3.08
  18   6 -12   -0.89    2.46
 -18   6 -12    0.24    2.75
  18   0 -13   -0.96    1.54
  18   1 -13    5.18    1.79
  18  -1 -13    5.53    1.79
 -18  -1  13    6.10    1.46
  18   2 -13   10.93    2.45
 -18  -2  13    6.56    1.41
  18   3 -13   -0.50    2.17
 -18   3  13    0.33    1.89
 -18  -3  13    2.53    1.35
  18   4 -13    0.17    2.09
 -18   4  13   -1.15    2.56
  18  -4 -13    1.59    1.89
 -18  -4  13    2.11    1.71
 -18   5  13    1.75    3.03
  18   5 -13   -2.38    2.38
 -18  -5  13    1.76    1.59
  18  -5 -13   -0.98    1.36
 -18   5 -13    5.58    3.07
  18   6 -13   -1.27    2.83
 -18   6  13   -1.84    3.29
 -18  -6  13   -1.20    1.62
 -18   6 -13   -0.28    3.13
  18   0 -14   11.81    2.36
 -18   0  14    9.17    1.80
 -18   1  14    4.90    1.70
  18   1 -14    4.80    1.81
 -18  -1  14    4.67    1.61
  18  -1 -14    3.77    1.76
  18   2 -14   16.05    2.70
 -18   2  14   25.99    3.30
 -18  -2  14   17.72    2.32
  18  -2 -14   17.19    2.54
 -18   3  14    1.88    2.13
  18   3 -14   -0.11    2.21
  18  -3 -14    2.16    1.53
 -18  -3  14    1.48    1.48
 -18   4  14   -0.46    2.75
  18   4 -14   -4.15    2.19
 -18  -4  14   -1.48    1.52
  18  -4 -14   -2.15    1.51
 -18   4 -14   -3.94    2.61
  18   5 -14    2.54    2.65
 -18   5  14    7.25    3.71
 -18   5 -14   -2.47    3.01
 -18  -5  14    1.59    1.70
  18   0 -15    1.85    2.05
 -18   0  15    1.00    1.84
  18   1 -15    2.53    1.83
 -18   1  15    0.19    1.82
 -18  -1  15    0.42    1.49
  18  -1 -15    0.78    1.71
  18   2 -15    6.55    2.42
 -18   2  15    3.48    2.31
 -18  -2  15    3.64    1.66
  18  -2 -15    4.24    1.67
 -18   3  15    5.91    2.73
  18   3 -15    6.12    2.70
  18  -3 -15    6.24    1.81
 -18  -3  15    7.69    1.77
  18   4 -15    6.66    2.88
 -18   4  15    2.17    3.14
 -18  -4  15    7.47    1.84
 -18   4 -15    7.11    3.44
 -18   0  16   59.02    4.11
  18   0 -16   69.17    4.94
  18   1 -16    1.21    2.28
 -18   1  16    0.57    1.94
 -18  -1  16    0.63    1.61
  18  -1 -16   -1.43    1.84
  18   2 -16   33.86    4.59
 -18   2  16   30.87    4.10
 -18  -2  16   21.72    3.10
  18  -2 -16   32.03    3.28
  18   3 -16    1.67    2.92
 -18  -3  16    0.89    1.73
  19   0   0    1.14    0.63
 -19   0   0   -0.04    0.49
  19  -1   0    1.80    0.60
 -19  -1   0    1.78    0.55
  19   1   0    1.79    0.61
 -19   1   0    1.40    0.73
 -19  -2   0   -0.45    0.45
 -19   2   0   -1.05    0.71
  19   2   0   -0.37    0.59
 -19   3   0   60.95    3.16
 -19  -3   0   60.01    2.55
  19   3   0   59.41    2.75
 -19   4   0   -1.87    1.11
  19   4   0   -0.04    0.84
 -19  -4   0    0.10    0.62
  19   5   0    0.21    1.00
 -19  -5   0    1.00    0.76
 -19   5   0    1.52    1.68
 -19  -6   0   -0.41    0.74
  19   6   0   -0.92    1.19
 -19   6   0   -1.01    1.81
 -19   7   0   -1.95    2.25
  19   7   0    1.40    1.53
 -19  -7   0    1.80    0.94
 -19   7   0    0.84    1.87
 -19  -8   0   -0.17    1.20
 -19   8   0   -2.88    2.64
 -19   8   0   -2.28    2.50
 -19  -9   0    0.23    1.51
 -19   9   0   -1.70    3.22
 -19   0  -1   -0.46    0.52
  19   0  -1   -0.59    0.54
  19   0   1   -0.19    0.55
 -19   0   1    0.86    0.62
 -19  -1  -1  105.76    4.07
  19   1  -1  104.78    4.26
 -19   1   1  106.84    4.29
 -19  -1   1  103.98    4.10
  19   1   1  106.05    4.18
 -19   1  -1  105.02    4.30
  19  -1  -1  110.76    4.24
  19   2  -1    4.31    0.90
 -19   2   1    3.45    0.99
 -19  -2  -1    2.21    0.56
 -19   2  -1    2.49    0.90
  19  -2  -1    2.41    0.69
 -19  -2   1    3.33    0.62
  19   2   1    3.19    0.70
 -19   3   1    2.53    1.22
 -19  -3  -1    0.61    0.44
  19   3  -1    0.60    0.84
  19   3   1    1.87    0.78
 -19   3  -1    0.52    0.95
 -19  -3   1    0.89    0.57
 -19   4   1    0.95    1.21
  19   4  -1    0.17    0.83
 -19  -4  -1   -0.91    0.50
 -19  -4   1    0.47    0.63
  19   4   1   -0.20    0.82
 -19   4  -1   -0.50    1.29
  19   5  -1    4.28    1.17
 -19   5   1    3.04    1.58
 -19  -5  -1    4.98    0.84
 -19  -5   1    5.14    0.92
  19   5   1    4.80    1.09
 -19   5  -1    2.82    1.52
  19   6  -1    5.36    1.53
 -19   6   1    4.13    2.03
 -19  -6  -1    4.44    0.89
 -19   6  -1    4.75    2.09
  19   6   1    4.15    1.20
 -19  -6   1    4.11    1.02
  19   7  -1   49.60    3.30
 -19  -7  -1   45.03    2.59
 -19   7   1   43.10    3.78
 -19   7   1   50.97    4.76
 -19   7  -1   45.80    4.16
 -19   7  -1   51.86    4.85
 -19  -8  -1    1.14    1.21
 -19   8   1    2.91    2.93
 -19   8  -1    8.21    3.29
 -19   8  -1   -2.15    2.53
 -19  -8   1    1.15    1.24
 -19  -9  -1    3.15    1.61
 -19   9   1    3.48    3.69
 -19   9  -1    5.67    3.91
 -19  -9   1    2.56    1.59
  19   0  -2  132.38    4.90
 -19   0  -2  117.27    4.93
 -19   0   2  122.47    4.79
  19   1  -2   12.44    1.16
 -19  -1  -2   11.69    1.09
 -19   1   2   13.56    1.28
  19   1   2   11.15    0.95
  19  -1  -2   10.03    1.11
 -19  -1   2   12.85    1.08
  19   1   2   12.03    1.14
 -19   1  -2   14.04    1.41
  19   2  -2   24.34    1.65
 -19  -2  -2   22.43    1.26
 -19   2   2   20.77    1.73
 -19  -2   2   21.11    1.32
  19  -2  -2   21.50    1.45
  19   2   2   22.22    1.47
 -19   2  -2   20.84    1.75
  19   3  -2   26.83    2.07
 -19  -3  -2   33.59    1.56
 -19   3   2   31.98    2.31
  19  -3  -2   33.08    1.91
  19   3   2   32.28    1.83
 -19   3  -2   30.01    2.32
 -19  -3   2   32.38    1.70
 -19  -4  -2   16.08    1.17
  19   4  -2   17.20    1.76
 -19   4   2   16.23    2.19
 -19  -4   2   16.24    1.34
  19   4   2   18.47    1.67
 -19   4  -2   18.99    2.29
 -19  -5  -2   38.02    1.96
  19   5  -2   38.30    2.73
 -19   5   2   46.74    3.60
 -19  -5   2   39.83    2.14
 -19   5  -2   35.96    3.17
 -19  -6  -2    0.71    0.76
  19   6  -2    1.00    1.56
 -19   6   2   -1.74    1.83
 -19   6  -2    0.53    1.81
 -19  -6   2   -1.12    0.79
 -19   7   2   -3.26    2.12
  19   7  -2    3.37    1.83
 -19  -7  -2    0.47    0.89
 -19   7   2    0.17    1.91
 -19   7  -2    6.08    2.50
 -19  -7   2    1.29    1.18
 -19   7  -2   -0.67    2.27
 -19  -8  -2    1.49    1.83
 -19   8   2    2.38    2.89
 -19   8  -2    1.38    2.43
 -19   8  -2   -1.50    2.73
 -19  -8   2    0.25    1.25
 -19  -9  -2    2.03    1.61
 -19   9   2    8.29    4.22
 -19  -9   2    1.61    1.45
 -19   9  -2   -4.06    3.60
 -19   9  -2    3.82    3.32
  19   0  -3    0.92    0.74
 -19   0   3   -0.75    0.55
  19   0   3   -1.17    0.49
 -19   0  -3    0.44    0.55
  19   1  -3    4.95    0.93
 -19  -1  -3    5.71    0.70
 -19   1   3    5.29    0.89
  19   1   3    4.80    0.62
  19  -1  -3    4.37    0.84
 -19   1  -3    4.65    0.89
 -19  -1   3    3.54    0.65
  19   2  -3    1.35    0.77
 -19   2   3    1.12    0.78
 -19  -2  -3    0.47    0.45
 -19   2  -3    0.37    0.75
  19   2   3   -0.14    0.57
 -19  -2   3    0.15    0.54
  19  -2  -3    1.45    0.73
 -19   3   3   15.13    1.97
 -19  -3  -3   10.79    1.00
  19   3  -3   14.49    1.79
  19  -3  -3   11.78    1.25
 -19  -3   3   12.88    1.19
 -19   3  -3   12.48    1.64
  19   3   3   16.12    1.22
 -19   4   3   18.46    2.17
  19   4  -3   18.18    1.86
 -19  -4  -3   16.37    1.16
 -19   4  -3   17.93    2.45
  19   4   3   15.94    1.28
 -19  -4   3   17.36    1.40
  19   5  -3    1.84    1.25
 -19  -5  -3    0.70    0.57
 -19   5   3    0.96    1.50
  19   5   3    1.95    0.64
 -19  -5   3    0.97    0.81
 -19   5  -3    3.05    1.92
 -19   6   3   18.91    2.85
  19   6  -3   17.89    2.57
 -19  -6  -3   20.41    1.53
 -19   6  -3   22.20    2.86
 -19  -6   3   17.05    1.73
 -19  -7  -3   12.53    1.35
 -19   7   3    6.87    2.63
  19   7  -3   12.81    2.14
 -19  -7   3   15.76    2.04
 -19   7  -3   12.99    2.86
 -19   7  -3   16.06    3.57
 -19   8   3    3.02    2.99
  19   8  -3    8.46    2.31
 -19   8  -3   13.05    3.36
 -19  -8   3    6.96    1.51
 -19   8  -3    7.57    2.91
 -19   9   3    1.60    3.70
 -19  -9  -3    7.45    1.75
 -19  -9   3    7.92    1.83
 -19   9  -3    7.63    4.04
 -19   9  -3    6.77    3.19
  19   0   4  100.24    3.66
 -19   0  -4   97.32    3.80
 -19   0   4  100.93    3.96
  19   0  -4   86.27    3.99
 -19   1   4   16.98    1.43
  19   1  -4   18.42    1.57
 -19  -1  -4   17.11    1.01
  19   1   4   16.96    1.00
 -19   1  -4   14.51    1.76
 -19  -1   4   14.80    1.19
  19  -1  -4   16.52    1.39
 -19  -2  -4  101.19    3.78
 -19   2   4   98.61    4.33
  19   2  -4  112.17    4.43
  19  -2  -4   93.19    4.11
 -19  -2   4  101.94    4.03
  19   2   4  101.86    3.77
 -19   2  -4   98.58    4.33
  19   3  -4    4.42    1.14
 -19  -3  -4    4.01    0.59
 -19   3   4    6.52    1.26
  19  -3  -4    4.85    0.92
 -19  -3   4    4.23    0.85
 -19   3  -4    4.00    1.22
  19   4  -4    1.59    1.14
 -19  -4  -4    1.12    0.55
 -19   4   4    0.88    1.36
 -19   4  -4    0.87    1.29
  19  -4  -4   -0.28    0.80
 -19  -4   4    1.10    0.74
  19   5  -4   -0.29    1.32
 -19   5   4    1.00    1.72
 -19  -5  -4    0.03    0.58
 -19   5  -4    1.17    1.57
 -19  -5   4   -0.63    0.83
 -19  -6  -4   11.92    1.29
  19   6  -4   14.97    2.07
 -19   6   4   13.11    1.99
 -19   6   4   13.31    2.71
 -19   6  -4   12.56    2.41
 -19   7   4    4.57    2.66
 -19  -7  -4    1.58    0.91
  19   7  -4   -1.45    1.84
 -19   7  -4   -1.21    2.23
 -19  -7   4    1.07    1.20
 -19   7  -4    5.51    2.75
 -19   8   4    7.32    3.42
  19   8  -4    7.37    2.38
 -19  -8  -4    6.14    1.43
 -19   8  -4    8.00    3.07
 -19  -8   4    9.76    1.86
 -19   8  -4    1.93    2.78
 -19  -9  -4    2.46    1.60
 -19   9   4    1.37    3.46
 -19   9  -4   -4.53    3.47
 -19   9  -4    2.53    2.94
 -19  -9   4   -0.14    1.65
  19   0   5   -0.07    0.50
 -19   0   5   -0.17    0.60
  19   0  -5   -0.77    0.59
 -19   0  -5    0.02    0.50
 -19  -1  -5   35.02    1.56
  19   1  -5   30.29    2.11
 -19   1   5   32.40    1.96
  19  -1   5   28.12    1.71
  19  -1  -5   35.19    1.94
 -19   1  -5   32.30    2.01
  19   1   5   31.27    1.44
 -19  -1   5   32.52    1.76
 -19  -2  -5   83.54    3.17
  19   2  -5   82.73    3.80
 -19   2   5   86.04    3.88
 -19   2  -5   88.32    3.85
  19  -2  -5   79.45    3.57
  19   2   5   83.47    3.14
 -19  -2   5   83.79    3.48
  19   3  -5    9.11    1.38
 -19   3   5   10.38    1.46
 -19  -3  -5   12.00    0.88
 -19   3  -5   12.30    1.54
 -19  -3   5   13.36    1.32
  19  -3  -5   13.50    1.42
  19   4  -5   24.94    2.56
 -19   4   5   23.78    2.76
 -19  -4  -5   20.53    1.30
 -19  -4   5   20.13    1.60
 -19   4  -5   19.79    2.38
  19  -4  -5   19.50    1.60
  19   5  -5    3.97    1.59
 -19   5   5    3.11    1.85
 -19  -5  -5    3.54    0.71
 -19   5  -5    1.95    1.64
 -19  -5   5    3.72    1.05
 -19   6   5   31.40    3.34
  19   6  -5   30.56    3.09
 -19  -6  -5   29.03    1.77
 -19  -6   5   31.57    2.28
 -19   6  -5   27.76    3.11
 -19   7   5    7.72    2.75
  19   7  -5    7.42    2.36
 -19  -7  -5    6.60    1.14
 -19   7  -5    6.57    2.77
 -19  -7   5    4.33    1.34
 -19   7  -5    4.88    2.48
  19   8  -5    3.40    2.39
 -19   8   5    2.45    3.44
 -19  -8  -5    1.14    1.23
 -19   8  -5   -1.05    2.67
 -19  -8   5    2.85    1.49
 -19   8  -5   -0.66    2.88
 -19   9   5   17.54    4.36
  19   9  -5    7.47    4.03
 -19  -9   5   13.40    2.36
 -19   9  -5   13.04    4.38
 -19   9  -5    6.06    3.17
 -19   0  -6  201.89    7.43
  19   0   6  202.22    7.20
 -19   0   6  201.08    7.60
  19   0  -6  206.96    7.73
 -19  -1  -6   16.98    1.11
  19   1  -6   17.11    1.65
 -19   1   6   16.64    1.50
  19  -1   6   19.45    1.32
 -19  -1   6   16.22    1.32
  19  -1  -6   17.39    1.51
  19   1   6   19.01    0.98
 -19   1  -6   16.33    1.56
  19   2  -6    2.72    1.11
 -19   2   6    1.59    0.89
 -19  -2  -6    2.63    0.46
 -19  -2   6    2.47    0.74
  19  -2  -6    2.12    0.78
 -19   2  -6    2.38    1.04
  19   3  -6   20.72    2.13
 -19   3   6   19.11    2.23
 -19  -3  -6   19.36    1.37
 -19  -3  -6   18.14    1.01
  19  -3  -6   13.76    1.58
 -19  -3   6   16.37    1.46
 -19   3  -6   18.95    2.02
 -19  -4  -6    1.49    0.53
 -19  -4  -6    2.29    0.95
  19   4  -6    0.42    1.27
 -19   4   6    1.17    1.39
 -19  -4   6    3.08    1.02
 -19   4  -6    3.54    1.40
  19  -4  -6    1.99    0.91
  19   5  -6   21.24    2.75
 -19   5   6   23.31    3.06
 -19  -5  -6   19.64    1.38
 -19   5  -6   25.18    2.80
  19  -5  -6   22.02    1.87
 -19  -5   6   24.79    1.98
 -19  -6  -6   27.26    1.68
  19   6  -6   28.07    3.07
 -19   6   6   22.12    3.34
 -19   6  -6   23.08    3.31
 -19  -6   6   26.46    2.25
 -19   7   6   -0.20    2.71
  19   7  -6    0.99    1.94
 -19  -7  -6    1.18    0.99
 -19  -7   6    1.56    1.33
 -19   7  -6    5.46    2.49
 -19   7  -6    6.01    2.70
 -19   8   6   -0.01    3.27
  19   8  -6    3.38    2.47
 -19  -8   6    1.27    1.64
 -19   8  -6    3.91    2.98
 -19   8  -6    1.15    2.82
 -19   0   7    0.14    0.70
  19   0  -7   -0.69    0.82
  19   0   7   -0.42    0.43
 -19   0  -7    0.34    0.64
 -19   1   7    8.94    1.23
 -19  -1  -7    8.46    0.96
  19  -1   7   12.49    1.10
  19   1  -7    9.97    1.40
  19   1   7    7.57    0.70
 -19   1  -7    9.99    1.18
 -19  -1   7    8.41    1.14
  19  -1  -7    9.68    1.33
  19   2  -7    3.81    1.21
 -19  -2  -7    2.15    0.46
 -19   2   7    2.61    1.10
 -19   2  -7    2.09    1.19
 -19  -2   7    2.33    0.85
  19  -2  -7    3.04    0.90
 -19   3   7    9.98    1.66
 -19  -3  -7    8.90    1.12
 -19  -3  -7    9.75    0.76
  19   3  -7    9.58    1.56
 -19  -3   7    9.69    1.33
 -19   3  -7   10.85    1.62
  19  -3  -7   12.09    1.45
 -19   4   7   10.43    1.90
  19   4  -7    7.88    1.78
 -19  -4  -7    6.93    0.73
  19  -4  -7    8.78    1.19
 -19  -4   7    6.62    1.15
 -19   4  -7    7.08    1.57
 -19  -5  -7    7.61    1.35
 -19   5   7    8.35    2.30
  19   5  -7    9.85    2.13
 -19  -5   7    4.79    1.19
 -19   5  -7    5.61    1.73
  19  -5  -7    6.38    1.24
  19   6  -7    3.52    2.18
 -19   6   7    0.25    2.30
 -19  -6   7    0.80    1.15
 -19   6  -7    1.37    2.49
  19   7  -7    3.96    2.44
 -19   7   7   -2.64    2.81
 -19  -7   7    0.79    1.47
 -19   7  -7   -2.53    2.11
 -19   7  -7    0.07    2.54
 -19   8   7   -4.84    3.25
  19   8  -7    1.29    2.43
 -19   8  -7   -0.97    2.95
 -19  -8   7   -1.40    1.54
 -19   8  -7   -1.63    2.41
  19   0  -8   50.11    2.74
  19   0   8   47.29    1.93
 -19   0  -8   48.12    2.17
 -19   0   8   46.23    2.49
 -19   1   8   12.84    1.69
  19  -1   8   17.28    1.21
  19   1  -8   18.07    2.03
 -19  -1   8   14.58    1.53
 -19   1  -8   13.73    1.58
  19  -1  -8   15.77    1.70
  19   2  -8    0.00    1.09
 -19   2   8    0.81    1.07
  19  -2  -8   -0.33    0.92
 -19   2  -8    1.02    1.09
 -19  -2   8    0.97    0.80
 -19  -3  -8    3.63    1.33
 -19   3   8    1.04    1.28
  19   3  -8    3.67    1.57
 -19  -3   8    1.44    0.82
  19  -3  -8    1.08    0.87
 -19   3  -8    1.95    1.21
  19   4  -8   -0.80    1.50
 -19   4   8   -2.10    1.55
 -19   4  -8    0.57    1.34
  19  -4  -8    0.24    0.76
 -19  -4   8    0.02    0.95
  19   5  -8   12.12    2.36
 -19  -5   8   10.36    1.43
  19  -5  -8   11.53    1.56
 -19   5  -8   11.27    2.15
  19   6  -8   14.55    2.56
 -19   6   8   13.00    2.89
 -19   6  -8   12.63    2.74
 -19  -6   8   15.10    2.06
 -19   6  -8    9.81    2.65
 -19   7   8    7.32    3.47
  19   7  -8   -0.03    2.42
 -19   7  -8   -2.99    2.74
 -19   7  -8   -0.97    2.31
 -19  -7   8   -1.58    1.39
 -19   8   8   14.23    3.89
 -19   8  -8   15.48    3.43
 -19  -8   8   22.69    3.03
 -19   8  -8   14.58    3.93
 -19   0   9   -0.79    0.84
 -19   0  -9   -0.48    0.47
  19   0  -9   -0.84    0.97
 -19   1   9   -0.56    0.87
  19   1  -9   -1.02    1.19
 -19  -1   9    1.53    1.01
 -19   1  -9    1.26    0.76
  19  -1  -9    1.55    1.12
  19   2  -9    1.14    1.43
 -19   2   9   -0.32    1.12
  19  -2  -9    0.59    0.86
 -19   2  -9    0.37    1.04
 -19  -2   9    0.64    0.90
 -19   3   9    6.79    1.70
  19   3  -9    3.87    1.77
 -19  -3   9    8.27    1.37
  19  -3  -9    5.81    1.17
 -19   3  -9    6.48    1.43
 -19   4   9   31.27    3.48
  19   4  -9   30.28    3.12
 -19   4  -9   34.49    3.18
  19  -4  -9   34.09    2.25
 -19  -4   9   31.73    2.33
  19   5  -9   -2.97    1.67
 -19   5   9    2.43    2.27
 -19  -5   9    0.97    1.16
  19  -5  -9    2.60    1.14
 -19   5  -9    0.38    1.61
 -19   6   9   -1.89    2.56
  19   6  -9   -1.39    1.92
  19  -6  -9    0.12    1.49
 -19  -6   9    1.66    1.38
 -19   6  -9   -5.37    2.40
 -19   6  -9   -0.35    1.93
 -19   7   9    0.43    2.88
  19   7  -9   -0.68    2.64
 -19   7  -9   -4.15    2.86
 -19  -7   9   -1.35    1.45
 -19   7  -9    1.87    2.48
  19   8  -9    0.72    2.85
 -19   8   9    3.53    3.52
 -19  -8   9   -2.26    1.69
 -19   8  -9   -3.35    3.29
 -19   8  -9    1.32    2.55
  19   0 -10   53.28    3.14
 -19   0  10   54.09    2.92
 -19   1  10    2.92    1.20
  19   1 -10    1.03    1.25
 -19   1 -10    1.90    0.76
 -19  -1  10    2.88    1.04
  19  -1 -10    3.39    1.12
  19   2 -10    1.61    1.81
 -19   2  10   -0.42    1.21
 -19  -2  10   -0.48    0.89
  19  -2 -10    0.34    1.00
 -19   2 -10    0.00    1.12
 -19   3  10    5.72    1.88
  19   3 -10    6.88    1.98
 -19  -3  10    6.35    1.81
  19  -3 -10    7.74    1.26
 -19   3 -10    6.55    1.58
  19   4 -10   20.44    2.59
 -19   4 -10   20.93    2.37
  19  -4 -10   19.88    1.93
 -19  -4  10   19.05    2.09
  19   5 -10    3.77    2.17
 -19   5  10    0.93    2.39
 -19  -5  10    0.76    1.30
 -19   5 -10    1.34    1.65
  19  -5 -10    2.65    1.13
  19   6 -10   11.57    2.68
 -19   6  10    8.60    3.03
 -19   6 -10   13.26    3.04
 -19   6 -10   16.62    2.62
 -19  -6  10   11.42    1.78
  19  -6 -10   11.03    1.63
  19   7 -10    0.33    2.67
 -19   7  10    1.14    3.08
 -19   7 -10   -2.27    3.02
 -19   7 -10   -1.27    2.96
 -19  -7  10    4.40    1.90
  19   0 -11    1.60    1.39
 -19   0  11    1.95    1.20
  19   1 -11   14.17    2.10
 -19   1  11   15.31    2.06
  19  -1 -11   17.44    2.02
 -19  -1  11   14.48    1.91
 -19   2  11   19.39    2.45
  19   2 -11   19.65    2.87
  19  -2 -11   20.75    2.07
 -19   3  11   -1.73    1.76
  19   3 -11   -0.84    1.72
 -19  -3  11   -0.91    1.06
  19  -3 -11    0.96    1.29
 -19   3 -11   -0.78    1.23
 -19   4  11   58.23    4.55
  19   4 -11   61.75    4.44
 -19   4 -11   53.14    3.57
 -19  -4  11   50.46    3.18
  19  -4 -11   52.88    3.10
 -19   5  11   11.94    2.84
  19   5 -11   16.55    2.95
 -19   5 -11    9.76    2.29
 -19  -5  11    9.04    1.68
 -19   6  11   13.71    3.42
 -19   6 -11   14.90    3.28
 -19  -6  11   16.69    2.09
  19  -6 -11   19.88    2.26
 -19   6 -11   14.22    2.60
 -19   7  11   -1.81    3.21
  19   7 -11    5.03    3.03
 -19  -7  11   -3.07    1.69
 -19   7 -11   -1.27    2.50
 -19   7 -11    9.97    3.80
 -19   0  12   49.32    3.04
  19   0 -12   54.82    3.47
 -19   1  12    5.57    1.67
  19   1 -12    5.32    1.89
 -19  -1  12    3.72    1.59
  19   2 -12   24.86    3.02
 -19   2  12   22.77    3.12
 -19  -2  12   22.45    2.17
  19  -2 -12   20.01    2.45
 -19   3  12    1.86    1.83
  19   3 -12    3.08    2.15
 -19  -3  12    3.37    1.37
  19  -3 -12    2.98    1.22
 -19   4  12    1.99    2.30
  19   4 -12    4.34    2.24
 -19  -4  12    0.73    1.28
 -19   5  12   -1.10    2.53
  19   5 -12    0.39    2.43
 -19  -5  12    5.47    1.77
 -19   5 -12   -1.75    2.58
  19  -5 -12   -0.91    1.17
 -19   6  12    8.82    3.43
  19   6 -12   11.91    3.20
  19  -6 -12    8.58    2.18
 -19   6 -12    7.18    3.04
 -19  -6  12    7.51    1.91
  19   0 -13    2.14    1.50
 -19   0  13   -0.16    1.31
 -19   1  13    2.36    1.54
  19   1 -13    1.60    2.09
 -19  -1  13    3.05    1.50
  19  -1 -13    1.45    1.47
  19   2 -13   10.78    2.27
 -19   2  13   10.49    2.07
 -19  -2  13    9.67    1.58
  19  -2 -13   13.33    1.87
 -19   3  13   -0.55    1.89
  19   3 -13    3.82    2.48
 -19  -3  13   -0.55    1.36
  19  -3 -13    0.03    1.20
 -19   4  13    2.95    2.58
  19   4 -13    3.53    2.43
  19  -4 -13    6.98    1.69
 -19  -4  13    6.42    1.66
  19   5 -13   -3.02    2.61
 -19   5  13   -0.65    2.86
 -19   5 -13   -0.31    2.69
 -19  -5  13    0.00    1.59
 -19   0  14   -0.37    1.53
  19   0 -14    0.08    1.59
 -19   1  14   12.21    2.06
  19   1 -14   12.12    2.27
  19  -1 -14   10.64    1.92
 -19  -1  14    8.88    1.74
  19   2 -14    3.05    2.13
 -19   2  14    7.66    2.25
 -19  -2  14    8.09    1.68
  19  -2 -14    6.42    1.76
  19   3 -14    7.07    2.71
 -19   3  14    1.44    2.20
 -19  -3  14    1.86    1.39
  19  -3 -14    1.07    1.59
 -19   4  14   -2.24    2.67
  19   4 -14    1.35    2.65
 -19  -4  14    0.81    1.52
  19  -4 -14   -0.78    1.55
 -19   4 -14    1.29    2.98
 -19   5  14    7.58    3.61
  19   5 -14    0.85    3.62
 -19  -5  14    3.59    1.67
 -19   5 -14    5.62    3.10
 -19   0  15    0.72    1.77
  19   0 -15   -1.01    1.69
  19   1 -15   13.92    2.51
 -19   1  15   13.75    2.29
 -19  -1  15   15.09    1.95
  19  -1 -15   14.27    2.26
 -19   2  15   12.03    2.50
  19   2 -15   10.45    2.58
  19  -2 -15   14.76    2.06
 -19  -2  15   12.21    2.06
 -19   3  15    8.40    2.74
  19   3 -15   10.47    3.04
  19  -3 -15    8.68    1.98
 -19  -3  15    8.58    1.88
  19   4 -15   -1.70    3.01
 -19   4  15   -0.64    2.88
 -19  -4  15    4.17    1.90
 -19   4 -15   -4.42    3.06
 -19   0  16    2.65    1.82
  19   0 -16    1.65    2.11
  19   1 -16   -1.17    2.15
 -19   1  16    0.87    2.03
  19  -1 -16   -1.34    2.07
 -19  -1  16    4.26    2.05
  19   2 -16   12.49    2.65
 -19   2  16    6.90    2.61
  19  -2 -16   11.22    2.26
 -19  -2  16    5.87    1.98
  20   0   0   26.42    1.62
 -20   0   0   22.09    1.42
 -20  -1   0   -0.10    0.49
 -20   1   0   -0.62    0.71
  20  -1   0   -0.61    0.59
  20   1   0   -0.95    0.55
 -20   2   0   13.25    1.51
  20   2   0   15.19    1.36
 -20  -2   0   12.51    1.07
 -20   3   0   -0.96    0.90
  20   3   0    0.00    0.79
 -20  -3   0   -0.35    0.51
 -20   4   0   -1.96    1.14
  20   4   0    0.42    0.95
 -20  -4   0    0.29    0.60
 -20   5   0    1.46    1.58
  20   5   0    0.30    1.05
 -20  -5   0    0.87    0.66
 -20   6   0    4.50    3.42
  20   6   0   -0.24    1.16
 -20  -6   0   -0.78    0.69
 -20  -7   0   -0.14    1.11
 -20   7   0    3.85    2.41
 -20   7   0   -4.29    2.17
  20   7   0   -2.00    1.34
 -20   8   0    4.04    2.83
 -20  -8   0    8.82    1.45
 -20   8   0    7.85    2.85
 -20  -9   0    0.99    1.42
 -20   9   0   -2.43    3.12
 -20   0   1   -0.07    0.54
 -20   0  -1   -0.43    0.58
  20   0   1    0.13    0.58
 -20   1   1  111.92    4.50
 -20  -1  -1  110.01    4.25
  20   1  -1  118.93    4.46
 -20   1  -1  108.83    4.48
 -20  -1   1  107.32    4.29
  20   1   1  111.10    4.36
  20  -1  -1  106.92    4.40
  20   2  -1    4.81    0.90
 -20  -2  -1    4.53    0.68
 -20   2   1    6.18    1.10
 -20  -2   1    5.35    0.73
  20   2   1    4.12    0.85
 -20   2  -1    4.20    0.98
  20  -2  -1    5.06    0.88
 -20   3   1    8.84    1.35
  20   3  -1    9.24    1.14
 -20  -3  -1    7.94    0.89
  20   3   1    8.56    1.29
 -20  -3   1    8.21    1.01
 -20   3  -1    8.73    1.41
  20   4  -1   12.39    1.70
 -20  -4  -1   13.11    1.14
 -20   4   1    9.85    1.68
 -20   4  -1   16.01    2.18
  20   4   1   11.75    1.47
 -20  -4   1    9.79    1.15
 -20   5   1   14.33    2.16
  20   5  -1   14.03    1.74
 -20  -5  -1   13.36    1.23
  20   5   1   13.93    1.79
 -20  -5   1   10.88    1.26
 -20   5  -1   11.02    1.99
  20   6  -1    2.80    1.29
 -20  -6  -1    2.42    0.85
 -20  -6   1    1.28    0.90
 -20   6  -1    5.34    2.41
  20   6   1    2.34    1.20
 -20  -7  -1   12.56    1.72
 -20   7   1    9.93    2.40
 -20   7   1   12.93    2.98
  20   7  -1   10.46    1.74
 -20  -7   1    9.70    1.37
 -20   7  -1   10.95    2.55
 -20   7  -1   10.67    2.70
 -20   8   1    3.37    3.13
 -20  -8  -1    0.97    1.19
 -20  -8   1   -0.44    1.16
 -20   8  -1   -1.62    2.63
 -20   8  -1    5.64    3.06
 -20   9   1    6.51    3.83
 -20  -9  -1    0.56    1.44
 -20   9  -1    0.52    3.60
 -20  -9   1   -1.61    1.38
  20   0  -2   35.05    1.90
 -20   0  -2   34.27    1.80
 -20   0   2   32.54    1.79
 -20   1   2   16.23    1.40
 -20  -1  -2   12.61    1.06
  20   1  -2   12.56    1.20
  20  -1  -2   12.20    1.19
 -20  -1   2   13.22    1.12
  20   1   2   13.45    1.22
 -20   1  -2   12.74    1.46
 -20  -2  -2    1.29    0.50
  20   2  -2    1.14    0.88
 -20   2   2    1.18    0.79
  20   2   2    1.27    0.70
 -20   2  -2    1.16    0.94
 -20  -2   2    1.75    0.59
  20  -2  -2    0.64    0.64
 -20  -3  -2    1.26    0.58
 -20   3   2    1.21    0.98
  20   3  -2    0.81    0.88
 -20   3  -2    0.72    1.06
  20  -3  -2    1.51    0.83
  20   3   2    1.23    0.78
 -20  -3   2    0.32    0.60
  20   4  -2    6.03    1.25
 -20  -4  -2    4.13    0.71
 -20   4   2    4.40    1.48
 -20  -4   2    4.21    0.84
 -20   4  -2    5.66    1.57
  20   4   2    4.19    0.94
  20   5  -2   11.66    1.60
 -20  -5  -2   12.21    1.20
 -20   5   2   10.05    1.96
  20   5   2   11.61    1.57
 -20  -5   2   11.46    1.36
 -20   5  -2   14.32    2.24
  20   6  -2    0.18    1.35
 -20  -6  -2    0.87    0.76
 -20   6   2    2.14    2.12
  20   6   2   -0.34    1.04
 -20  -6   2    1.70    1.07
 -20   6  -2   -0.15    2.16
 -20   7   2   -0.81    2.08
 -20  -7  -2    0.91    0.99
  20   7  -2   -1.02    1.57
 -20   7   2   -2.06    2.12
 -20  -7   2   -0.61    1.06
 -20   7  -2    2.18    2.33
 -20   7  -2   -1.55    2.19
 -20   8   2   -2.40    2.85
 -20  -8  -2    0.86    1.15
 -20  -8   2    1.83    1.49
 -20   8  -2   -1.67    2.75
 -20   8  -2    1.83    2.75
 -20   9   2    2.51    3.58
 -20   9  -2    3.13    3.61
 -20   0   3    0.01    0.57
  20   0  -3   -0.68    0.66
 -20  -1  -3    1.53    0.51
  20   1  -3    1.09    0.78
 -20   1   3    0.36    0.62
 -20  -1   3    0.98    0.62
  20  -1  -3    0.36    0.69
 -20   1  -3    0.52    0.72
  20   1   3   -0.46    0.55
  20   2  -3   10.20    1.37
 -20   2   3    9.51    1.30
  20  -2  -3    8.48    1.18
 -20   2  -3    8.89    1.30
 -20  -2   3   10.18    1.10
  20   2   3   11.04    1.21
 -20  -3  -3   69.01    2.84
 -20   3   3   72.46    3.68
  20   3  -3   68.91    3.36
  20   3   3   71.41    3.18
 -20   3  -3   73.87    3.83
  20  -3  -3   75.53    3.21
 -20  -3   3   67.56    3.04
 -20   4   3   15.43    1.98
 -20  -4  -3   14.50    1.11
  20   4  -3   15.41    2.16
 -20  -4   3   16.96    1.41
 -20   4  -3   12.13    1.87
  20   4   3   13.74    1.34
  20   5  -3   54.06    3.17
 -20  -5  -3   56.23    2.44
 -20   5   3   50.32    3.76
 -20  -5   3   55.03    2.66
 -20   5  -3   55.27    3.78
  20   5   3   54.39    2.44
 -20   6   3   -0.98    1.85
 -20  -6  -3    0.29    0.77
  20   6  -3    0.12    1.48
 -20   6  -3    3.01    2.49
 -20  -6   3    0.64    1.06
  20   7  -3    1.39    1.77
 -20   7   3    3.37    2.64
 -20  -7  -3   -0.83    0.96
 -20   7  -3    5.42    2.85
 -20   7  -3   -0.03    2.26
 -20  -7   3   -1.09    1.09
 -20   8   3   -0.69    2.86
  20   8  -3    4.36    2.33
 -20  -8  -3    1.17    1.16
 -20   8  -3   -1.87    2.92
 -20  -8   3    1.05    1.49
 -20   8  -3    4.45    2.92
 -20   9   3    5.29    3.86
 -20  -9  -3    3.07    1.54
 -20   9  -3    4.22    3.16
 -20   9  -3   -3.39    3.38
 -20  -9   3    6.02    1.93
 -20   0  -4    4.01    0.76
  20   0   4    4.66    0.67
 -20   0   4    3.97    0.84
  20   0  -4    3.04    0.83
  20   1  -4    2.58    0.79
 -20   1   4    2.72    0.81
 -20  -1  -4    4.12    0.59
 -20  -1   4    4.70    0.80
  20  -1  -4    3.72    0.87
  20   1   4    4.15    0.60
 -20   1  -4    5.20    0.95
  20   2  -4   13.70    1.56
 -20   2   4   11.61    1.56
 -20  -2  -4   14.41    0.97
  20   2   4   16.02    1.01
  20  -2  -4   12.27    1.28
 -20  -2   4   15.41    1.29
 -20   2  -4   12.64    1.59
  20   3  -4   29.41    2.14
 -20   3   4   27.94    2.29
 -20   3  -4   30.22    2.48
 -20  -3   4   26.91    1.72
  20  -3  -4   32.24    1.99
  20   4  -4   -0.50    1.16
 -20  -4  -4   -0.19    0.57
 -20   4   4    0.14    1.34
 -20  -4   4   -0.27    0.84
 -20   4  -4   -0.27    1.31
  20  -4  -4   -1.33    0.77
 -20  -5  -4    8.18    0.91
  20   5  -4    7.75    1.66
 -20   5   4   10.64    2.26
 -20  -5   4    8.32    1.20
 -20   5  -4    7.69    1.97
 -20   6   4    1.47    1.77
 -20   6   4    4.64    2.26
 -20  -6  -4    2.45    0.91
  20   6  -4    1.60    1.65
 -20  -6   4    1.36    1.08
 -20   6  -4   -2.38    2.52
  20   7  -4   13.38    2.31
 -20  -7  -4   10.69    1.48
 -20   7   4   11.77    2.95
 -20   7  -4    7.55    2.78
 -20  -7   4   10.44    1.55
 -20   7  -4   10.88    2.83
  20   8  -4    1.90    2.31
 -20  -8  -4    1.20    1.24
 -20   8   4    8.95    3.57
 -20  -8   4    0.34    1.49
 -20   8  -4    4.83    3.18
 -20   8  -4   -0.69    2.88
 -20   9   4    4.51    3.82
 -20  -9  -4    2.71    1.62
 -20   9  -4    0.24    3.07
 -20  -9   4    7.22    1.97
 -20   9  -4    2.23    3.71
 -20   0  -5    0.75    0.54
  20   0   5    0.17    0.49
 -20   0   5    1.34    0.80
  20   0  -5   -1.07    0.67
 -20   1   5   75.50    3.42
 -20  -1  -5   76.05    2.99
  20   1  -5   71.84    3.41
  20  -1  -5   74.57    3.33
  20   1   5   76.09    2.88
 -20   1  -5   75.75    3.45
 -20  -1   5   74.59    3.22
 -20  -2  -5    9.33    0.84
  20   2  -5    8.67    1.26
 -20   2   5    9.70    1.36
  20   2   5    7.48    0.90
  20  -2  -5    9.57    1.29
 -20   2  -5    9.04    1.27
 -20  -2   5   11.30    1.20
 -20   3   5   69.91    3.60
  20   3  -5   65.84    3.38
 -20  -3  -5   63.15    2.60
  20  -3  -5   64.87    3.05
 -20   3  -5   63.28    3.45
 -20  -3   5   67.43    2.97
  20   4  -5   19.75    2.28
 -20  -4  -5   21.04    1.27
 -20   4   5   21.28    2.65
  20  -4  -5   19.39    1.65
 -20  -4   5   20.24    1.68
 -20   4  -5   19.42    2.17
  20   5  -5   -0.36    1.43
 -20   5   5   -2.16    1.64
 -20  -5  -5    0.05    0.59
 -20   5  -5   -0.61    1.56
 -20  -5   5    0.99    0.99
 -20  -6  -5    2.10    0.79
  20   6  -5    2.15    2.05
 -20   6   5   -0.94    2.20
 -20  -6   5   -1.08    1.03
  20   7  -5    3.27    2.12
 -20  -7  -5    5.08    1.02
 -20   7   5    4.06    2.60
 -20   7  -5    9.59    2.84
 -20   7  -5    3.67    2.43
 -20  -7   5    5.30    1.59
 -20   8   5   -4.04    3.01
  20   8  -5    1.43    2.42
 -20  -8  -5    4.32    1.44
 -20  -8   5   -0.43    1.41
 -20   8  -5    0.48    3.17
 -20   8  -5    5.82    3.60
 -20   9   5   24.91    5.13
 -20   9  -5   10.80    4.00
 -20   9  -5    8.69    3.37
 -20  -9   5   10.31    2.11
 -20   0   6    4.40    0.91
  20   0   6    3.87    0.59
 -20   0  -6    4.79    0.77
  20   0  -6    4.18    1.03
  20  -1   6   44.28    2.23
  20   1  -6   48.77    2.68
 -20   1   6   47.98    2.54
 -20  -1  -6   47.42    2.07
 -20   1  -6   50.01    2.57
 -20  -1   6   49.16    2.39
  20  -1  -6   44.13    2.55
  20   1   6   49.51    1.93
  20   2  -6   15.77    1.82
 -20   2   6   17.36    1.81
 -20  -2  -6   17.17    1.05
 -20   2  -6   16.58    1.88
  20  -2  -6   16.27    1.59
  20   2   6   19.26    1.07
 -20  -2   6   19.69    1.51
  20   3  -6   37.40    2.65
 -20  -3  -6   38.25    1.65
 -20   3   6   39.37    2.75
 -20   3  -6   36.79    2.61
 -20  -3   6   34.36    2.04
  20  -3  -6   35.89    2.14
  20   4  -6    2.50    1.58
 -20   4   6   -2.37    1.27
 -20  -4  -6    1.18    0.57
  20  -4  -6    0.82    0.95
 -20   4  -6    1.81    1.28
 -20  -4   6    0.24    0.82
  20   5  -6   20.78    2.73
 -20   5   6   24.50    2.91
 -20  -5  -6   23.28    1.47
 -20   5  -6   25.23    3.02
  20  -5  -6   24.20    1.97
 -20   6   6    2.82    2.45
  20   6  -6    0.31    1.91
 -20  -6  -6   -0.86    0.72
 -20   6  -6    0.84    3.43
 -20  -6   6    0.06    1.05
 -20   7   6    1.65    2.74
  20   7  -6    5.40    2.31
 -20  -7   6    3.08    1.45
 -20   7  -6    6.00    2.48
 -20   7  -6    7.57    3.00
 -20   8   6    2.26    3.40
  20   8  -6    9.26    3.13
 -20   8  -6    2.94    2.77
 -20   8  -6    4.12    3.24
 -20  -8   6    3.44    1.67
  20   0  -7    0.29    0.93
  20   0   7    0.21    0.49
 -20   0   7   -0.71    0.74
 -20   0  -7   -1.13    0.66
  20   1  -7   44.18    2.65
 -20  -1  -7   46.80    1.98
 -20   1   7   41.84    2.42
  20  -1   7   37.31    2.07
 -20  -1   7   42.76    2.34
  20  -1  -7   40.48    2.44
 -20   1  -7   45.93    2.40
  20   1   7   50.93    1.79
 -20  -2  -7    0.93    0.43
  20   2  -7    0.65    1.11
 -20   2   7    0.22    1.05
  20  -2  -7   -0.09    0.82
 -20   2  -7    0.43    0.98
 -20  -2   7    1.44    0.76
  20   3  -7   33.58    2.67
 -20   3   7   31.34    2.63
 -20  -3  -7   31.22    1.41
  20  -3  -7   31.81    2.03
 -20  -3   7   31.62    1.94
 -20   3  -7   31.27    2.42
 -20   4   7   -2.53    1.53
  20   4  -7   -2.27    1.31
 -20  -4  -7    0.96    0.47
  20  -4  -7    0.58    0.84
 -20   4  -7    1.80    1.40
 -20  -4   7    0.58    0.83
 -20  -5  -7    3.32    0.83
  20   5  -7    1.18    1.72
  20  -5  -7    2.05    1.04
 -20  -5   7    0.26    0.98
 -20   5  -7    1.62    1.83
 -20   6   7    3.89    2.49
  20   6  -7    5.40    2.15
 -20   6  -7    6.13    2.16
 -20  -6   7    8.53    1.44
  20   7  -7   33.90    3.89
 -20   7   7   44.41    5.28
 -20   7  -7   45.23    5.16
 -20   7  -7   39.97    4.16
 -20  -7   7   35.80    2.77
  20   8  -7   -0.53    2.58
 -20   8   7    1.38    3.52
 -20   8  -7   -1.60    3.08
 -20   8  -7   -1.65    2.68
 -20  -8   7    2.45    1.81
  20   0   8    9.86    0.85
  20   0  -8    7.99    1.31
 -20   0   8   10.37    1.31
 -20   0  -8    9.72    1.22
  20   1  -8   13.48    1.97
 -20   1   8   12.50    1.60
  20  -1   8   11.66    1.25
  20  -1  -8   16.18    1.86
 -20  -1   8   16.11    1.60
 -20   1  -8   18.76    1.63
 -20   2   8    0.74    1.11
  20   2  -8    0.61    1.17
 -20  -2   8    1.97    0.89
  20  -2  -8    1.33    0.97
 -20   2  -8    1.05    1.17
 -20   3   8   28.36    2.75
  20   3  -8   26.24    2.60
  20  -3  -8   26.71    2.09
 -20  -3   8   29.47    2.10
 -20   3  -8   29.20    2.55
  20   4  -8    3.70    1.76
 -20   4   8   -0.42    1.76
 -20   4  -8    1.43    1.48
  20  -4  -8    1.91    0.89
 -20  -4   8    1.84    1.14
 -20   5   8    8.80    2.40
  20   5  -8   10.74    2.37
 -20  -5   8    9.03    1.35
 -20   5  -8    6.84    2.09
  20  -5  -8    6.51    1.20
  20   6  -8    5.20    2.46
 -20   6  -8    5.47    2.85
 -20   6  -8    3.25    2.09
 -20   7   8   -0.17    2.88
  20   7  -8    1.10    2.50
 -20  -7   8   -0.91    1.32
 -20   7  -8    2.39    2.80
 -20   7  -8    0.65    2.28
  20   8  -8    0.72    2.68
 -20   8   8    0.08    3.54
 -20  -8   8    0.40    1.82
 -20   8  -8    2.81    3.38
 -20   8  -8   -0.50    2.98
 -20   0  -9   -0.14    0.58
 -20   0   9    1.95    1.08
  20   0  -9    0.45    1.11
  20   1  -9   10.49    1.72
 -20   1   9    7.90    1.32
 -20  -1   9   10.30    1.30
 -20   1  -9   10.29    1.20
  20  -1  -9    8.64    1.38
 -20   2   9    0.53    1.18
  20   2  -9    1.20    1.37
 -20   2  -9    3.35    1.32
  20  -2  -9    2.21    0.98
 -20  -2   9    1.72    0.93
 -20   3   9   -1.26    1.51
  20   3  -9    2.10    1.61
  20  -3  -9    0.50    0.91
 -20  -3   9    0.07    0.94
 -20   3  -9    1.12    1.21
  20   4  -9   -1.03    1.81
 -20   4   9   -2.70    2.04
 -20  -4   9    0.91    1.10
  20  -4  -9    0.27    1.15
 -20   4  -9   -0.37    1.42
  20   5  -9   -0.08    1.92
 -20   5   9   -1.75    2.11
  20  -5  -9   -0.42    1.12
 -20   5  -9   -0.23    1.85
 -20  -5   9   -0.48    1.23
 -20   6   9   -1.29    2.69
  20   6  -9    0.19    2.28
 -20  -6   9   -0.27    1.28
 -20   6  -9    1.08    1.95
 -20   6  -9    1.33    2.56
  20  -6  -9    1.56    1.28
 -20   7   9   33.59    4.24
  20   7  -9   43.09    4.87
 -20   7  -9   38.70    4.83
 -20  -7   9   50.69    3.29
 -20   7  -9   34.83    5.04
 -20   0  10   14.28    1.94
  20   0 -10   11.70    1.68
  20   1 -10    0.62    1.43
 -20   1  10    0.47    1.13
 -20   1 -10    0.21    0.75
 -20  -1  10   -0.51    1.01
  20  -1 -10    1.77    1.20
  20   2 -10   13.43    2.00
 -20   2  10   11.74    1.77
  20  -2 -10   13.43    1.78
 -20  -2  10   14.69    1.76
 -20   2 -10   15.36    1.75
 -20   3  10  129.28    6.08
  20   3 -10  138.34    6.28
 -20  -3  10  134.22    5.54
 -20   3 -10  142.01    5.81
  20  -3 -10  124.58    5.50
 -20   4  10    1.86    2.07
  20   4 -10    0.36    1.69
 -20  -4  10    0.21    1.18
 -20   4 -10    0.99    1.67
  20  -4 -10    1.81    1.08
 -20   5  10   63.64    4.92
  20   5 -10   57.47    4.61
 -20   5 -10   63.43    4.29
 -20  -5  10   68.47    3.46
 -20   6  10   -1.84    2.92
  20   6 -10    1.44    2.57
 -20   6 -10   -0.70    2.57
 -20  -6  10    2.04    1.51
 -20   6 -10    2.25    2.03
  20  -6 -10    0.11    1.35
  20   7 -10   -0.03    2.81
 -20   7  10    0.56    3.08
 -20   7 -10    2.21    2.64
 -20  -7  10   -1.14    1.65
 -20   7 -10   -1.11    3.15
 -20   0  11   -0.75    1.12
 -20   1  11  102.96    4.67
  20   1 -11   96.43    4.90
 -20  -1  11  100.07    4.80
  20  -1 -11  100.12    4.60
 -20   2  11   -0.39    1.43
  20   2 -11    4.57    1.94
 -20  -2  11    3.56    1.26
  20  -2 -11    1.11    1.23
 -20   3  11    7.07    2.45
  20   3 -11    8.86    2.16
 -20   3 -11   10.44    1.77
 -20  -3  11   11.91    1.53
  20  -3 -11   11.86    1.56
  20   4 -11    0.67    1.96
 -20   4  11    2.15    2.27
 -20  -4  11   -0.94    1.10
 -20   4 -11    1.29    1.66
  20  -4 -11    0.11    1.94
  20   5 -11    3.83    2.33
 -20   5  11    3.96    2.51
 -20   5 -11    5.16    2.15
  20  -5 -11    6.96    1.38
 -20  -5  11    6.81    1.60
  20   6 -11    1.14    2.61
 -20   6  11    2.99    3.08
 -20  -6  11    3.17    1.80
 -20   6 -11    0.88    2.39
 -20   6 -11    2.17    2.95
  20  -6 -11    4.65    1.39
 -20   7  11   12.80    3.89
  20   7 -11   14.58    3.39
 -20   7 -11   19.96    5.32
 -20   7 -11   19.15    3.13
 -20  -7  11   13.66    2.17
  20   0 -12   29.61    3.03
 -20   0  12   31.12    2.54
  20   1 -12   -1.20    1.54
 -20   1  12    2.06    1.86
  20  -1 -12    0.45    1.25
 -20  -1  12   -1.75    1.19
 -20   2  12    1.19    1.57
  20   2 -12    3.15    1.96
 -20  -2  12    1.48    1.20
  20  -2 -12    0.93    1.27
 -20   3  12   34.45    3.57
  20   3 -12   32.62    3.69
 -20  -3  12   34.81    2.81
  20  -3 -12   37.99    2.77
 -20   4  12    7.62    2.69
  20   4 -12    5.10    2.29
  20  -4 -12    7.84    1.49
 -20  -4  12    7.71    1.72
  20   5 -12   12.97    2.61
 -20   5  12   16.87    3.09
  20  -5 -12   14.37    2.03
 -20  -5  12   16.00    2.03
 -20   5 -12   12.30    3.17
  20   6 -12   -1.27    2.72
 -20   6  12   -1.68    3.19
  20  -6 -12   -2.61    1.44
 -20   6 -12    1.17    2.89
 -20  -6  12    0.56    1.63
  20   0 -13    1.06    1.60
 -20   0  13   -0.57    1.35
  20   1 -13   17.22    2.42
 -20   1  13   14.97    2.06
  20  -1 -13   16.10    2.11
 -20  -1  13   21.08    2.40
 -20   2  13    0.17    1.57
  20   2 -13    1.11    1.98
 -20  -2  13    0.39    1.26
  20  -2 -13    2.20    1.54
  20   3 -13    3.35    2.27
 -20   3  13   -0.57    2.05
  20  -3 -13    3.67    1.38
 -20  -3  13    3.54    1.51
 -20   4  13   -0.60    2.52
  20   4 -13   -0.67    2.30
 -20  -4  13   -1.31    1.46
  20  -4 -13    1.18    1.41
 -20   5  13   14.27    3.37
  20   5 -13   15.14    3.32
 -20  -5  13   12.78    2.05
  20  -5 -13   20.06    2.66
 -20   5 -13    9.45    3.19
 -20   0  14    0.83    1.73
  20   0 -14    1.39    1.73
 -20   1  14    8.71    1.99
  20   1 -14   10.34    2.42
 -20  -1  14    7.99    1.67
  20  -1 -14    7.47    1.78
  20   2 -14   -0.13    2.16
 -20   2  14    2.26    2.21
 -20  -2  14    1.66    1.61
  20  -2 -14    2.02    1.86
  20   3 -14    0.78    2.30
 -20   3  14    1.52    2.13
 -20  -3  14    0.36    1.47
  20  -3 -14    3.64    1.51
  20   4 -14    8.38    3.02
 -20   4  14    2.59    2.86
 -20  -4  14    3.77    1.63
  20  -4 -14    6.50    1.89
  20   0 -15    0.58    1.91
 -20   0  15   -0.63    1.64
 -20   1  15    3.10    1.95
  20   1 -15    3.77    2.45
  20  -1 -15    6.63    1.88
 -20  -1  15    2.28    1.49
 -20   2  15    1.86    2.25
  20   2 -15   -1.73    2.36
 -20  -2  15   -0.43    1.66
  20  -2 -15    1.02    1.76
  20   3 -15    4.69    2.71
 -20   3  15    8.80    2.81
 -20  -3  15    6.97    1.97
  20  -3 -15    6.98    1.71
 -20   0  16    1.22    1.77
  20   0 -16    1.31    2.13
  20   1 -16   12.47    2.97
 -20   1  16   15.23    2.55
 -20  -1  16   14.63    2.39
  20  -1 -16   12.43    2.43
  20   2 -16    3.25    2.47
 -20   2  16    0.71    2.46
  20  -2 -16    3.78    2.19
 -20  -2  16    6.78    2.09
 -21   0   0    1.39    0.60
  21   0   0    2.05    0.72
 -21   1   0    5.78    0.95
  21   1   0    6.86    1.03
  21  -1   0    6.11    0.90
 -21  -1   0    5.74    0.82
 -21  -2   0    0.74    0.60
  21   2   0    0.70    0.76
 -21   2   0   -0.45    0.81
 -21  -3   0   58.83    2.55
 -21   3   0   58.25    3.22
  21   3   0   55.46    2.84
 -21   4   0    0.53    1.32
 -21  -4   0   -0.07    0.60
  21   4   0   -1.50    0.93
  21   5   0   59.17    3.00
 -21  -5   0   54.32    2.62
 -21   5   0   49.40    3.76
  21   6   0   -0.65    1.22
 -21   6   0    4.96    2.41
 -21  -6   0   -0.23    0.81
 -21   7   0   -0.65    2.19
 -21   7   0   -0.13    2.50
  21   7   0   -0.51    2.13
 -21   8   0    0.01    2.57
 -21  -8   0    0.60    1.29
 -21   8   0   -0.95    2.76
 -21  -9   0   -0.06    1.71
 -21   9   0   -2.01    3.61
 -21   0   1   -0.47    0.51
  21   0  -1   -0.26    0.59
 -21   0  -1   -0.50    0.52
  21   0   1    0.31    0.68
 -21  -1  -1   78.98    3.26
 -21   1   1   78.23    3.48
  21   1  -1   79.44    3.44
 -21   1  -1   82.73    3.53
  21  -1  -1   80.71    3.42
  21   1   1   81.39    3.38
 -21  -1   1   78.69    3.31
 -21   2   1    7.24    1.16
  21   2  -1    6.78    1.03
 -21  -2  -1    7.87    0.87
  21  -2  -1    9.05    1.09
  21   2   1    7.46    1.12
 -21   2  -1    7.75    1.25
 -21  -2   1    7.23    0.92
  21   3  -1    2.43    0.94
 -21   3   1    2.71    1.13
 -21  -3  -1    2.46    0.62
 -21   3  -1    2.39    1.20
 -21  -3   1    2.95    0.69
  21   3   1    3.71    0.83
 -21  -4  -1    1.35    0.62
  21   4  -1    0.48    1.04
 -21   4   1    0.86    1.37
 -21  -4   1    1.79    0.77
 -21   4  -1    1.37    1.40
  21   4   1    1.58    0.94
 -21   5   1    6.09    1.88
  21   5  -1    7.65    1.46
 -21  -5  -1    6.72    0.96
 -21  -5   1    8.59    1.14
 -21   5  -1   10.08    2.02
  21   5   1    8.08    1.24
  21   6  -1    0.25    1.28
 -21  -6  -1    0.21    0.81
 -21   6   1   -1.69    1.82
  21   6   1   -0.86    1.18
 -21   6  -1    0.32    2.03
 -21  -6   1   -0.45    0.92
  21   7  -1  135.69    5.92
 -21   7   1  134.03    7.27
 -21   7   1  150.38    6.90
 -21  -7  -1  141.64    5.57
 -21   7  -1  133.35    7.31
 -21  -7   1  143.74    5.64
 -21   7  -1  132.45    6.92
 -21   8   1   11.02    3.49
 -21  -8  -1    7.54    1.45
 -21  -8   1    6.09    1.40
 -21   8  -1   10.86    3.99
 -21   8  -1    9.33    3.19
 -21   9   1    8.28    4.28
 -21  -9  -1   -1.18    1.56
 -21  -9   1    2.94    1.77
 -21   9  -1   -3.13    3.51
  21   0  -2    3.90    0.89
 -21   0   2    4.21    0.81
 -21   0  -2    3.48    0.77
 -21   1   2   62.64    2.77
 -21  -1  -2   53.87    2.38
  21   1  -2   53.37    2.63
 -21  -1   2   51.63    2.49
 -21   1  -2   52.36    2.65
  21   1   2   54.72    2.53
  21   2  -2    0.10    0.83
 -21   2   2   -0.90    0.78
 -21  -2  -2    0.12    0.53
  21  -2  -2   -0.79    0.62
 -21  -2   2    0.84    0.60
  21   2   2    0.75    0.69
 -21   2  -2    1.71    1.10
  21   3  -2   39.43    2.35
 -21   3   2   37.05    2.66
 -21  -3  -2   38.88    1.83
 -21  -3   2   39.16    1.97
  21  -3  -2   40.12    2.28
 -21   3  -2   43.06    2.91
  21   3   2   38.87    2.12
  21   4  -2   -0.60    0.97
 -21  -4  -2   -0.14    0.51
 -21   4   2    2.66    1.51
 -21  -4   2   -0.72    0.64
 -21   4  -2   -0.27    1.33
  21   4   2   -1.30    0.81
 -21  -5  -2   39.37    2.08
  21   5  -2   44.13    2.85
 -21   5   2   35.42    3.30
 -21   5  -2   43.42    3.56
  21   5   2   42.53    2.31
 -21  -5   2   41.97    2.30
 -21   6   2    5.66    2.50
 -21  -6  -2    2.79    0.87
  21   6  -2    3.20    1.52
 -21   6  -2    4.11    2.60
  21   6   2    1.04    1.32
 -21  -6   2    2.86    1.06
  21   7  -2    0.91    1.76
 -21  -7  -2    3.75    1.06
 -21   7   2    5.84    2.68
 -21   7   2    5.50    2.39
 -21  -7   2    2.61    1.16
 -21   7  -2    1.28    2.40
 -21  -8  -2    0.58    1.29
 -21   8   2   -2.48    2.87
 -21   8  -2    4.91    3.08
 -21   8  -2   -1.10    3.02
 -21  -8   2   -0.21    1.24
 -21  -9  -2    4.33    1.65
 -21   9   2   -3.56    3.47
 -21   9  -2   -0.70    3.88
 -21  -9   2   -0.12    1.58
  21   0  -3   -0.43    0.70
 -21   0   3   -0.42    0.60
 -21   0  -3   -0.16    0.60
 -21   1   3   55.27    2.78
  21   1  -3   59.08    2.84
 -21  -1  -3   57.51    2.51
  21  -1  -3   66.95    2.83
 -21   1  -3   56.35    2.83
 -21  -1   3   58.89    2.67
 -21  -2  -3    5.27    0.70
  21   2  -3    4.21    0.98
 -21   2   3    6.82    1.16
 -21  -2   3    5.20    0.84
 -21   2  -3    5.72    1.20
  21  -2  -3    4.04    0.87
 -21   3   3    4.64    1.22
  21   3  -3    8.23    1.29
 -21  -3  -3    6.20    0.76
  21   3   3    5.64    1.03
 -21  -3   3    7.64    0.94
 -21   3  -3    6.00    1.44
  21  -3  -3    6.34    1.01
 -21  -4  -3   12.82    1.14
  21   4  -3   13.55    1.94
 -21   4   3   13.96    1.96
 -21   4  -3   12.18    1.87
  21   4   3   15.91    1.86
 -21  -4   3   13.11    1.43
  21   5  -3    2.63    1.55
 -21   5   3    1.40    1.76
 -21  -5  -3    3.21    0.72
  21   5   3    2.18    0.86
 -21  -5   3    1.36    0.89
 -21   5  -3    1.13    1.79
 -21  -6  -3   11.58    1.33
  21   6  -3   14.31    2.16
 -21   6   3    8.95    2.22
 -21   6  -3    8.26    3.20
 -21  -7  -3    9.39    1.28
 -21   7   3   13.87    3.07
  21   7  -3   13.04    2.43
 -21   7  -3   10.10    2.78
 -21   7  -3    8.13    2.63
 -21  -7   3   11.21    1.54
 -21   8   3    0.88    3.23
 -21  -8  -3   -0.11    1.23
  21   8  -3   -0.51    2.74
 -21   8  -3   -1.96    2.80
 -21  -8   3    0.53    1.34
 -21   8  -3    5.69    3.12
 -21  -9  -3    4.17    1.72
 -21   9   3    3.74    3.86
 -21   9  -3    1.66    3.36
 -21   9  -3   -2.38    3.35
 -21  -9   3    2.28    1.59
  21   0  -4   -0.68    0.69
 -21   0   4    0.75    0.72
 -21  -1  -4    0.54    0.52
 -21   1   4    0.45    0.70
  21   1  -4    0.03    0.75
  21  -1  -4    2.55    0.88
  21   1   4    1.11    0.55
 -21  -1   4    0.42    0.62
 -21   1  -4    1.62    0.83
 -21  -2  -4   35.82    1.71
  21   2  -4   35.28    2.26
 -21   2   4   35.70    2.31
 -21  -2   4   34.58    1.94
  21   2   4   34.09    1.72
 -21   2  -4   37.12    2.35
  21  -2  -4   37.41    2.07
  21   3  -4   11.96    1.69
 -21  -3  -4   11.15    1.07
 -21   3   4   10.49    1.56
 -21   3  -4   14.37    1.71
  21  -3  -4   10.21    1.40
 -21  -3   4   11.67    1.21
  21   4  -4   -0.53    1.08
 -21  -4  -4   -0.01    0.54
 -21   4   4    0.85    1.35
 -21   4  -4   -0.06    1.39
  21  -4  -4   -1.51    0.86
 -21  -4   4   -0.50    0.71
 -21  -5  -4    7.68    0.94
 -21   5   4    7.57    2.08
  21   5  -4    7.68    1.73
 -21   5  -4    7.75    1.97
 -21  -5   4    8.42    1.27
 -21  -6  -4    0.37    0.75
  21   6  -4    0.89    1.64
 -21   6   4   -1.15    1.93
 -21  -6   4    0.07    1.00
 -21   6  -4   -0.02    2.22
 -21  -7  -4    6.26    1.12
  21   7  -4    3.68    2.63
 -21   7   4    2.02    2.59
 -21   7  -4    2.82    2.50
 -21   7  -4   -0.35    2.44
 -21  -7   4    8.18    1.58
 -21  -8  -4   -1.54    2.18
  21   8  -4   -1.39    2.18
 -21   8   4    5.76    3.48
 -21   8  -4    1.36    2.87
 -21   8  -4   -1.48    3.00
 -21  -8   4   -2.88    1.36
 -21  -9  -4   11.45    2.69
 -21   9   4   10.48    4.63
 -21   9  -4    6.44    4.17
 -21   9  -4    5.55    3.65
 -21  -9   4    1.12    1.71
  21   0   5    0.63    0.55
 -21   0   5    0.52    0.72
  21   0  -5    0.17    0.82
 -21   0  -5   -0.20    0.69
 -21   1   5   49.46    2.56
 -21  -1  -5   48.08    2.09
  21   1  -5   45.41    2.54
 -21   1  -5   45.69    2.49
  21  -1  -5   44.80    2.49
 -21  -1   5   45.46    2.30
  21   1   5   44.46    1.96
 -21   2   5   20.57    1.97
 -21  -2  -5   19.27    1.19
  21   2  -5   19.87    2.08
 -21   2  -5   16.29    1.82
  21   2   5   17.86    1.18
 -21  -2   5   18.98    1.49
  21  -2  -5   19.05    1.66
 -21   3   5   50.40    3.19
  21   3  -5   50.09    2.95
 -21  -3  -5   49.25    2.16
 -21  -3   5   52.25    2.48
  21  -3  -5   48.98    2.63
 -21   3  -5   51.26    3.12
  21   4  -5   35.63    2.70
 -21   4   5   32.13    2.88
 -21  -4  -5   32.68    1.70
 -21   4  -5   34.11    2.92
  21  -4  -5   34.68    2.24
 -21  -4   5   35.97    2.07
 -21  -5  -5   27.39    1.59
  21   5  -5   28.62    2.78
 -21   5   5   23.44    3.12
 -21   5  -5   32.52    3.34
 -21  -5   5   24.98    1.95
 -21  -6  -5    5.14    0.92
  21   6  -5    4.37    2.21
 -21   6   5    7.16    2.75
 -21   6  -5    6.47    2.34
 -21  -6   5    4.07    1.17
 -21   7   5    4.46    3.02
  21   7  -5    6.90    2.23
 -21  -7  -5    6.98    1.25
 -21  -7   5    3.66    1.37
 -21   7  -5   10.53    3.23
 -21   7  -5    3.68    2.69
 -21   8   5    2.42    3.32
  21   8  -5    6.65    2.50
 -21   8  -5    2.46    3.02
 -21   8  -5    2.14    3.26
 -21  -8   5    4.02    1.63
  21   0   6    1.54    0.58
 -21   0   6    1.34    0.87
 -21   0  -6    0.58    0.74
  21   0  -6   -0.37    0.77
 -21   1   6   13.05    1.67
  21   1  -6   12.37    1.68
 -21  -1  -6   13.24    1.10
 -21  -1   6   13.96    1.35
  21   1   6   12.77    0.94
  21  -1  -6    9.56    1.26
 -21   1  -6   12.35    1.36
  21   2  -6   11.66    1.55
 -21   2   6    9.28    1.36
 -21  -2  -6    9.36    0.91
 -21   2  -6   14.27    1.79
  21  -2  -6   12.63    1.63
  21   2   6    7.69    0.94
 -21  -2   6    9.82    1.32
  21   3  -6   39.63    2.76
 -21   3   6   42.52    2.93
 -21  -3  -6   44.20    1.87
 -21   3  -6   44.81    3.04
  21  -3  -6   41.23    2.35
 -21  -3   6   43.54    2.34
  21   4  -6    5.42    1.69
 -21  -4  -6    4.43    1.16
 -21   4   6    4.59    1.72
 -21   4  -6    5.18    1.70
  21  -4  -6    3.61    1.02
 -21  -4   6    3.56    0.97
  21   5  -6   25.46    3.71
 -21   5   6   25.59    3.93
 -21  -5  -6   25.70    1.52
 -21  -5   6   23.22    1.96
  21  -5  -6   27.68    2.07
 -21   5  -6   27.77    3.34
  21   6  -6    5.17    2.16
 -21   6   6    5.02    2.51
 -21   6  -6    3.16    2.13
 -21  -6   6    4.97    1.43
  21   7  -6    4.18    2.45
 -21   7   6    4.89    3.08
 -21  -7   6    3.45    1.39
 -21   7  -6   -0.19    2.80
 -21   7  -6    4.16    2.24
 -21   8   6   -0.51    3.29
  21   8  -6   -0.91    2.57
 -21   8  -6    1.16    3.02
 -21   8  -6    6.09    3.42
 -21  -8   6    4.01    1.77
 -21   0  -7    0.08    0.73
  21   0  -7    0.69    0.92
 -21   0   7    1.23    0.97
  21   0   7   -1.38    0.50
  21  -1   7   42.41    2.10
 -21  -1  -7   41.98    1.98
  21   1  -7   45.15    2.66
 -21   1   7   43.58    2.52
 -21  -1   7   44.70    2.35
  21   1   7   44.02    1.78
  21  -1  -7   40.60    2.44
 -21   1  -7   37.22    2.78
 -21   2   7    3.00    1.20
 -21  -2  -7    3.97    0.59
  21   2  -7    2.34    1.26
 -21   2  -7    2.84    1.11
 -21  -2   7    4.14    0.93
  21  -2  -7    4.64    1.13
 -21   3   7    8.84    1.69
 -21  -3  -7   11.21    0.85
  21   3  -7   12.62    1.82
 -21   3  -7   13.60    1.70
  21  -3  -7   10.51    1.57
 -21  -3   7   13.41    1.59
 -21  -4  -7    1.23    0.49
 -21   4   7   -1.08    1.68
 -21   4  -7    1.70    1.56
  21  -4  -7    0.44    0.90
 -21  -4   7    1.34    1.11
  21   5  -7   23.54    2.62
 -21   5   7   31.38    3.82
 -21  -5   7   27.80    2.23
  21  -5  -7   23.30    2.12
 -21   5  -7   26.16    3.51
 -21   6   7    2.27    2.57
  21   6  -7    2.92    2.07
 -21  -6   7    6.14    1.46
 -21   6  -7    2.70    2.01
  21   7  -7   -2.08    2.27
 -21   7   7   -0.02    2.94
 -21   7  -7    0.26    2.52
 -21  -7   7   -1.32    1.31
 -21   7  -7    5.02    3.00
 -21   8   7    1.35    3.53
  21   8  -7    3.12    3.03
 -21   8  -7   -3.08    3.14
 -21   8  -7    9.97    3.89
 -21  -8   7   -2.15    1.64
 -21   0   8    1.97    1.08
 -21   0  -8    0.68    0.76
  21   0  -8    2.22    1.32
  21   1  -8   -0.04    1.13
 -21  -1  -8   -0.37    0.54
 -21   1   8    0.54    0.95
  21  -1   8   -0.02    0.66
  21  -1  -8    0.44    0.90
 -21  -1   8   -0.02    0.88
 -21   1  -8   -0.87    0.99
  21   2  -8   24.82    2.40
 -21   2   8   21.90    2.25
  21  -2  -8   25.68    2.07
 -21  -2   8   24.34    1.81
 -21   2  -8   23.04    2.33
 -21   3   8   -0.71    1.40
 -21  -3   8    0.33    0.95
  21  -3  -8    1.09    1.05
 -21   3  -8    0.56    1.27
 -21   4   8   -0.59    1.88
  21   4  -8   -0.14    1.48
 -21   4  -8    0.24    1.49
 -21  -4   8    0.78    1.02
  21  -4  -8   -0.33    0.85
 -21   5   8    7.21    2.44
  21   5  -8    5.27    1.96
  21  -5  -8    6.73    1.33
 -21   5  -8    6.21    1.97
 -21  -5   8    5.55    1.36
 -21   6   8   11.20    3.12
  21   6  -8   17.01    2.76
 -21  -6   8   13.66    1.77
 -21   6  -8   17.55    2.76
  21   7  -8    1.83    2.46
 -21   7   8   -6.01    2.82
 -21  -7   8    3.25    1.66
 -21   7  -8    9.71    3.46
 -21   7  -8    1.01    2.53
 -21   8   8    7.41    4.15
  21   8  -8   -0.93    2.69
 -21   8  -8   -1.12    2.59
 -21   8  -8    1.78    3.38
 -21  -8   8   -0.99    1.73
 -21   0   9   -0.77    1.05
  21   0  -9   -0.34    1.07
 -21   0  -9    0.03    0.59
  21   1  -9   17.15    2.23
 -21   1   9   16.27    1.93
  21  -1  -9   17.26    1.94
 -21  -1   9   17.25    1.80
 -21   1  -9   18.01    1.54
 -21   2   9    1.46    1.27
  21   2  -9    6.05    2.76
 -21   2  -9    0.75    1.11
 -21  -2   9    2.02    1.00
  21  -2  -9    1.69    1.16
 -21   3   9   21.46    2.87
  21   3  -9   23.96    2.68
 -21  -3   9   20.51    2.26
 -21   3  -9   29.10    2.63
  21  -3  -9   20.55    1.96
  21   4  -9   15.79    2.24
 -21   4   9   15.98    2.56
 -21   4  -9   16.77    2.25
 -21  -4   9   15.00    1.86
  21  -4  -9   16.20    1.96
  21   5  -9   25.53    3.74
 -21   5   9   18.84    2.88
 -21   5  -9   19.85    2.72
 -21  -5   9   16.13    2.03
  21  -5  -9   16.70    2.48
  21   6  -9    9.74    2.85
 -21   6   9    1.65    2.85
  21  -6  -9    3.44    1.51
 -21   6  -9    6.68    2.97
 -21  -6   9    3.61    1.50
 -21   6  -9    5.33    2.29
 -21   7   9    0.61    3.28
  21   7  -9    4.49    2.75
 -21   7  -9    1.92    2.98
 -21  -7   9    2.61    1.73
 -21   7  -9    6.18    2.77
  21   0 -10    0.91    1.34
 -21   0  10   -0.26    1.05
 -21   1  10    6.44    1.36
  21   1 -10    4.95    1.54
 -21  -1  10    4.41    1.31
 -21   1 -10    5.43    1.26
  21  -1 -10    5.99    1.48
 -21   2  10    8.41    1.74
  21   2 -10    7.38    1.81
 -21   2 -10    8.40    1.39
  21  -2 -10    7.78    1.31
 -21  -2  10    7.00    2.34
  21   3 -10    0.64    1.62
 -21   3 -10    1.09    1.32
 -21  -3  10    2.55    1.17
  21  -3 -10    2.73    1.27
 -21   4  10    4.33    2.21
  21   4 -10    1.05    2.10
  21  -4 -10   -0.76    1.20
 -21  -4  10   -0.45    1.08
 -21   4 -10   -1.69    1.49
 -21   5  10    2.67    2.46
  21   5 -10    0.72    2.27
 -21  -5  10   -0.04    1.24
 -21   5 -10    1.00    2.05
  21  -5 -10   -0.50    1.21
 -21   6  10   -1.54    3.11
  21   6 -10   -0.99    2.55
  21  -6 -10   -0.18    1.31
 -21   6 -10   -2.06    2.48
 -21  -6  10    2.03    1.60
 -21   6 -10   -0.96    2.20
  21   7 -10    9.97    3.37
 -21   7  10   -2.88    3.37
 -21   7 -10   -0.34    2.43
 -21   7 -10   -2.78    2.91
 -21  -7  10   -0.56    1.72
  21   0 -11   -1.90    1.33
  21   1 -11    2.75    1.72
  21  -1 -11    0.24    1.79
 -21  -1  11   -0.66    1.17
 -21   2  11   18.76    2.73
  21   2 -11   25.18    2.87
 -21  -2  11   24.15    2.15
 -21   3  11    3.96    1.93
  21   3 -11   10.70    2.28
 -21   3 -11   11.98    1.96
 -21  -3  11    7.20    1.50
 -21   4  11   32.51    4.22
  21   4 -11   25.38    3.06
 -21   4 -11   30.44    3.16
 -21  -4  11   28.81    2.66
  21  -4 -11   29.53    2.99
  21   5 -11    8.51    2.69
 -21   5  11    7.98    2.84
  21  -5 -11    9.54    1.71
 -21  -5  11    8.52    1.75
 -21   5 -11   14.86    2.67
 -21   6  11   14.39    3.68
  21   6 -11    7.96    2.92
  21  -6 -11   16.46    2.43
 -21  -6  11   12.73    2.01
 -21   6 -11   13.86    2.81
 -21   6 -11   12.36    3.33
  21   0 -12   23.35    2.65
 -21   0  12   17.70    2.31
  21   1 -12    2.47    1.87
 -21   1  12    4.86    1.65
  21  -1 -12    2.57    1.37
 -21  -1  12    5.84    1.57
 -21   2  12    7.92    1.97
  21   2 -12    9.09    2.14
 -21  -2  12    8.44    1.46
  21  -2 -12   10.35    1.67
  21   3 -12    1.61    2.17
 -21   3  12   -2.45    1.88
  21  -3 -12    0.91    1.40
 -21  -3  12   -0.54    1.28
  21   4 -12   -0.18    2.19
 -21   4  12    2.99    2.61
  21  -4 -12    0.40    1.33
 -21  -4  12   -1.37    1.37
  21   5 -12    4.53    2.78
 -21   5  12    5.78    2.91
  21  -5 -12    6.00    1.49
 -21  -5  12    3.40    1.70
 -21   6  12   -0.64    3.36
  21   6 -12    1.48    3.07
 -21  -6  12   -2.18    1.59
 -21   6 -12    5.21    3.74
 -21   6 -12    8.37    3.63
  21  -6 -12   -3.85    1.54
 -21   0  13   -2.76    1.29
  21   0 -13    0.04    1.52
  21   1 -13   22.21    3.27
 -21   1  13   26.36    2.96
  21  -1 -13   25.29    2.89
 -21  -1  13   23.33    2.61
  21   2 -13    3.89    2.44
 -21   2  13   -0.24    1.81
  21  -2 -13    0.56    1.42
 -21  -2  13    2.38    1.53
  21   3 -13   -1.26    2.08
 -21   3  13   -1.12    1.99
 -21  -3  13   -0.85    1.32
  21  -3 -13    2.18    1.59
  21   4 -13   -0.49    2.47
 -21   4  13    0.42    2.74
 -21  -4  13   -2.05    1.51
  21  -4 -13   -2.30    1.38
 -21   5  13   17.82    3.57
  21   5 -13   17.63    3.27
  21  -5 -13   17.06    2.55
 -21   5 -13   10.77    3.35
 -21  -5  13   25.79    2.86
  21   0 -14    2.04    1.79
 -21   0  14    5.06    2.04
  21   1 -14   14.80    2.34
 -21   1  14   14.10    2.26
  21  -1 -14   14.00    2.20
 -21  -1  14   12.86    1.92
 -21   2  14    3.25    2.25
  21   2 -14    5.16    2.62
  21  -2 -14    0.53    1.64
 -21  -2  14    1.50    1.60
  21   3 -14   -0.32    2.49
 -21   3  14   -0.98    2.18
  21  -3 -14    1.25    1.40
 -21  -3  14    3.73    1.68
 -21   4  14    3.88    3.00
  21   4 -14   -0.97    2.73
  21  -4 -14    2.65    1.71
 -21  -4  14    3.09    1.73
  21   0 -15    0.55    2.22
 -21   0  15    0.81    1.67
 -21   1  15   21.85    2.72
  21   1 -15   26.81    3.60
 -21  -1  15   26.62    2.90
  21  -1 -15   25.83    3.25
 -21   2  15   -2.13    2.12
  21   2 -15    3.52    2.72
 -21  -2  15   -0.41    1.75
  21  -2 -15    2.85    1.98
  21   3 -15    4.64    2.84
 -21   3  15    5.48    2.76
  21  -3 -15    3.81    1.77
 -21  -3  15    3.62    1.70
  21   0 -16    9.27    2.89
 -21   0  16   10.48    2.12
 -21   1  16    2.20    2.24
  21   1 -16    0.63    2.29
  21  -1 -16    0.34    2.03
 -21  -1  16    0.23    1.86
  22   0   0  308.80   11.06
 -22   0   0  301.52   11.02
  22  -1   0   -0.16    0.67
  22   1   0    1.95    0.83
 -22   1   0   -0.72    0.70
 -22  -1   0   -0.64    0.48
 -22   2   0   27.42    2.05
 -22  -2   0   26.98    1.56
  22   2   0   28.77    1.88
  22   3   0   -1.39    0.82
 -22   3   0   -0.03    1.03
 -22  -3   0   -0.67    0.56
  22   4   0    6.96    1.22
 -22  -4   0    6.52    0.89
 -22   4   0    6.86    1.83
  22   5   0    0.82    1.11
 -22   5   0    0.15    1.62
 -22  -5   0    0.14    0.70
 -22  -6   0   97.94    4.07
 -22   6   0  100.13    5.65
  22   6   0   96.10    4.44
 -22   7   0   -0.07    2.19
 -22   7   0    4.68    2.86
 -22  -7   0    0.95    1.26
 -22  -8   0   34.86    2.62
 -22   8   0   39.84    5.23
 -22   8   0   46.72    4.91
 -22  -9   0   -0.06    1.40
 -22   9   0   -4.36    3.46
  22   0  -1    0.73    0.71
 -22   0   1   -0.12    0.58
 -22   0  -1    0.05    0.60
  22   0   1   -0.49    0.71
 -22  -1  -1   18.06    1.26
 -22   1   1   15.69    1.53
  22   1  -1   17.89    1.56
 -22  -1   1   16.34    1.27
  22  -1  -1   18.30    1.42
  22   1   1   16.92    1.41
 -22   1  -1   17.92    1.60
 -22  -2  -1   34.72    1.75
 -22   2   1   34.25    2.28
  22   2  -1   36.92    2.17
  22  -2  -1   33.67    2.02
  22   2   1   33.21    2.01
 -22  -2   1   36.96    1.90
 -22   2  -1   33.85    2.28
  22   3  -1    2.31    1.02
 -22  -3  -1    2.78    0.61
 -22   3   1    0.66    1.15
 -22  -3   1    2.58    0.73
  22   3   1    3.08    0.89
 -22   3  -1    7.33    1.61
  22   4  -1  115.86    4.78
 -22  -4  -1  113.44    4.38
 -22   4   1  111.86    5.36
 -22  -4   1  115.48    4.45
  22   4   1  105.39    4.57
 -22   4  -1  108.33    5.30
  22   5  -1   20.41    2.20
 -22   5   1   27.55    3.41
 -22  -5  -1   19.42    1.47
  22   5   1   19.59    1.89
 -22  -5   1   18.79    1.60
 -22   5  -1   18.04    2.61
 -22  -6  -1   44.86    2.35
 -22   6   1   37.62    3.94
  22   6  -1   42.64    3.06
 -22   6  -1   45.64    4.08
  22   6   1   41.18    2.64
 -22  -6   1   44.94    2.42
 -22   7   1   -1.56    2.22
  22   7  -1    3.12    1.95
 -22  -7  -1    0.54    1.22
 -22   7   1   -1.55    2.26
 -22   7  -1   -0.06    2.37
 -22  -7   1    0.95    1.22
 -22   7  -1   -3.21    2.36
 -22   8   1   -0.52    2.91
 -22  -8  -1    3.80    1.24
 -22  -8   1    4.13    1.36
 -22   8  -1    4.89    2.97
 -22   8  -1    1.13    2.98
 -22   9   1    3.52    3.46
 -22  -9  -1   -1.30    1.55
 -22   9  -1   -4.64    3.19
 -22  -9   1   -0.23    1.50
 -22   0   2   96.56    4.08
 -22   0  -2   98.23    4.01
  22   0  -2  103.67    4.18
 -22   1   2   20.74    1.64
 -22  -1  -2   19.76    1.33
  22   1  -2   16.13    1.61
  22   1   2   14.97    1.49
  22  -1  -2   19.85    1.55
 -22  -1   2   19.89    1.40
 -22   1  -2   18.43    1.62
 -22   2   2    9.82    1.38
 -22  -2  -2    9.03    0.97
  22   2  -2   11.23    1.50
 -22  -2   2   11.15    1.14
 -22   2  -2    9.52    1.41
  22  -2  -2    9.34    1.25
  22   2   2   12.30    1.28
 -22  -3  -2   -0.08    0.58
 -22   3   2   -0.74    1.17
  22   3  -2    0.42    1.09
  22   3   2    1.08    0.79
  22  -3  -2    0.21    0.87
 -22   3  -2   -0.30    1.06
 -22  -3   2    0.64    0.69
 -22  -4  -2    9.47    1.13
  22   4  -2   10.26    1.43
 -22   4   2   11.87    1.84
 -22  -4   2    9.95    1.26
 -22   4  -2    8.36    1.83
  22   4   2   10.08    1.48
 -22   5   2    4.15    1.93
 -22  -5  -2    4.30    0.86
  22   5  -2    3.13    1.29
 -22   5  -2    4.49    1.89
 -22  -5   2    5.57    1.00
  22   5   2    3.41    1.05
 -22  -6  -2    4.93    1.02
 -22   6   2    8.43    2.43
  22   6  -2    7.28    1.65
 -22  -6   2    5.86    1.25
 -22   6  -2    6.69    2.28
 -22   7   2   11.41    2.62
 -22  -7  -2    7.53    1.37
  22   7  -2   10.00    1.99
 -22   7   2    5.41    2.55
 -22   7  -2   12.82    3.14
 -22  -7   2    6.56    1.39
 -22   7  -2    6.65    2.63
 -22   8   2   19.46    3.51
 -22  -8  -2   22.99    2.14
 -22  -8   2   20.88    2.20
 -22   8  -2   20.15    4.20
 -22   8  -2   23.79    3.64
 -22  -9  -2   -1.25    1.40
 -22   9   2   -3.43    3.50
 -22   9  -2    6.49    4.28
 -22  -9   2    2.03    1.59
 -22   0   3   -0.19    0.66
  22   0  -3    0.01    0.83
 -22   0  -3    0.34    0.62
  22   1  -3    0.68    0.84
 -22   1   3    0.54    0.68
 -22  -1  -3    1.51    0.59
 -22  -1   3    0.59    0.64
  22  -1  -3    0.54    0.67
 -22   1  -3    0.23    0.81
  22   2  -3    9.43    1.37
 -22   2   3    6.22    1.18
 -22  -2  -3    7.28    0.85
 -22  -2   3    6.34    0.88
  22  -2  -3    7.93    1.11
 -22   2  -3    6.07    1.22
  22   3  -3    1.36    0.96
 -22   3   3    2.59    1.28
 -22  -3  -3    2.77    0.60
  22  -3  -3    3.98    1.02
 -22  -3   3    3.29    0.84
  22   3   3    2.63    0.96
 -22   3  -3    2.19    1.22
  22   4  -3    7.36    1.48
 -22  -4  -3    9.01    1.01
 -22   4   3    6.94    1.69
  22   4   3    8.58    1.19
 -22   4  -3    7.94    1.88
 -22  -4   3    9.17    1.11
  22   5  -3   20.62    2.51
 -22  -5  -3   22.17    1.55
 -22   5   3   24.62    3.28
  22   5   3   19.90    1.76
 -22   5  -3   21.39    2.72
 -22  -5   3   20.82    1.73
 -22   6   3    0.00    1.94
  22   6  -3    0.79    1.56
 -22  -6  -3    0.51    0.83
 -22   6  -3   -0.68    2.03
 -22  -6   3   -0.62    0.99
 -22   7   3    2.28    2.65
  22   7  -3   -1.26    1.78
 -22  -7  -3    2.94    1.11
 -22  -7   3    2.99    1.27
 -22   7  -3    0.51    2.54
 -22   7  -3    0.96    2.46
 -22   8   3   10.93    3.68
 -22  -8  -3    3.92    1.37
 -22   8  -3    0.12    3.06
 -22  -8   3    4.58    1.50
 -22   8  -3    1.29    2.99
 -22   9   3   -0.79    3.75
 -22  -9  -3    2.66    1.59
 -22   9  -3   15.75    4.26
 -22  -9   3    2.61    1.60
 -22   9  -3    1.21    3.36
  22   0  -4   30.65    1.99
 -22   0   4   27.46    1.79
 -22   0  -4   27.13    1.78
  22   1  -4   39.08    2.31
 -22   1   4   30.86    2.02
 -22  -1   4   28.79    1.84
 -22   1  -4   31.35    2.10
  22  -1  -4   33.42    2.05
  22   2  -4   25.95    2.05
 -22   2   4   27.18    2.13
 -22  -2  -4   26.65    1.53
  22  -2  -4   25.27    1.78
 -22   2  -4   26.87    2.21
 -22  -2   4   27.40    1.70
 -22  -3  -4    1.76    0.61
 -22   3   4    1.33    1.17
  22   3  -4    0.93    1.08
 -22   3  -4    1.36    1.19
  22  -3  -4    1.97    0.87
 -22  -3   4    2.82    0.86
 -22   4   4    3.39    1.70
  22   4  -4    6.37    1.64
 -22  -4  -4    2.52    0.75
  22  -4  -4    2.76    1.10
 -22   4  -4    5.85    1.80
 -22  -4   4    3.43    0.93
  22   5  -4   28.16    2.83
 -22   5   4   22.72    3.07
 -22  -5  -4   25.33    1.60
 -22   5  -4   30.46    3.43
 -22  -5   4   25.65    2.00
 -22   6   4    8.10    2.54
 -22  -6  -4   10.09    1.17
  22   6  -4    7.41    1.93
 -22   6  -4    7.65    2.38
 -22  -6   4   10.17    1.43
 -22   7   4   -0.09    2.49
  22   7  -4    1.04    1.99
 -22  -7  -4    1.32    1.05
 -22   7  -4   -4.30    2.30
 -22   7  -4    1.54    2.56
 -22  -7   4   -0.26    1.23
 -22  -8  -4    4.97    1.59
 -22   8   4    3.25    3.27
  22   8  -4    8.31    2.60
 -22   8  -4    8.26    3.61
 -22   8  -4    2.82    3.07
 -22  -8   4    7.78    1.93
  22   0   5    0.70    0.67
 -22   0   5    0.30    0.80
  22   0  -5    0.07    0.86
  22   1  -5    0.86    0.87
 -22  -1  -5    0.70    0.64
 -22   1   5    0.57    0.80
 -22  -1   5   -0.13    0.70
  22  -1  -5    0.23    0.85
 -22   1  -5    0.58    0.84
  22   1   5    1.64    0.60
 -22   2   5    6.54    1.37
 -22  -2  -5    6.54    0.89
  22   2  -5    4.73    1.21
 -22  -2   5    5.11    0.94
  22  -2  -5    4.71    1.03
 -22   2  -5    5.12    1.23
  22   2   5    5.54    0.74
  22   3  -5    6.97    1.49
 -22   3   5    6.01    1.58
 -22  -3   5    5.20    0.98
  22  -3  -5    5.11    1.14
 -22   3  -5    5.45    1.37
 -22  -4  -5   -0.52    0.56
  22   4  -5    0.12    1.36
 -22   4   5   -0.46    1.44
  22  -4  -5    1.74    1.08
 -22   4  -5   -1.51    1.27
 -22  -4   5    0.74    0.93
 -22  -5  -5    0.94    0.72
 -22   5   5   -0.22    2.06
  22   5  -5    1.02    1.55
 -22  -5   5    1.10    1.77
 -22   5  -5    0.83    2.06
 -22   6   5   20.88    3.24
  22   6  -5   20.90    2.59
 -22  -6  -5   19.43    1.58
 -22   6  -5   19.15    3.04
 -22  -6   5   23.38    2.22
 -22  -7  -5    0.20    1.02
  22   7  -5   -0.26    2.05
 -22   7   5    0.79    2.93
 -22   7  -5   -0.79    2.54
 -22   7  -5   -2.75    2.57
 -22  -7   5    1.60    1.32
 -22   8   5   -4.70    3.02
  22   8  -5   -0.61    2.43
 -22  -8   5   -0.50    1.56
 -22   8  -5   -1.21    3.19
 -22   8  -5   -0.49    2.93
 -22   0  -6    8.54    1.11
 -22   0   6    8.96    1.21
  22   0   6    6.90    0.82
  22   0  -6    7.92    1.26
 -22   1   6    2.36    1.02
  22   1  -6    0.81    0.90
 -22  -1  -6    1.91    0.65
 -22  -1   6    1.40    0.76
  22   1   6    2.06    0.58
 -22   1  -6    2.77    1.18
  22  -1  -6    1.83    0.96
  22   2  -6  119.16    5.12
 -22  -2  -6  118.92    4.40
 -22   2   6  123.17    5.17
 -22   2  -6  114.10    4.99
  22   2   6  116.57    4.31
 -22  -2   6  114.21    4.74
  22  -2  -6  116.17    4.93
 -22   3   6    2.02    1.35
  22   3  -6    0.64    1.27
 -22  -3  -6    2.96    0.57
 -22  -3   6    2.91    0.96
 -22   3  -6    3.35    1.29
  22  -3  -6    2.13    0.95
  22   4  -6    1.58    1.42
 -22   4   6    1.13    1.65
 -22  -4  -6    2.05    0.73
 -22   4  -6    2.86    1.61
 -22  -4   6    1.80    1.06
  22  -4  -6    0.93    0.97
 -22   5   6   17.76    2.75
 -22  -5  -6   12.30    1.20
  22   5  -6   10.43    2.00
 -22   5  -6   11.61    2.19
  22  -5  -6   12.20    1.68
 -22  -5   6   14.49    1.90
 -22  -6  -6   17.72    1.73
  22   6  -6   14.70    2.52
 -22   6   6   17.85    3.07
 -22   6  -6   11.48    2.48
 -22  -6   6   13.74    1.75
 -22   7   6    8.76    3.36
  22   7  -6    0.40    2.21
 -22   7  -6    0.71    2.37
 -22   7  -6   -0.89    2.79
 -22  -7   6    0.89    1.35
 -22   8   6   -0.98    3.59
  22   8  -6   -0.96    2.46
 -22   8  -6    0.65    2.94
 -22   8  -6   -1.86    3.06
 -22  -8   6   -0.23    1.59
 -22   0  -7   -0.15    0.83
  22   0  -7    0.13    1.04
  22   0   7   -0.31    0.57
 -22   0   7   -0.11    0.85
 -22  -1  -7   19.17    1.32
 -22   1   7   19.57    1.98
  22   1  -7   24.60    2.27
  22  -1  -7   20.12    2.04
 -22  -1   7   16.69    1.65
  22   1   7   19.15    1.12
 -22   1  -7   17.42    1.97
 -22   2   7  105.40    4.68
  22   2  -7  100.47    4.69
 -22  -2  -7  105.74    3.86
 -22  -2   7  102.14    4.28
  22  -2  -7   96.26    4.38
 -22   2  -7  102.23    4.60
  22   3  -7   -0.31    1.22
 -22  -3  -7    1.50    0.46
 -22   3   7   -0.31    1.32
 -22  -3   7    0.88    0.90
  22  -3  -7    2.27    1.02
 -22   3  -7   -0.01    1.50
 -22   4   7   32.38    3.34
  22   4  -7   28.98    2.99
 -22  -4  -7   36.14    1.63
 -22  -4   7   30.76    2.35
  22  -4  -7   34.88    2.20
 -22   4  -7   32.28    3.13
  22   5  -7    7.23    2.11
 -22   5   7    4.20    2.17
 -22  -5   7    0.67    1.05
 -22   5  -7    3.19    1.79
  22   6  -7   33.64    3.91
 -22   6   7   21.05    3.40
 -22   6  -7   22.92    2.91
 -22  -6   7   19.85    2.23
 -22   7   7    3.08    3.02
  22   7  -7    7.06    2.63
 -22  -7   7    5.40    1.82
 -22   7  -7    3.53    2.96
 -22   7  -7    6.38    2.74
 -22   8   7    8.40    4.03
  22   8  -7    0.09    2.83
 -22   8  -7   -0.49    3.33
 -22  -8   7   -2.58    1.57
 -22   8  -7    5.06    3.03
 -22   0   8   18.80    1.81
  22   0  -8   20.22    2.03
 -22   0  -8   17.46    1.44
 -22   1   8   20.55    2.03
  22   1  -8   17.81    2.13
 -22  -1  -8   16.41    1.24
 -22  -1   8   17.94    1.73
 -22   1  -8   18.59    2.25
  22  -1  -8   14.43    1.89
  22   2  -8   11.91    1.75
 -22   2   8   13.58    1.81
 -22  -2   8   14.15    1.69
 -22   2  -8   13.40    1.63
  22  -2  -8   12.87    1.84
  22   3  -8   63.55    3.72
 -22   3   8   57.12    3.73
  22  -3  -8   62.81    3.11
 -22  -3   8   56.88    3.30
 -22   3  -8   60.66    3.65
 -22   4   8   13.56    2.54
  22   4  -8   13.01    2.08
 -22   4  -8   15.13    2.35
 -22  -4   8   12.92    1.57
  22  -4  -8   11.94    1.72
 -22   5   8   -1.73    2.12
  22   5  -8    0.27    1.99
 -22   5  -8    2.68    1.82
 -22  -5   8    1.09    1.17
  22  -5  -8    2.83    1.14
  22   6  -8   11.71    2.58
 -22   6   8   11.56    3.25
 -22   6  -8   14.86    2.63
 -22  -6   8   13.78    1.77
 -22   7   8   -1.93    3.06
  22   7  -8   -3.02    2.44
 -22   7  -8    0.99    2.80
 -22  -7   8    0.02    1.56
 -22   7  -8   -1.70    3.01
  22   0  -9    1.45    1.29
 -22   0   9   -0.37    1.05
 -22   0  -9    0.98    0.71
 -22   1   9   37.06    2.62
  22   1  -9   29.20    2.96
 -22   1  -9   34.67    2.26
 -22  -1   9   33.62    2.32
  22  -1  -9   39.16    2.66
 -22   2   9    0.26    1.30
  22   2  -9   -0.83    1.42
  22  -2  -9    0.40    1.12
 -22   2  -9   -0.19    1.13
 -22  -2   9    1.31    1.11
  22   3  -9    1.49    1.64
  22  -3  -9    0.41    1.09
 -22   3  -9    1.83    1.36
 -22  -3   9    0.20    1.02
 -22   4   9    2.21    2.15
  22   4  -9   -1.41    1.66
 -22  -4   9   -0.21    1.05
 -22   4  -9    0.41    1.59
  22  -4  -9   -0.75    1.69
  22   5  -9    5.32    2.19
 -22   5   9    5.24    2.51
  22  -5  -9    6.67    1.36
 -22   5  -9    5.39    2.16
 -22  -5   9    6.17    1.31
  22   6  -9   -1.06    2.27
 -22   6   9    1.78    3.02
 -22  -6   9    2.83    1.56
  22  -6  -9    1.45    1.44
 -22   6  -9    3.35    2.52
  22   7  -9    1.70    2.68
 -22   7   9    2.51    3.27
 -22  -7   9    1.76    1.66
 -22   7  -9    8.92    3.52
 -22   7  -9    2.03    2.46
 -22   0  10   67.41    3.39
  22   0 -10   56.24    4.11
 -22   1  10    8.51    1.61
  22   1 -10    4.95    1.58
  22  -1 -10    7.42    1.88
  22   2 -10    5.64    1.78
 -22  -2  10    2.04    1.16
 -22   2 -10    4.46    1.51
  22  -2 -10    1.60    1.19
  22   3 -10   13.40    2.28
 -22   3  10   18.75    2.43
 -22  -3  10   16.80    2.12
 -22   3 -10   18.59    2.57
  22   4 -10    1.86    1.83
 -22   4  10    6.32    2.55
 -22  -4  10    5.29    1.57
  22  -4 -10    1.26    1.22
 -22   4 -10    3.43    1.69
 -22   5  10   -1.65    2.34
  22   5 -10    1.42    2.21
 -22  -5  10    1.73    1.42
 -22   5 -10   -1.48    1.77
  22  -5 -10   -0.91    1.24
 -22   6  10    6.88    3.48
  22   6 -10    1.23    2.47
  22  -6 -10   -0.84    1.36
 -22  -6  10   -1.97    1.35
 -22   6 -10   -1.32    2.87
 -22   6 -10    1.75    2.65
  22   7 -10    2.78    2.78
 -22   7  10   -0.13    3.36
 -22   7 -10    0.99    3.38
 -22  -7  10    1.68    1.74
 -22   7 -10    1.65    2.74
 -22   0  11   -0.76    1.24
  22   0 -11    1.90    1.47
  22   1 -11    2.98    1.62
 -22   1  11    3.43    1.69
 -22  -1  11    5.20    1.47
  22  -1 -11    2.08    1.39
 -22   2  11    1.25    1.57
  22   2 -11    0.61    1.77
 -22  -2  11    0.57    1.11
  22  -2 -11    1.51    1.11
  22   3 -11    0.13    1.81
 -22   3  11   -2.74    1.79
 -22  -3  11   -2.39    1.20
  22  -3 -11    3.51    1.32
  22   4 -11    2.66    2.29
 -22   4  11    5.38    2.62
 -22   4 -11   -2.29    1.70
 -22  -4  11   -1.83    1.34
  22  -4 -11    0.67    1.21
 -22   5  11   -2.36    2.67
  22   5 -11    5.20    2.79
  22  -5 -11    2.71    1.44
 -22   5 -11    4.19    2.13
 -22  -5  11   -1.38    1.40
 -22   6  11    3.46    3.62
  22   6 -11    9.60    3.38
  22  -6 -11    2.12    1.75
 -22   6 -11   -2.66    2.81
 -22   6 -11    5.55    3.04
 -22  -6  11   -0.12    1.57
 -22   0  12   27.86    2.61
  22   0 -12   32.72    2.95
 -22   1  12   10.26    1.93
  22   1 -12   11.42    2.21
  22  -1 -12   11.35    1.98
 -22  -1  12    9.65    1.69
  22   2 -12    3.91    1.95
 -22   2  12   -1.23    1.70
  22  -2 -12   -0.81    1.30
 -22  -2  12   -0.29    1.28
  22   3 -12    4.79    2.20
 -22   3  12   -0.95    2.09
  22  -3 -12    1.90    1.33
 -22  -3  12    0.83    1.33
 -22   4  12    5.74    2.79
  22   4 -12    6.09    2.69
  22  -4 -12    1.67    1.60
 -22  -4  12   -1.20    1.42
 -22   5  12    2.23    2.96
  22   5 -12    1.99    2.88
  22  -5 -12    1.57    1.38
 -22  -5  12   -1.86    1.41
 -22   6  12   17.31    4.33
  22   6 -12    9.96    4.87
 -22  -6  12   11.17    2.27
 -22   0  13   -0.04    1.52
  22   0 -13   -0.91    1.50
 -22   1  13    3.17    1.72
  22   1 -13    6.23    2.15
 -22  -1  13    0.45    1.41
  22  -1 -13    2.37    1.57
 -22   2  13    2.68    1.82
  22   2 -13   -1.12    1.99
  22  -2 -13   -1.26    1.48
 -22  -2  13    2.02    1.55
 -22   3  13   -0.99    2.24
  22   3 -13    9.34    2.82
 -22  -3  13    7.39    1.82
  22  -3 -13    4.86    1.72
  22   4 -13    2.30    2.74
 -22   4  13    1.33    2.74
  22  -4 -13    1.33    1.55
 -22  -4  13    4.54    1.85
 -22   5  13   -1.30    3.04
  22   5 -13   -0.36    2.83
  22  -5 -13   -0.49    1.52
 -22   5 -13   -4.65    3.05
 -22  -5  13    1.85    1.85
  22   0 -14    1.54    1.77
 -22   0  14    3.06    1.85
 -22   1  14    9.32    2.16
  22   1 -14   10.66    2.31
 -22  -1  14    7.73    1.78
  22  -1 -14    8.39    1.96
 -22   2  14   12.56    2.65
  22   2 -14    9.63    2.66
  22  -2 -14   11.73    2.03
 -22  -2  14   11.07    2.00
  22   3 -14   12.68    3.17
 -22   3  14    5.22    2.44
 -22  -3  14    5.42    1.86
  22  -3 -14   10.62    2.13
 -22   4  14    3.92    2.95
  22   4 -14    0.27    2.71
 -22  -4  14   -0.68    1.80
  22  -4 -14   -0.62    1.69
 -22   0  15   -0.84    1.71
  22   0 -15    2.03    2.07
  22   1 -15    0.26    2.01
 -22   1  15   -3.02    1.84
 -22  -1  15    3.05    2.08
  22  -1 -15   -0.90    1.90
  22   2 -15    1.63    2.47
 -22   2  15    5.56    2.53
 -22  -2  15    5.71    1.96
  22  -2 -15    8.07    2.06
  22   3 -15    7.77    3.18
 -22   3  15    6.29    2.84
  22  -3 -15    2.43    1.87
 -22  -3  15    3.28    1.75
  23   0   0    1.17    0.77
 -23   0   0    2.03    0.76
 -23  -1   0   38.31    1.95
  23   1   0   34.66    2.05
 -23   1   0   36.17    2.23
  23  -1   0   37.34    2.11
 -23  -2   0   -0.70    0.56
 -23   2   0   -0.01    0.91
  23   2   0   -0.78    0.78
 -23  -3   0    1.96    0.63
  23   3   0    2.78    1.05
 -23   3   0    3.23    1.31
 -23   4   0    1.39    1.58
  23   4   0    1.52    1.22
 -23  -4   0    0.09    0.64
 -23  -5   0  128.88    5.10
  23   5   0  131.62    5.36
 -23   5   0  124.98    6.21
 -23  -6   0    0.01    1.02
  23   6   0    2.31    1.39
 -23   6   0   -0.09    2.17
 -23  -7   0    3.15    1.12
 -23   7   0    0.22    2.47
 -23   7   0    3.85    2.75
 -23   8   0   11.19    4.01
 -23  -9   0    5.32    1.75
 -23   9   0   13.30    4.65
  23   0  -1    0.42    0.74
  23   0   1   -0.56    0.71
 -23   0  -1   -0.40    0.53
 -23   0   1   -0.32    0.60
  23   1  -1    1.23    0.89
 -23  -1  -1    0.73    0.60
 -23   1   1    0.27    0.78
 -23   1  -1    0.73    0.94
 -23  -1   1   -0.13    0.59
  23   1   1    0.02    0.73
  23  -1  -1   -0.71    0.69
 -23  -2  -1   10.62    1.12
  23   2  -1   10.63    1.55
 -23   2   1   10.84    1.49
 -23  -2   1   10.29    1.12
  23  -2  -1   10.30    1.36
  23   2   1   10.99    1.42
 -23   2  -1   10.67    1.48
 -23   3   1    3.50    1.23
 -23  -3  -1    6.21    0.84
  23   3  -1    7.50    1.27
  23   3   1    5.10    1.01
 -23   3  -1    6.50    1.48
 -23  -3   1    5.25    0.89
 -23   4   1    0.99    1.50
 -23  -4  -1   -0.56    0.62
  23   4  -1    1.61    1.12
 -23  -4   1    0.72    0.77
  23   4   1   -0.07    0.94
 -23   4  -1   -0.03    1.44
  23   5  -1   22.63    2.14
 -23  -5  -1   20.08    1.67
 -23   5   1   26.62    3.38
 -23   5  -1   23.98    3.16
 -23  -5   1   17.86    1.65
  23   5   1   25.13    2.11
 -23   6   1   18.74    2.96
  23   6  -1   19.07    2.40
 -23  -6  -1   18.68    1.80
 -23  -6   1   20.98    1.85
  23   6   1   19.72    2.23
 -23   6  -1   22.75    2.96
 -23   7   1    4.17    2.47
  23   7  -1    3.90    1.77
 -23   7   1    2.37    2.56
 -23   7  -1    4.70    2.50
 -23  -7   1    7.00    1.26
 -23  -8  -1    5.44    1.53
 -23   8   1    0.12    2.96
 -23   8  -1    4.37    2.93
 -23   8  -1    1.02    3.19
 -23  -8   1    5.79    1.68
 -23   9   1    6.82    3.91
 -23  -9  -1    6.85    1.72
 -23   9  -1    5.57    3.94
 -23  -9   1    6.61    1.70
  23   0  -2   10.13    1.36
 -23   0  -2    6.40    0.92
 -23   0   2    6.48    0.96
 -23  -1  -2   15.01    1.22
 -23   1   2   14.31    1.47
  23   1  -2   16.32    1.72
 -23   1  -2   13.46    1.56
  23   1   2   13.32    1.45
  23  -1  -2   14.03    1.43
 -23  -1   2   14.98    1.33
 -23   2   2    1.51    1.01
 -23  -2  -2    1.07    0.56
  23   2  -2    0.60    0.96
  23   2   2    3.13    0.92
 -23  -2   2    1.58    0.69
 -23   2  -2    0.59    0.97
  23  -2  -2    0.86    0.74
 -23   3   2    4.10    1.36
 -23  -3  -2    3.45    0.72
  23   3  -2    2.60    1.18
 -23   3  -2    4.04    1.30
  23   3   2    2.76    0.93
 -23  -3   2    3.39    0.83
  23  -3  -2    5.42    1.12
 -23   4   2   18.48    2.43
  23   4  -2   23.60    2.27
 -23  -4  -2   19.10    1.39
 -23  -4   2   20.37    1.70
 -23   4  -2   15.92    2.17
  23   4   2   20.77    1.82
 -23   5   2   11.13    2.17
  23   5  -2   15.13    2.03
 -23  -5  -2   10.93    1.26
  23   5   2   10.93    1.33
 -23   5  -2   10.39    2.22
 -23  -5   2   13.56    1.65
  23   6  -2   13.49    1.88
 -23   6   2   12.47    2.54
 -23  -6  -2   15.66    1.64
 -23  -6   2   15.16    2.56
 -23   6  -2   16.45    2.76
 -23  -7  -2    1.08    1.05
 -23   7   2   -2.05    2.32
  23   7  -2    0.12    1.67
 -23   7   2    7.02    3.06
 -23  -7   2    1.28    1.12
 -23   7  -2    3.00    2.81
 -23  -8  -2    3.46    1.46
 -23   8   2    5.13    3.43
 -23   8  -2    1.70    2.95
 -23  -8   2    2.58    1.53
 -23   8  -2    8.79    3.47
 -23   0   3    1.10    0.80
  23   0  -3    0.01    0.85
 -23   0  -3   -0.36    0.63
  23   1  -3    1.78    0.95
 -23  -1  -3    0.29    0.69
 -23   1   3    0.63    0.82
 -23   1  -3    0.13    0.75
  23  -1  -3   -0.12    0.73
 -23  -1   3    0.84    0.70
 -23   2   3   32.80    2.26
 -23  -2  -3   30.17    1.65
  23   2  -3   31.43    2.18
  23  -2  -3   30.30    1.97
 -23  -2   3   33.76    1.90
 -23   2  -3   31.48    2.19
 -23   3   3    2.40    1.19
  23   3  -3    2.37    1.10
 -23  -3  -3    4.69    0.77
  23   3   3    4.66    1.07
  23  -3  -3    5.86    1.16
 -23   3  -3    3.52    1.36
 -23  -3   3    3.87    0.88
 -23   4   3    3.59    1.55
  23   4  -3    4.07    1.31
 -23  -4  -3    4.33    0.82
  23   4   3    1.75    1.01
 -23  -4   3    4.10    1.02
 -23   4  -3    5.04    1.68
  23   5  -3    1.60    1.47
 -23  -5  -3    0.01    0.71
 -23  -5   3    1.93    1.13
  23   5   3    0.15    1.28
 -23   5  -3   -3.64    1.60
 -23   6   3   67.32    4.90
 -23  -6  -3   71.15    3.14
  23   6  -3   72.85    4.05
 -23   6  -3   64.67    5.03
 -23  -6   3   69.21    3.50
 -23  -7  -3    0.20    0.98
  23   7  -3   -1.63    1.92
 -23   7   3   -0.76    2.60
 -23   7  -3   -0.72    2.45
 -23  -7   3   -0.78    1.20
 -23   7  -3    0.88    2.81
 -23   8   3   18.76    3.87
 -23  -8  -3   19.92    2.30
 -23   8  -3   12.25    3.51
 -23  -8   3   15.28    1.91
 -23   8  -3   17.16    3.53
  23   0  -4   24.07    1.78
 -23   0   4   22.07    1.71
 -23   0  -4   25.64    1.70
  23   1  -4   33.77    2.13
 -23   1   4   32.44    2.14
 -23  -1  -4   32.95    1.82
 -23  -1   4   32.22    1.95
  23  -1  -4   33.91    2.13
 -23   1  -4   33.45    2.15
  23   2  -4    3.35    1.04
 -23   2   4    3.55    1.11
 -23  -2  -4    4.97    0.77
  23  -2  -4    3.64    0.97
 -23   2  -4    5.26    1.22
 -23  -2   4    5.98    0.97
  23   3  -4    1.12    1.18
 -23   3   4    0.63    1.18
 -23  -3  -4    1.08    0.60
 -23   3  -4    0.46    1.17
 -23  -3   4    0.42    0.77
  23  -3  -4   -0.32    0.87
 -23  -4  -4    0.87    0.65
 -23   4   4    3.62    1.88
  23   4  -4   -0.92    1.30
  23  -4  -4   -0.09    1.01
 -23  -4   4    0.49    0.90
 -23   4  -4    1.04    1.34
 -23  -5  -4   33.60    1.90
  23   5  -4   36.19    3.23
 -23   5   4   32.72    3.48
 -23  -5   4   37.16    2.63
 -23   5  -4   38.04    3.63
  23   6  -4   12.15    2.79
 -23   6   4   10.97    2.96
 -23  -6  -4    8.80    1.09
 -23  -6   4    8.29    1.45
 -23   6  -4    8.27    2.76
 -23  -7  -4   12.15    1.70
 -23   7   4   11.98    3.11
  23   7  -4   12.78    2.70
 -23   7  -4   22.15    3.67
 -23   7  -4   15.06    3.29
 -23  -7   4   11.37    1.65
  23   8  -4   -0.27    2.59
 -23   8   4   -1.65    3.24
 -23  -8  -4    1.57    1.39
 -23  -8   4    1.93    1.54
 -23   8  -4    3.91    3.60
 -23   8  -4    3.89    3.17
 -23   0  -5    0.78    0.90
 -23   0   5    0.54    0.76
  23   0  -5   -1.33    0.83
 -23   1   5   33.51    2.20
 -23  -1  -5   32.73    2.05
  23   1  -5   28.94    2.16
  23  -1  -5   33.44    2.16
 -23   1  -5   32.98    2.18
 -23  -1   5   32.59    2.00
  23   1   5   33.84    1.65
 -23  -2  -5   28.73    1.72
 -23   2   5   26.01    2.24
  23   2  -5   24.28    2.03
  23   2   5   28.93    1.50
  23  -2  -5   26.94    2.03
 -23   2  -5   24.73    2.40
 -23  -2   5   29.01    1.89
 -23  -3  -5   14.23    1.23
  23   3  -5   11.62    1.71
 -23   3   5   12.56    1.86
 -23   3  -5   12.27    1.73
  23  -3  -5   13.12    1.66
 -23  -3   5   11.66    1.45
  23   4  -5   10.61    1.74
 -23  -4  -5    9.38    1.09
 -23   4   5    8.98    2.01
 -23   4  -5   11.51    1.86
  23  -4  -5    9.51    1.48
 -23  -4   5   10.40    1.31
 -23   5   5    9.81    2.44
 -23  -5  -5   10.21    1.24
 -23   5  -5   12.19    2.18
 -23  -5   5   12.49    1.51
  23   6  -5   36.57    3.60
 -23  -6  -5   41.75    2.22
 -23   6   5   31.46    3.95
 -23   6  -5   42.02    3.90
 -23  -6   5   39.69    2.60
 -23   7   5    3.47    3.10
  23   7  -5   -0.66    2.14
 -23  -7   5    3.00    1.40
 -23   7  -5   -2.32    2.20
 -23   7  -5   -0.06    2.72
 -23   8   5   -1.52    3.35
  23   8  -5    2.60    2.44
 -23   8  -5    1.65    3.03
 -23  -8   5    0.27    1.58
 -23   8  -5   -1.43    2.88
  23   0   6    0.50    0.67
  23   0  -6    0.99    0.98
 -23   0  -6    1.20    0.97
 -23   0   6    0.33    0.84
 -23   1   6   22.68    1.98
 -23  -1  -6   24.57    1.60
  23   1  -6   29.10    2.25
  23  -1  -6   30.82    2.13
 -23   1  -6   24.28    2.02
 -23  -1   6   22.06    1.76
  23   1   6   23.98    1.37
 -23  -2  -6   14.92    1.21
  23   2  -6   15.48    2.10
 -23   2   6   17.00    2.12
  23   2   6   16.92    1.07
 -23   2  -6   15.70    2.00
  23  -2  -6   14.28    1.73
 -23  -2   6   18.72    1.66
 -23  -3  -6   68.59    2.84
 -23   3   6   67.75    3.88
  23   3  -6   75.15    3.81
  23  -3  -6   65.95    3.37
 -23  -3   6   73.15    3.31
 -23   3  -6   69.49    3.75
 -23   4   6    6.40    1.98
 -23  -4  -6    6.28    0.86
 -23   4  -6    8.64    1.84
  23  -4  -6    7.10    1.25
 -23  -4   6    7.46    1.85
 -23  -5  -6   19.29    1.49
  23   5  -6   20.52    2.44
 -23   5   6   15.80    2.90
 -23   5  -6   17.06    2.50
  23  -5  -6   19.05    2.17
 -23  -5   6   13.08    1.78
 -23   6   6    2.75    2.64
  23   6  -6    3.60    1.98
 -23   6  -6    5.26    2.19
 -23  -6   6    1.56    1.23
 -23   7   6   -0.99    2.98
  23   7  -6    4.37    2.30
 -23   7  -6   -0.59    2.20
 -23  -7   6    1.69    1.52
 -23   7  -6   -3.24    2.63
  23   8  -6    7.10    2.80
 -23   8   6    6.78    3.83
 -23   8  -6    3.14    3.28
 -23  -8   6    2.41    1.73
 -23   8  -6    1.26    3.29
  23   0   7    0.24    0.52
  23   0  -7   -1.02    1.01
 -23   0  -7    1.40    0.85
 -23   0   7   -1.91    0.87
 -23  -1  -7   11.02    1.17
 -23   1   7    8.47    1.41
  23   1  -7    9.43    1.44
 -23  -1   7    8.62    1.25
 -23   1  -7    7.35    1.32
  23  -1  -7    9.34    1.38
 -23   2   7   -0.94    1.11
 -23  -2  -7    1.69    0.54
  23   2  -7   -0.69    1.07
 -23  -2   7    2.72    0.96
 -23   2  -7    2.26    1.19
  23  -2  -7    1.15    1.04
 -23  -3  -7    6.00    0.68
 -23   3   7    3.10    1.53
 -23   3  -7    6.94    1.55
 -23  -3   7    5.09    1.10
  23  -3  -7    7.06    1.34
 -23   4   7   40.86    3.69
  23   4  -7   47.24    3.39
 -23   4  -7   47.00    3.37
  23  -4  -7   43.19    2.68
 -23  -4   7   44.30    2.61
  23   5  -7    0.65    1.89
 -23   5   7    4.40    2.31
 -23   5  -7    3.32    1.83
  23  -5  -7    2.15    1.16
 -23  -5   7    2.20    1.16
 -23   6   7    0.55    2.45
  23   6  -7    3.02    2.18
 -23  -6   7    1.12    1.29
 -23   6  -7    4.56    2.36
 -23   7   7    1.94    2.94
  23   7  -7    2.79    2.59
 -23   7  -7   -1.50    2.89
 -23   7  -7    3.11    3.03
 -23  -7   7    2.18    1.64
  23   8  -7    2.12    2.63
 -23   8   7   12.74    4.42
 -23   8  -7    1.83    3.06
 -23   8  -7   -3.92    3.31
 -23  -8   7    2.94    1.80
  23   0  -8   85.03    4.16
 -23   0   8   89.82    4.04
 -23   0  -8   85.81    3.65
 -23   1   8    3.11    1.32
 -23  -1  -8    2.23    0.66
  23   1  -8    1.81    1.28
 -23  -1   8    0.61    0.94
 -23   1  -8    1.00    1.23
  23  -1  -8    1.54    1.14
 -23   2   8    8.89    1.69
  23   2  -8   10.53    2.31
  23  -2  -8   12.76    1.93
 -23   2  -8    9.94    1.58
 -23  -2   8   11.94    1.43
  23   3  -8   49.13    3.34
 -23   3   8   47.22    3.77
 -23  -3   8   45.59    2.69
  23  -3  -8   47.97    2.80
 -23   3  -8   51.04    3.52
  23   4  -8    8.09    2.03
 -23   4   8    2.55    2.13
 -23  -4   8    4.22    1.15
 -23   4  -8    6.62    1.89
  23   5  -8   10.23    2.45
 -23   5   8    2.47    2.29
  23  -5  -8    3.52    1.22
 -23   5  -8    3.12    1.90
 -23  -5   8    1.89    1.18
  23   6  -8   31.71    4.17
 -23   6   8   18.68    3.62
 -23   6  -8   22.71    3.23
 -23  -6   8   20.66    2.56
 -23   7   8   -0.37    3.07
  23   7  -8    5.38    3.00
 -23   7  -8    2.55    2.49
 -23   7  -8   -3.60    2.95
 -23  -7   8    0.19    1.61
  23   0  -9   -0.63    1.47
 -23   0   9    0.33    1.07
 -23   1   9   29.40    2.57
  23   1  -9   23.68    2.48
  23  -1  -9   24.69    2.24
 -23  -1   9   21.28    2.02
 -23   1  -9   25.45    2.05
 -23   2   9   22.18    2.59
  23   2  -9   21.15    2.64
 -23  -2   9   25.32    2.11
 -23   2  -9   25.75    2.46
  23  -2  -9   23.33    2.15
 -23   3   9    0.27    1.75
  23   3  -9   -0.69    1.49
 -23   3  -9   -0.77    1.28
 -23  -3   9    1.59    1.16
  23   4  -9   91.24    5.00
 -23   4   9   87.50    5.40
 -23   4  -9   83.62    4.68
  23  -4  -9   79.95    3.98
 -23  -4   9   85.15    4.13
  23   5  -9   -0.08    2.13
 -23   5   9   -2.30    2.33
 -23  -5   9    1.48    1.38
 -23   5  -9    1.79    2.03
  23  -5  -9    0.43    1.14
 -23   6   9    7.68    3.49
  23   6  -9   -0.89    2.48
 -23   6  -9   -0.19    2.62
 -23  -6   9    0.25    1.41
  23  -6  -9    2.46    1.53
  23   7  -9    2.30    2.72
 -23   7   9   -1.48    3.19
 -23   7  -9   -5.47    2.46
 -23  -7   9   -1.01    1.75
 -23   7  -9    0.72    3.30
 -23   0  10   56.10    3.66
  23   0 -10   70.88    3.84
 -23   1  10    2.06    1.77
  23   1 -10    1.15    1.53
  23  -1 -10    3.23    1.41
 -23  -1  10    0.89    1.28
  23   2 -10   23.85    2.86
 -23   2  10   23.58    2.69
 -23   2 -10   26.10    2.45
  23  -2 -10   22.28    2.49
 -23  -2  10   23.99    2.15
  23   3 -10   14.51    2.28
 -23   3  10    9.92    2.20
 -23   3 -10    7.61    1.69
 -23  -3  10    8.52    1.56
  23  -3 -10    8.56    1.48
 -23   4  10    4.38    2.52
  23   4 -10    0.07    1.93
 -23  -4  10   -0.26    1.22
  23  -4 -10   -1.69    1.22
 -23   4 -10    1.24    1.82
  23   5 -10   -2.54    2.20
 -23   5  10   -2.69    2.52
 -23  -5  10   -0.01    1.39
 -23   5 -10    0.35    1.97
  23  -5 -10    0.35    1.29
  23   6 -10    6.59    2.68
 -23   6  10   14.45    3.84
 -23  -6  10    7.30    1.81
 -23   6 -10    5.77    2.60
  23  -6 -10    9.31    1.64
  23   0 -11    0.25    1.48
 -23   0  11   -0.82    1.27
 -23   1  11    3.13    1.60
  23   1 -11   -0.24    1.49
  23  -1 -11    2.08    1.37
 -23  -1  11    3.46    1.43
 -23   2  11   20.83    2.40
  23   2 -11   24.43    3.12
 -23  -2  11   16.36    2.16
  23  -2 -11   21.38    2.16
  23   3 -11   -1.09    1.87
 -23   3  11   -1.20    1.85
 -23  -3  11   -1.32    1.20
  23  -3 -11    0.65    1.47
  23   4 -11   58.68    4.51
 -23   4  11   70.96    4.94
 -23   4 -11   46.17    5.84
  23  -4 -11   62.30    3.45
 -23  -4  11   56.70    3.44
 -23   5  11    0.27    2.65
  23   5 -11   -1.63    2.33
  23  -5 -11    2.22    1.37
 -23   5 -11   -0.78    2.13
 -23  -5  11    1.74    1.47
 -23   6  11   10.62    3.93
  23   6 -11    1.54    2.69
  23  -6 -11    2.70    1.80
 -23  -6  11    6.64    2.00
 -23   6 -11    8.20    2.70
 -23   6 -11    0.70    2.94
 -23   0  12   34.61    2.97
  23   0 -12   37.66    3.26
 -23   1  12   21.72    2.87
  23   1 -12   21.04    3.03
  23  -1 -12   22.15    2.62
 -23  -1  12   17.67    2.38
  23   2 -12   22.28    3.34
 -23   2  12   17.19    2.43
  23  -2 -12   19.82    2.45
 -23  -2  12   24.64    2.59
  23   3 -12   -2.68    2.12
 -23   3  12   -0.19    1.99
  23  -3 -12   -0.42    1.36
 -23  -3  12    1.13    1.27
  23   4 -12    0.08    2.15
 -23   4  12    4.01    2.76
 -23  -4  12    0.35    1.44
  23  -4 -12    1.13    1.48
  23   5 -12    4.87    2.80
 -23   5  12    2.21    3.05
  23  -5 -12    4.02    1.74
 -23  -5  12    7.28    2.17
  23   0 -13    1.40    1.73
 -23   0  13    3.95    1.82
 -23   1  13   -0.17    1.61
  23   1 -13    0.39    1.90
 -23  -1  13    0.15    1.44
  23  -1 -13    3.61    1.94
  23   2 -13    9.67    2.42
 -23   2  13   16.48    2.39
 -23  -2  13   13.60    1.94
  23  -2 -13   11.25    1.84
 -23   3  13   -3.07    2.19
  23   3 -13   -2.17    2.16
 -23  -3  13    1.22    1.67
  23  -3 -13   -0.64    1.48
 -23   4  13    5.33    3.13
  23   4 -13    7.64    2.73
 -23  -4  13    4.94    1.87
  23  -4 -13    7.61    2.09
 -23   5  13   -4.29    3.20
 -23  -5  13   -2.99    1.75
  23  -5 -13   -1.72    1.52
 -23   0  14    3.24    1.83
  23   0 -14    5.54    2.00
 -23   1  14    2.70    1.93
  23   1 -14    5.09    2.14
  23  -1 -14    5.52    2.02
 -23  -1  14    6.86    1.81
 -23   2  14   23.45    3.10
  23   2 -14   21.90    3.08
  23  -2 -14   24.46    3.20
 -23  -2  14   22.25    2.94
  23   3 -14    0.05    2.45
 -23   3  14    4.13    2.48
 -23  -3  14    3.63    1.80
  23  -3 -14    6.31    1.95
 -23   4  14    1.64    3.28
  23  -4 -14   -3.31    1.62
 -23  -4  14   -0.81    1.73
  23   0 -15   -0.24    1.87
 -23   0  15   -0.89    1.72
 -23   1  15    5.63    2.26
  23   1 -15    5.79    2.49
 -23  -1  15    6.66    2.10
  23  -1 -15    4.07    2.09
  23   2 -15    5.60    2.82
 -23   2  15    9.53    2.76
 -23  -2  15   11.79    2.33
  23  -2 -15    6.73    2.29
  24   0   0  190.34    7.19
 -24   0   0  188.26    7.17
 -24  -1   0    0.37    0.71
 -24   1   0   -0.24    0.82
  24  -1   0    0.28    0.83
  24   1   0    0.53    0.85
 -24  -2   0    2.54    0.77
 -24   2   0    0.62    1.07
  24   2   0    0.14    0.83
 -24   3   0    1.63    1.23
  24   3   0    1.56    1.04
 -24  -3   0   -0.76    0.64
 -24   4   0   -1.02    1.38
 -24  -4   0    0.76    0.73
  24   4   0   -0.77    1.07
  24   5   0    1.89    1.41
 -24   5   0   -0.22    1.73
 -24  -5   0    0.27    0.78
  24   6   0   -1.51    1.39
 -24   6   0   -0.78    1.96
 -24  -6   0    0.16    0.87
 -24  -7   0   -0.28    1.00
 -24   7   0   -3.02    2.52
 -24   8   0   11.68    3.62
 -24  -8   0    8.05    1.56
 -24   0   1    0.10    0.67
 -24   0  -1    0.16    0.68
  24   0   1   -0.73    0.74
  24   0  -1   -0.40    0.81
 -24  -1  -1    2.02    0.69
  24   1  -1    3.26    0.98
 -24   1   1    1.29    0.87
 -24   1  -1    2.84    1.06
 -24  -1   1    1.03    0.74
  24  -1  -1    1.02    0.81
  24   1   1    0.85    0.80
 -24   2   1   -0.27    0.99
  24   2  -1    0.66    0.92
 -24  -2  -1    0.58    0.62
 -24  -2   1   -0.30    0.62
 -24   2  -1    0.86    1.11
  24  -2  -1   -0.69    0.76
  24   2   1   -0.07    0.87
 -24   3   1    1.91    1.35
 -24  -3  -1    2.26    0.69
  24   3  -1    2.25    1.12
  24   3   1    2.56    1.08
 -24   3  -1    0.84    1.13
 -24  -3   1    2.46    0.85
  24   4  -1   51.02    2.93
 -24   4   1   48.13    3.52
 -24  -4  -1   49.03    2.38
 -24   4  -1   49.62    3.56
  24   4   1   50.14    2.65
 -24  -4   1   49.18    2.46
 -24   5   1   -1.74    2.39
 -24  -5  -1    1.46    0.82
  24   5  -1   -0.22    1.24
 -24  -5   1    1.11    0.85
 -24   5  -1   -0.07    1.85
  24   5   1   -0.68    1.13
 -24   6   1    7.69    2.72
 -24  -6  -1   11.80    1.50
  24   6  -1    7.46    1.69
  24   6   1   13.37    1.75
 -24  -6   1    8.71    1.38
 -24   6  -1   12.88    2.84
 -24   7   1    5.44    2.89
 -24  -7  -1    6.12    1.28
 -24  -7   1   10.25    1.41
 -24   7  -1    6.65    3.08
 -24  -8  -1    0.90    1.36
 -24   8   1   -5.00    2.84
 -24   8  -1   -2.77    3.04
 -24   8  -1   -1.59    2.93
 -24  -8   1    0.85    1.32
  24   0  -2   42.08    2.33
 -24   0   2   43.40    2.29
 -24   0  -2   42.61    2.21
  24   1  -2    9.81    1.48
 -24  -1  -2    7.75    1.02
 -24   1   2    7.13    1.18
 -24  -1   2    6.35    0.99
 -24   1  -2    6.75    1.14
  24   1   2    8.12    1.17
  24  -1  -2    6.06    1.02
  24   2  -2   71.12    3.43
 -24   2   2   70.64    3.65
 -24  -2  -2   73.97    3.08
  24   2   2   74.52    3.28
 -24   2  -2   75.10    3.60
 -24  -2   2   73.99    3.20
  24  -2  -2   69.05    3.31
 -24  -3  -2    8.42    1.11
  24   3  -2    7.63    1.37
 -24   3   2    7.03    1.56
 -24  -3   2    8.28    1.06
 -24   3  -2    7.32    1.57
  24  -3  -2   11.10    1.66
  24   3   2    6.98    1.11
  24   4  -2    2.91    1.35
 -24   4   2    5.41    1.71
 -24  -4  -2    3.86    0.84
 -24  -4   2    3.65    0.97
 -24   4  -2    8.19    1.98
  24   4   2    5.51    1.23
 -24  -5  -2   -0.15    0.71
 -24   5   2   -1.96    2.86
  24   5  -2    0.55    1.52
 -24  -5   2    0.72    0.90
  24   5   2   -0.82    1.04
 -24   5  -2   -0.87    1.86
 -24   6   2   -0.35    2.07
 -24  -6  -2    0.44    0.86
  24   6  -2    0.09    1.55
 -24   6  -2   -1.13    2.26
 -24  -6   2   -0.24    0.95
 -24   7   2    9.97    3.13
 -24  -7  -2    7.86    1.46
 -24   7   2    2.07    2.58
  24   7  -2    6.41    1.99
 -24  -7   2    8.17    1.41
 -24   7  -2    5.19    2.84
 -24   8   2   15.03    3.80
 -24  -8  -2   10.63    1.57
 -24  -8   2   10.67    1.66
 -24   8  -2    8.30    3.38
 -24   8  -2   10.40    3.55
 -24   0  -3   -0.50    0.66
  24   0  -3    0.12    0.81
 -24   0   3    0.34    0.81
 -24   1   3    1.02    0.92
 -24  -1  -3    0.69    0.69
  24   1  -3   -1.23    0.82
 -24  -1   3    0.13    0.68
  24  -1  -3   -0.99    0.73
 -24   1  -3   -0.13    0.79
 -24   2   3    8.42    1.31
 -24  -2  -3    8.27    0.94
  24   2  -3    7.94    1.32
  24  -2  -3   12.85    1.59
 -24  -2   3    9.16    1.08
 -24   2  -3    7.22    1.31
  24   3  -3    6.43    1.44
 -24  -3  -3    5.13    0.76
 -24   3   3    4.94    1.40
  24  -3  -3    4.87    1.15
  24   3   3    7.04    1.20
 -24  -3   3    5.15    0.98
 -24   3  -3    4.00    1.50
 -24   4   3   50.19    3.63
 -24  -4  -3   52.14    2.38
  24   4  -3   49.54    3.03
  24   4   3   47.97    2.59
 -24   4  -3   53.22    3.54
 -24  -4   3   52.24    2.61
  24   5  -3    2.07    1.44
 -24  -5  -3    1.44    0.91
 -24   5   3    1.05    1.98
  24   5   3   -1.33    1.06
 -24  -5   3   -0.57    0.97
 -24   5  -3    1.96    2.08
 -24   6   3   10.04    2.64
  24   6  -3   14.82    2.30
 -24  -6  -3   11.70    1.54
 -24  -6   3   13.03    1.58
 -24   6  -3   12.25    2.83
 -24   7   3   23.88    3.52
  24   7  -3   26.65    5.04
 -24  -7  -3   20.27    2.05
 -24   7  -3   22.22    3.56
 -24  -7   3   23.52    2.42
 -24   8   3    2.05    3.30
 -24  -8  -3    4.05    1.35
 -24   8  -3    0.08    3.45
 -24   8  -3    2.17    3.03
 -24  -8   3    4.11    1.47
  24   0  -4    0.25    0.92
 -24   0  -4    2.31    0.80
 -24   0   4    1.92    0.88
  24   1  -4   16.95    1.77
 -24   1   4   19.65    1.79
 -24  -1  -4   19.67    1.45
 -24  -1   4   23.23    1.75
 -24   1  -4   19.00    1.78
  24  -1  -4   19.74    1.78
 -24   2   4    0.02    1.02
 -24  -2  -4    1.21    0.63
  24   2  -4    0.29    1.05
 -24   2  -4    2.67    1.12
  24  -2  -4    1.85    1.09
 -24  -2   4    0.34    0.74
  24   3  -4   45.76    2.65
 -24  -3  -4   36.35    1.90
 -24   3   4   34.25    2.80
 -24   3  -4   39.42    2.72
 -24  -3   4   36.35    2.17
  24  -3  -4   37.90    2.33
  24   4  -4    2.82    1.47
 -24   4   4    4.30    1.84
 -24  -4  -4    3.75    0.79
 -24   4  -4    0.87    1.44
 -24  -4   4    2.79    0.98
  24  -4  -4    2.78    1.23
  24   5  -4   55.45    3.70
 -24  -5  -4   61.86    2.64
 -24   5   4   55.33    4.19
 -24   5  -4   55.59    3.94
 -24  -5   4   57.22    3.00
 -24   6   4   25.09    3.69
  24   6  -4   25.35    3.13
 -24  -6  -4   22.79    1.85
 -24   6  -4   25.88    3.34
 -24  -6   4   21.60    2.14
  24   7  -4    1.96    2.09
 -24  -7  -4    4.83    1.22
 -24   7   4    0.12    2.82
 -24   7  -4    6.93    2.89
 -24  -7   4    5.86    1.63
 -24   8   4   -1.31    3.33
  24   8  -4   -1.08    2.35
 -24  -8  -4   -0.02    1.74
 -24  -8   4   -0.25    1.55
 -24   8  -4    5.68    3.37
 -24   8  -4    2.21    3.10
 -24   0  -5   -0.56    0.85
 -24   0   5   -0.61    0.81
  24   0  -5   -0.91    0.90
 -24  -1  -5   23.22    1.65
 -24   1   5   20.47    1.93
  24   1  -5   26.00    2.05
  24  -1  -5   28.57    2.14
 -24   1  -5   22.89    2.04
 -24  -1   5   24.98    1.85
  24   2  -5  119.50    5.32
 -24  -2  -5  128.88    4.81
 -24   2   5  126.73    5.49
 -24  -2   5  127.32    5.07
  24  -2  -5  122.23    5.16
 -24   2  -5  125.61    5.40
 -24   3   5    1.64    1.55
  24   3  -5   -0.07    1.31
 -24  -3  -5    3.49    0.76
  24  -3  -5    3.70    1.13
 -24   3  -5    2.88    1.38
 -24  -3   5    3.32    0.95
 -24  -4  -5    3.89    0.76
  24   4  -5    4.71    1.76
 -24   4   5    3.39    1.87
 -24  -4   5    3.07    1.04
 -24   4  -5    4.54    1.56
  24  -4  -5    4.09    1.29
  24   5  -5    3.33    1.86
 -24  -5  -5    3.36    0.93
 -24   5   5    0.51    2.15
 -24  -5   5    1.24    1.06
 -24   5  -5    4.09    1.85
  24   6  -5   27.38    3.28
 -24  -6  -5   26.54    1.85
 -24   6   5   23.63    3.26
 -24   6  -5   33.75    3.88
 -24  -6   5   26.42    2.29
 -24   7   5   26.95    4.18
  24   7  -5   17.77    2.80
 -24  -7   5   19.88    2.51
 -24   7  -5   21.54    3.32
 -24   8   5    0.56    3.62
  24   8  -5    7.01    3.10
 -24  -8   5    2.30    1.67
 -24   8  -5    9.33    3.51
 -24   8  -5    1.22    2.91
 -24   0   6  108.38    4.61
  24   0  -6  109.68    4.77
 -24   0  -6  104.98    4.47
 -24   1   6   10.63    1.41
 -24  -1  -6   11.89    1.41
  24   1  -6   13.63    1.80
  24   1   6   11.45    1.07
  24  -1  -6   13.55    1.66
 -24  -1   6   11.42    1.49
 -24   1  -6   12.95    1.51
 -24   2   6    4.02    1.46
  24   2  -6    1.10    1.32
 -24  -2  -6   -0.20    0.63
 -24  -2   6    0.42    0.86
  24  -2  -6   -0.72    0.97
 -24   2  -6    1.11    1.28
 -24   3   6   11.56    1.89
  24   3  -6   11.98    1.90
 -24   3  -6   10.70    1.75
 -24  -3   6   10.42    1.34
  24  -3  -6   13.16    1.80
 -24   4   6    5.18    1.91
 -24  -4  -6    8.20    1.10
  24   4  -6    5.71    1.72
  24  -4  -6    2.99    1.45
 -24  -4   6    5.68    1.18
 -24   4  -6    4.97    1.59
  24   5  -6    0.74    1.76
 -24  -5  -6    1.34    0.80
 -24   5   6    5.99    2.56
  24  -5  -6    3.62    1.38
 -24  -5   6    1.69    1.12
 -24   5  -6    3.27    1.94
 -24   6   6    8.96    2.91
  24   6  -6    7.33    2.32
 -24   6  -6   12.05    2.62
 -24  -6   6   12.36    1.78
  24   7  -6    2.25    2.24
 -24   7   6    1.40    3.02
 -24   7  -6   -0.37    2.96
 -24  -7   6    3.49    1.51
 -24   7  -6    3.69    2.74
  24   8  -6   -3.83    2.54
 -24   8   6    9.23    4.29
 -24   8  -6    3.35    3.37
 -24   8  -6    2.25    3.41
 -24  -8   6    5.36    2.08
  24   0  -7    0.30    1.04
 -24   0  -7    0.88    0.99
 -24   0   7   -0.04    0.96
  24   1  -7    6.11    1.43
 -24  -1  -7    5.69    0.90
 -24   1   7    5.30    1.30
 -24  -1   7    6.45    1.16
  24  -1  -7    4.69    1.29
 -24   1  -7    5.83    1.31
  24   2  -7    9.56    1.87
 -24   2   7    6.75    1.42
 -24  -2  -7    5.94    0.81
 -24  -2   7    5.60    1.21
 -24   2  -7    4.75    1.40
  24  -2  -7    7.57    1.42
  24   3  -7   -0.43    1.35
 -24  -3  -7    0.27    0.59
 -24   3   7   -1.82    1.44
 -24   3  -7   -0.04    1.33
  24  -3  -7   -1.13    1.00
  24   4  -7   17.91    2.34
 -24   4   7   14.94    2.47
 -24  -4   7   23.47    2.03
  24  -4  -7   22.60    2.54
 -24   4  -7   19.93    2.75
  24   5  -7   -0.90    1.80
 -24   5   7    0.09    2.21
  24  -5  -7    0.45    1.18
 -24  -5   7    0.59    1.25
 -24   5  -7    1.48    1.91
  24   6  -7    3.47    2.20
 -24   6   7    4.11    2.75
 -24  -6   7    2.97    1.41
 -24   6  -7    3.23    2.32
  24   7  -7   10.40    2.66
 -24   7   7    8.01    3.32
 -24   7  -7    3.74    3.20
 -24  -7   7    7.12    1.71
 -24   7  -7    8.34    2.82
 -24   0   8    1.88    1.12
 -24   0  -8    2.32    0.89
  24   0  -8    3.46    1.30
 -24  -1  -8   19.32    1.47
 -24   1   8   16.65    2.25
  24  -1  -8   20.82    2.30
 -24  -1   8   20.80    1.99
 -24   1  -8   18.83    2.18
 -24   2   8   32.97    2.75
  24   2  -8   36.55    2.88
  24  -2  -8   33.59    2.44
 -24   2  -8   36.03    2.83
  24   3  -8    0.08    1.53
 -24   3   8   -0.48    1.66
 -24   3  -8   -0.34    1.47
 -24  -3   8    0.50    1.03
 -24   4   8   -0.19    2.00
  24   4  -8    1.00    1.75
  24  -4  -8    1.39    1.09
 -24  -4   8    1.51    1.33
 -24   4  -8    0.30    1.64
  24   5  -8    9.92    2.32
 -24   5   8    6.32    2.64
 -24   5  -8    8.57    2.25
 -24  -5   8    9.51    1.56
  24  -5  -8   16.02    2.17
 -24   6   8   10.57    3.38
  24   6  -8    7.96    2.70
 -24  -6   8    6.80    1.50
 -24   6  -8    4.15    2.59
 -24   7   8    0.51    3.42
  24   7  -8    0.57    2.62
 -24   7  -8    0.96    2.76
 -24   7  -8    3.73    3.38
 -24  -7   8    1.89    1.62
  24   0  -9    0.69    1.28
  24   1  -9   14.68    2.02
  24  -1  -9   12.74    2.04
 -24  -1   9   17.38    2.15
 -24   2   9   14.03    2.05
  24   2  -9   13.20    2.04
 -24   2  -9   15.79    2.18
  24  -2  -9   14.33    2.03
 -24  -2   9   12.55    1.53
  24   3  -9    5.40    1.84
 -24   3   9    4.78    1.93
 -24   3  -9    4.62    1.78
 -24  -3   9    6.40    1.39
  24  -3  -9    3.78    1.39
 -24   4   9    8.08    2.48
  24   4  -9    3.83    2.00
 -24  -4   9    4.13    1.38
 -24   4  -9    3.13    1.82
  24  -4  -9    3.41    1.22
  24   5  -9   28.49    3.84
 -24   5   9   17.11    3.25
  24  -5  -9   21.10    2.18
 -24   5  -9   25.54    2.93
 -24  -5   9   16.84    2.38
 -24   6   9    9.17    3.68
  24   6  -9    8.36    3.08
  24  -6  -9    1.81    1.67
 -24  -6   9    0.46    1.46
 -24   6  -9    1.07    2.34
  24   7  -9   10.61    3.26
 -24   7   9    2.60    3.74
 -24   7  -9    2.41    3.01
 -24   7  -9   -0.39    3.48
 -24  -7   9    3.07    1.90
 -24   0  10   14.26    1.84
  24   0 -10   10.85    1.82
 -24   1  10    3.13    1.53
  24   1 -10    1.29    1.50
 -24  -1  10    4.26    1.37
  24  -1 -10    2.67    1.38
 -24   2  10   -0.28    1.48
  24   2 -10   -1.81    1.48
  24  -2 -10    0.65    1.27
 -24  -2  10   -0.87    1.14
 -24   3  10   39.32    3.60
  24   3 -10   38.18    3.40
  24  -3 -10   41.98    2.79
 -24   3 -10   35.85    3.18
 -24  -3  10   37.51    2.64
  24   4 -10    7.61    2.45
 -24   4  10    3.85    2.54
 -24  -4  10    0.89    1.28
  24  -4 -10    2.72    1.29
 -24   4 -10   -1.87    1.72
 -24   5  10   47.01    4.86
  24   5 -10   48.96    4.38
  24  -5 -10   50.02    3.26
 -24   5 -10   44.94    4.18
 -24  -5  10   49.06    3.18
 -24   6  10    4.98    3.35
  24   6 -10    1.53    2.75
 -24   6 -10   -2.00    2.31
 -24  -6  10    1.41    1.85
  24  -6 -10    1.22    1.48
 -24   0  11   -0.55    1.32
  24   0 -11    1.45    1.76
 -24   1  11   33.03    2.96
  24   1 -11   37.00    3.26
  24  -1 -11   36.72    3.03
 -24  -1  11   33.85    2.73
  24   2 -11   -1.27    1.85
 -24   2  11   -2.51    1.54
  24  -2 -11    2.35    1.67
 -24  -2  11    0.94    1.47
  24   3 -11   24.92    3.57
 -24   3  11   17.81    2.65
  24  -3 -11   15.90    2.13
 -24  -3  11   12.85    1.84
 -24   4  11    8.13    2.79
  24   4 -11    2.55    2.08
 -24  -4  11    7.34    1.69
  24  -4 -11    5.55    1.53
 -24   5  11    9.30    3.28
  24   5 -11   15.80    3.02
  24  -5 -11   13.39    1.91
 -24   5 -11   12.79    3.72
 -24  -5  11   14.58    2.13
 -24   6  11    2.53    3.43
  24   6 -11    2.91    2.88
  24  -6 -11    2.61    1.76
 -24  -6  11    0.56    1.76
 -24   6 -11    0.45    3.11
 -24   6 -11    2.40    2.85
  24   0 -12   -3.39    1.54
 -24   0  12    2.83    1.74
 -24   1  12    2.62    1.68
  24   1 -12    0.82    1.78
  24  -1 -12    1.47    1.57
 -24  -1  12    2.17    1.33
 -24   2  12    2.09    1.89
  24   2 -12    7.17    2.21
  24  -2 -12    7.46    1.61
 -24  -2  12    8.00    1.73
  24   3 -12   23.60    3.51
 -24   3  12   14.19    2.74
  24  -3 -12   23.13    2.78
 -24  -3  12   24.12    2.64
  24   4 -12   -0.52    2.38
 -24   4  12    5.53    2.95
 -24  -4  12    3.23    1.67
  24   5 -12   15.61    3.17
 -24   5  12   15.02    3.75
 -24  -5  12   18.08    2.30
  24  -5 -12   20.01    2.74
  24   0 -13    2.32    1.76
 -24   0  13   -0.13    1.69
 -24   1  13    9.48    2.18
  24   1 -13   10.65    2.33
  24  -1 -13   13.19    1.99
 -24  -1  13   11.26    1.86
  24   2 -13   27.50    3.75
 -24   2  13   19.61    2.72
 -24  -2  13   16.97    2.25
  24  -2 -13   16.57    2.56
 -24   3  13    0.79    2.39
  24   3 -13    1.40    2.56
  24  -3 -13    1.25    1.70
 -24  -3  13    1.89    1.72
  24   4 -13    0.98    2.52
 -24   4  13    0.22    3.10
  24  -4 -13    3.98    1.72
 -24  -4  13   -2.19    1.69
  24   0 -14    0.10    1.87
 -24   0  14   -1.97    1.77
 -24   1  14    0.09    1.87
  24   1 -14   -1.40    2.16
  24  -1 -14    1.27    1.89
 -24  -1  14    5.49    2.02
 -24   2  14   19.62    2.87
  24   2 -14   23.32    3.26
  24  -2 -14   14.67    2.16
 -24  -2  14   18.74    2.35
  24   3 -14   -3.21    2.48
 -24   3  14    0.41    2.43
  24  -3 -14    0.06    1.73
 -24  -3  14    0.39    1.67
 -24   0  15    2.20    1.88
  24   0 -15    0.47    2.02
  24   1 -15   14.77    2.84
 -24   1  15   16.16    2.70
  24  -1 -15   16.52    2.76
 -24  -1  15   15.31    2.30
  25   0   0    0.41    0.84
 -25   0   0    0.03    0.76
 -25   1   0   54.47    2.90
  25  -1   0   52.55    2.76
  25   1   0   51.17    2.74
 -25  -1   0   55.62    2.59
 -25  -2   0   -0.55    0.68
 -25   2   0    0.92    1.09
  25   2   0   -0.55    0.85
 -25   3   0   75.77    4.04
 -25  -3   0   76.00    3.19
  25   3   0   67.80    3.44
  25   4   0   -1.17    1.14
 -25  -4   0    0.28    0.85
 -25   4   0   -2.57    1.42
 -25   5   0   21.11    4.48
  25   5   0   19.48    2.25
 -25  -5   0   16.25    1.60
 -25   6   0   -0.64    2.16
  25   6   0   -0.28    1.61
 -25  -6   0   -0.19    1.00
 -25  -7   0    9.10    1.49
 -25   7   0    6.16    3.01
 -25   8   0   -4.76    3.15
 -25  -8   0    0.90    1.35
 -25   0  -1    0.54    0.83
  25   0  -1   -0.47    0.83
 -25   0   1    1.14    0.80
  25   0   1   -1.10    0.85
  25   1  -1  150.96    5.86
 -25   1   1  144.21    5.94
 -25  -1  -1  143.60    5.67
 -25   1  -1  150.01    5.97
  25   1   1  142.46    5.76
  25  -1  -1  147.39    5.85
 -25  -1   1  152.26    5.76
 -25   2   1    2.34    1.14
 -25  -2  -1    2.36    0.77
  25   2  -1    3.30    1.15
  25  -2  -1    1.78    0.99
 -25   2  -1    2.28    1.26
 -25  -2   1    2.88    0.88
  25   2   1    4.48    1.16
  25   3  -1   26.95    2.33
 -25   3   1   23.73    2.44
 -25  -3  -1   25.57    1.59
 -25   3  -1   21.12    2.55
 -25  -3   1   23.77    1.64
  25   3   1   22.03    1.92
 -25   4   1    6.25    1.79
 -25  -4  -1    5.33    0.93
  25   4  -1    5.62    1.42
 -25   4  -1    5.19    1.83
 -25  -4   1    6.81    1.04
  25   4   1    5.26    1.20
 -25  -5  -1    1.95    0.95
 -25   5   1   -1.24    1.85
  25   5  -1    1.84    1.34
 -25  -5   1    1.46    0.86
  25   5   1    1.49    1.17
 -25   6   1    8.64    2.80
 -25  -6  -1    9.63    1.41
  25   6  -1   10.40    1.94
  25   6   1    7.81    1.81
 -25   6  -1   14.45    2.84
 -25  -6   1    8.30    1.54
 -25   7   1   34.70    4.75
 -25  -7  -1   32.18    2.38
 -25  -7   1   36.63    2.68
 -25   7  -1   42.89    5.15
 -25   8   1   -1.76    3.28
 -25  -8  -1   -1.03    1.27
 -25  -8   1    1.47    1.36
 -25   8  -1    0.53    3.04
 -25   8  -1    5.08    3.37
  25   0  -2    3.52    1.01
 -25   0   2    3.61    0.91
 -25   0  -2    6.09    0.97
 -25   1   2    2.93    1.00
 -25  -1  -2    4.30    0.77
  25   1  -2    4.78    1.11
  25   1   2    4.49    1.17
 -25   1  -2    4.08    1.09
  25  -1  -2    5.09    1.04
 -25  -1   2    4.03    0.95
  25   2  -2   59.84    3.09
 -25   2   2   60.66    3.27
 -25  -2  -2   60.08    2.64
  25   2   2   59.54    2.89
  25  -2  -2   62.07    2.98
 -25   2  -2   54.14    3.19
 -25  -2   2   56.91    2.73
  25   3  -2   36.73    2.61
 -25  -3  -2   40.25    2.02
 -25   3   2   40.87    3.12
 -25  -3   2   36.91    2.13
  25   3   2   41.21    2.28
 -25   3  -2   33.92    2.78
 -25   4   2   -0.08    1.47
  25   4  -2   -0.61    1.18
 -25  -4  -2    1.28    0.74
  25   4   2    1.73    1.04
 -25  -4   2    1.88    0.91
 -25   4  -2    4.65    2.08
 -25   5   2    5.08    2.31
  25   5  -2    1.86    1.54
 -25  -5  -2    2.72    0.86
 -25  -5   2    1.97    1.01
  25   5   2    4.57    1.25
 -25   5  -2    1.57    1.96
 -25  -6  -2    1.36    1.05
  25   6  -2   -0.08    1.79
 -25   6   2    2.81    2.23
 -25  -6   2    1.60    1.11
 -25   6  -2   -1.97    2.16
 -25  -7  -2    1.84    1.88
 -25   7   2   -0.89    2.76
  25   7  -2    4.83    2.24
 -25   7  -2   -1.97    2.51
 -25  -7   2    1.86    1.23
 -25  -8  -2    3.18    1.39
 -25   8   2   10.89    4.17
 -25  -8   2    2.79    1.41
 -25   8  -2    4.13    3.29
 -25   8  -2    0.09    3.35
 -25   0   3   -0.50    0.74
 -25   0  -3    1.06    0.71
  25   0  -3    0.28    0.94
  25   1  -3   67.30    3.29
 -25  -1  -3   65.34    2.93
 -25   1   3   68.16    3.37
 -25   1  -3   67.57    3.23
  25  -1  -3   64.51    3.16
 -25  -1   3   68.59    3.11
  25   2  -3    2.54    1.16
 -25   2   3    4.43    1.28
 -25  -2  -3    2.99    0.75
 -25  -2   3    2.75    0.87
  25  -2  -3    3.82    1.15
 -25   2  -3    2.63    1.20
 -25  -3  -3   45.53    2.15
  25   3  -3   46.67    2.85
 -25   3   3   43.46    3.02
 -25   3  -3   43.80    3.09
  25   3   3   36.08    2.44
 -25  -3   3   46.32    2.40
  25  -3  -3   42.74    2.60
  25   4  -3   33.68    2.71
 -25  -4  -3   32.46    1.86
 -25   4   3   26.46    3.09
 -25   4  -3   33.25    3.02
  25   4   3   30.92    2.19
 -25  -4   3   32.93    2.04
 -25   5   3    5.87    2.06
  25   5  -3    6.22    1.63
 -25  -5  -3    5.39    0.96
 -25   5  -3    7.29    2.31
 -25   6   3   -0.06    2.28
 -25  -6  -3   -0.40    0.88
  25   6  -3    0.52    1.67
 -25   6  -3    1.26    2.35
 -25  -6   3    1.60    1.19
 -25   7   3   31.00    4.00
  25   7  -3   26.53    3.21
 -25  -7  -3   27.48    2.16
 -25  -7   3   29.65    2.55
 -25   7  -3   29.63    3.85
 -25  -8  -3    3.22    1.43
 -25   8   3   -2.72    3.43
 -25   8  -3    3.30    3.62
 -25  -8   3   -0.26    1.42
 -25   8  -3    1.51    3.33
  25   0  -4   12.21    1.76
 -25   0   4    9.67    1.34
 -25   0  -4    9.61    1.30
 -25  -1  -4    2.82    0.76
  25   1  -4    2.59    1.04
 -25   1   4    1.82    1.02
 -25   1  -4    2.84    0.98
 -25  -1   4    2.44    0.99
  25  -1  -4    4.97    1.14
 -25  -2  -4    1.00    0.73
  25   2  -4    2.03    1.28
 -25   2   4   -1.58    1.00
 -25  -2   4   -0.52    0.76
  25  -2  -4    0.28    0.95
 -25   2  -4    0.90    1.07
  25   3  -4   50.39    3.00
 -25   3   4   48.56    3.22
 -25  -3  -4   48.35    2.29
  25  -3  -4   45.59    2.67
 -25  -3   4   51.39    2.62
 -25   3  -4   45.39    3.27
 -25  -4  -4    1.07    0.67
  25   4  -4    2.61    1.50
 -25   4   4    1.31    1.90
 -25   4  -4   -1.37    1.43
 -25  -4   4    0.04    0.95
 -25  -5  -4   13.89    1.44
 -25   5   4    8.09    2.30
  25   5  -4   11.81    2.14
 -25   5  -4   15.44    2.43
 -25  -5   4   10.13    1.39
 -25  -6  -4    1.37    0.92
  25   6  -4    1.49    2.00
 -25   6   4    5.50    2.65
 -25  -6   4    3.05    1.43
 -25   6  -4    1.84    2.31
 -25  -7  -4    2.13    1.17
  25   7  -4   -2.08    2.16
 -25   7   4   -3.20    2.90
 -25   7  -4    1.07    2.76
 -25  -7   4   -0.50    1.33
  25   8  -4   11.23    2.87
 -25   8   4    6.10    3.77
 -25  -8   4   14.16    2.07
 -25   8  -4    6.33    3.42
 -25   8  -4    8.83    3.65
 -25   0  -5    0.32    0.96
 -25   0   5   -0.28    0.94
  25   0  -5    0.27    1.03
 -25   1   5    1.30    1.02
  25   1  -5    1.81    1.09
 -25  -1  -5    0.35    0.76
 -25  -1   5    0.75    0.89
 -25   1  -5    0.93    1.06
  25  -1  -5    0.05    1.01
  25   2  -5   -0.81    1.10
 -25   2   5   -1.26    1.10
 -25  -2  -5    0.66    0.80
  25  -2  -5    0.06    0.88
 -25   2  -5   -0.62    1.02
 -25  -2   5   -1.50    0.69
 -25  -3  -5   31.34    1.77
 -25   3   5   35.79    3.09
  25   3  -5   37.53    2.83
 -25  -3   5   36.99    2.27
 -25   3  -5   36.71    3.03
  25  -3  -5   34.64    2.34
 -25   4   5    5.75    1.93
 -25  -4  -5   11.84    1.18
 -25   4  -5   11.70    2.02
  25  -4  -5   11.05    1.96
 -25  -5  -5    9.67    1.35
  25   5  -5   16.04    2.29
 -25   5   5   10.76    2.55
 -25  -5   5   10.38    1.49
 -25   5  -5   12.11    2.27
 -25  -6  -5    2.57    1.10
  25   6  -5    1.56    2.23
 -25   6   5    1.41    2.53
 -25   6  -5    0.55    2.02
 -25  -6   5    1.69    1.31
 -25   7   5   11.85    3.46
  25   7  -5    8.91    2.79
 -25  -7   5    8.46    1.74
 -25   7  -5    9.31    2.89
 -25   8   5    7.40    3.89
  25   8  -5    2.19    2.74
 -25   8  -5    1.02    3.03
 -25  -8   5    4.71    1.82
 -25   8  -5    5.70    3.56
  25   0  -6   95.10    4.35
 -25   0  -6   96.39    4.09
 -25   0   6   94.82    4.25
  25   1  -6    0.12    1.03
 -25   1   6    2.45    1.11
 -25   1  -6    2.99    1.18
 -25  -1   6    3.40    1.06
  25  -1  -6    2.77    1.21
  25   2  -6    0.85    1.22
 -25   2   6    2.70    1.37
  25  -2  -6    0.13    1.10
 -25   2  -6   -0.39    1.15
 -25  -2   6    0.37    0.85
 -25  -3  -6    8.23    1.01
 -25   3   6    6.62    1.85
 -25  -3   6    7.45    1.21
 -25   3  -6    8.91    1.78
  25  -3  -6    8.12    1.44
 -25  -4  -6    5.76    0.95
 -25   4   6    7.29    2.18
  25   4  -6    8.93    2.00
 -25   4  -6    4.55    1.81
  25  -4  -6    5.75    1.34
 -25  -4   6    7.81    1.42
  25   5  -6   19.97    3.04
 -25   5   6   31.96    3.85
 -25  -5   6   28.83    2.30
  25  -5  -6   27.93    2.49
 -25   5  -6   20.54    2.76
 -25   6   6   -4.65    2.64
  25   6  -6    0.04    1.96
 -25   6  -6    1.67    2.51
 -25  -6   6   -1.84    1.23
 -25   7   6   -1.79    2.93
  25   7  -6   -1.89    2.30
 -25   7  -6   -2.28    2.95
 -25   8   6    6.33    3.97
 -25   8  -6    0.13    2.99
 -25   0   7    0.02    0.98
  25   0  -7    1.96    1.23
 -25   0  -7   -0.18    1.23
 -25   1   7    2.88    1.28
 -25  -1  -7    3.64    0.94
  25   1  -7    5.33    1.54
 -25   1  -7    3.94    1.18
  25  -1  -7    4.12    1.34
 -25  -1   7    5.10    1.19
 -25   2   7    4.09    1.40
 -25  -2  -7    2.39    0.70
  25   2  -7    0.40    1.29
  25  -2  -7    1.57    1.25
 -25  -2   7    1.30    0.99
 -25   2  -7    2.20    1.31
  25   3  -7   10.24    1.74
 -25   3   7    4.32    1.61
 -25   3  -7    8.82    1.81
 -25  -3   7    8.19    1.31
 -25   4   7   11.89    2.42
  25   4  -7    9.90    2.04
 -25  -4   7    8.98    1.47
  25  -4  -7   13.23    1.78
 -25   4  -7    9.41    1.99
  25   5  -7    1.70    1.94
 -25   5   7    1.81    2.22
 -25  -5   7    1.92    1.28
  25  -5  -7    4.20    1.34
 -25   5  -7    3.45    2.28
 -25   6   7    3.63    2.96
  25   6  -7   -0.77    2.29
 -25  -6   7    0.74    1.39
 -25   6  -7    2.46    2.62
  25   7  -7   15.06    2.94
 -25   7   7   20.43    3.96
 -25   7  -7   14.47    3.10
 -25   7  -7   13.94    3.63
 -25  -7   7   14.85    2.13
  25   0  -8   80.05    4.43
 -25   0   8   88.05    4.11
 -25   0  -8   88.96    3.74
  25   1  -8    1.67    1.28
 -25   1   8   -0.38    1.40
 -25   1  -8    0.75    1.20
  25   2  -8    2.93    1.60
 -25   2   8    2.65    1.56
 -25   2  -8    1.10    1.33
  25  -2  -8   -0.07    1.47
 -25  -2   8    0.55    0.98
 -25   3   8   14.32    2.26
  25   3  -8   14.50    2.15
 -25  -3   8   13.72    1.91
 -25   3  -8   16.09    2.10
  25  -3  -8   18.87    2.26
  25   4  -8    4.69    2.06
 -25   4   8    9.24    2.44
  25  -4  -8    6.00    1.33
 -25   4  -8    5.64    1.99
 -25  -4   8    6.41    1.44
  25   5  -8   10.11    2.34
 -25   5   8   11.04    2.75
 -25  -5   8   12.32    1.76
 -25   5  -8   12.11    2.84
  25  -5  -8   12.25    1.77
 -25   6   8    9.23    3.64
  25   6  -8   -2.39    2.27
 -25   6  -8    2.28    2.37
 -25  -6   8   -0.37    1.35
  25   7  -8   -1.98    2.53
 -25   7   8    1.49    3.64
 -25   7  -8    2.43    2.96
 -25   7  -8   -5.01    3.22
 -25  -7   8    1.22    1.87
 -25   0   9   -0.63    1.16
  25   0  -9    1.70    1.43
 -25   1   9   18.75    2.40
  25   1  -9   20.10    2.70
 -25  -1   9   20.07    2.18
 -25   1  -9   18.37    1.96
  25  -1  -9   21.76    2.57
  25   2  -9   -0.55    1.45
 -25   2   9   -1.63    1.46
  25  -2  -9    1.53    1.33
 -25   2  -9   -0.45    1.44
 -25  -2   9   -0.39    1.06
 -25   3   9   -0.43    1.80
  25   3  -9   -1.55    1.62
 -25   3  -9   -0.52    1.63
 -25  -3   9   -0.52    1.15
  25  -3  -9    0.68    1.20
 -25   4   9    7.99    2.63
  25   4  -9   -2.20    1.87
 -25   4  -9    0.16    1.86
  25  -4  -9    2.06    1.30
 -25  -4   9   -1.01    1.21
 -25   5   9   -0.64    2.63
  25   5  -9    1.61    2.48
 -25   5  -9    4.20    2.78
  25  -5  -9    1.26    1.26
 -25  -5   9    1.94    1.42
 -25   6   9   11.48    3.44
  25   6  -9    9.54    2.90
  25  -6  -9    7.13    2.05
 -25   6  -9    6.39    2.60
 -25  -6   9   11.78    2.01
 -25   7   9    0.42    3.70
 -25   7  -9   -3.66    2.79
  25   0 -10    3.13    1.56
 -25   0  10    5.25    1.51
  25   1 -10    0.97    1.56
 -25   1  10    1.18    1.46
 -25  -1  10    0.19    1.28
  25  -1 -10    0.15    1.32
  25   2 -10   14.39    2.16
 -25   2  10   13.80    2.11
 -25  -2  10   19.11    2.34
  25  -2 -10   12.94    1.74
 -25   3  10    3.74    2.08
  25   3 -10    3.85    2.02
  25  -3 -10    5.47    1.66
 -25   3 -10    3.19    1.96
 -25  -3  10    4.16    1.35
 -25   4  10    0.94    2.56
  25   4 -10   -2.65    2.07
  25  -4 -10    2.44    1.32
 -25   4 -10   -3.12    1.86
 -25  -4  10    1.08    1.39
 -25   5  10   -2.82    2.71
  25  -5 -10   -0.47    1.56
 -25  -5  10    3.17    1.54
 -25   6  10    0.42    3.13
  25   6 -10    6.11    3.05
 -25   6 -10   -1.32    2.48
 -25  -6  10    2.30    1.74
  25  -6 -10    3.46    1.79
  25   0 -11    0.39    1.68
 -25   0  11    0.56    1.61
  25   1 -11   -1.12    1.56
 -25   1  11   -2.97    1.40
 -25  -1  11   -1.08    1.25
  25  -1 -11    0.72    1.52
  25   2 -11   11.34    2.26
 -25   2  11   14.89    2.39
 -25  -2  11   13.46    1.81
  25  -2 -11   16.92    2.34
  25   3 -11   -2.24    1.92
 -25   3  11    0.02    2.19
  25  -3 -11    0.13    1.41
 -25  -3  11    2.43    1.59
 -25   4  11    5.18    2.78
  25   4 -11    4.82    2.44
  25  -4 -11    0.61    1.58
 -25  -4  11    5.28    1.74
  25   5 -11   10.71    3.05
 -25   5  11   -0.85    3.09
  25  -5 -11    0.45    1.57
 -25  -5  11    0.05    1.56
  25   0 -12    3.05    2.15
 -25   0  12    1.19    1.68
 -25   1  12   -0.81    1.72
  25   1 -12    2.68    1.98
  25  -1 -12    2.71    1.75
 -25  -1  12    4.15    1.55
  25   2 -12   11.25    2.48
 -25   2  12   13.78    2.32
 -25  -2  12   14.20    2.02
  25  -2 -12   15.38    2.34
  25   3 -12    1.93    2.09
 -25   3  12    0.99    2.13
 -25  -3  12    2.76    1.56
  25  -3 -12    1.77    1.44
 -25   4  12    4.10    3.05
  25   4 -12    5.41    2.70
  25  -4 -12   -0.35    1.61
 -25   5  12   -0.40    3.03
  25   5 -12    3.59    2.66
 -25  -5  12   -1.80    1.79
  25  -5 -12    0.58    1.64
  25   0 -13   -0.35    1.75
 -25   0  13    1.49    1.78
 -25   1  13   21.02    2.61
  25   1 -13   29.02    3.48
  25  -1 -13   18.82    2.83
 -25  -1  13   25.61    2.90
  25   2 -13   -3.23    2.13
 -25   2  13    4.80    2.42
 -25  -2  13   -0.17    1.62
  25  -2 -13    0.20    1.53
 -25   3  13   -1.00    2.39
  25   3 -13    7.34    2.99
 -25  -3  13   -1.05    1.48
  25  -3 -13    1.26    1.95
 -25   4  13    4.51    3.28
  25   4 -13    0.54    2.51
  25  -4 -13    0.23    1.64
 -25  -4  13   -2.34    1.66
  25   0 -14   -0.78    1.88
 -25   0  14   -0.53    1.86
  25   1 -14   -1.73    2.07
 -25   1  14   -0.33    1.85
 -25  -1  14   -0.78    1.78
  25  -1 -14    0.52    1.86
 -25   2  14    7.77    2.59
  25   2 -14    3.13    2.65
 -25  -2  14   12.54    2.26
  25  -2 -14    6.47    1.94
 -25   3  14    1.09    2.52
  25   3 -14    8.35    3.28
  25  -3 -14    1.55    1.80
 -25  -3  14    2.96    1.90
 -25   0  15    0.73    1.90
  25   0 -15   -1.32    2.10
  26   0   0   29.59    2.06
 -26   0   0   32.14    2.03
  26   1   0   -1.43    0.90
 -26   1   0    0.26    0.89
  26  -1   0   -0.84    0.95
 -26  -1   0   -1.29    0.66
  26   2   0  155.17    5.86
 -26   2   0  138.09    6.08
 -26  -2   0  140.54    5.60
  26   3   0    0.15    1.02
 -26  -3   0   -0.18    0.78
 -26   3   0    2.17    1.65
  26   4   0    1.74    1.23
 -26   4   0   -0.35    1.69
 -26  -4   0    1.56    0.81
 -26   5   0    2.82    2.21
  26   5   0   -1.87    1.26
 -26  -5   0    0.05    0.84
 -26   6   0    0.42    2.22
  26   6   0   -1.82    1.57
 -26  -7   0    0.41    1.18
 -26   7   0   -3.99    2.64
 -26   8   0   -5.53    3.25
 -26  -8   0    0.53    1.51
  26   0   1   -1.28    0.90
  26   0  -1   -0.68    0.88
 -26   0   1    0.97    0.96
 -26   0  -1    0.03    0.89
 -26  -1  -1   23.75    1.69
  26   1  -1   22.07    1.81
 -26   1   1   24.03    2.02
  26  -1  -1   20.47    1.80
 -26   1  -1   25.63    2.05
 -26  -1   1   23.44    1.70
  26   1   1   27.60    1.94
  26   2  -1   34.10    2.36
 -26   2   1   24.80    2.29
 -26  -2  -1   25.59    1.75
  26  -2  -1   28.02    2.10
 -26   2  -1   29.26    2.58
  26   2   1   29.43    2.12
 -26  -2   1   25.70    1.84
 -26   3   1   28.67    2.76
 -26  -3  -1   31.23    1.82
  26   3  -1   30.89    2.33
 -26   3  -1   33.07    2.80
 -26  -3   1   32.04    1.93
  26   3   1   30.98    2.20
  26   4  -1    0.67    1.32
 -26   4   1    0.05    1.80
 -26  -4  -1   -0.21    0.72
  26   4   1    0.01    1.19
 -26  -4   1   -0.18    0.83
 -26   4  -1   -0.12    1.72
  26   5  -1   -0.43    1.38
 -26   5   1   -0.25    1.94
 -26  -5  -1    1.67    0.89
 -26   5  -1   -0.19    2.03
  26   5   1    0.60    1.21
 -26  -5   1    0.72    0.96
  26   6  -1   50.33    3.30
 -26   6   1   50.88    4.59
 -26  -6  -1   45.34    2.58
 -26   6  -1   40.40    4.34
 -26  -6   1   47.09    2.63
 -26   7   1   13.92    3.34
 -26  -7  -1    5.91    1.33
 -26   7  -1   11.57    3.49
 -26  -7   1    6.13    1.36
 -26  -8  -1    6.89    1.60
 -26   8   1    2.99    3.71
 -26   8  -1   14.54    4.20
 -26  -8   1    7.53    1.75
 -26   8  -1   14.95    4.10
  26   0  -2   57.55    2.91
 -26   0   2   57.43    2.87
 -26   0  -2   58.06    2.84
 -26  -1  -2    3.90    0.84
 -26   1   2    2.72    1.11
  26   1  -2    3.86    1.16
  26  -1  -2    3.87    1.02
  26   1   2    2.14    1.13
 -26  -1   2    3.90    0.97
 -26   1  -2    3.90    1.08
 -26  -2  -2   38.53    2.00
  26   2  -2   35.94    2.55
 -26   2   2   37.12    2.71
 -26   2  -2   34.53    2.51
  26   2   2   35.84    2.29
 -26  -2   2   40.36    2.22
  26  -2  -2   43.96    2.49
  26   3  -2   22.10    2.11
 -26   3   2   25.32    2.78
 -26  -3  -2   24.00    1.51
 -26  -3   2   22.10    1.72
 -26   3  -2   21.32    2.61
  26   3   2   22.48    1.90
  26   4  -2    0.92    1.37
 -26  -4  -2   -1.33    0.76
 -26   4   2    0.05    1.58
 -26  -4   2   -0.58    0.78
 -26   4  -2    0.81    1.79
  26   4   2   -0.65    1.03
 -26   5   2   11.32    2.45
  26   5  -2   10.96    1.75
 -26  -5  -2   11.30    1.39
 -26   5  -2   11.39    2.58
  26   5   2   15.78    2.10
 -26  -5   2   12.70    1.69
  26   6  -2   30.79    3.02
 -26   6   2   33.43    4.09
 -26  -6  -2   32.00    2.14
 -26  -6   2   35.36    2.31
 -26   6  -2   29.17    3.56
  26   7  -2   -2.35    1.95
 -26  -7  -2    0.36    1.22
 -26   7   2   -1.04    2.65
 -26   7  -2   -1.88    2.72
 -26  -7   2    0.64    1.19
 -26   8   2    5.67    3.77
 -26  -8  -2    1.67    1.46
 -26   8  -2   -2.65    3.39
 -26   8  -2    6.09    3.74
 -26  -8   2    3.59    1.61
 -26   0  -3    0.43    0.73
 -26   0   3   -0.07    0.90
  26   0  -3    0.59    1.05
  26   1  -3   19.55    2.10
 -26  -1  -3   19.93    1.48
 -26   1   3   18.36    1.93
 -26  -1   3   13.55    1.52
  26  -1  -3   18.20    1.81
 -26   1  -3   17.51    1.71
 -26   2   3    9.30    1.60
 -26  -2  -3   10.67    1.17
  26   2  -3   10.20    1.56
 -26   2  -3   11.59    1.56
  26  -2  -3    9.75    1.51
 -26  -2   3   12.40    1.58
 -26   3   3    2.52    1.50
  26   3  -3    2.93    1.37
 -26  -3  -3    3.61    0.83
 -26  -3   3    2.62    1.01
  26  -3  -3    4.12    1.19
 -26   3  -3    4.69    1.61
 -26  -4  -3    3.47    0.86
  26   4  -3    3.48    1.67
 -26   4  -3    3.52    1.74
 -26  -4   3    2.84    1.12
  26   4   3    2.95    1.23
 -26   5   3    4.08    2.07
 -26  -5  -3    2.43    0.99
  26   5  -3    1.77    1.57
 -26  -5   3    1.97    1.13
 -26  -6  -3    1.77    1.04
  26   6  -3    3.20    3.42
 -26   6   3    2.51    2.45
 -26  -6   3    2.15    1.28
 -26   6  -3    6.69    2.85
  26   7  -3    6.00    2.15
 -26  -7  -3    4.80    1.66
 -26   7   3    1.10    3.01
 -26   7  -3    8.61    3.55
 -26  -7   3    5.20    1.39
 -26   8   3   -3.10    3.40
 -26  -8  -3   -2.53    1.37
 -26   8  -3    3.59    3.65
 -26  -8   3    1.34    1.53
 -26   8  -3   16.25    4.55
 -26   0  -4   19.18    1.65
 -26   0   4   21.21    1.87
  26   0  -4   22.09    2.10
  26   1  -4   12.42    1.85
 -26   1   4   10.38    1.43
 -26  -1  -4   11.70    1.31
  26  -1  -4    9.27    1.34
 -26  -1   4   12.32    1.35
 -26   1  -4   11.68    1.41
 -26   2   4   -0.56    1.06
 -26  -2  -4    0.14    0.68
  26   2  -4   -0.10    1.24
  26  -2  -4   -0.21    1.02
 -26  -2   4    0.53    0.81
 -26   2  -4    0.04    1.11
  26   3  -4    3.39    1.42
 -26  -3  -4    3.56    0.89
 -26   3   4    2.40    1.54
  26  -3  -4    1.52    1.02
 -26   3  -4    3.75    1.69
 -26  -3   4    2.78    0.99
  26   4  -4    4.26    1.53
 -26   4   4    5.10    1.89
 -26  -4  -4    3.79    0.89
 -26  -4   4    4.26    1.25
 -26   4  -4    3.08    1.69
  26  -4  -4    5.09    1.39
 -26   5   4    0.00    2.08
 -26  -5  -4    0.33    0.85
  26   5  -4   -0.02    1.58
 -26  -5   4    1.39    1.19
 -26   6   4    7.03    2.60
 -26  -6  -4    6.03    1.08
  26   6  -4    9.13    2.37
 -26   6  -4    1.43    2.27
 -26  -6   4    5.59    1.40
 -26  -7  -4    1.30    1.30
 -26   7   4    2.94    3.33
  26   7  -4    2.66    2.48
 -26   7  -4   -1.53    2.92
 -26  -7   4   -0.51    1.34
 -26   8   4    6.16    3.86
 -26   8  -4   12.77    4.20
 -26   8  -4    6.04    3.67
 -26   0  -5   -0.24    0.97
  26   0  -5   -1.13    0.93
 -26   0   5    1.98    1.09
  26   1  -5   37.51    2.54
 -26  -1  -5   36.65    2.09
 -26   1   5   41.83    2.58
 -26  -1   5   38.20    2.33
  26  -1  -5   37.45    2.51
 -26   1  -5   36.19    2.47
 -26  -2  -5    7.75    0.95
 -26   2   5    7.04    1.58
  26   2  -5    6.33    1.36
  26  -2  -5    7.24    1.29
 -26   2  -5    6.91    1.47
 -26  -2   5    7.50    1.20
 -26  -3  -5    9.21    1.23
 -26   3   5   10.00    1.95
  26   3  -5   10.47    1.70
  26  -3  -5    9.09    1.90
 -26  -3   5    9.61    1.31
 -26   3  -5   12.45    1.98
  26   4  -5   27.81    2.94
 -26   4   5   23.14    3.09
 -26  -4  -5   30.96    1.76
 -26  -4   5   27.84    2.17
  26  -4  -5   27.99    2.36
 -26   4  -5   28.28    3.30
 -26   5   5    7.75    2.70
  26   5  -5    2.17    1.78
 -26  -5  -5    4.94    1.02
 -26  -5   5    3.49    1.26
 -26   6   5   -2.73    2.54
  26   6  -5   -3.24    1.84
 -26  -6   5   -0.42    1.18
 -26   6  -5   -1.83    2.13
  26   7  -5    1.25    2.35
 -26   7   5    0.00    2.90
 -26  -7   5    8.83    1.82
 -26   7  -5    4.15    2.79
  26   8  -5   -3.07    2.76
 -26   8   5    7.87    4.33
 -26   8  -5    1.94    4.08
 -26   8  -5    1.88    3.41
 -26  -8   5   -2.45    1.59
  26   0  -6   73.09    3.72
 -26   0  -6   73.20    3.42
 -26   0   6   76.56    3.66
  26   1  -6    1.24    1.21
 -26  -1  -6   -0.12    0.92
 -26   1   6   -0.06    1.05
  26  -1  -6   -0.31    1.18
 -26   1  -6   -0.90    1.16
 -26  -1   6   -0.34    0.96
 -26  -2  -6    5.44    1.03
 -26   2   6    6.62    1.63
 -26  -2   6    5.99    1.14
  26  -2  -6    8.62    1.58
 -26   2  -6    6.71    1.52
  26   3  -6    7.36    1.67
 -26   3   6    5.64    1.80
 -26  -3  -6    7.27    0.98
 -26  -3   6    6.65    1.36
 -26   3  -6    9.36    1.97
  26  -3  -6    5.99    1.41
 -26  -4  -6    0.35    0.84
  26   4  -6    1.56    1.65
 -26   4   6   -3.12    1.92
 -26   4  -6   -1.20    1.78
 -26  -4   6   -1.19    1.14
  26  -4  -6   -1.12    1.13
  26   5  -6   20.47    2.77
 -26   5   6   25.98    3.21
  26  -5  -6   18.11    2.54
 -26  -5   6   23.05    2.26
 -26   6   6   12.47    3.20
 -26   6  -6   16.39    3.36
 -26  -6   6   13.13    1.76
 -26   7   6   -1.32    3.09
  26   7  -6    6.07    2.96
 -26  -7   6    3.74    1.87
 -26   7  -6   -4.19    2.71
 -26   0  -7    1.19    1.20
 -26   0   7    1.20    1.19
  26   1  -7    9.15    1.55
 -26   1   7    8.97    1.54
 -26  -1  -7    9.31    1.29
 -26  -1   7    8.40    1.37
 -26   1  -7   10.31    1.50
 -26   2   7    4.45    3.02
 -26  -2  -7    0.50    0.75
  26   2  -7    1.12    1.42
  26  -2  -7    0.86    1.44
 -26   2  -7    2.12    1.45
 -26  -2   7    0.04    1.09
 -26   3   7    0.75    1.58
  26   3  -7    3.01    1.68
  26  -3  -7    3.12    1.26
 -26   3  -7    4.13    1.80
 -26  -3   7    3.19    1.24
  26   4  -7   29.29    3.22
 -26   4   7   27.25    3.62
 -26  -4   7   25.40    2.30
 -26   4  -7   25.06    3.48
  26  -4  -7   27.17    2.32
 -26   5   7   -2.56    2.22
  26   5  -7   -1.19    2.03
  26  -5  -7    0.92    1.27
 -26  -5   7   -0.15    1.26
 -26   6   7    3.94    3.23
  26   6  -7    0.30    2.09
 -26  -6   7   -0.15    1.30
 -26   6  -7    2.46    2.31
  26   7  -7   10.49    2.84
 -26   7   7   11.97    3.67
 -26  -7   7   12.60    2.10
 -26   7  -7   12.32    3.08
 -26   0   8    6.00    1.40
 -26   0  -8    4.74    2.03
  26   0  -8    3.78    1.39
  26   1  -8   26.33    2.71
 -26   1   8   25.00    2.41
  26  -1  -8   20.06    2.37
 -26   1  -8   23.59    2.31
 -26  -1   8   20.50    2.13
  26   2  -8   -0.14    1.50
 -26   2   8    2.17    1.45
 -26  -2   8    2.12    1.21
 -26   2  -8    0.85    1.42
  26  -2  -8    5.30    1.48
  26   3  -8   26.60    2.91
 -26   3   8   22.34    3.08
  26  -3  -8   25.19    2.46
 -26  -3   8   25.85    2.18
 -26   3  -8   21.53    2.80
  26   4  -8    0.26    1.78
 -26   4   8    4.25    2.41
 -26  -4   8   -0.85    1.09
 -26   4  -8   -0.08    1.92
  26  -4  -8   -0.38    1.19
 -26   5   8   24.47    3.40
  26   5  -8   32.02    3.65
  26  -5  -8   25.81    2.67
 -26  -5   8   29.32    2.41
 -26   6   8    6.88    3.63
  26   6  -8   -1.81    2.34
 -26  -6   8    2.75    1.74
 -26   6  -8   -1.12    2.43
 -26   7   8   -4.28    3.43
  26   7  -8    1.66    2.72
 -26  -7   8   -1.46    1.65
 -26   7  -8    1.84    3.09
 -26   7  -8   -5.90    3.53
 -26   0   9   -1.11    1.26
  26   0  -9   -1.52    1.25
  26   1  -9   97.17    4.84
 -26   1   9   95.37    4.77
 -26  -1   9   99.87    4.54
  26  -1  -9  101.36    4.74
 -26   2   9    6.30    1.87
  26   2  -9    9.86    2.05
  26  -2  -9    7.17    1.57
 -26   2  -9   13.20    2.11
 -26  -2   9   10.25    1.56
 -26   3   9    0.70    1.97
  26   3  -9    1.31    1.71
  26  -3  -9    3.54    1.46
 -26  -3   9    2.16    1.21
 -26   3  -9    1.65    1.66
 -26   4   9   10.50    2.86
  26   4  -9    5.77    2.19
 -26   4  -9    4.00    2.07
 -26  -4   9    2.63    1.33
  26  -4  -9    3.06    1.56
  26   5  -9    0.44    2.16
 -26   5   9   -2.30    2.78
 -26   5  -9    0.89    2.52
 -26  -5   9    3.65    1.67
  26  -5  -9   -0.61    1.23
  26   6  -9   -1.12    2.46
 -26   6   9   -1.13    3.22
 -26   6  -9   -0.13    2.63
  26  -6  -9   -1.47    1.76
 -26  -6   9   -2.98    1.58
  26   0 -10    6.19    1.78
 -26   0  10    3.15    1.65
 -26   1  10   -0.29    1.47
  26   1 -10    1.53    1.63
  26  -1 -10    1.48    1.49
 -26  -1  10   -0.11    1.24
 -26   2  10   14.69    2.19
  26   2 -10   12.05    2.10
  26  -2 -10   16.21    2.40
 -26  -2  10   15.18    1.88
  26   3 -10    7.80    2.21
 -26   3  10    8.00    2.34
  26  -3 -10    8.66    1.68
 -26  -3  10   10.37    1.79
  26   4 -10    1.19    2.10
 -26   4  10   10.22    2.96
 -26  -4  10    4.86    1.65
  26  -4 -10    3.56    1.41
 -26   4 -10    2.20    2.27
  26   5 -10    3.61    2.53
 -26   5  10    2.62    3.06
 -26   5 -10    7.29    2.67
  26  -5 -10    6.02    1.57
 -26  -5  10    4.19    1.62
 -26   6  10   -1.33    3.29
  26   6 -10    2.17    3.02
 -26  -6  10   -1.46    1.66
  26  -6 -10    2.63    1.76
 -26   6 -10    3.14    2.60
 -26   0  11    3.26    1.66
  26   0 -11   -1.53    1.62
  26   1 -11    4.43    1.91
 -26   1  11    1.58    1.73
  26  -1 -11    2.29    1.66
 -26  -1  11    3.34    1.59
 -26   2  11    0.28    1.67
  26   2 -11   -0.51    1.87
  26  -2 -11   -0.21    1.38
 -26  -2  11   -0.65    1.46
 -26   3  11   -2.41    2.11
  26   3 -11   -4.21    1.81
  26  -3 -11    1.08    1.67
 -26  -3  11   -0.66    1.50
 -26   4  11    5.40    2.78
  26   4 -11    4.51    2.59
 -26  -4  11    6.07    1.75
  26  -4 -11    6.37    1.58
  26   5 -11    5.44    2.72
 -26   5  11   11.47    3.43
 -26  -5  11    6.22    1.94
  26  -5 -11    8.54    2.01
  26   0 -12    3.36    1.87
 -26   0  12    6.63    1.89
 -26   1  12   -3.37    1.68
  26   1 -12   -1.92    1.75
 -26  -1  12    1.37    1.47
  26  -1 -12    2.59    1.55
 -26   2  12    6.62    2.28
  26   2 -12    4.35    2.32
  26  -2 -12    5.32    1.66
 -26  -2  12    2.80    1.64
  26   3 -12   11.21    2.74
 -26   3  12    9.46    2.65
  26  -3 -12   11.71    1.92
 -26  -3  12   12.21    1.88
  26   4 -12   -1.37    2.38
 -26   4  12    5.27    3.15
  26  -4 -12   -3.40    1.64
 -26  -4  12   -2.63    1.62
  26   0 -13    1.93    2.03
 -26   0  13   -0.15    1.72
  26   1 -13   16.91    2.72
 -26   1  13   19.66    2.59
  26  -1 -13   20.30    2.69
 -26  -1  13   23.66    3.06
  26   2 -13   -0.08    2.18
 -26   2  13    6.07    2.58
 -26  -2  13    4.90    1.84
  26  -2 -13    3.38    2.12
 -26   3  13    8.63    2.63
  26   3 -13   10.28    2.88
  26  -3 -13    9.54    1.92
 -26  -3  13    8.60    1.96
 -26   4  13   19.05    3.74
 -26   0  14   10.86    2.20
  26   0 -14   15.46    2.87
 -26   1  14   10.11    2.30
  26   1 -14   12.22    2.50
  26  -1 -14   11.28    2.35
 -26  -1  14   10.29    2.17
  26   2 -14   -0.27    2.46
 -26   2  14    1.46    2.35
 -26  -2  14    2.57    2.10
  26  -2 -14    2.51    2.00
  27   0   0    1.49    0.90
 -27   0   0    0.21    0.85
 -27  -1   0    6.95    1.09
  27  -1   0    6.44    1.31
 -27   1   0    8.98    1.38
  27   1   0    8.52    1.43
 -27  -2   0    0.42    0.86
  27   2   0   -0.04    1.03
 -27   2   0    0.84    1.29
 -27  -3   0    3.30    0.85
  27   3   0    2.33    1.19
 -27   3   0    7.04    1.98
 -27  -4   0   -0.56    0.76
  27   4   0    0.95    1.32
 -27   4   0   -1.75    1.65
  27   5   0    1.28    1.40
 -27  -5   0    0.65    0.98
 -27   5   0    5.47    2.58
 -27   6   0    0.52    2.48
  27   6   0   -1.02    1.63
 -27  -6   0   -0.61    0.99
 -27   7   0   -1.19    2.83
 -27  -7   0    0.71    1.36
 -27   8   0   -3.23    3.66
 -27  -8   0    1.27    1.44
 -27   0  -1   -1.30    0.76
  27   0   1    0.12    1.00
  27   0  -1    0.78    1.10
 -27   0   1   -0.37    0.86
 -27  -1  -1    0.54    0.73
  27   1  -1    2.26    1.13
 -27   1   1    3.76    1.28
  27   1   1    2.14    1.11
 -27   1  -1    0.42    0.99
  27  -1  -1    0.86    0.96
 -27  -1   1    0.26    0.79
 -27   2   1    1.21    1.27
 -27  -2  -1   -0.16    0.66
  27   2  -1   -0.79    1.07
 -27  -2   1    0.29    0.81
 -27   2  -1    2.68    1.40
  27  -2  -1   -0.13    1.09
  27   2   1   -1.00    0.97
  27   3  -1   16.06    2.00
 -27  -3  -1   17.81    1.42
 -27   3   1   18.54    2.18
  27   3   1   15.47    1.97
 -27   3  -1   17.01    2.11
 -27  -3   1   18.99    1.65
 -27  -4  -1    4.88    1.01
  27   4  -1    7.13    1.68
 -27   4   1    8.59    2.31
  27   4   1    5.29    1.36
 -27  -4   1    6.25    1.05
 -27   4  -1    5.63    2.09
  27   5  -1    1.32    1.57
 -27  -5  -1    1.49    0.95
 -27   5   1   -1.15    1.92
 -27   5  -1    0.92    2.12
 -27  -5   1    1.71    0.96
  27   5   1    3.84    1.35
 -27  -6  -1    0.79    1.05
 -27   6   1    0.54    2.51
  27   6  -1    2.99    1.83
 -27   6  -1    0.75    2.38
 -27  -6   1    0.55    1.08
 -27  -7  -1   13.66    1.80
 -27   7   1   25.72    4.09
 -27   7  -1   20.30    3.54
 -27  -7   1   12.67    1.81
 -27   8   1    5.11    3.68
 -27  -8  -1    1.60    1.37
 -27   8  -1    5.38    3.64
 -27   8  -1    9.80    4.24
 -27  -8   1    1.71    1.45
 -27   0  -2  139.70    5.71
 -27   0   2  140.87    5.82
  27   0  -2  150.60    5.87
  27   1  -2    6.05    1.33
 -27   1   2    5.69    1.25
 -27  -1  -2    4.83    1.04
  27  -1  -2    6.71    1.37
 -27  -1   2    5.15    1.09
 -27   1  -2    6.43    1.30
 -27  -2  -2    0.70    0.92
 -27   2   2    0.98    1.30
  27   2  -2    0.69    1.25
 -27   2  -2    2.08    1.15
 -27  -2   2    0.61    0.89
  27  -2  -2    2.42    1.13
  27   2   2    0.35    1.05
  27   3  -2   13.40    1.77
 -27   3   2   11.92    2.02
 -27  -3  -2   10.67    1.37
  27   3   2   13.69    1.81
 -27  -3   2   11.61    1.52
 -27   3  -2   10.43    1.91
 -27  -4  -2    2.36    0.89
  27   4  -2    4.03    1.49
  27   4   2    0.90    1.14
 -27   4  -2    1.03    1.66
 -27  -4   2    1.14    0.92
  27   5  -2    3.07    1.55
 -27   5   2    2.97    2.37
 -27  -5  -2    1.64    1.01
 -27   5  -2    1.94    2.33
 -27  -5   2    1.21    1.33
  27   5   2    2.54    1.33
  27   6  -2    9.22    1.98
 -27  -6  -2    7.58    1.40
 -27   6   2    8.86    2.86
 -27  -6   2    9.89    1.40
 -27   6  -2    5.19    2.65
  27   7  -2   -2.65    2.57
 -27   7   2   -3.49    2.79
 -27  -7  -2   -2.59    1.17
 -27   7  -2   -4.12    2.66
 -27  -7   2    0.32    1.47
 -27   8   2    3.61    3.69
 -27  -8  -2    3.74    1.58
 -27  -8   2    8.38    1.75
 -27   8  -2    5.80    3.65
 -27   8  -2   -0.69    3.44
 -27   0  -3   -0.11    0.88
  27   0  -3    1.10    1.05
 -27   0   3   -0.69    0.81
 -27   1   3   24.56    2.14
  27   1  -3   24.00    2.19
 -27  -1  -3   25.79    1.69
 -27  -1   3   24.99    1.94
 -27   1  -3   26.16    1.96
  27  -1  -3   27.87    2.14
 -27  -2  -3   23.38    1.60
 -27   2   3   27.65    2.64
  27   2  -3   23.15    2.25
  27  -2  -3   20.44    1.96
 -27   2  -3   25.68    2.28
 -27  -2   3   24.92    1.86
  27   3  -3   21.48    2.33
 -27   3   3   17.78    2.17
 -27  -3  -3   21.44    1.56
 -27  -3   3   19.06    1.73
 -27   3  -3   20.42    2.74
  27  -3  -3   19.96    3.04
  27   4  -3   39.16    2.97
 -27   4   3   35.89    3.61
 -27  -4  -3   40.24    2.19
  27   4   3   46.49    2.67
 -27  -4   3   35.21    2.37
 -27   4  -3   40.49    3.49
  27   5  -3    1.74    1.80
 -27   5   3   -3.08    1.92
 -27  -5  -3   -0.18    0.86
 -27  -5   3    0.26    1.01
 -27   5  -3    0.73    1.85
 -27   6   3    3.77    2.87
 -27  -6  -3    1.93    1.05
  27   6  -3    1.84    2.12
 -27  -6   3    1.50    1.13
 -27   6  -3    2.71    2.66
 -27  -7  -3   -0.56    1.32
  27   7  -3    2.77    2.43
 -27   7   3   -3.58    2.84
 -27  -7   3    0.31    1.52
 -27   7  -3    5.26    3.35
 -27   8   3   -2.53    3.32
 -27  -8  -3   -0.16    1.56
 -27  -8   3   -0.54    1.41
 -27   8  -3    0.67    3.52
 -27   8  -3    3.01    3.70
 -27   0  -4   12.46    1.63
 -27   0   4    9.95    1.43
  27   0  -4   10.65    1.54
 -27   1   4    6.86    1.39
  27   1  -4    4.03    1.36
 -27  -1  -4    5.18    0.94
 -27   1  -4    4.39    1.10
  27  -1  -4    2.83    1.11
 -27  -1   4    4.14    1.08
 -27  -2  -4   17.09    1.44
 -27   2   4   18.73    2.27
  27   2  -4   15.09    2.16
 -27   2  -4   17.33    2.18
 -27  -2   4   17.24    1.80
  27  -2  -4   19.58    1.93
 -27   3   4   -0.62    1.37
  27   3  -4    1.72    1.50
 -27  -3  -4   -0.28    0.69
 -27   3  -4   -0.47    1.65
 -27  -3   4    1.39    0.94
  27  -3  -4   -1.22    1.30
 -27  -4  -4   19.45    1.50
 -27   4   4   16.97    2.41
 -27   4  -4   17.54    2.39
  27  -4  -4   23.81    2.39
 -27  -4   4   16.68    1.87
  27   5  -4    2.40    1.72
 -27  -5  -4    1.77    1.00
 -27   5   4    2.51    2.42
 -27  -5   4    1.89    1.16
 -27   5  -4    4.39    2.06
 -27  -6  -4    0.97    1.02
 -27   6   4   -1.80    2.51
  27   6  -4    2.55    1.89
 -27  -6   4   -0.13    1.23
 -27   6  -4   -1.10    2.14
 -27   7   4   10.30    3.85
  27   7  -4    5.13    2.21
 -27  -7   4    4.67    1.63
 -27   7  -4   -0.31    2.62
 -27   8   4    4.91    3.85
 -27   8  -4    6.38    3.56
 -27  -8   4    9.91    1.88
 -27   0   5    0.15    0.99
  27   0  -5    0.36    1.17
 -27   0  -5    0.29    1.08
 -27  -1  -5    4.95    1.02
 -27   1   5    5.14    1.35
  27   1  -5    4.98    1.35
 -27   1  -5    7.34    1.34
  27  -1  -5    7.00    1.47
 -27  -1   5    5.56    1.23
 -27  -2  -5    6.31    0.96
 -27   2   5    4.20    1.46
  27   2  -5    4.92    1.57
 -27  -2   5    5.71    1.21
 -27   2  -5    4.95    1.46
  27  -2  -5    6.36    1.53
  27   3  -5   -0.10    1.42
 -27  -3  -5   -0.35    0.77
 -27   3   5    2.07    1.72
  27  -3  -5   -0.20    1.16
 -27   3  -5   -0.51    1.30
 -27  -4  -5   16.81    1.53
  27   4  -5   22.05    2.77
 -27   4   5   16.22    2.61
  27  -4  -5   14.23    2.15
 -27  -4   5   15.47    1.90
 -27   4  -5   13.13    2.53
  27   5  -5    7.56    2.11
 -27  -5  -5    5.29    1.09
 -27   5   5    8.11    2.74
 -27   5  -5    4.91    2.37
 -27  -5   5    5.58    1.36
  27   6  -5   -3.08    2.11
 -27   6   5    0.73    2.61
 -27  -6   5    0.65    1.26
 -27   6  -5    1.74    2.42
  27   7  -5    5.18    2.55
 -27   7   5   -2.60    3.04
 -27   7  -5    7.51    3.21
 -27  -7   5    3.99    1.72
 -27   0   6    0.94    1.11
 -27   0  -6    0.15    1.01
  27   1  -6    1.69    1.55
 -27  -1  -6    1.13    0.94
 -27   1   6    0.80    1.14
 -27   1  -6    1.09    1.33
 -27  -1   6    0.76    1.01
  27   2  -6    1.63    1.37
 -27  -2  -6    2.17    0.91
 -27   2  -6    2.15    1.41
  27  -2  -6    2.49    1.31
 -27  -3  -6    2.41    0.86
 -27   3   6    2.87    1.66
  27   3  -6    7.17    1.85
  27  -3  -6    3.09    1.36
 -27   3  -6    2.26    1.60
 -27  -3   6    2.11    1.02
  27   4  -6   -1.83    1.69
 -27   4   6   -2.37    1.97
  27  -4  -6   -1.01    1.24
 -27  -4   6   -0.41    1.11
 -27   4  -6   -2.77    1.85
  27   5  -6   -2.99    1.90
 -27   5   6    0.09    2.27
 -27   5  -6   -0.83    2.39
 -27  -5   6    0.28    1.21
  27   6  -6   18.97    2.80
 -27   6   6   17.90    3.62
 -27  -6   6   22.58    2.59
 -27   6  -6   21.75    3.21
 -27   7   6    0.79    3.33
  27   7  -6    1.27    2.56
 -27  -7   6   -2.22    1.56
 -27   7  -6   -1.38    2.82
  27   0  -7   -0.50    1.15
 -27   0  -7    1.11    1.21
 -27  -1  -7    4.88    1.34
 -27   1   7    3.23    1.50
  27   1  -7    0.85    1.23
  27  -1  -7    2.61    1.37
 -27   1  -7    3.70    1.36
 -27  -1   7    2.24    1.16
  27   2  -7   31.69    2.92
 -27   2   7   29.95    2.96
  27  -2  -7   28.31    2.50
 -27  -2   7   31.00    2.38
 -27   2  -7   31.50    2.77
 -27   3   7   -2.20    1.62
  27   3  -7    0.41    1.65
  27  -3  -7    0.20    1.29
 -27  -3   7    0.20    1.03
 -27   3  -7    0.45    1.69
  27   4  -7   67.89    4.33
 -27   4   7   60.58    4.45
 -27   4  -7   57.23    4.43
 -27  -4   7   58.78    3.27
  27  -4  -7   57.46    3.40
  27   5  -7    6.71    2.39
 -27   5   7    0.18    2.46
  27  -5  -7    1.18    1.37
 -27  -5   7    1.76    1.32
 -27   5  -7    0.74    2.08
  27   6  -7   13.28    2.71
 -27   6   7   18.30    3.97
 -27  -6   7   19.84    2.56
 -27   6  -7   17.66    3.10
 -27   7   7    1.53    3.52
  27   7  -7    3.13    2.88
 -27  -7   7   -2.77    1.55
 -27   7  -7   -1.83    2.70
 -27   0   8   15.65    2.03
 -27   0  -8   15.35    1.84
  27   0  -8   22.33    2.66
 -27   1   8    0.52    1.39
  27   1  -8    0.11    1.35
 -27  -1   8   -1.47    0.98
  27  -1  -8    4.55    1.50
 -27   1  -8    2.17    1.40
  27   2  -8   79.58    4.24
 -27   2   8   78.74    4.37
 -27  -2   8   74.00    3.76
  27  -2  -8   77.63    4.10
 -27   2  -8   75.66    4.20
  27   3  -8    3.42    1.98
 -27   3   8    0.31    1.78
  27  -3  -8   -0.08    1.19
 -27   3  -8    1.79    1.94
 -27  -3   8    1.89    1.29
  27   4  -8   -0.38    1.87
 -27   4   8    0.10    2.24
  27  -4  -8    0.41    1.34
 -27  -4   8    1.91    1.28
 -27   4  -8    0.56    2.13
  27   5  -8   -2.35    2.10
 -27   5  -8    1.06    2.19
 -27  -5   8    3.29    1.66
  27  -5  -8   -0.23    1.42
  27   6  -8    2.66    2.44
 -27   6   8    5.91    3.38
 -27  -6   8    0.49    1.56
 -27   6  -8    0.73    2.48
 -27   0   9    2.01    1.52
  27   0  -9   -2.37    1.31
  27   1  -9   19.71    2.74
 -27   1   9   22.54    2.41
  27  -1  -9   21.98    2.49
 -27  -1   9   17.78    2.22
 -27   2   9   61.50    3.87
  27   2  -9   57.08    3.85
 -27  -2   9   53.39    3.25
  27  -2  -9   54.95    3.50
 -27   2  -9   53.14    3.60
 -27   3   9    0.63    1.97
  27   3  -9    0.44    1.72
  27  -3  -9   -0.52    1.32
 -27   3  -9    1.11    1.68
 -27  -3   9    2.14    1.38
  27   4  -9   12.09    2.42
 -27   4   9   17.15    3.19
 -27  -4   9   12.25    1.80
 -27   4  -9   12.78    2.57
  27  -4  -9   13.07    1.77
  27   5  -9   -1.31    2.08
 -27   5   9    0.76    2.82
 -27   5  -9   -0.21    2.10
  27  -5  -9    1.25    1.41
 -27  -5   9   -0.93    1.44
 -27   6   9   17.72    3.94
  27   6  -9   15.72    3.18
 -27  -6   9   15.19    2.12
 -27   6  -9   14.93    3.22
 -27   0  10   42.09    3.17
  27   0 -10   40.11    3.09
 -27   1  10    0.54    1.57
  27   1 -10   -1.43    1.56
  27  -1 -10    3.10    1.69
 -27  -1  10   -0.62    1.28
  27   2 -10   46.08    3.79
 -27   2  10   43.88    3.56
 -27  -2  10   38.63    2.91
  27  -2 -10   39.72    3.13
 -27   3  10    0.66    2.13
  27   3 -10   -0.70    1.81
  27  -3 -10   -0.16    1.35
 -27  -3  10   -1.82    1.29
 -27   4  10    3.87    2.85
  27   4 -10   -0.33    2.14
 -27  -4  10   -0.21    1.47
  27  -4 -10    2.63    1.41
  27   5 -10    1.75    2.49
 -27   5  10   -0.06    2.94
 -27  -5  10    3.76    1.67
  27  -5 -10    4.64    1.58
 -27   5 -10    0.36    2.52
 -27   6  10    9.05    3.70
 -27   6 -10    9.62    3.29
  27   0 -11    3.42    1.94
 -27   0  11    1.89    1.56
 -27   1  11    1.14    1.77
  27   1 -11    3.84    2.02
  27  -1 -11    1.91    1.70
 -27  -1  11    1.35    1.48
 -27   2  11   14.34    2.40
  27   2 -11   10.33    2.34
 -27  -2  11   15.12    2.06
  27  -2 -11   16.82    2.44
 -27   3  11    6.97    2.51
  27   3 -11    4.88    2.28
 -27  -3  11    6.14    1.70
  27  -3 -11    9.88    1.96
 -27   4  11    6.30    2.91
  27   4 -11    2.70    2.40
 -27  -4  11    3.32    1.66
  27  -4 -11    4.62    1.55
  27   5 -11    2.17    2.65
 -27   5  11    1.00    3.25
  27  -5 -11    4.23    2.05
 -27  -5  11    6.36    1.90
 -27   0  12   -0.44    1.74
  27   0 -12    0.12    1.86
 -27   1  12    3.71    1.93
  27   1 -12    7.18    2.42
 -27  -1  12    5.95    1.98
  27  -1 -12    5.35    1.71
  27   2 -12   24.94    3.41
 -27   2  12   30.83    3.80
  27  -2 -12   20.13    2.79
 -27  -2  12   25.99    3.02
  27   3 -12   -2.48    2.25
 -27   3  12   -2.41    2.35
  27  -3 -12    3.36    1.67
 -27  -3  12   -1.62    1.47
  27   4 -12   -2.52    2.28
 -27   4  12    4.95    3.11
  27  -4 -12    1.27    1.78
 -27  -4  12   -3.16    1.60
 -27   0  13   -0.96    1.68
  27   1 -13    8.42    2.49
 -27   1  13    8.39    2.19
 -27  -1  13    9.96    2.05
  27  -1 -13    9.67    1.98
 -27   2  13   12.19    2.72
  27   2 -13    7.15    2.52
  27  -2 -13   11.73    2.18
 -27  -2  13   10.70    2.34
 -27   3  13    5.22    2.65
  27   3 -13    3.60    2.54
  27  -3 -13    3.42    1.96
 -27  -3  13   11.90    2.35
  27   0 -14   44.89    3.97
 -27   0  14   46.44    3.89
 -27   1  14    1.60    2.17
  27  -1 -14    1.38    1.87
 -27  -1  14   -2.71    2.02
 -28   0   0   10.98    1.52
  28   0   0   15.67    1.81
 -28  -1   0    0.46    0.86
 -28   1   0    0.22    1.05
  28   1   0   -0.07    0.99
  28  -1   0    1.75    1.12
 -28  -2   0    8.19    1.12
  28   2   0    6.22    1.33
 -28   2   0    9.27    1.63
 -28   3   0    0.62    1.74
 -28  -3   0    0.41    0.72
  28   3   0   -0.44    1.15
 -28  -4   0   19.14    1.59
  28   4   0   16.12    2.13
 -28   5   0    0.74    2.35
 -28  -5   0    0.65    1.15
  28   5   0    0.84    1.64
 -28   6   0   20.04    3.41
 -28  -6   0   16.40    1.93
 -28  -7   0   -0.83    1.24
 -28   7   0   -2.10    2.97
 -28  -8   0    7.72    1.81
 -28   8   0    4.71    3.66
  28   0  -1    0.87    1.09
 -28   0  -1   -0.02    0.84
 -28   0   1   -1.61    0.93
  28   0   1    1.32    1.22
 -28  -1  -1   -0.34    0.74
 -28   1   1    3.20    1.25
  28   1  -1    0.96    1.10
 -28   1  -1   -0.64    0.97
  28  -1  -1    1.39    1.19
  28   1   1    0.22    1.05
 -28  -1   1    1.23    0.90
  28   2  -1   15.26    1.89
 -28   2   1   20.08    2.40
 -28  -2  -1   16.15    1.47
 -28  -2   1   18.52    1.75
  28   2   1   17.72    1.82
  28  -2  -1   16.65    2.12
 -28   2  -1   22.12    2.54
 -28   3   1    2.79    1.70
  28   3  -1    3.42    1.37
 -28  -3  -1    2.13    0.96
 -28  -3   1    1.05    0.86
 -28   3  -1    2.90    1.58
  28   3   1    3.70    1.35
 -28   4   1    8.18    2.44
 -28  -4  -1    4.33    0.98
  28   4  -1    2.47    1.52
 -28  -4   1    3.52    1.13
  28   4   1    1.05    1.29
 -28   4  -1    6.37    2.18
 -28  -5  -1   -0.18    0.89
  28   5  -1    0.56    1.71
 -28   5   1   -2.19    2.18
  28   5   1   -0.08    1.40
 -28   5  -1   -1.14    2.24
  28   6  -1    5.22    2.03
 -28   6   1    3.25    2.64
 -28  -6   1    5.43    1.41
 -28   6  -1    1.68    2.48
 -28  -7  -1    2.95    1.31
 -28   7   1    5.08    3.46
 -28  -7   1    1.37    1.23
 -28   7  -1    2.18    3.06
 -28   8   1   18.36    4.28
 -28  -8  -1   13.11    1.92
 -28   8  -1   12.95    4.15
 -28   8  -1    5.04    3.70
 -28  -8   1   10.45    1.94
 -28   0   2   90.78    4.10
  28   0  -2   89.68    4.10
 -28   0  -2   84.53    3.96
 -28   1   2   -1.07    1.05
  28   1  -2   -0.74    1.08
 -28  -1  -2    0.57    0.88
 -28   1  -2   -0.96    1.14
 -28  -1   2    0.55    0.96
  28  -1  -2    1.16    0.96
 -28   2   2   55.55    3.45
 -28  -2  -2   56.95    2.71
  28   2  -2   53.81    3.21
  28  -2  -2   57.42    3.10
  28   2   2   57.51    2.97
 -28  -2   2   57.25    2.87
 -28   2  -2   57.23    3.33
  28   3  -2    5.58    1.64
 -28  -3  -2    3.55    0.89
 -28   3   2    5.16    1.84
  28   3   2    2.84    1.23
 -28  -3   2    3.87    1.01
 -28   3  -2    2.24    1.55
  28   4  -2    4.55    1.62
 -28  -4  -2    7.80    1.10
 -28   4   2    7.35    2.12
 -28  -4   2    5.88    1.17
 -28   4  -2    4.70    1.94
  28   4   2    6.33    1.44
 -28   5   2    8.90    2.82
 -28  -5  -2    3.99    1.08
  28   5  -2    3.49    1.74
 -28   5  -2    6.73    2.67
  28   5   2    2.08    1.37
 -28  -5   2    2.37    1.14
 -28  -6  -2   27.45    2.05
  28   6  -2   30.27    3.29
 -28   6   2   21.84    3.35
 -28  -6   2   23.24    2.26
 -28   6  -2   21.50    3.37
 -28   7   2   -0.78    3.06
 -28  -7  -2    0.16    1.22
 -28  -7   2    1.13    1.28
 -28   7  -2   -0.87    3.24
 -28   8   2    4.35    3.64
 -28  -8  -2   14.13    2.00
 -28   8  -2   10.87    3.86
 -28  -8   2   10.78    1.96
 -28   8  -2    6.23    3.80
 -28   0  -3   -1.62    0.83
 -28   0   3   -0.66    0.88
  28   0  -3   -0.83    1.03
 -28   1   3    3.34    1.29
  28   1  -3    5.59    1.40
 -28  -1  -3    4.55    0.96
 -28   1  -3    4.50    1.24
 -28  -1   3    6.06    1.25
  28  -1  -3    4.65    1.26
 -28  -2  -3   27.61    1.91
  28   2  -3   27.33    2.45
 -28   2   3   32.32    2.76
 -28   2  -3   27.70    2.38
  28  -2  -3   28.95    2.18
 -28  -2   3   25.05    2.00
 -28  -3  -3   34.33    2.01
 -28   3   3   29.01    3.35
  28   3  -3   34.12    2.84
 -28   3  -3   30.46    3.05
  28  -3  -3   30.52    2.45
 -28  -3   3   34.19    2.28
  28   4  -3   18.86    2.58
 -28  -4  -3   20.51    1.65
 -28   4   3   17.55    2.62
  28   4   3   21.04    2.25
 -28   4  -3   21.08    2.90
 -28   5   3    9.28    2.44
 -28  -5  -3    8.79    1.19
  28   5  -3    7.70    2.30
 -28   5  -3    7.98    2.24
 -28  -5   3    6.75    1.33
 -28   6   3   24.35    3.78
 -28  -6  -3   17.93    1.83
  28   6  -3   17.95    2.44
 -28  -6   3   22.57    2.28
 -28   6  -3   15.73    3.13
 -28   7   3    7.92    3.50
  28   7  -3    2.05    2.34
 -28  -7  -3   10.61    1.52
 -28  -7   3    6.69    1.47
 -28   7  -3    9.71    3.29
 -28   0   4    0.49    1.01
  28   0  -4   -0.89    1.23
 -28   0  -4    0.04    1.00
 -28  -1  -4    1.12    0.83
  28   1  -4    0.23    1.28
 -28   1   4    4.08    1.39
 -28   1  -4    0.08    1.03
  28  -1  -4   -0.88    1.08
 -28  -1   4    0.28    1.03
 -28  -2  -4   18.73    1.59
 -28   2   4   16.10    2.27
  28   2  -4   21.34    2.45
 -28   2  -4   16.69    2.23
 -28  -2   4   19.03    1.95
 -28   3   4    9.02    1.94
 -28  -3  -4   11.07    1.33
  28  -3  -4   14.47    2.07
 -28  -3   4   14.31    1.75
 -28   3  -4    9.33    1.90
  28   4  -4    5.94    2.05
 -28   4   4    4.84    1.88
 -28  -4  -4    5.21    1.06
 -28   4  -4    5.54    2.12
  28  -4  -4    5.58    1.62
 -28  -4   4    4.23    1.25
 -28   5   4   -2.16    2.15
  28   5  -4    0.42    1.75
 -28  -5  -4    0.03    0.97
 -28  -5   4    2.36    1.21
 -28   5  -4   -1.28    2.01
 -28   6   4   -1.16    2.42
 -28  -6  -4    2.81    1.27
  28   6  -4   -0.98    1.85
 -28   6  -4   -0.26    2.27
 -28  -6   4    2.53    1.53
  28   7  -4    3.88    2.29
 -28   7   4    1.96    3.22
 -28  -7   4   -1.44    1.36
 -28   7  -4    1.90    2.68
 -28   0  -5   -0.06    1.10
 -28   0   5   -1.18    0.89
 -28   1   5    4.88    1.35
 -28  -1  -5    7.43    1.17
 -28  -1   5    7.30    1.31
 -28   1  -5    6.56    1.35
  28   2  -5   10.45    1.71
 -28  -2  -5   11.64    1.36
  28  -2  -5   15.31    2.11
 -28  -2   5   13.93    1.62
 -28   2  -5   10.25    1.72
  28   3  -5   -0.34    1.53
 -28  -3  -5    0.72    0.88
 -28   3   5    2.02    1.75
  28  -3  -5   -1.75    1.06
 -28  -3   5    2.47    1.25
 -28   3  -5   -0.10    1.36
 -28   4   5   10.08    2.29
  28   4  -5    5.13    1.78
 -28  -4  -5    6.84    1.06
 -28  -4   5    6.65    1.33
 -28   4  -5    6.12    2.08
  28  -4  -5    5.62    1.60
 -28   5   5    2.93    2.64
 -28  -5  -5    3.90    1.16
  28   5  -5   -0.80    1.68
 -28   5  -5   -0.37    2.34
 -28  -5   5    1.91    1.28
  28   6  -5   12.55    2.49
 -28   6   5    9.33    3.36
 -28   6  -5   15.77    3.39
 -28  -6   5   13.94    1.94
  28   7  -5   22.27    3.00
 -28   7   5   18.28    3.83
 -28  -7   5   24.79    2.63
 -28   7  -5   26.17    4.10
  28   0  -6    3.80    1.33
 -28   0  -6    4.97    1.23
  28   1  -6    0.65    1.26
 -28   1   6    1.29    2.12
 -28  -1  -6    1.20    0.99
 -28   1  -6    2.00    1.44
  28  -1  -6    2.30    1.31
 -28   2   6    4.03    1.61
  28   2  -6    7.80    1.68
 -28  -2  -6    7.25    1.17
 -28  -2   6    3.29    1.19
 -28   2  -6    5.08    1.62
  28  -2  -6    5.21    1.42
  28   3  -6    2.73    1.66
 -28  -3  -6    2.06    0.92
 -28   3   6    2.80    1.72
 -28  -3   6    3.18    1.33
 -28   3  -6    2.02    1.65
  28  -3  -6    0.92    1.29
 -28   4   6    1.13    2.17
  28   4  -6    3.92    2.04
  28  -4  -6    2.70    1.51
 -28  -4   6    1.62    1.24
 -28   4  -6    3.60    2.01
  28   5  -6    1.83    2.11
 -28   5   6    1.55    2.51
 -28   5  -6    4.97    2.41
 -28  -5   6    6.47    1.73
  28   6  -6    4.09    2.25
 -28   6   6    6.89    3.07
 -28   6  -6    4.55    2.63
 -28  -6   6    7.23    1.68
 -28   7   6   -0.43    3.58
  28   7  -6   -2.20    2.56
 -28   7  -6   -1.81    2.73
 -28  -7   6   -2.78    1.52
  28   0  -7   -1.54    1.26
 -28   0  -7   -1.55    1.09
 -28   0   7    0.06    1.15
 -28   1   7    6.61    1.52
 -28  -1  -7    8.12    1.42
  28   1  -7    8.62    1.78
 -28  -1   7    3.48    1.22
  28  -1  -7    5.46    1.52
 -28   1  -7    2.90    1.38
 -28   2   7    7.38    1.96
  28   2  -7    7.22    1.76
 -28   2  -7    5.24    1.62
 -28  -2   7    7.54    1.51
  28  -2  -7    5.66    1.48
 -28   3   7   10.71    2.13
  28   3  -7   15.24    2.25
 -28   3  -7   16.05    2.14
 -28  -3   7   14.43    1.78
  28  -3  -7   13.56    1.96
  28   4  -7   -2.50    1.68
 -28   4   7   -0.97    2.12
 -28  -4   7    2.12    1.37
  28  -4  -7   -0.44    1.28
 -28   4  -7   -1.69    1.88
  28   5  -7    2.19    2.22
 -28   5   7    0.24    2.50
  28  -5  -7    4.82    1.67
 -28   5  -7    5.30    2.38
 -28  -5   7    6.23    1.58
 -28   6   7   12.99    4.02
  28   6  -7    4.19    2.58
 -28   6  -7    3.35    2.67
 -28  -6   7    4.43    1.66
 -28   7   7   -2.62    3.45
  28   7  -7   -0.97    2.95
 -28   7  -7    2.39    3.00
 -28  -7   7    2.39    1.71
  28   0  -8    2.08    1.50
 -28   0   8    5.67    1.40
 -28   1   8   11.43    1.88
  28   1  -8   13.18    1.99
  28  -1  -8   11.64    1.80
 -28   1  -8   18.20    2.47
 -28  -1   8    9.57    1.55
 -28   2   8   13.43    2.21
  28   2  -8   12.01    2.08
 -28   2  -8   13.30    2.12
  28  -2  -8    7.33    1.70
 -28  -2   8    9.31    1.61
  28   3  -8   27.38    3.18
 -28   3   8   30.62    3.44
  28  -3  -8   36.10    2.66
 -28   3  -8   33.76    3.61
 -28  -3   8   32.68    2.57
  28   4  -8    4.95    2.35
 -28   4   8    1.96    2.42
 -28  -4   8    0.66    1.24
  28  -4  -8    2.18    1.57
 -28   4  -8    1.57    2.07
 -28   5   8    7.39    3.10
  28   5  -8   14.98    2.82
 -28  -5   8   10.24    1.85
  28  -5  -8    8.97    1.74
 -28   5  -8   10.16    2.52
 -28   6   8    6.25    3.34
  28   6  -8   -0.98    2.54
 -28   6  -8   -1.15    2.51
 -28  -6   8    3.84    1.72
 -28   0   9    0.55    1.34
  28   0  -9    0.19    1.56
 -28   1   9    7.82    1.90
  28   1  -9   11.71    1.90
 -28  -1   9    8.14    1.59
  28  -1  -9    5.30    1.66
  28   2  -9   17.36    2.31
  28  -2  -9   22.72    2.68
 -28  -2   9   14.68    1.90
 -28   3   9   11.97    2.50
  28   3  -9   10.59    2.43
 -28  -3   9    9.05    1.68
 -28   3  -9    8.97    2.34
  28  -3  -9    7.80    1.77
 -28   4   9   37.37    4.44
  28   4  -9   19.11    2.70
  28  -4  -9   20.72    2.53
 -28  -4   9   24.44    2.56
 -28   4  -9   32.01    3.85
 -28   5   9   13.30    3.43
  28   5  -9   10.69    2.69
 -28  -5   9   13.47    2.03
  28  -5  -9   18.62    2.60
 -28   5  -9   11.33    2.73
  28   6  -9    3.72    2.75
 -28   6   9    1.35    3.46
 -28   6  -9    6.15    3.10
 -28  -6   9    3.51    1.65
 -28   0  10    2.67    1.56
  28   0 -10    1.44    1.60
  28   1 -10    2.00    1.87
 -28   1  10   -0.47    1.72
 -28  -1  10    3.47    1.57
  28  -1 -10    0.18    1.63
  28   2 -10    4.75    2.06
 -28   2  10    6.50    2.17
  28  -2 -10    1.75    1.56
 -28  -2  10    4.69    1.60
  28   3 -10    1.00    1.96
 -28   3  10   -3.16    2.02
 -28  -3  10   -0.90    1.28
  28  -3 -10   -0.33    1.50
 -28   4  10    2.07    2.97
  28   4 -10   -2.59    2.10
 -28  -4  10   -1.99    1.52
  28  -4 -10    1.34    1.82
  28   5 -10   -0.89    2.53
 -28   5  10   -4.16    3.12
 -28  -5  10   -2.12    1.59
  28  -5 -10    0.85    1.49
  28   0 -11   -2.35    1.67
 -28   0  11   -0.54    1.57
 -28   1  11   10.62    2.13
  28   1 -11   14.36    2.47
 -28  -1  11   13.44    2.18
  28  -1 -11   20.75    3.02
  28   2 -11    5.29    2.22
 -28   2  11    7.19    2.48
  28  -2 -11    2.88    1.72
 -28  -2  11    0.48    1.56
  28   3 -11    8.42    2.29
 -28   3  11   13.91    2.84
 -28  -3  11    7.56    1.80
  28  -3 -11   12.39    1.99
 -28   4  11    3.62    3.10
  28   4 -11    2.21    2.41
 -28  -4  11   -0.36    1.48
  28  -4 -11    2.61    1.49
  28   5 -11    5.11    3.42
 -28   5  11   -0.60    3.17
  28  -5 -11    3.81    1.87
 -28  -5  11    5.66    2.06
 -28   0  12   27.79    3.33
  28   0 -12   37.50    3.77
 -28   1  12    0.14    1.89
  28   1 -12   -1.83    2.00
  28  -1 -12    0.97    1.69
 -28  -1  12   -1.21    1.66
  28   2 -12   16.09    2.69
 -28   2  12   19.81    3.02
 -28  -2  12   25.46    3.12
  28  -2 -12   19.79    2.36
 -28   3  12    3.92    2.73
  28   3 -12    3.61    2.36
 -28  -3  12    7.75    2.08
  28  -3 -12    3.96    2.06
 -28   4  12    4.45    3.31
  28   4 -12   -0.19    2.85
  28  -4 -12   -3.62    1.58
 -28  -4  12    6.11    2.16
 -28   0  13   -1.11    1.77
  28   0 -13    0.19    2.23
  28   1 -13   12.38    2.77
 -28   1  13    4.02    2.14
 -28  -1  13    3.92    2.07
  28  -1 -13    7.99    1.97
 -28   2  13    1.29    2.51
  28   2 -13   -2.75    2.15
  28  -2 -13   -0.69    1.81
 -28  -2  13   -1.68    1.88
 -28   3  13    0.22    2.69
  28  -3 -13   -0.64    1.83
 -28  -3  13    2.48    1.86
  28   0 -14   24.12    3.54
 -28   0  14   25.47    3.37
 -29   0   0    1.72    1.00
  29   0   0    0.74    1.18
 -29  -1   0   60.08    2.94
  29  -1   0   61.03    3.31
  29   1   0   58.24    3.12
 -29   1   0   58.30    3.28
 -29  -2   0   -0.57    0.79
 -29   2   0   -0.39    1.29
  29   2   0   -0.15    1.13
 -29   3   0    3.72    1.92
 -29  -3   0    0.46    0.92
  29   3   0    0.89    1.38
 -29  -4   0    1.32    0.97
 -29   4   0   -2.09    1.80
  29   4   0    0.52    1.28
 -29   5   0   -0.08    2.36
  29   5   0   -1.96    1.49
 -29  -5   0    0.73    0.95
 -29   6   0    1.98    2.92
 -29  -6   0   -0.09    1.13
 -29   7   0    1.56    3.38
 -29  -7   0    3.73    1.40
 -29   0   1   -0.19    1.02
  29   0  -1   -0.19    1.06
 -29   0  -1    0.08    0.87
  29   0   1    2.06    1.27
  29   1  -1   41.52    2.66
 -29  -1  -1   39.63    2.32
 -29   1   1   39.90    2.79
 -29  -1   1   42.94    2.50
  29  -1  -1   42.25    2.69
  29   1   1   40.90    2.62
 -29   1  -1   42.71    2.66
 -29  -2  -1    4.51    1.12
  29   2  -1    3.05    1.28
 -29   2   1    4.37    1.56
 -29   2  -1    5.89    1.69
  29   2   1    2.84    1.20
 -29  -2   1    2.56    0.94
  29  -2  -1    2.32    1.38
 -29  -3  -1    2.65    0.97
  29   3  -1    4.50    1.54
 -29   3   1    2.80    1.80
  29   3   1    6.80    1.40
 -29   3  -1    2.69    1.62
 -29  -3   1    2.40    0.96
 -29   4   1    6.40    2.33
  29   4  -1    1.43    1.49
 -29  -4  -1    3.63    1.02
  29   4   1    2.01    1.41
 -29  -4   1    4.05    1.07
 -29   4  -1    5.88    2.75
  29   5  -1    9.41    1.91
 -29  -5  -1   13.02    1.67
 -29   5   1    9.17    2.65
  29   5   1    9.50    1.76
 -29  -5   1   14.27    1.81
 -29   5  -1    7.45    2.59
 -29   6   1    3.01    2.52
 -29  -6  -1    0.64    1.13
  29   6  -1   -1.30    1.98
 -29   6  -1   -0.20    2.58
 -29  -6   1    2.07    1.21
 -29  -7  -1   10.89    1.61
 -29   7   1    8.51    3.55
 -29  -7   1    9.34    1.60
 -29   7  -1    9.58    3.60
 -29   0  -2    9.79    1.43
 -29   0   2   10.95    1.48
  29   0  -2   13.10    1.91
  29   1  -2   13.64    1.68
 -29   1   2   15.33    1.93
 -29  -1  -2   13.49    1.53
 -29   1  -2   13.73    1.77
 -29  -1   2   11.63    1.46
  29  -1  -2   11.20    1.55
 -29   2   2    8.00    1.73
 -29  -2  -2   10.13    1.38
  29   2  -2   12.07    1.76
 -29  -2   2   12.81    1.69
  29   2   2    8.16    1.51
 -29   2  -2    8.71    1.60
  29   3  -2   13.38    1.90
 -29  -3  -2   16.88    1.59
 -29  -3   2   13.73    1.57
  29   3   2   13.44    1.62
 -29   3  -2   16.12    2.23
  29   4  -2   11.77    1.95
 -29  -4  -2    8.86    1.21
 -29   4   2   10.64    2.32
  29   4   2    9.94    1.55
 -29  -4   2    7.58    1.46
  29   5  -2   20.91    2.81
 -29  -5  -2   22.47    1.94
 -29   5   2   24.84    3.52
 -29  -5   2   20.33    1.95
 -29   5  -2   21.46    2.99
 -29  -6  -2    1.69    1.24
  29   6  -2    2.77    2.16
 -29   6   2    2.59    2.51
 -29  -6   2   -0.78    1.05
 -29   6  -2    3.74    2.96
 -29   7   2    4.37    3.58
 -29  -7  -2    5.33    1.59
 -29   7  -2    2.11    3.37
 -29  -7   2    2.97    1.46
 -29   0  -3   -0.83    1.07
 -29   0   3    1.86    1.05
  29   0  -3   -2.18    0.99
 -29   1   3   71.16    3.71
 -29  -1  -3   71.13    3.35
  29   1  -3   67.23    3.65
 -29   1  -3   68.86    3.60
 -29  -1   3   69.83    3.44
  29  -1  -3   71.12    3.58
 -29   2   3    2.38    1.54
  29   2  -3    5.19    1.63
 -29  -2  -3    2.17    0.91
 -29  -2   3    2.07    1.03
 -29   2  -3    2.55    1.37
  29  -2  -3    2.14    1.25
 -29  -3  -3   16.63    1.52
 -29   3   3   13.10    2.19
  29   3  -3   17.47    2.08
 -29   3  -3   16.09    2.31
 -29  -3   3   13.45    1.85
  29  -3  -3   15.19    2.15
 -29   4   3    6.14    2.26
 -29  -4  -3    6.25    1.03
  29   4  -3    9.86    3.22
 -29   4  -3   10.07    2.00
 -29  -4   3    6.39    1.27
 -29  -5  -3    7.81    1.24
 -29   5   3    5.43    2.50
  29   5  -3   11.44    2.16
 -29  -5   3   11.52    1.53
 -29   5  -3    7.84    2.45
 -29   6   3    5.65    3.25
 -29  -6  -3    0.10    1.16
  29   6  -3   -0.64    1.88
 -29  -6   3    0.42    1.17
 -29   6  -3    0.59    2.47
 -29  -7  -3   18.10    2.24
  29   7  -3   18.61    2.68
 -29   7   3   24.82    4.41
 -29  -7   3   24.17    2.47
 -29   7  -3   20.64    3.60
 -29   0  -4    2.06    1.18
 -29   0   4    2.89    1.13
 -29   1   4    0.99    1.31
 -29  -1  -4    1.04    1.01
  29  -1  -4    0.00    1.33
 -29   1  -4    0.02    1.07
 -29  -1   4    0.11    1.07
  29   2  -4   14.32    2.92
 -29  -2  -4   18.47    1.70
 -29   2  -4   15.45    1.93
 -29  -2   4   16.28    1.88
  29  -2  -4   20.57    2.25
 -29  -3  -4   91.87    3.92
  29   3  -4   93.96    4.67
 -29  -3   4   92.11    4.23
 -29   3  -4   91.64    4.86
  29  -3  -4   94.62    4.46
  29   4  -4    5.32    1.85
 -29  -4  -4    4.40    1.04
 -29   4   4    2.76    1.96
 -29   4  -4    3.64    2.29
 -29  -4   4    5.54    1.39
  29   5  -4   57.98    4.31
 -29  -5  -4   65.78    3.03
 -29   5   4   61.19    5.13
 -29   5  -4   60.94    4.79
 -29  -5   4   65.37    3.37
  29   6  -4    2.18    2.33
 -29  -6  -4    0.34    1.18
 -29   6   4   -0.69    2.70
 -29  -6   4    0.90    1.43
 -29   6  -4    1.37    2.47
  29   7  -4    6.86    2.78
 -29   7   4   -1.20    3.12
 -29  -7   4    3.39    1.51
 -29   7  -4    4.19    2.92
 -29   0   5   -0.67    1.13
 -29   0  -5    2.14    1.29
  29   0  -5   -0.30    1.32
 -29  -1  -5   13.48    1.75
  29   1  -5   12.46    1.87
 -29  -1   5   17.67    2.63
 -29   1  -5   13.86    1.76
  29  -1  -5   15.28    2.13
 -29  -2  -5    0.73    0.93
  29   2  -5   -1.78    1.32
 -29   2   5   -1.37    1.33
  29  -2  -5   -0.94    1.19
 -29  -2   5   -0.22    1.06
 -29   2  -5   -0.20    1.38
 -29   3   5    3.65    1.87
  29   3  -5    1.22    1.66
 -29  -3  -5    1.62    0.99
  29  -3  -5    0.04    1.27
 -29  -3   5   -0.33    1.07
 -29   3  -5    1.84    1.61
 -29  -4  -5    9.44    1.27
  29   4  -5    3.86    1.73
 -29   4   5    5.89    2.31
  29  -4  -5    5.37    1.67
 -29  -4   5    8.02    1.43
 -29   4  -5    6.78    2.05
  29   5  -5   -0.51    1.74
 -29   5   5    8.89    3.12
 -29   5  -5    2.79    2.36
 -29  -5   5   -0.49    1.22
 -29   6   5   -2.83    2.76
  29   6  -5    1.27    2.03
 -29  -6   5   -0.31    1.40
 -29   6  -5    3.10    2.96
  29   7  -5   28.46    3.84
 -29   7   5   14.04    3.83
 -29  -7   5   23.27    2.75
 -29   7  -5   22.09    3.75
 -29   0   6   15.09    1.76
 -29   0  -6   15.68    2.05
  29   0  -6   12.31    1.79
  29   1  -6    9.19    1.62
 -29   1   6    9.00    1.68
 -29  -1  -6   10.58    1.38
 -29   1  -6   10.74    1.72
  29  -1  -6    8.70    1.66
 -29  -1   6   11.89    1.66
 -29   2   6   -0.56    1.53
  29   2  -6    2.93    1.70
 -29  -2  -6    1.49    1.04
 -29  -2   6   -0.09    1.14
 -29   2  -6   -0.73    1.39
  29  -2  -6   -1.48    1.18
  29   3  -6    2.40    1.72
 -29  -3  -6    8.53    1.68
 -29   3   6    5.95    2.07
  29  -3  -6    4.94    1.52
 -29  -3   6    3.45    1.32
 -29   3  -6    4.28    1.77
 -29   4   6    0.62    2.12
  29   4  -6    2.64    1.77
  29  -4  -6    5.29    1.68
 -29   4  -6    2.18    1.96
 -29  -4   6    2.57    1.34
  29   5  -6    1.98    2.41
 -29   5   6    0.70    2.48
 -29   5  -6    2.62    2.30
 -29  -5   6   -0.59    1.40
  29   6  -6    0.52    2.51
 -29   6   6   -1.00    2.94
 -29  -6   6    0.35    1.45
 -29   6  -6    2.02    2.56
 -29   7   6   -0.45    3.57
  29   7  -6    3.43    2.89
 -29   7  -6    8.84    3.20
 -29  -7   6    7.29    2.16
 -29   0   7   -0.58    1.16
  29   0  -7    3.62    1.74
 -29   0  -7    1.04    1.22
 -29  -1  -7   18.31    2.23
 -29   1   7   15.36    1.98
  29   1  -7   11.70    1.89
 -29   1  -7   11.58    1.78
 -29  -1   7   15.66    2.12
 -29   2   7   11.45    2.02
  29   2  -7    6.87    1.83
 -29   2  -7    8.67    1.84
 -29  -2   7    9.38    1.60
  29  -2  -7    6.94    1.68
  29   3  -7   12.77    2.06
 -29   3   7    7.16    2.08
 -29  -3   7    6.97    1.48
 -29   3  -7    9.96    2.03
  29  -3  -7   10.43    1.77
  29   4  -7   11.78    2.31
 -29   4   7    6.25    2.49
  29  -4  -7    7.25    1.72
 -29   4  -7    6.44    2.14
 -29  -4   7    7.54    1.67
 -29   5   7   -2.81    2.65
  29   5  -7    1.86    2.25
 -29   5  -7   -0.81    2.28
  29  -5  -7    2.22    1.61
 -29  -5   7    2.42    1.53
  29   6  -7   -0.26    2.50
 -29   6   7    6.30    3.81
 -29   6  -7   -3.85    2.70
 -29  -6   7    0.99    1.60
 -29   0   8    0.03    1.30
  29   0  -8   -0.30    1.40
 -29   1   8    1.41    1.44
  29   1  -8    1.96    1.60
  29  -1  -8   -1.84    1.36
 -29  -1   8    2.52    1.42
 -29   1  -8   -1.62    1.46
  29   2  -8    8.64    1.91
 -29   2   8   12.08    2.33
 -29  -2   8   10.20    1.66
  29  -2  -8    8.26    1.79
 -29   2  -8    9.04    1.91
  29   3  -8   15.20    2.40
 -29   3   8   12.36    2.37
 -29  -3   8   15.92    2.10
 -29   3  -8   14.97    2.31
  29  -3  -8   14.70    1.93
 -29   4   8    1.12    2.52
  29   4  -8    0.28    2.11
 -29   4  -8   -1.13    2.17
  29  -4  -8   -0.28    1.55
 -29  -4   8   -1.03    1.36
  29   5  -8    0.87    2.53
 -29   5   8    0.65    2.87
  29  -5  -8    4.33    1.73
 -29  -5   8    0.70    1.52
 -29   5  -8    3.52    2.47
 -29   6   8   -0.68    3.16
  29   6  -8    5.20    3.08
 -29  -6   8    1.95    1.84
 -29   6  -8   -4.51    2.80
 -29   0   9   -2.08    1.30
  29   0  -9    0.16    1.55
 -29   1   9    1.62    1.53
  29   1  -9    1.44    1.62
 -29  -1   9    4.18    1.76
  29  -1  -9    3.92    1.80
  29   2  -9    0.46    1.76
 -29   2   9    2.95    2.04
 -29  -2   9    1.05    1.25
  29  -2  -9    3.60    1.71
 -29   3   9    0.90    2.19
  29   3  -9   -0.08    2.02
 -29  -3   9   -1.93    1.22
 -29   3  -9    7.84    3.06
  29  -3  -9   -0.55    1.41
 -29   4   9    7.87    3.13
  29   4  -9    4.00    2.42
 -29  -4   9    0.20    1.37
  29  -4  -9    0.28    1.43
 -29   4  -9    1.01    2.35
 -29   5   9   -6.05    2.83
  29   5  -9    5.14    2.73
 -29   5  -9   -4.03    2.34
 -29  -5   9    0.53    1.56
  29  -5  -9    0.67    1.70
 -29   0  10   11.34    1.94
  29   0 -10   13.52    2.26
  29   1 -10    2.36    1.89
 -29   1  10   -1.29    1.61
 -29  -1  10    0.98    1.57
  29  -1 -10   -0.33    1.63
  29   2 -10   -1.61    1.86
 -29   2  10    5.18    2.26
  29  -2 -10    0.67    1.70
 -29  -2  10    1.82    1.54
  29   3 -10    6.30    2.50
 -29   3  10    0.39    2.29
  29  -3 -10   -0.57    1.59
 -29  -3  10   -2.22    1.38
 -29   4  10    7.81    3.14
  29   4 -10    0.75    2.31
 -29  -4  10   -0.65    1.39
  29  -4 -10    1.83    1.74
  29   5 -10   -1.27    2.58
 -29   5  10    0.78    3.40
  29  -5 -10    2.91    1.70
 -29  -5  10    7.19    2.07
  29   0 -11   -1.40    1.74
 -29   0  11   -1.80    1.65
 -29   1  11   -0.18    1.69
  29   1 -11    0.87    1.96
  29  -1 -11   -0.74    1.83
 -29  -1  11   -1.32    1.64
  29   2 -11   -1.43    2.00
 -29   2  11    3.96    2.31
 -29  -2  11    5.88    2.01
  29   3 -11    2.03    2.20
 -29   3  11   -0.92    2.54
 -29  -3  11    1.78    1.79
  29  -3 -11   -0.64    1.60
  29   4 -11   -2.28    2.27
 -29   4  11    7.87    3.19
 -29  -4  11    5.16    2.10
  29  -4 -11   -1.56    1.65
  29   0 -12    3.78    1.93
 -29   0  12    2.42    1.78
  29   1 -12   -0.25    2.00
 -29   1  12   -0.93    1.97
  29  -1 -12    2.00    2.07
 -29  -1  12   -0.03    1.85
 -29   2  12    2.66    2.33
  29   2 -12    7.70    2.81
 -29  -2  12    0.71    1.92
  29  -2 -12    1.96    1.92
 -29   3  12   11.51    3.04
  29   3 -12    7.31    2.40
  29  -3 -12    8.15    2.02
 -29  -3  12    9.29    2.20
  29   0 -13    4.83    2.16
 -29   0  13   -2.49    1.76
 -29   1  13   23.12    3.00
  29   1 -13   20.89    3.10
 -29  -1  13   22.33    2.73
  29  -1 -13   24.54    3.60
  29   2 -13    4.82    2.60
 -29   2  13   -1.74    2.40
  29  -2 -13    0.40    1.91
 -29  -2  13   -0.13    1.88
  30   0   0    0.71    1.14
 -30   0   0   -0.79    1.13
  30  -1   0    1.44    1.36
  30   1   0    1.02    1.18
 -30  -1   0   -0.50    0.81
 -30   1   0   -0.71    1.08
 -30   2   0    1.39    1.45
  30   2   0   -1.06    1.23
 -30  -2   0    0.08    0.94
  30   3   0   -0.56    1.31
 -30  -3   0   -0.42    0.85
 -30   3   0    1.10    1.91
  30   4   0    1.60    1.43
 -30  -4   0    0.11    1.11
 -30   4   0   -2.08    1.99
 -30   5   0   -1.00    2.14
  30   5   0    0.53    1.60
 -30  -5   0    0.25    1.21
 -30   6   0    2.60    3.11
 -30  -6   0    0.44    1.14
 -30   7   0    1.50    3.21
 -30  -7   0   -0.22    1.46
 -30   0  -1   -0.25    0.96
 -30   0   1    0.55    1.11
  30   0  -1   -0.84    1.15
 -30   1   1   18.18    2.19
 -30  -1  -1   13.48    1.76
  30   1  -1   15.15    2.07
 -30  -1   1   16.02    1.84
 -30   1  -1   14.95    1.76
  30  -1  -1   14.60    1.94
  30   1   1   12.69    1.63
  30   2  -1    9.10    1.58
 -30   2   1   12.15    2.10
 -30  -2  -1    7.78    1.21
  30   2   1    7.21    1.42
 -30   2  -1    5.89    1.75
 -30  -2   1    8.96    1.22
  30   3  -1    0.27    1.35
 -30  -3  -1    2.26    0.95
  30   3   1    0.17    1.26
 -30  -3   1    0.90    1.12
 -30   3  -1   -1.39    1.52
 -30  -4  -1    1.90    1.06
 -30   4   1    7.10    2.37
  30   4  -1    6.34    1.68
 -30  -4   1    2.98    0.99
 -30   4  -1    4.65    2.53
  30   4   1    4.46    1.55
  30   5  -1   -1.41    1.66
 -30  -5  -1    0.29    1.17
 -30   5   1   -0.58    2.30
 -30  -5   1   -1.15    1.00
 -30   5  -1   -1.61    2.09
  30   5   1   -1.15    1.56
 -30  -6  -1    2.39    1.41
  30   6  -1   -1.19    1.96
 -30   6   1    1.74    2.76
 -30   6  -1    0.05    2.87
 -30  -6   1   -0.04    1.10
 -30  -7  -1    3.53    1.37
 -30   7   1    0.77    3.25
 -30  -7   1    1.55    1.58
 -30   7  -1   -0.59    3.14
  30   0  -2    6.26    1.47
 -30   0  -2    6.33    1.34
 -30   0   2    6.66    1.41
  30   1  -2   15.92    2.11
 -30   1   2   20.52    2.27
 -30  -1  -2   21.21    1.76
 -30  -1   2   17.68    1.89
 -30   1  -2   16.32    2.26
  30   2  -2   16.12    2.36
 -30   2   2   20.38    2.35
 -30  -2  -2   16.97    1.67
  30   2   2   19.91    2.30
 -30  -2   2   16.40    1.76
 -30   2  -2   14.55    1.94
  30  -2  -2   15.07    2.05
  30   3  -2   51.66    3.28
 -30  -3  -2   57.54    2.78
 -30   3   2   54.00    3.95
  30   3   2   46.32    3.00
 -30   3  -2   49.83    3.74
 -30  -3   2   53.38    2.88
 -30  -4  -2    7.43    1.13
 -30   4   2    5.07    2.22
  30   4  -2    6.03    1.97
  30   4   2    8.22    1.65
 -30  -4   2    6.80    1.31
 -30   4  -2    4.08    2.07
 -30   5   2    9.46    2.81
 -30  -5  -2    5.75    1.22
  30   5  -2    3.34    2.24
 -30  -5   2    5.14    1.31
 -30   5  -2    5.08    2.37
  30   6  -2    1.37    2.07
 -30   6   2   -2.65    2.66
 -30  -6  -2    1.73    1.36
 -30   6  -2    4.15    3.15
 -30  -6   2   -1.21    1.18
 -30   7   2   -1.78    3.26
 -30  -7  -2   -0.69    1.32
 -30  -7   2    0.89    1.66
 -30   7  -2    1.41    3.43
 -30   0   3    1.85    1.32
 -30   0  -3   -0.75    1.13
 -30   1   3    5.14    1.50
 -30  -1  -3    8.01    1.25
  30   1  -3    8.20    2.35
 -30  -1   3    4.63    1.31
  30  -1  -3    6.35    1.39
 -30   1  -3    6.62    1.45
 -30  -2  -3    1.21    0.89
  30  -2  -3   -0.44    1.16
 -30  -2   3    2.56    1.30
 -30   2  -3   -0.29    1.39
 -30   3   3   -1.08    1.64
 -30  -3  -3    0.87    0.90
  30   3  -3   -0.48    1.56
  30  -3  -3   -1.48    1.29
 -30   3  -3    1.56    1.72
  30   4  -3   34.92    3.10
 -30   4   3   33.49    3.88
 -30  -4  -3   32.24    2.18
 -30   4  -3   35.01    4.16
 -30  -4   3   32.46    2.45
 -30   5   3    1.23    2.44
 -30  -5  -3    3.39    1.10
  30   5  -3    4.66    2.14
 -30  -5   3    2.67    1.29
 -30   5  -3    1.34    2.16
 -30   6   3   15.89    3.48
  30   6  -3   12.92    2.43
 -30  -6  -3   12.40    1.57
 -30   6  -3    9.45    2.90
 -30  -6   3   12.09    1.65
  30   7  -3    4.49    2.54
 -30  -7  -3    2.08    1.65
 -30   7   3    4.99    3.83
 -30   7  -3    1.22    2.97
 -30  -7   3    1.24    1.71
 -30   0  -4   16.48    2.07
  30   0  -4   17.44    2.31
 -30   0   4   15.37    1.79
  30   1  -4   27.87    2.62
 -30  -1  -4   26.73    2.14
 -30  -1   4   23.81    2.22
  30  -1  -4   30.55    2.47
 -30   1  -4   26.76    2.34
 -30  -2  -4    5.64    1.15
 -30   2   4    4.28    1.69
  30   2  -4    3.40    1.57
 -30   2  -4    4.31    1.57
 -30  -2   4    6.52    1.79
  30  -2  -4    4.72    1.45
 -30   3   4   32.18    3.25
 -30  -3  -4   33.92    2.11
  30   3  -4   41.02    3.22
 -30   3  -4   29.41    3.12
  30  -3  -4   33.57    2.70
 -30  -3   4   32.39    2.41
 -30   4   4   -4.76    1.75
  30   4  -4    1.11    1.78
 -30  -4  -4    5.27    1.12
 -30  -4   4    1.71    1.27
 -30  -5  -4   -1.72    1.07
  30   5  -4   -1.96    1.84
 -30   5   4   -2.66    2.31
 -30   5  -4   -0.89    2.33
 -30  -5   4   -1.64    1.33
 -30   6   4    4.37    3.00
  30   6  -4    4.41    2.31
 -30  -6   4    4.87    1.52
 -30   6  -4    2.04    2.71
 -30   7   4   -2.09    3.16
  30   7  -4   -0.83    2.43
 -30  -7   4    1.82    1.63
 -30   7  -4    1.09    3.16
  30   0  -5   -0.93    1.19
 -30   0  -5    0.27    1.26
 -30   0   5   -2.28    1.07
  30   1  -5    1.84    1.43
 -30   1   5    5.25    1.63
 -30  -1  -5    5.70    1.27
  30  -1  -5    2.37    1.23
 -30  -1   5    5.04    1.32
 -30   1  -5    2.39    1.41
 -30  -2  -5    0.64    1.08
  30   2  -5    2.88    1.69
 -30   2   5    0.39    1.50
  30  -2  -5    0.04    1.32
 -30  -2   5    1.97    1.19
 -30   2  -5    2.62    1.62
 -30  -3  -5    5.06    1.09
 -30   3   5    6.03    1.96
  30   3  -5    4.54    1.81
 -30  -3   5    3.69    1.23
  30  -3  -5    2.96    1.30
 -30   3  -5    6.03    1.90
 -30   4   5   22.56    2.92
  30   4  -5   26.54    3.30
 -30  -4  -5   17.37    1.85
 -30   4  -5   21.24    3.50
  30  -4  -5   16.87    2.54
 -30  -4   5   20.33    2.19
  30   5  -5    1.12    2.03
 -30   5   5    7.04    3.01
 -30   5  -5   -0.40    2.09
 -30  -5   5    0.52    1.41
 -30   6   5    4.88    3.13
  30   6  -5   -0.40    2.14
 -30  -6   5    1.03    1.34
 -30   6  -5    0.67    2.81
 -30   7   5   -2.00    3.41
  30   7  -5    3.91    2.53
 -30   7  -5    1.23    2.96
 -30  -7   5    2.21    1.90
 -30   0  -6   -0.08    1.26
 -30   0   6   -1.34    1.16
  30   0  -6    1.61    1.55
 -30   1   6    7.50    1.76
 -30  -1  -6    4.28    1.15
  30   1  -6    7.96    1.91
 -30  -1   6    4.69    1.39
  30  -1  -6    5.22    1.60
 -30   1  -6    6.05    1.57
  30   2  -6    0.05    1.51
 -30   2   6   -0.91    1.52
 -30  -2   6    0.49    1.17
 -30   2  -6   -0.93    1.47
  30  -2  -6   -0.91    1.26
  30   3  -6   44.71    3.65
  30  -3  -6   40.57    3.06
 -30  -3   6   38.34    2.59
 -30   3  -6   34.08    3.36
 -30   4   6   -2.28    2.13
  30   4  -6    0.96    1.89
 -30  -4   6    0.64    1.33
 -30   4  -6    0.04    2.02
  30  -4  -6    2.27    1.54
  30   5  -6   14.80    2.51
 -30   5   6   10.10    3.14
 -30  -5   6    9.83    1.76
 -30   5  -6   19.10    2.84
 -30   6   6    2.59    3.37
  30   6  -6   -0.77    2.15
 -30   6  -6   -0.23    2.59
 -30  -6   6    1.62    1.58
  30   0  -7   -1.62    1.29
 -30   0  -7   -3.02    1.28
 -30   0   7   -0.27    1.23
 -30   1   7    7.17    1.70
  30   1  -7    4.30    1.66
 -30  -1   7    5.84    1.63
  30  -1  -7    4.79    1.70
 -30   1  -7    7.73    1.69
  30   2  -7    4.75    1.97
 -30   2   7    2.79    1.80
 -30  -2   7    1.22    1.26
 -30   2  -7    3.14    1.66
  30  -2  -7    2.10    1.42
 -30   3   7    3.12    2.13
  30   3  -7    2.65    1.82
 -30  -3   7    2.59    1.28
  30  -3  -7    4.59    1.58
 -30   3  -7    3.87    1.88
  30   4  -7    2.69    2.10
 -30   4   7    1.55    2.41
 -30   4  -7    1.19    1.98
 -30  -4   7    2.29    1.48
  30  -4  -7    0.02    1.48
  30   5  -7    5.64    2.47
 -30   5   7    2.41    2.66
  30  -5  -7    4.91    1.79
 -30  -5   7    0.28    1.44
 -30   5  -7    0.76    2.30
  30   6  -7    6.52    2.71
 -30   6   7    9.57    3.87
 -30   6  -7   10.46    3.23
 -30  -6   7   13.05    2.25
  30   0  -8    0.92    1.49
 -30   0   8    0.84    1.40
 -30   1   8   49.11    3.46
  30   1  -8   49.65    3.68
  30  -1  -8   47.13    3.47
 -30  -1   8   50.03    3.32
  30   2  -8   -0.92    1.69
 -30   2   8    0.61    1.80
  30  -2  -8   -0.40    1.53
 -30  -2   8    0.87    1.36
 -30   2  -8    0.15    1.70
 -30   3   8   20.75    2.89
  30   3  -8   24.19    3.30
 -30  -3   8   15.15    1.91
  30  -3  -8   22.19    2.69
 -30   3  -8   18.57    2.50
 -30   4   8    1.22    2.72
  30   4  -8    3.84    2.30
 -30  -4   8    1.07    1.52
 -30   4  -8    0.69    2.27
  30  -4  -8    0.13    1.50
 -30   5   8   58.91    5.47
  30   5  -8   54.15    4.72
  30  -5  -8   62.11    3.83
 -30  -5   8   62.88    3.80
 -30   5  -8   62.58    5.11
 -30   6   8    1.97    3.48
  30   6  -8   -3.30    2.54
 -30  -6   8    2.26    1.90
 -30   6  -8    3.75    3.45
 -30   0   9   -1.89    1.37
  30   0  -9   -2.66    1.54
 -30   1   9   27.09    2.90
  30   1  -9   24.48    3.00
 -30  -1   9   23.09    2.67
  30  -1  -9   29.17    2.82
  30   2  -9    2.66    1.77
 -30   2   9    1.94    2.06
  30  -2  -9   -0.44    1.62
 -30  -2   9    4.84    1.75
  30   3  -9   13.26    2.56
 -30   3   9   12.23    2.73
  30  -3  -9   14.80    2.03
 -30  -3   9   13.70    1.84
  30   4  -9   -4.60    2.12
 -30   4   9    5.74    3.02
 -30  -4   9    1.42    1.45
  30  -4  -9    1.33    1.61
 -30   5   9    7.01    3.39
  30   5  -9   17.68    3.17
 -30  -5   9   15.76    2.23
 -30   5  -9   14.60    3.30
  30  -5  -9   11.82    2.21
  30   0 -10    7.77    2.18
 -30   0  10    5.25    1.82
 -30   1  10   10.07    2.11
  30   1 -10   10.59    2.23
 -30  -1  10   10.37    2.03
  30   2 -10    2.19    2.02
 -30   2  10    5.40    2.31
  30  -2 -10    7.35    2.15
 -30  -2  10    2.89    1.79
  30   3 -10   -0.74    2.17
 -30   3  10   -0.97    2.43
 -30  -3  10    5.96    1.98
  30  -3 -10    0.84    1.70
  30   4 -10    9.09    2.99
 -30   4  10   11.17    3.40
  30  -4 -10    3.22    1.80
 -30  -4  10    7.07    2.04
  30   5 -10    5.91    3.08
 -30   5  10   -2.21    3.31
 -30  -5  10   -0.97    1.70
  30  -5 -10    0.48    1.70
  30   0 -11   -2.75    1.85
 -30   0  11   -2.63    1.55
  30   1 -11    4.80    1.97
 -30   1  11    2.27    2.00
  30  -1 -11    4.52    1.91
 -30  -1  11    3.20    1.91
  30   2 -11    0.91    2.11
 -30   2  11    1.88    2.38
 -30  -2  11    1.96    1.84
  30  -2 -11    1.04    1.75
 -30   3  11   -0.83    2.56
  30   3 -11    3.78    2.46
  30  -3 -11    3.02    1.81
 -30  -3  11    3.61    1.87
  30   4 -11    6.37    2.70
 -30   4  11    6.25    3.46
  30  -4 -11    4.37    2.08
 -30  -4  11    1.86    1.87
 -30   0  12    9.12    2.19
  30   0 -12    5.53    2.23
  30   1 -12    3.67    2.33
 -30   1  12    3.17    2.17
  30  -1 -12    1.95    1.96
 -30  -1  12    0.01    1.87
 -30   2  12    0.76    2.40
  30   2 -12   -0.76    2.27
  30  -2 -12    1.97    1.68
 -30  -2  12    0.58    1.75
  30   3 -12   13.82    4.71
 -30   3  12    9.47    3.09
 -30  -3  12    9.11    2.24
  30  -3 -12   10.51    2.24
 -30   0  13    2.11    2.11
  30   0 -13   -0.93    2.12
  30   1 -13   18.54    3.02
  30  -1 -13   16.92    2.69
 -30  -1  13   17.11    2.72
  31   0   0   -2.19    1.18
 -31   0   0    0.20    1.06
 -31  -1   0    3.89    1.04
 -31   1   0    6.54    1.53
  31   1   0    2.78    1.36
 -31   2   0    1.92    1.52
  31   2   0    1.18    1.47
 -31  -2   0    0.42    1.02
 -31  -3   0    2.98    1.12
  31   3   0   -0.42    1.45
 -31   3   0    4.04    2.36
 -31  -4   0   -0.14    1.01
 -31   4   0    2.00    2.14
  31   4   0    0.61    1.68
 -31  -5   0    6.40    1.41
  31   5   0    6.77    1.77
 -31   5   0    6.08    2.53
 -31   6   0    3.29    2.95
 -31  -6   0   -0.09    1.18
 -31  -7   0    2.17    1.45
 -31   7   0    7.47    3.74
  31   0  -1   -1.40    1.13
 -31   0   1    0.24    1.10
 -31   0  -1    0.24    0.98
  31   1  -1   19.70    2.28
 -31  -1  -1   20.75    2.01
 -31   1   1   20.31    2.30
 -31  -1   1   22.41    1.93
  31   1   1   15.46    2.26
 -31   1  -1   23.35    2.23
  31  -1  -1   18.91    2.54
 -31   2   1    4.86    1.91
  31   2  -1    3.84    1.53
 -31  -2  -1    2.00    0.96
  31   2   1    3.49    1.46
 -31  -2   1    1.13    0.95
 -31   2  -1    2.16    1.53
 -31   3   1    8.53    2.09
 -31  -3  -1    7.45    1.37
  31   3  -1    7.54    1.67
  31   3   1    8.91    1.60
 -31   3  -1    9.91    2.42
 -31  -3   1    9.54    1.32
 -31   4   1    9.23    2.47
 -31  -4  -1    7.25    1.18
  31   4  -1    4.46    1.82
  31   4   1    6.45    1.67
 -31  -4   1    3.85    2.07
 -31   4  -1    8.58    2.71
 -31   5   1   19.12    3.19
 -31  -5   1   16.27    2.01
  31   5   1   25.97    2.81
 -31   5  -1   15.67    3.02
 -31   6   1   -1.11    2.58
 -31  -6  -1   -0.55    1.22
 -31  -6   1    0.10    1.26
 -31   6  -1   -3.91    2.73
 -31   7   1    4.99    3.67
 -31  -7  -1    4.04    1.50
 -31   7  -1    0.10    3.41
 -31  -7   1    5.70    1.54
  31   0  -2   31.77    3.02
 -31   0  -2   34.95    2.47
 -31   0   2   33.97    2.64
 -31  -1  -2    1.39    0.96
 -31   1   2    3.08    1.58
 -31  -1   2    2.44    1.32
 -31   1  -2   -0.93    1.25
  31  -1  -2   -0.55    1.23
 -31  -2  -2   14.24    1.83
  31   2  -2    9.05    1.92
 -31   2  -2   11.94    1.74
 -31  -2   2   13.25    1.56
  31  -2  -2    8.81    1.61
  31   2   2   13.39    1.86
 -31   3   2    0.65    1.92
 -31  -3  -2   -0.52    0.90
 -31   3  -2   -0.11    1.72
  31   3   2   -2.33    1.32
 -31   4   2    3.99    2.26
  31   4  -2    1.65    1.75
 -31  -4  -2    3.97    1.25
 -31   4  -2    4.17    2.15
  31   4   2    1.05    1.49
 -31  -4   2    2.16    1.22
  31   5  -2    1.83    2.07
 -31  -5  -2    1.01    1.04
 -31   5   2    2.82    2.60
 -31  -5   2   -0.42    1.15
 -31   5  -2    0.80    2.19
  31   6  -2    0.90    2.25
 -31   6   2    0.69    3.02
 -31  -6  -2   -0.72    1.19
 -31  -6   2    0.74    1.54
 -31   6  -2    2.66    2.99
 -31  -7  -2    2.88    1.44
 -31   7   2    0.83    3.57
 -31   7  -2    5.59    3.93
 -31  -7   2    6.04    1.61
 -31   0  -3    0.36    1.15
 -31   0   3   -0.24    1.20
  31   0  -3    1.44    1.39
  31   1  -3    0.77    1.40
 -31  -1  -3    0.06    0.95
 -31  -1   3    0.73    1.14
 -31   1  -3    2.83    1.32
  31  -1  -3    1.65    1.49
 -31   2   3   -0.76    1.49
  31   2  -3    0.62    1.44
 -31  -2  -3    1.76    0.95
  31  -2  -3    1.96    1.29
 -31   2  -3    0.82    1.54
  31   3  -3    2.74    1.91
 -31   3   3   -0.39    1.65
 -31  -3  -3    1.55    1.10
  31  -3  -3    1.56    1.53
 -31  -3   3    2.31    1.34
 -31   3  -3    2.96    1.86
  31   4  -3   10.14    2.05
 -31   4   3   10.80    2.70
 -31  -4  -3   14.65    1.78
 -31  -4   3   18.84    2.09
 -31   4  -3   15.68    2.49
 -31  -5  -3    0.13    1.15
  31   5  -3    1.07    1.82
 -31   5   3   -0.80    2.48
 -31  -5   3    3.10    1.31
 -31   5  -3    2.32    2.17
  31   6  -3    3.37    2.27
 -31   6   3    2.26    3.13
 -31   6  -3    0.67    2.57
 -31  -6   3    1.79    1.53
 -31   7   3   14.18    4.43
 -31   7  -3   -3.10    3.08
 -31  -7   3    2.22    1.57
 -31   0  -4    3.08    1.44
  31   0  -4    1.82    1.43
 -31   0   4    5.33    1.56
 -31   1   4    0.43    1.35
  31   1  -4    1.39    1.50
 -31  -1  -4    2.37    1.19
 -31  -1   4    1.03    1.19
  31  -1  -4    1.72    1.27
 -31   1  -4    2.20    1.32
 -31   2   4    8.12    1.97
 -31  -2  -4    7.29    1.21
  31   2  -4    9.95    1.97
  31  -2  -4    8.06    1.54
 -31   2  -4    9.50    1.85
 -31  -2   4    7.16    1.52
 -31   3   4   12.19    2.25
  31   3  -4    9.70    1.94
 -31  -3  -4   12.96    1.72
  31  -3  -4    8.27    1.71
 -31  -3   4   14.99    2.05
 -31   3  -4   11.95    2.08
 -31   4   4   -0.64    2.12
 -31  -4  -4    2.98    1.17
  31   4  -4    3.53    1.93
 -31  -4   4   -0.63    1.14
 -31   4  -4    0.19    2.05
  31   5  -4    4.44    2.13
 -31  -5  -4    3.36    1.19
 -31   5   4    0.60    2.63
 -31   5  -4    4.77    2.84
 -31  -5   4    3.45    1.40
  31   6  -4   11.20    2.50
 -31   6   4    3.16    3.34
 -31   6  -4    7.31    3.15
 -31  -6   4   10.49    1.94
 -31   7   4   -5.55    3.13
  31   7  -4   -2.53    2.36
 -31   7  -4    1.86    3.69
 -31  -7   4    0.60    1.47
 -31   0   5    0.76    1.29
  31   0  -5   -1.07    1.44
 -31   0  -5   -0.55    1.21
 -31  -1  -5   16.29    1.98
 -31   1   5   11.63    1.90
  31   1  -5   16.54    2.17
  31  -1  -5   11.39    1.76
 -31  -1   5   15.91    1.89
 -31   1  -5   16.59    1.91
 -31   2   5    1.67    1.62
  31   2  -5    5.00    1.75
 -31  -2  -5    1.94    1.14
  31  -2  -5    0.94    1.42
 -31  -2   5    3.31    1.41
 -31   2  -5    3.44    1.77
 -31  -3  -5    9.04    1.24
  31   3  -5   10.01    2.13
 -31   3   5   12.00    2.25
  31  -3  -5    7.42    1.71
 -31  -3   5    7.55    1.45
 -31   3  -5   10.82    2.17
 -31   4   5   11.22    2.67
  31   4  -5    9.68    2.18
 -31   4  -5    7.23    2.33
 -31  -4   5    9.49    1.58
  31  -4  -5    7.37    1.91
 -31   5   5   12.36    3.22
  31   5  -5    3.51    2.30
 -31   5  -5    1.50    2.27
 -31  -5   5    2.75    1.51
 -31   6   5   -1.74    2.97
  31   6  -5    4.12    2.69
 -31   6  -5    0.84    2.79
 -31  -6   5    4.29    1.78
 -31   0  -6   19.31    2.41
  31   0  -6   18.93    2.66
 -31   0   6   14.18    1.94
 -31   1   6    8.31    1.88
 -31  -1  -6    3.58    1.23
  31   1  -6    6.70    1.74
 -31  -1   6    4.27    1.48
  31  -1  -6    7.71    1.90
 -31   1  -6    6.64    1.69
  31   2  -6    4.28    1.80
 -31  -2  -6    4.85    1.50
 -31   2   6    7.23    1.87
 -31  -2   6    8.55    1.65
  31  -2  -6    9.64    1.90
 -31   2  -6    6.82    1.84
  31   3  -6    1.40    1.82
 -31   3   6    7.18    2.53
  31  -3  -6    2.51    1.46
 -31   3  -6   -1.07    1.63
 -31  -3   6    0.80    1.30
  31   4  -6   11.78    2.31
 -31   4   6    5.26    2.64
  31  -4  -6    7.24    1.91
 -31  -4   6    8.08    1.52
 -31   4  -6    7.09    2.80
 -31   5   6   -2.47    2.70
  31   5  -6   -0.81    2.11
 -31   5  -6   -0.33    2.35
 -31  -5   6    2.76    1.57
  31   6  -6   10.92    2.65
 -31   6   6   10.96    3.84
 -31   6  -6    9.99    3.19
 -31  -6   6   10.38    1.94
 -31   0  -7   -3.41    1.29
  31   0  -7   -1.14    1.43
 -31   0   7    0.22    1.30
  31   1  -7   19.03    2.73
 -31   1   7   20.83    2.78
 -31   1  -7   24.72    2.93
  31  -1  -7   16.51    2.56
 -31  -1   7   18.89    2.38
  31   2  -7   27.53    3.04
 -31   2   7   26.30    3.12
 -31  -2   7   31.23    2.69
  31  -2  -7   26.88    2.65
 -31   2  -7   27.18    3.08
 -31   3   7   -1.20    1.89
  31   3  -7   -0.49    1.79
 -31  -3   7    1.78    1.44
  31  -3  -7    0.32    1.54
 -31   3  -7    1.67    2.00
  31   4  -7   37.83    3.76
 -31   4   7   34.30    4.63
 -31  -4   7   48.71    3.10
  31  -4  -7   38.93    3.10
 -31   5   7   13.15    3.41
  31   5  -7   12.84    2.55
 -31  -5   7   16.60    2.23
 -31   5  -7   10.87    2.80
  31  -5  -7   17.21    2.54
  31   6  -7   37.28    4.58
 -31   6   7   35.51    4.69
 -31   6  -7   33.67    4.25
 -31  -6   7   37.20    3.28
  31   0  -8   42.43    3.43
 -31   0   8   41.85    3.08
  31   1  -8    2.21    1.73
 -31   1   8   -0.46    1.43
  31  -1  -8    3.39    1.90
 -31  -1   8   -0.02    1.44
  31   2  -8   22.17    2.65
 -31   2   8   16.31    2.55
 -31  -2   8   21.98    2.64
  31  -2  -8   24.26    2.86
 -31   2  -8   16.84    2.75
 -31   3   8   -0.86    2.14
  31   3  -8    3.05    1.99
  31  -3  -8    4.30    1.86
 -31  -3   8    3.84    1.65
 -31   3  -8    2.27    2.16
 -31   4   8    3.80    2.78
  31   4  -8    9.13    2.71
 -31  -4   8    6.76    1.90
 -31   5   8    0.30    3.05
  31   5  -8    3.19    2.57
  31  -5  -8    1.74    1.74
 -31  -5   8    3.27    1.71
 -31   5  -8    3.72    2.90
  31   0  -9   -1.03    1.75
 -31   0   9   -2.53    1.39
 -31   1   9   -0.43    1.56
  31   1  -9    4.76    2.26
 -31  -1   9   -0.99    1.45
  31  -1  -9   -2.41    1.54
 -31   2   9   21.60    2.82
  31   2  -9   13.78    2.37
  31  -2  -9   16.83    2.45
 -31  -2   9   15.24    2.11
 -31   3   9    2.42    2.29
  31   3  -9   12.06    2.66
 -31  -3   9    6.97    1.76
  31  -3  -9    2.03    1.67
  31   4  -9    1.51    2.46
 -31   4   9    8.35    3.22
 -31  -4   9    3.29    1.63
  31  -4  -9    3.32    1.91
  31   5  -9   -3.72    2.63
 -31   5   9   -0.52    3.28
  31  -5  -9   -1.42    1.76
 -31   5  -9    6.96    3.99
 -31  -5   9   -0.28    1.73
 -31   0  10    8.87    2.00
  31   0 -10   10.69    2.17
  31   1 -10    0.20    1.82
 -31   1  10   -1.13    1.84
 -31  -1  10    0.44    1.68
  31  -1 -10   -1.19    1.72
  31   2 -10   13.21    2.31
 -31   2  10   10.40    2.65
 -31  -2  10    8.21    1.96
  31  -2 -10    8.84    2.19
 -31   3  10   -4.27    2.27
  31   3 -10    1.80    2.42
 -31  -3  10   -0.35    1.64
  31  -3 -10   -0.56    1.57
  31   4 -10   -2.32    2.48
 -31   4  10   10.55    3.55
 -31  -4  10   -1.78    1.63
  31  -4 -10   -1.68    1.68
  31   0 -11    3.85    2.33
 -31   0  11   -1.13    1.80
 -31   1  11    2.19    2.06
  31   1 -11    1.54    2.04
  31  -1 -11    1.62    1.96
 -31  -1  11   -0.55    1.81
  31   2 -11   10.28    2.52
 -31   2  11    4.73    2.48
 -31  -2  11    2.52    1.81
  31  -2 -11    7.77    2.21
  31   3 -11   -4.70    2.11
 -31   3  11   -0.40    2.62
 -31  -3  11   -2.47    1.90
  31  -3 -11    3.57    2.05
  31   0 -12   15.25    2.63
 -31   0  12   14.52    2.47
  31   1 -12    3.54    2.19
 -31   1  12    5.83    2.46
  31  -1 -12    0.16    2.07
 -31  -1  12   -1.50    2.00
  31   2 -12    1.56    2.39
 -31   2  12    1.48    2.55
 -31  -2  12    3.58    1.91
  31  -2 -12    2.31    1.88
 -32   0   0   -0.06    1.10
  32   0   0   -0.22    1.60
 -32   1   0    0.44    1.57
 -32  -1   0   -0.34    1.07
  32   1   0    1.48    1.39
 -32   2   0   45.08    3.31
  32   2   0   43.10    2.96
 -32  -2   0   50.50    2.73
 -32  -3   0   -0.44    1.25
 -32   3   0    0.99    2.10
  32   3   0   -1.91    1.37
 -32   4   0   -0.85    2.18
  32   4   0   -2.21    1.52
  32   5   0    2.28    2.03
 -32   5   0   -4.54    2.45
 -32  -5   0    0.37    1.17
 -32  -6   0   34.29    2.66
 -32   6   0   41.98    5.09
 -32   7   0    9.74    4.18
 -32   0   1    1.75    1.29
 -32   0  -1   -0.70    1.01
  32   0  -1   -2.71    1.32
 -32  -1  -1   24.16    2.02
  32   1  -1   32.39    4.55
 -32   1   1   21.44    2.44
  32  -1  -1   23.94    2.46
 -32  -1   1   22.42    2.03
 -32   1  -1   27.54    2.41
  32   1   1   22.41    2.43
 -32  -2  -1   31.23    2.28
  32   2  -1   32.80    2.95
 -32   2   1   28.45    4.26
  32   2   1   27.52    2.63
 -32  -2   1   30.41    2.42
 -32   2  -1   31.01    3.14
 -32  -3  -1   13.70    1.72
  32   3  -1   10.41    1.88
 -32   3   1    6.21    2.23
 -32  -3   1   11.16    1.44
  32   3   1   10.53    1.73
 -32   3  -1   12.79    2.20
 -32  -4  -1    4.48    1.32
 -32   4   1    4.62    2.37
 -32   4  -1    4.78    2.38
 -32  -4   1    2.96    1.19
  32   4   1    2.92    1.66
 -32   5   1    1.10    2.60
 -32  -5  -1    1.28    1.17
  32   5  -1    1.20    2.26
 -32  -5   1    1.06    1.27
 -32   5  -1    1.01    2.37
 -32   6   1    0.65    2.91
 -32  -6  -1    1.89    1.30
 -32   6  -1   -0.51    2.88
 -32  -6   1    3.40    1.42
 -32  -7  -1    7.88    1.96
 -32   7   1    3.65    3.66
 -32   7  -1   -2.80    3.44
 -32  -7   1    0.77    1.40
  32   0  -2    3.14    1.57
 -32   0  -2    1.16    1.08
 -32   0   2    2.33    1.29
 -32  -1  -2    1.62    1.10
  32   1  -2    4.76    1.52
 -32  -1   2    2.11    1.19
  32  -1  -2   -0.86    1.21
 -32   1  -2    1.97    1.41
 -32   2   2   80.35    4.55
 -32  -2  -2   82.07    3.74
  32   2  -2   84.34    4.16
  32  -2  -2   82.17    4.21
 -32  -2   2   77.93    4.38
 -32   2  -2   81.17    4.33
 -32   3   2    0.12    1.87
  32   3  -2    5.71    1.87
 -32  -3  -2   -0.43    0.97
  32   3   2   -1.38    1.47
 -32  -3   2    1.41    1.18
  32   4  -2    1.82    1.87
 -32   4   2    2.78    2.24
 -32  -4  -2    3.62    1.17
 -32  -4   2    3.92    1.25
 -32   4  -2    5.34    2.25
 -32   5   2    3.26    2.74
  32   5  -2   -1.17    1.82
 -32  -5  -2    0.44    1.27
 -32  -5   2    0.12    1.12
 -32   5  -2   -1.27    2.19
 -32  -6  -2   16.81    2.19
 -32   6   2   10.26    3.54
  32   6  -2    9.16    2.53
 -32  -6   2   18.21    2.37
 -32   6  -2   17.59    3.41
 -32  -7  -2    1.39    1.71
 -32   7   2    3.66    3.70
 -32  -7   2    3.01    1.54
 -32   7  -2    9.38    3.92
 -32   0  -3   -1.92    1.15
 -32   0   3   -0.32    1.31
  32   0  -3   -0.56    1.30
 -32  -1  -3    2.34    1.07
  32   1  -3    0.13    1.38
 -32   1   3    0.98    1.38
  32  -1  -3    3.13    1.48
 -32   1  -3    2.01    1.54
 -32  -1   3    3.20    1.53
 -32   2   3   27.40    3.16
  32   2  -3   35.10    2.96
 -32  -2  -3   34.20    2.38
  32  -2  -3   36.64    2.87
 -32  -2   3   32.69    2.40
 -32   2  -3   30.10    2.99
 -32  -3  -3    7.64    1.32
  32   3  -3    7.53    1.96
 -32   3   3    8.05    2.23
 -32  -3   3    7.06    1.51
  32  -3  -3   13.54    2.08
 -32   3  -3   10.68    2.28
  32   4  -3   55.38    3.76
 -32  -4  -3   44.73    2.75
 -32   4   3   48.65    4.52
 -32  -4   3   47.18    2.95
 -32   4  -3   54.21    4.47
 -32  -5  -3    0.17    1.07
  32   5  -3   -0.37    2.05
 -32   5   3   -1.86    2.63
 -32   5  -3    1.26    2.30
 -32  -5   3    0.04    1.26
 -32   6   3   12.54    3.56
  32   6  -3   23.17    3.52
 -32  -6  -3   13.44    1.80
 -32  -6   3   20.23    2.29
 -32   6  -3   14.69    3.13
 -32   0  -4   35.16    2.76
  32   0  -4   34.43    2.75
 -32   0   4   41.54    2.95
 -32   1   4    4.53    1.57
 -32  -1  -4    6.57    1.27
  32   1  -4    4.96    1.68
 -32  -1   4    4.91    1.39
  32  -1  -4    3.44    1.43
 -32   1  -4    6.65    1.55
 -32   2   4    8.63    2.14
 -32  -2  -4    6.18    1.25
  32   2  -4    7.17    1.83
 -32   2  -4    5.47    1.82
 -32  -2   4    6.74    1.43
  32  -2  -4    4.13    1.53
  32   3  -4    0.04    1.72
 -32   3   4    2.19    1.98
 -32  -3  -4    3.75    1.27
 -32  -3   4    1.23    1.41
 -32   3  -4    3.11    1.92
  32  -3  -4    0.56    1.56
  32   4  -4    0.30    1.76
 -32  -4  -4   -1.85    1.04
 -32   4   4    1.05    2.19
 -32   4  -4   -1.39    1.92
 -32  -4   4    0.63    1.37
  32   5  -4    5.78    2.23
 -32   5   4    0.88    2.73
 -32  -5   4    2.35    1.47
 -32   5  -4    1.52    2.67
 -32   6   4   -1.05    3.18
  32   6  -4    4.70    2.30
 -32  -6   4    1.57    1.54
 -32   6  -4    0.31    3.21
 -32   0   5    2.38    1.48
  32   0  -5   -0.05    1.59
 -32   0  -5    0.79    1.37
 -32   1   5    8.35    1.88
 -32  -1  -5   10.57    1.56
  32   1  -5   11.15    1.96
 -32   1  -5   13.14    1.77
  32  -1  -5   10.96    1.70
 -32  -1   5   10.34    1.67
 -32   2   5   23.18    2.94
  32   2  -5   19.25    2.76
 -32  -2  -5   18.62    1.93
 -32  -2   5   20.96    2.31
 -32   2  -5   24.89    2.72
  32  -2  -5   22.03    2.55
 -32   3   5   -1.69    1.79
 -32  -3  -5    2.81    1.20
  32   3  -5    5.17    2.17
 -32  -3   5    1.82    1.38
  32  -3  -5    0.00    1.58
 -32   3  -5    1.31    1.98
  32   4  -5   22.30    3.30
 -32   4   5   28.04    3.29
 -32  -4   5   32.28    2.84
  32  -4  -5   31.34    3.18
 -32   4  -5   29.29    3.67
 -32   5   5   35.55    4.87
  32   5  -5   16.06    2.51
 -32   5  -5   17.11    3.01
 -32  -5   5   20.57    2.62
  32   6  -5    0.69    2.48
 -32   6   5    1.81    3.38
 -32   6  -5    3.96    2.96
 -32  -6   5    0.02    1.68
  32   0  -6   41.41    3.10
 -32   0  -6   39.15    2.91
 -32   0   6   37.85    2.93
  32   1  -6   -2.31    1.45
 -32  -1  -6   -0.22    1.31
 -32   1   6    3.42    1.72
 -32   1  -6    0.07    1.50
  32  -1  -6    0.34    1.42
 -32  -1   6    0.72    1.43
  32   2  -6    3.10    1.88
 -32   2   6   -0.90    1.58
 -32  -2   6   -1.03    1.37
 -32   2  -6    0.23    1.82
  32  -2  -6    0.59    1.47
 -32   3   6    4.96    2.40
  32   3  -6   -0.69    1.73
 -32  -3   6    1.45    1.50
  32  -3  -6   -0.64    1.55
 -32   3  -6    1.21    1.79
  32   4  -6    0.02    2.16
 -32   4   6    0.49    2.45
 -32  -4   6    0.69    1.44
 -32   4  -6   -1.32    2.10
  32  -4  -6   -0.81    1.72
 -32   5   6    0.04    2.71
  32   5  -6    2.05    2.41
 -32  -5   6    1.22    1.56
 -32   5  -6    1.27    2.59
  32   6  -6    2.58    2.47
 -32   6   6    8.43    4.11
 -32  -6   6   -1.11    1.84
 -32   6  -6    1.67    2.82
  32   0  -7    3.79    1.89
 -32   0   7   -1.55    1.30
 -32   1   7   14.09    2.21
  32   1  -7    8.78    2.06
  32  -1  -7    8.42    1.97
 -32  -1   7   10.40    1.78
 -32   1  -7   16.48    2.38
 -32   2   7    0.07    1.85
  32   2  -7    0.05    1.75
 -32  -2   7   -0.30    1.44
  32  -2  -7   -1.85    1.48
 -32   2  -7   -0.14    1.77
 -32   3   7    2.76    2.23
  32   3  -7    5.36    2.42
 -32  -3   7    3.25    1.58
  32  -3  -7    0.87    1.69
 -32   3  -7    1.59    2.03
  32   4  -7    8.64    2.44
 -32   4   7    9.30    2.86
 -32   4  -7    5.91    2.52
  32  -4  -7   12.96    2.17
 -32  -4   7   10.78    1.81
 -32   5   7    1.83    3.15
  32   5  -7   -2.41    2.15
 -32  -5   7    1.54    1.62
  32  -5  -7    5.38    2.16
 -32   5  -7   -1.80    2.65
 -32   0   8    3.61    1.66
  32   0  -8    4.78    1.80
 -32   1   8    8.12    2.07
  32   1  -8    3.09    1.87
 -32  -1   8    4.91    1.63
  32  -1  -8    5.51    1.94
 -32   2   8   -2.97    1.90
  32   2  -8    3.11    2.14
  32  -2  -8   -1.75    1.56
 -32  -2   8   -1.97    1.45
 -32   3   8    7.78    2.57
  32   3  -8    0.16    2.01
  32  -3  -8    4.83    1.97
 -32  -3   8    4.31    1.76
 -32   3  -8    4.68    2.34
 -32   4   8    1.07    2.75
  32   4  -8   -0.21    2.18
 -32   4  -8   -1.61    2.42
  32  -4  -8   -2.66    1.67
 -32  -4   8   -0.10    1.63
  32   5  -8    3.41    2.71
 -32   5   8   -0.61    3.28
 -32  -5   8    1.38    1.83
 -32   5  -8    3.82    3.31
  32  -5  -8    2.48    1.86
  32   0  -9    3.56    2.16
 -32   0   9   -1.14    1.72
 -32   1   9    7.72    2.22
  32   1  -9    4.13    2.03
 -32  -1   9    4.25    1.76
  32  -1  -9    6.70    2.21
  32   2  -9   -1.81    1.88
 -32   2   9   -0.67    2.10
 -32  -2   9   -0.22    1.61
  32  -2  -9   -3.05    1.67
 -32   3   9   -1.09    2.25
  32   3  -9   -0.37    2.08
  32  -3  -9    1.75    1.82
 -32  -3   9   -2.02    1.57
 -32   4   9    5.46    3.15
  32   4  -9   13.57    3.05
 -32  -4   9    1.56    1.67
  32  -4  -9    3.81    1.93
 -32   0  10   -0.24    1.77
  32   0 -10    0.70    1.85
  32   1 -10    4.79    2.36
 -32   1  10    1.21    2.04
  32  -1 -10   -2.13    1.80
 -32  -1  10   -1.05    1.55
 -32   2  10   -0.55    2.11
  32   2 -10   -3.55    1.93
  32  -2 -10   -0.38    1.79
 -32  -2  10   -2.87    1.62
  32   3 -10    7.80    2.90
 -32   3  10    0.21    2.60
  32  -3 -10   -0.49    1.67
 -32  -3  10   -1.18    1.76
 -32   4  10    8.83    3.47
  32   4 -10    0.93    2.59
 -32  -4  10   -3.85    1.58
  32  -4 -10   -1.49    1.80
  32   0 -11    0.58    2.08
 -32   0  11    0.56    1.93
 -32   1  11   11.47    2.72
  32   1 -11    0.90    2.37
  32  -1 -11    4.98    2.19
 -32  -1  11    0.66    1.84
  32   2 -11    6.08    2.30
 -32   2  11    4.40    2.60
 -32  -2  11    5.09    1.89
  32  -2 -11    8.64    2.33
 -32   3  11   -0.25    2.61
  32   3 -11    0.81    3.43
  32  -3 -11    4.51    1.85
 -32  -3  11    2.55    2.06
 -32   0  12   44.28    4.39
  32   0 -12   51.39    4.53
  32   1 -12   -3.50    2.06
 -32   1  12    0.37    2.33
 -32  -1  12    3.54    2.24
  32  -1 -12    2.95    2.22
 -33   0   0   -0.58    1.13
  33   0   0   -0.40    1.42
 -33  -1   0    1.27    1.34
 -33   1   0    1.57    1.50
  33   2   0   -1.58    1.44
 -33  -2   0   -0.37    1.02
 -33   2   0    1.80    1.59
 -33  -3   0   11.83    1.54
 -33   3   0   18.01    2.87
  33   3   0   12.64    2.04
 -33  -4   0    0.74    1.31
  33   4   0   -3.62    1.58
 -33   4   0   -1.81    2.32
 -33   5   0   -2.93    2.48
 -33  -5   0    2.91    1.23
  33   5   0   -2.50    1.86
 -33   6   0   -1.98    2.97
 -33  -6   0    1.55    1.57
 -33   0  -1    0.52    1.46
  33   0  -1    1.16    1.36
 -33   0   1    0.10    1.32
  33   1  -1    9.22    1.61
 -33  -1  -1   12.31    1.60
 -33  -1   1   11.06    1.60
  33   1   1    7.58    1.77
 -33   1  -1   11.14    1.72
  33  -1  -1    8.55    1.72
  33   2  -1    4.48    1.60
 -33  -2  -1    5.51    1.38
 -33   2   1    2.80    1.86
 -33   2  -1    5.16    1.97
  33   2   1    1.17    1.48
 -33  -2   1    4.12    1.24
 -33  -3  -1   -0.37    1.02
  33   3  -1    2.10    1.80
 -33   3   1   -0.44    1.93
 -33  -3   1    0.59    1.29
 -33   3  -1    1.65    1.85
  33   3   1    1.39    1.49
 -33   4   1    6.29    2.59
 -33  -4  -1   -0.25    1.19
  33   4  -1    1.02    1.74
 -33   4  -1    2.59    2.27
 -33  -4   1   -0.61    1.08
  33   4   1    0.83    1.58
 -33  -5  -1    1.01    1.25
 -33   5   1    2.10    2.73
  33   5  -1    0.89    1.94
 -33   5  -1    3.70    2.75
 -33  -5   1    1.86    1.19
 -33  -6  -1    0.14    1.40
 -33   6   1   -2.75    3.17
 -33  -6   1    1.24    1.42
 -33   6  -1   -1.04    3.09
  33   0  -2    4.10    1.53
 -33   0  -2    1.14    1.15
 -33   0   2    1.31    1.55
 -33  -1  -2   -0.94    1.19
 -33   1   2   -0.94    1.44
  33   1  -2    0.72    1.51
 -33  -1   2   -1.33    1.31
 -33   1  -2   -0.58    1.39
  33  -1  -2    2.42    1.60
  33   2  -2   33.46    2.80
 -33   2   2   31.69    3.17
 -33  -2  -2   30.13    2.21
 -33   2  -2   33.42    3.15
  33  -2  -2   31.47    2.85
 -33  -2   2   33.07    2.56
 -33  -3  -2   24.76    2.20
  33   3  -2   18.86    2.66
 -33   3   2   23.55    2.98
 -33   3  -2   19.00    2.63
  33   3   2   21.13    2.77
 -33  -3   2   18.51    2.13
 -33   4   2   -3.45    2.17
 -33  -4  -2    0.54    1.13
  33   4  -2    1.32    1.91
 -33   4  -2    0.20    2.20
 -33  -4   2   -1.52    1.01
 -33   5   2   39.12    4.96
  33   5  -2   36.79    3.40
 -33  -5  -2   33.10    2.88
 -33  -5   2   40.58    2.69
 -33   5  -2   39.64    4.49
  33   6  -2    2.19    2.24
 -33  -6  -2    3.82    1.48
 -33   6   2    3.85    3.48
 -33  -6   2    3.81    1.48
 -33   6  -2    7.90    3.10
 -33   0  -3    0.24    1.31
  33   0  -3    0.58    1.47
 -33   0   3   -0.67    1.36
 -33   1   3   50.61    3.38
 -33  -1  -3   43.14    2.74
  33   1  -3   40.96    3.09
 -33   1  -3   43.16    3.21
  33  -1  -3   46.13    3.12
 -33  -1   3   44.58    2.93
 -33  -2  -3    1.00    1.18
  33   2  -3    4.65    1.92
 -33   2   3    1.81    1.81
 -33   2  -3    1.76    1.62
  33  -2  -3    1.43    1.38
 -33  -2   3    2.92    1.37
  33   3  -3    6.18    1.96
 -33   3   3   12.81    2.51
 -33  -3  -3    8.78    1.40
  33  -3  -3    9.22    2.00
 -33  -3   3   10.38    1.62
 -33   3  -3    9.74    2.35
 -33   4   3   10.46    2.82
  33   4  -3   10.60    2.30
 -33  -4  -3   14.60    1.97
 -33   4  -3   13.00    2.74
 -33  -4   3   10.51    1.60
 -33  -5  -3    3.96    1.43
 -33   5   3    1.75    2.80
  33   5  -3    3.28    2.37
 -33   5  -3    3.34    2.44
 -33  -5   3    1.03    1.38
  33   6  -3    2.80    2.41
 -33   6   3    6.12    3.26
 -33   6  -3    6.05    2.80
 -33  -6   3    8.70    1.60
  33   0  -4   53.26    3.31
 -33   0  -4   50.36    3.21
 -33   0   4   48.04    3.27
 -33   1   4   12.33    2.10
 -33  -1  -4   12.57    1.60
  33   1  -4   18.73    2.72
 -33   1  -4   11.69    1.91
 -33  -1   4   19.13    2.50
  33  -1  -4   11.43    1.83
 -33  -2  -4    1.01    1.19
 -33   2   4    1.65    1.80
  33   2  -4    1.63    1.74
 -33   2  -4    0.56    1.68
 -33  -2   4   -0.18    1.30
  33  -2  -4    0.65    1.32
 -33  -3  -4   15.69    1.95
 -33   3   4   18.93    2.87
  33   3  -4   28.83    3.27
 -33  -3   4   18.96    2.05
  33  -3  -4   19.40    2.65
 -33  -4  -4    7.21    1.40
 -33   4   4    7.04    2.60
  33   4  -4    3.85    2.12
 -33  -4   4    7.84    1.55
 -33   4  -4    4.05    2.18
  33   5  -4   15.67    2.54
 -33   5   4   18.86    3.61
 -33  -5   4   16.99    2.30
 -33   5  -4   19.30    3.23
 -33   6   4   -6.46    3.26
  33   6  -4    4.18    2.55
 -33  -6   4    0.08    1.44
 -33   6  -4    3.28    3.16
  33   0  -5   -0.08    1.51
 -33   0  -5    0.33    1.49
 -33   0   5    1.96    1.64
 -33   1   5    1.09    1.66
  33   1  -5    0.36    1.62
 -33  -1  -5    0.23    1.21
  33  -1  -5    3.37    1.69
 -33  -1   5    1.26    1.43
 -33   1  -5    2.59    1.52
  33   2  -5    2.49    1.90
 -33  -2  -5    2.83    1.28
 -33   2   5    5.25    2.09
  33  -2  -5    7.66    1.92
 -33   2  -5    3.71    2.01
 -33  -2   5    3.00    1.40
  33   3  -5   -1.00    1.77
 -33   3   5    0.74    2.07
 -33   3  -5    0.93    2.03
 -33  -3   5    0.17    1.42
  33  -3  -5    2.33    1.80
 -33   4   5   15.94    3.01
  33   4  -5   24.70    3.52
  33  -4  -5   21.46    2.77
 -33   4  -5   19.50    2.87
 -33  -4   5   18.30    2.45
 -33   5   5   10.33    3.43
  33   5  -5    4.66    2.34
 -33  -5   5    3.84    1.67
 -33   5  -5    7.25    2.77
 -33   6   5   -0.67    3.39
  33   6  -5   -0.14    2.38
 -33   6  -5    1.38    2.85
 -33  -6   5   -2.20    1.63
 -33   0  -6    1.70    1.60
 -33   0   6    4.83    1.93
  33   0  -6   -1.62    1.72
 -33  -1  -6   13.89    2.13
  33   1  -6   22.40    3.04
 -33   1   6   11.98    2.16
 -33  -1   6   13.00    1.93
 -33   1  -6   15.04    2.06
  33  -1  -6   11.86    1.93
  33   2  -6   16.87    2.33
 -33   2   6   10.68    2.19
 -33  -2   6   11.66    1.78
 -33   2  -6   15.51    2.53
  33  -2  -6   13.75    2.05
 -33   3   6    5.75    2.42
  33   3  -6   -0.10    1.88
  33  -3  -6   -0.94    1.59
 -33   3  -6    1.98    2.09
 -33  -3   6    1.30    1.49
  33   4  -6    0.37    2.20
 -33   4   6   -1.58    2.41
 -33  -4   6    0.19    1.42
  33  -4  -6   -2.43    1.72
 -33   4  -6    1.63    2.26
 -33   5   6   -0.52    2.83
  33   5  -6   -2.01    2.29
 -33   5  -6   -2.66    2.53
 -33  -5   6   -2.34    1.57
 -33   0   7   -0.37    1.53
  33   0  -7    0.84    1.84
  33   1  -7    0.81    1.68
 -33   1   7    4.63    1.92
 -33   1  -7    6.96    2.36
  33  -1  -7    6.26    1.93
 -33  -1   7    0.87    1.57
 -33   2   7   11.17    2.40
  33   2  -7    7.58    2.08
 -33  -2   7    5.56    1.70
 -33   2  -7   10.62    2.31
  33  -2  -7   11.66    1.99
  33   3  -7   -3.89    1.97
 -33   3   7    2.85    2.54
 -33   3  -7    2.23    2.16
 -33  -3   7    1.05    1.51
  33  -3  -7    4.30    2.10
 -33   4   7    3.91    2.91
  33   4  -7   11.08    2.81
  33  -4  -7    5.26    2.10
 -33  -4   7    2.25    1.60
 -33   4  -7    5.26    2.53
  33   5  -7    4.67    2.52
 -33   5   7    5.85    3.22
 -33   5  -7    7.20    3.25
 -33  -5   7    6.89    1.91
  33   0  -8    5.38    2.01
 -33   0   8    6.41    1.84
  33   1  -8    4.05    2.11
 -33   1   8    2.68    1.87
 -33  -1   8   -0.05    1.51
  33  -1  -8   -1.78    1.80
 -33   2   8    5.00    2.25
  33   2  -8    2.96    1.91
  33  -2  -8    2.06    1.67
 -33  -2   8    3.11    1.57
  33   3  -8    5.61    2.51
 -33   3   8    0.25    2.23
 -33  -3   8    0.12    1.63
  33  -3  -8    0.12    1.81
  33   4  -8   -0.70    2.40
 -33   4   8    1.49    2.88
 -33  -4   8   -0.24    1.56
 -33   4  -8    5.56    2.79
  33  -4  -8   -1.35    1.72
  33   5  -8    3.72    2.58
 -33   5   8   -3.53    3.27
  33  -5  -8    3.53    2.09
 -33  -5   8    1.20    1.68
 -33   5  -8   10.13    3.62
  33   0  -9   -2.36    1.71
 -33   0   9    0.32    1.65
 -33   1   9   20.92    2.73
  33   1  -9   16.41    2.37
 -33  -1   9   22.44    2.84
 -33   2   9   12.07    2.59
  33   2  -9   19.79    3.02
 -33  -2   9   12.09    2.03
  33  -2  -9   12.20    2.44
 -33   3   9    5.63    2.75
  33   3  -9    8.27    2.51
  33  -3  -9    9.80    2.29
 -33  -3   9   12.64    2.17
 -33   4   9    1.52    3.08
  33   4  -9    1.97    2.34
 -33  -4   9   -2.69    1.62
  33  -4  -9   -1.98    1.79
 -33   0  10    0.97    1.95
  33   0 -10    3.47    2.25
  33   1 -10    2.34    2.23
 -33   1  10    3.37    2.23
  33  -1 -10    0.03    2.16
 -33  -1  10    1.30    1.77
  33   2 -10   11.73    2.63
 -33   2  10    9.72    2.66
 -33  -2  10    9.07    2.08
  33  -2 -10    6.77    2.37
 -33   3  10    0.47    2.71
  33   3 -10   -0.08    2.29
 -33  -3  10   -3.00    1.79
  33  -3 -10   -1.96    1.81
  33   0 -11   -2.01    1.97
 -33   0  11    5.68    2.47
  33   1 -11    9.48    2.87
 -33   1  11    4.46    2.45
 -33  -1  11    2.50    2.20
 -33   2  11    6.39    2.66
  33   2 -11    3.37    2.34
 -33  -2  11    4.94    1.97
  33  -2 -11    8.04    2.33
 -34   0   0   23.55    2.29
  34   0   0   20.84    2.62
  34   1   0    0.58    1.43
 -34  -1   0   -1.24    1.22
  34   2   0   26.38    2.61
 -34   2   0   25.99    3.11
 -34  -2   0   27.38    2.46
 -34   3   0    1.28    2.21
 -34  -3   0   -0.08    1.23
  34   3   0    1.54    1.86
 -34   4   0   -3.13    2.23
 -34  -4   0   -0.81    1.19
  34   5   0   -3.48    2.41
 -34   5   0   -2.83    2.64
 -34  -5   0    0.99    1.33
 -34  -6   0    3.61    1.49
 -34   6   0   -2.49    2.99
 -34   0  -1    0.94    1.50
  34   0  -1    2.42    1.71
 -34   0   1   -1.55    1.37
 -34   1   1   -0.69    1.42
  34   1  -1    0.72    1.47
 -34  -1  -1    0.25    1.13
  34  -1  -1   -0.56    1.56
 -34   1  -1    1.07    1.48
 -34  -1   1    1.14    2.17
 -34   2   1    2.74    1.75
  34   2  -1    1.01    1.65
 -34  -2  -1    3.52    1.19
 -34  -2   1    3.86    1.26
 -34   2  -1    4.42    1.76
  34   2   1   -0.06    1.57
 -34  -3  -1   -0.95    1.21
  34   3  -1   -0.43    1.70
 -34   3   1   -0.14    1.98
 -34   3  -1   -1.86    1.77
  34   3   1    5.10    1.83
 -34  -3   1    2.82    1.26
  34   4  -1    6.85    1.99
 -34   4   1    6.09    2.82
 -34  -4  -1    2.62    1.39
 -34  -4   1    2.94    1.54
  34   4   1    2.94    1.84
 -34   4  -1    3.83    2.43
  34   5  -1   -0.95    1.91
 -34   5   1   -2.31    2.61
 -34  -5  -1    0.75    1.24
 -34  -5   1   -0.17    1.54
 -34   5  -1    2.33    2.84
 -34  -6  -1    3.77    1.61
 -34   6   1   -0.88    3.16
 -34   6  -1    0.39    3.20
 -34  -6   1    4.02    1.67
  34   0  -2   33.37    2.85
 -34   0  -2   30.65    2.70
 -34   0   2   36.30    2.88
  34   1  -2    9.87    1.88
 -34   1   2   10.54    1.94
 -34  -1  -2   12.17    1.67
 -34   1  -2    7.03    1.76
 -34  -1   2   11.50    1.61
  34  -1  -2   10.98    1.90
 -34  -2  -2    5.27    1.31
 -34   2   2    5.37    2.00
  34   2  -2    6.93    1.87
 -34  -2   2    3.54    1.41
  34  -2  -2    6.62    1.89
  34   3  -2   -1.37    1.64
 -34  -3  -2    0.25    1.19
 -34   3   2    1.37    2.19
 -34   3  -2   -0.50    2.01
  34   3   2    4.61    1.97
 -34  -3   2    0.29    1.38
 -34  -4  -2   11.76    1.72
  34   4  -2   10.50    2.31
 -34   4   2    9.91    2.80
  34   4   2    5.57    2.14
 -34   4  -2   12.24    2.57
 -34  -4   2   11.67    1.60
 -34  -5  -2    1.72    1.33
 -34   5   2    1.66    2.74
  34   5  -2    4.63    2.25
 -34   5  -2   -0.03    2.31
 -34  -5   2    1.89    1.41
 -34  -6  -2    0.38    1.52
 -34   6   2   -1.14    3.60
  34   6  -2   -2.52    2.80
 -34  -6   2   -0.24    1.56
 -34   6  -2   -2.17    2.99
 -34   0  -3   -0.46    1.38
  34   0  -3   -0.20    1.48
 -34   0   3   -0.03    1.43
 -34   1   3   13.19    2.20
  34   1  -3    7.25    1.71
 -34  -1  -3    9.31    1.64
 -34  -1   3    7.62    1.57
 -34   1  -3    8.88    1.99
  34  -1  -3    6.57    1.73
 -34   2   3    0.35    1.90
 -34  -2  -3    1.88    1.17
  34   2  -3   -1.61    1.64
 -34   2  -3    0.84    1.66
  34  -2  -3    1.57    1.59
 -34  -2   3    3.44    1.59
 -34  -3  -3   -0.36    1.36
 -34   3   3    1.83    2.24
  34   3  -3   -1.09    1.70
 -34   3  -3    2.32    2.04
 -34  -3   3   -0.05    1.27
 -34   4   3   15.11    3.05
 -34  -4  -3   14.44    1.99
  34   4  -3   15.75    2.44
 -34   4  -3   17.82    3.06
 -34  -4   3   15.12    2.00
 -34   5   3    2.86    2.79
  34   5  -3    4.18    2.29
 -34  -5   3    4.23    1.39
 -34   5  -3    0.83    2.71
 -34   6   3   -2.53    3.26
  34   6  -3    7.08    2.75
 -34  -6   3    4.45    1.88
 -34   6  -3    2.28    2.96
  34   0  -4    3.40    1.70
 -34   0  -4    0.25    1.30
 -34   0   4   -1.88    1.42
 -34  -1  -4    0.13    1.23
  34   1  -4    0.76    1.61
 -34   1   4    0.70    1.51
 -34   1  -4   -0.71    1.50
  34  -1  -4    0.50    1.63
 -34  -1   4   -0.60    1.37
  34   2  -4    1.18    1.81
 -34  -2  -4    3.37    1.37
 -34   2   4    3.01    2.05
  34  -2  -4    0.13    1.62
 -34   2  -4    5.11    1.98
 -34  -2   4    4.47    1.55
  34   3  -4   12.49    2.36
 -34   3   4   10.30    2.42
 -34  -3  -4   13.37    1.57
 -34  -3   4   10.40    1.78
  34  -3  -4   12.61    2.03
 -34   3  -4   15.30    2.57
  34   4  -4   -0.52    2.13
 -34  -4  -4    3.98    1.97
 -34   4   4   -1.70    2.56
 -34   4  -4   -1.92    2.07
 -34  -4   4   -1.95    1.30
  34   5  -4    1.42    2.24
 -34   5   4   -3.42    2.99
 -34   5  -4    5.15    2.73
 -34  -5   4    2.62    1.36
 -34   6   4   -3.25    3.41
  34   6  -4    4.29    2.56
 -34   6  -4    0.14    3.07
 -34  -6   4   -0.28    1.72
 -34   0  -5   -0.94    1.34
 -34   0   5   -1.16    1.46
  34   0  -5   -0.93    1.43
  34   1  -5    5.55    1.99
 -34   1   5    9.63    2.01
 -34  -1  -5    8.33    1.61
  34  -1  -5    8.80    1.80
 -34  -1   5   10.59    1.93
 -34   1  -5    8.84    1.85
 -34  -2  -5    4.24    1.52
 -34   2   5    4.97    2.36
  34   2  -5    1.45    1.97
 -34   2  -5    0.33    1.98
 -34  -2   5   -1.71    1.24
  34  -2  -5   -0.33    1.50
 -34   3   5    0.88    2.19
  34   3  -5   -0.87    1.98
  34  -3  -5    1.24    1.78
 -34   3  -5   -2.95    1.95
 -34  -3   5   -0.68    1.53
  34   4  -5   -1.17    1.97
 -34   4   5    0.56    2.32
  34  -4  -5    3.72    2.11
 -34   4  -5    1.63    2.36
 -34  -4   5   -0.16    1.35
 -34   5   5    9.16    3.56
  34   5  -5    7.97    2.64
 -34   5  -5    3.18    2.77
 -34  -5   5   -1.58    1.42
 -34   0   6   52.79    3.82
  34   0  -6   47.85    3.46
 -34   0  -6   48.50    3.56
  34   1  -6    5.66    2.04
 -34   1   6    4.36    1.78
 -34  -1   6    5.71    1.78
 -34   1  -6    1.13    1.66
  34  -1  -6    0.47    1.56
  34   2  -6   -0.03    1.96
 -34   2   6    2.18    2.02
 -34  -2   6    1.46    1.51
 -34   2  -6    4.17    2.27
  34  -2  -6    2.33    1.67
 -34   3   6   14.54    2.64
  34   3  -6   18.21    2.77
 -34  -3   6   13.54    2.03
  34  -3  -6   13.85    2.32
 -34   4   6   11.47    3.12
  34   4  -6   13.52    2.68
 -34   4  -6   17.46    3.07
 -34  -4   6   11.08    1.88
  34  -4  -6   10.16    2.26
 -34   5   6   20.61    3.80
  34   5  -6   21.05    2.85
 -34  -5   6   21.44    2.76
 -34   5  -6   24.43    3.51
 -34   0   7    1.73    1.80
  34   0  -7   -1.27    1.82
 -34   1   7   35.02    3.37
  34   1  -7   32.84    3.45
 -34  -1   7   44.04    3.31
  34  -1  -7   33.16    3.22
  34   2  -7    4.27    2.25
 -34   2   7    1.32    1.90
 -34  -2   7   -1.79    1.55
  34  -2  -7    1.80    1.87
 -34   2  -7    4.13    2.39
 -34   3   7   20.01    3.26
  34   3  -7   15.21    2.51
 -34  -3   7   11.17    2.08
  34  -3  -7    9.44    2.08
 -34   3  -7   16.18    2.94
  34   4  -7    8.27    2.57
 -34   4   7    6.04    2.92
  34  -4  -7   10.35    2.28
 -34   4  -7   13.93    3.00
 -34  -4   7    9.08    1.95
  34   5  -7    6.12    2.95
 -34   5   7    4.34    3.22
 -34   5  -7    6.28    3.60
 -34  -5   7    3.95    1.83
  34   0  -8    5.99    2.23
 -34   0   8    4.10    2.09
 -34   1   8    5.36    2.21
  34   1  -8    2.33    2.04
 -34  -1   8    7.67    2.03
  34  -1  -8    0.84    2.07
  34   2  -8    1.00    2.02
 -34   2   8    2.05    2.18
 -34  -2   8    4.65    1.71
  34  -2  -8    1.44    1.78
 -34   3   8   16.95    3.09
  34   3  -8   12.14    2.76
  34  -3  -8   13.57    2.34
 -34  -3   8   14.44    2.20
  34   4  -8    5.79    2.76
 -34   4   8   -2.90    2.90
  34  -4  -8   -2.63    1.81
 -34  -4   8   -2.85    1.70
 -34   0   9    2.37    2.18
  34   0  -9   -2.53    1.91
  34   1  -9   15.05    2.53
 -34   1   9   14.93    2.58
 -34  -1   9   16.58    2.46
  34  -1  -9   14.35    2.42
  34   2  -9    1.03    2.28
 -34   2   9    0.00    2.32
  34  -2  -9   -3.52    1.86
 -34  -2   9   -1.77    1.56
  34   3  -9    7.37    2.55
 -34   3   9    3.44    2.71
 -34  -3   9    5.92    2.01
  34  -3  -9    1.58    2.02
  34   0 -10   35.54    3.72
 -34   0  10   47.57    4.12
 -34   1  10    9.47    2.37
  34   1 -10    3.69    2.32
  34  -1 -10   10.27    2.63
 -34  -1  10   11.33    2.57
  34   2 -10   10.11    2.90
 -34   2  10   -1.11    2.52
 -34  -2  10    3.14    2.00
  34  -2 -10    5.24    2.37
 -34   3  10   15.38    3.34
  34  -3 -10   16.68    2.61
 -34  -3  10   16.37    2.53
  34   0 -11    2.31    2.33
 -34   0  11    2.00    2.33
  34   1 -11   -1.09    3.55
 -34   1  11    0.61    2.40
 -34  -1  11    4.73    2.21
  34  -1 -11    0.26    2.22
  35   0   0    0.79    1.78
 -35   0   0   -0.75    1.37
 -35   1   0   -0.83    1.45
  35   1   0   -1.45    1.58
 -35  -2   0    0.91    1.41
  35   2   0   -0.47    1.50
 -35   2   0   -1.23    1.64
 -35  -3   0   19.11    2.27
 -35   3   0   19.44    2.86
  35   3   0   18.70    2.64
 -35  -4   0    3.01    1.43
  35   4   0    4.03    2.15
 -35   4   0   -1.22    2.32
 -35   5   0   23.47    3.75
 -35  -5   0   24.75    2.40
 -35  -6   0    1.76    1.45
 -35   0  -1    1.87    1.39
 -35   0   1   -1.45    1.32
  35   0  -1    0.18    1.53
  35   1  -1   16.99    2.50
 -35   1   1   16.06    2.22
 -35  -1  -1   19.31    2.32
  35  -1  -1   24.32    2.88
 -35  -1   1   14.47    1.97
 -35   1  -1   17.27    2.70
  35   1   1   18.71    2.79
  35   2  -1    3.17    1.90
 -35  -2  -1   -0.45    1.11
 -35   2   1   -0.70    1.81
  35   2   1   -1.96    1.66
 -35   2  -1    0.63    1.74
 -35  -2   1    1.30    1.25
 -35   3   1    1.20    2.19
  35   3  -1   -1.16    1.68
 -35   3  -1   -0.50    1.93
 -35  -3   1    0.80    1.25
 -35   4   1    9.23    3.07
 -35  -4  -1    6.21    1.61
  35   4  -1    6.73    2.11
 -35  -4   1    5.22    1.47
  35   4   1    9.72    2.07
 -35   4  -1    8.56    2.60
 -35  -5  -1   11.41    1.74
  35   5  -1   14.64    2.34
 -35   5   1    7.04    3.34
 -35   5  -1    9.22    3.20
 -35  -5   1    8.32    1.70
 -35  -6  -1    3.67    1.66
 -35   6   1   -1.87    3.28
 -35  -6   1   -0.31    1.56
 -35   6  -1   -1.91    3.10
  35   0  -2    2.86    1.61
 -35   0   2    5.23    1.77
 -35   0  -2    3.52    1.68
  35   1  -2   -0.87    1.73
 -35  -1  -2    1.36    1.30
 -35   1   2   -1.42    1.68
 -35   1  -2   -0.38    1.44
 -35  -1   2   -1.23    1.20
  35  -1  -2    0.02    1.55
 -35  -2  -2   25.59    2.63
 -35   2   2   28.37    3.49
  35   2  -2   28.66    3.08
  35  -2  -2   23.48    3.02
 -35   2  -2   28.25    3.02
 -35  -2   2   22.90    2.33
 -35   3   2    0.14    2.28
  35   3  -2    1.54    1.79
 -35  -3  -2    3.25    1.33
 -35   3  -2    0.51    2.22
 -35  -3   2    5.01    1.43
  35   4  -2   -1.23    1.90
 -35   4   2   -1.18    2.42
 -35   4  -2    3.69    2.44
 -35  -4   2    0.87    1.43
  35   5  -2   11.04    2.60
 -35   5   2   11.45    3.49
 -35  -5  -2    7.95    1.62
 -35   5  -2    9.26    2.81
 -35  -5   2    9.78    1.68
 -35  -6  -2    6.39    1.96
 -35   6   2   12.04    4.11
 -35  -6   2    8.64    1.88
 -35   6  -2   10.12    3.14
  35   0  -3   -1.58    1.68
 -35   0   3    0.18    1.47
 -35   0  -3    1.02    1.55
 -35   1   3   15.38    2.30
 -35  -1  -3   14.30    1.92
  35   1  -3   13.20    2.14
  35  -1  -3   13.46    2.05
 -35  -1   3   11.09    1.85
 -35   1  -3   14.20    2.18
 -35   2   3    0.21    1.92
  35   2  -3    1.83    1.79
 -35  -2  -3   -0.26    1.27
 -35  -2   3    1.34    1.85
  35  -2  -3   -0.02    1.75
 -35   2  -3    4.15    2.17
  35   3  -3    6.12    2.21
 -35   3   3    5.74    2.70
 -35  -3  -3    1.75    1.36
 -35   3  -3    2.72    2.19
 -35  -3   3    4.58    1.54
 -35   4   3    0.63    2.75
  35   4  -3    2.86    2.11
 -35  -4  -3    1.19    1.34
 -35  -4   3    1.26    1.60
 -35   4  -3    5.39    2.79
 -35  -5  -3    5.83    2.55
 -35   5   3    0.76    2.97
  35   5  -3    5.15    2.32
 -35   5  -3    5.99    2.97
 -35  -5   3    4.70    1.61
 -35   0   4   -0.44    1.50
 -35   0  -4    0.53    1.52
  35   0  -4    1.64    1.71
 -35   1   4    1.59    1.77
 -35  -1  -4   -0.99    1.44
  35   1  -4   -0.61    1.70
 -35  -1   4   -1.36    1.45
 -35   1  -4   -0.07    1.58
  35  -1  -4    3.37    1.96
  35   2  -4   10.56    2.20
 -35   2   4    5.64    2.31
 -35  -2  -4    2.78    1.47
 -35   2  -4    4.88    2.09
  35  -2  -4    3.11    1.59
 -35  -2   4    7.52    1.74
  35   3  -4    5.69    2.13
 -35  -3  -4    8.09    1.55
 -35   3   4    9.34    2.60
  35  -3  -4    5.79    1.99
 -35  -3   4   13.29    2.05
 -35   3  -4    6.74    2.37
  35   4  -4   11.84    2.60
 -35   4   4   10.49    3.09
 -35   4  -4    7.39    2.73
 -35  -4   4   14.50    2.05
  35   5  -4   -0.40    2.47
 -35   5   4   -0.16    3.16
 -35   5  -4    0.81    2.66
 -35  -5   4    0.56    1.76
 -35   0  -5   -1.76    1.56
  35   0  -5   -3.09    1.60
 -35   0   5   -0.92    1.56
 -35   1   5   29.45    3.14
 -35  -1  -5   31.22    2.84
 -35  -1   5   29.07    2.83
 -35   1  -5   24.54    3.03
  35  -1  -5   28.77    2.87
 -35   2   5    8.42    2.43
  35   2  -5    4.00    2.00
 -35   2  -5    4.53    2.39
  35  -2  -5    5.99    1.87
 -35  -2   5    9.62    2.00
  35   3  -5    5.96    2.40
 -35   3   5    2.22    2.37
 -35  -3   5    5.40    1.81
 -35   3  -5    4.59    2.21
 -35   4   5   -2.27    2.58
  35   4  -5   -1.91    2.12
 -35   4  -5   -0.47    2.53
 -35  -4   5    1.70    1.63
  35   5  -5   -2.22    2.17
 -35   5   5   10.60    3.89
 -35  -5   5    3.14    1.96
 -35   5  -5   -1.75    2.69
 -35   0   6    3.34    1.84
  35   0  -6    5.47    2.07
 -35   1   6    1.28    1.84
  35   1  -6    2.09    1.97
 -35   1  -6    0.60    1.94
 -35  -1   6    4.06    1.77
  35  -1  -6    1.62    1.66
  35   2  -6    1.77    2.10
 -35   2   6    5.31    2.37
 -35  -2   6    5.43    1.92
  35  -2  -6    4.18    2.04
 -35   2  -6    5.83    2.41
 -35   3   6   10.99    2.60
  35   3  -6   12.38    2.55
 -35   3  -6   14.04    2.75
  35  -3  -6    6.87    2.02
 -35  -3   6   14.46    2.13
  35   4  -6    5.48    2.62
 -35   4   6   -0.92    2.74
 -35   4  -6    3.05    2.74
 -35  -4   6    3.38    1.71
 -35   5   6   12.32    3.73
  35   5  -6    9.14    2.80
 -35   5  -6   17.39    3.52
 -35   0   7   -0.11    1.80
  35   0  -7   -3.51    1.90
 -35   1   7    5.32    2.09
  35   1  -7   12.18    2.48
 -35  -1   7   10.83    2.18
  35  -1  -7    3.80    1.89
  35   2  -7   -2.61    2.01
 -35   2   7   -1.51    2.02
  35  -2  -7   -0.45    1.85
 -35  -2   7    3.09    1.95
 -35   3   7    7.48    2.89
  35   3  -7    2.65    2.27
 -35  -3   7    4.38    1.90
  35  -3  -7    0.14    1.91
 -35   3  -7    7.73    3.26
  35   4  -7    5.17    2.52
 -35   4   7    8.91    3.10
 -35   4  -7   12.71    3.28
 -35  -4   7   14.45    2.30
  35  -4  -7    9.22    2.38
 -35   0   8   60.84    4.12
  35   0  -8   59.80    4.26
  35   1  -8   -1.77    1.89
 -35   1   8    1.09    2.07
 -35  -1   8    2.15    1.94
  35  -1  -8    5.76    2.31
 -35   2   8   24.21    3.20
  35   2  -8   26.72    3.77
 -35  -2   8   28.94    3.23
  35  -2  -8   16.99    2.46
 -35   3   8    6.31    3.17
  35   3  -8    0.20    2.32
 -35  -3   8    3.56    2.01
  35  -3  -8    4.28    2.25
 -35   4   8   -1.80    2.93
  35   4  -8   -1.02    2.63
  35  -4  -8    2.69    2.19
 -35  -4   8    5.10    2.16
  35   0  -9    0.89    2.16
 -35   0   9    1.13    2.04
  35   1  -9    2.13    2.30
 -35   1   9   -1.85    2.10
  35  -1  -9   -1.58    2.16
 -35  -1   9    4.88    2.11
 -35   2   9   -2.77    2.27
  35   2  -9   -1.23    2.10
  35  -2  -9   -2.81    1.96
 -35  -2   9    4.07    2.20
  35   3  -9    7.42    2.66
 -35   3   9    7.66    2.96
  35  -3  -9    2.76    2.16
 -35  -3   9    9.90    2.51
 -35   0  10   16.01    2.80
  35   0 -10   11.53    2.61
 -35   1  10   -0.07    2.36
  35   1 -10   -0.70    2.28
  35  -1 -10   -1.42    2.12
 -35  -1  10    1.42    2.03
 -35   2  10   -0.15    2.54
  35  -2 -10    2.74    2.24
 -35  -2  10    2.19    2.14
 -36   0   0   14.40    2.18
  36   0   0   11.63    2.18
 -36   1   0    1.81    1.63
 -36  -1   0    0.92    1.33
  36   1   0   -2.77    1.56
 -36   2   0   10.90    2.28
 -36  -2   0   13.00    1.78
  36   2   0   14.91    2.16
 -36   3   0    3.48    2.35
 -36  -3   0   -0.99    1.35
  36   3   0    0.77    1.80
  36   4   0   -1.00    1.82
 -36  -4   0    1.50    1.58
 -36   4   0   -3.89    2.37
 -36   5   0   -6.48    2.86
 -36  -5   0    0.66    1.45
  36   0  -1   -1.87    1.60
 -36   0   1   -0.74    1.29
 -36   0  -1   -0.07    1.38
  36   1  -1    2.88    1.82
 -36   1   1    1.43    2.01
 -36   1  -1    3.78    2.04
  36  -1  -1    3.06    1.95
 -36  -1   1    2.82    1.45
 -36   2   1    9.99    2.30
 -36  -2  -1    9.79    1.91
  36   2  -1   11.09    2.01
 -36   2  -1   10.30    2.29
  36   2   1   10.69    2.15
 -36  -2   1   11.64    2.02
 -36   3   1   10.59    2.55
 -36  -3  -1    9.25    1.61
  36   3  -1    7.29    1.98
 -36  -3   1    9.90    1.63
 -36   3  -1   10.69    2.41
  36   3   1    4.27    1.97
  36   4  -1   47.68    3.70
 -36  -4  -1   56.80    3.26
 -36   4   1   60.23    5.34
 -36   4  -1   49.71    4.87
  36   4   1   54.35    3.89
 -36  -4   1   52.78    3.19
 -36   5   1   -2.22    3.02
  36   5  -1   -0.47    2.21
 -36  -5  -1    0.06    1.51
 -36   5  -1    3.81    3.03
 -36  -5   1    0.68    1.38
 -36   0  -2    4.49    1.84
  36   0  -2    3.68    1.65
 -36   0   2    6.36    1.83
  36   1  -2    5.39    2.10
 -36  -1  -2    5.72    1.55
 -36   1   2    3.25    1.83
 -36  -1   2    7.14    1.83
 -36   1  -2    3.57    1.83
  36  -1  -2    4.52    1.88
 -36   2   2    1.75    2.33
 -36  -2  -2    1.00    1.44
  36   2  -2    1.88    1.86
 -36   2  -2    2.06    1.90
 -36  -2   2    1.19    1.27
  36   3  -2    2.81    1.98
 -36   3   2   -0.38    2.40
 -36   3  -2    0.37    2.18
 -36  -3   2    1.67    1.25
 -36  -4  -2    0.22    1.34
  36   4  -2    1.28    2.00
 -36   4   2    0.04    2.52
 -36  -4   2    3.87    1.56
 -36   4  -2    3.15    2.47
  36   5  -2    2.52    2.21
 -36   5   2    9.43    3.39
 -36  -5  -2    3.67    1.68
 -36   5  -2    3.76    2.76
 -36  -5   2    4.23    1.47
 -36   0  -3   -0.86    1.55
  36   0  -3    6.78    2.16
 -36   0   3    3.71    1.74
  36   1  -3    2.22    1.82
 -36   1   3   -0.88    1.85
 -36  -1  -3    1.69    1.44
 -36   1  -3    1.44    1.99
 -36  -1   3    0.89    1.46
  36  -1  -3   -3.24    1.53
  36   2  -3   19.52    2.88
 -36  -2  -3   23.39    2.40
 -36   2   3   22.94    2.89
  36  -2  -3   21.03    2.90
 -36   2  -3   21.24    2.70
 -36  -2   3   22.27    2.52
  36   3  -3   -0.57    1.98
 -36   3   3    2.88    2.67
 -36  -3  -3   -0.68    1.26
 -36   3  -3   -1.06    2.22
 -36  -3   3    0.62    1.45
  36   4  -3   33.06    3.61
 -36   4   3   22.21    3.46
 -36  -4   3   24.30    2.49
 -36   4  -3   21.62    3.59
  36   5  -3    5.16    2.46
 -36   5   3    3.73    3.30
 -36   5  -3    5.49    3.11
 -36  -5   3    3.98    1.50
 -36   0   4   27.23    2.92
  36   0  -4   31.51    3.06
 -36   0  -4   27.17    2.97
 -36   1   4    7.02    2.19
  36   1  -4    2.67    1.84
 -36  -1  -4    5.96    1.86
 -36  -1   4    2.43    1.62
 -36   1  -4    6.33    1.88
  36  -1  -4    5.02    1.79
  36   2  -4    9.53    2.29
 -36   2   4    6.76    2.38
 -36  -2  -4    6.69    1.58
 -36   2  -4    7.74    2.24
 -36  -2   4    5.95    1.84
  36  -2  -4    9.68    2.27
 -36   3   4   17.53    3.15
  36   3  -4   22.38    2.80
 -36  -3  -4   35.33    3.90
 -36  -3   4   20.98    2.67
 -36   3  -4   22.68    3.22
  36  -3  -4   27.80    3.31
  36   4  -4   -0.71    2.20
 -36   4   4    4.47    3.14
 -36  -4   4    0.83    1.52
 -36   4  -4   -2.40    2.49
  36   5  -4    6.08    2.82
 -36   5   4    6.16    3.46
 -36  -5   4    6.45    1.68
 -36   5  -4    6.43    3.07
  36   0  -5   -0.59    1.81
 -36   0   5    0.47    1.68
 -36   0  -5   -2.02    1.64
 -36   1   5   11.26    2.23
  36   1  -5   12.96    2.35
 -36  -1  -5   11.82    2.03
 -36   1  -5   10.13    2.08
  36  -1  -5    7.95    1.85
 -36  -1   5   10.73    1.99
  36   2  -5   21.20    2.80
 -36   2   5   19.60    2.77
  36  -2  -5   18.37    2.76
 -36  -2   5   21.40    2.96
  36   3  -5    2.37    2.27
 -36   3   5   -1.80    2.33
 -36  -3   5    1.35    1.76
 -36   3  -5    0.77    2.24
  36  -3  -5   -0.75    2.04
 -36   4   5    2.99    2.81
  36   4  -5    5.14    2.53
 -36  -4   5    3.79    1.76
 -36   4  -5    4.82    2.41
  36   5  -5    0.62    2.56
 -36   5   5   18.90    4.36
 -36   5  -5   -0.63    2.99
 -36  -5   5    1.47    1.82
 -36   0   6    6.66    2.00
  36   0  -6    4.51    2.06
 -36   1   6    3.02    2.26
  36   1  -6    2.59    2.07
  36  -1  -6    8.10    2.18
 -36  -1   6    1.16    1.75
 -36   1  -6    2.81    1.99
 -36   2   6   16.75    3.10
  36   2  -6    8.98    2.56
 -36  -2   6    8.27    2.00
 -36   2  -6   13.88    2.90
  36  -2  -6   14.22    2.56
 -36   3   6   -0.05    2.41
  36   3  -6   -1.15    2.26
  36  -3  -6    3.87    2.19
 -36  -3   6    0.72    1.86
 -36   3  -6    3.61    2.70
 -36   4   6   -3.06    2.58
  36   4  -6   -0.95    2.20
 -36  -4   6    1.34    1.94
  36  -4  -6    0.44    2.21
 -36   4  -6    3.04    2.78
  36   0  -7    1.99    2.00
 -36   0   7   -1.57    1.78
  36   1  -7    1.93    2.32
 -36   1   7    1.29    1.95
  36  -1  -7   -1.99    1.91
 -36  -1   7   -1.53    1.78
  36   2  -7   -2.72    2.05
 -36   2   7    2.21    2.28
  36  -2  -7    1.67    1.99
 -36  -2   7    3.38    1.90
  36   3  -7    4.91    2.44
 -36   3   7    3.43    2.68
 -36  -3   7    3.59    1.98
  36  -3  -7    1.57    1.95
 -36   4   7    0.90    2.86
  36   4  -7    1.63    2.58
 -36  -4   7    0.47    1.91
  36  -4  -7    0.80    2.20
 -36   4  -7   13.93    3.69
 -36   0   8    5.25    2.08
  36   0  -8    3.45    2.23
  36   1  -8    1.23    2.37
 -36   1   8   -2.20    1.94
  36  -1  -8    1.75    2.09
 -36  -1   8   -0.56    1.87
  36   2  -8   -1.82    2.11
 -36   2   8    1.65    2.44
  36  -2  -8    6.42    2.39
 -36  -2   8    2.49    1.96
  36   3  -8    0.74    2.42
 -36   3   8    8.46    3.22
 -36  -3   8    1.88    2.29
  36  -3  -8    4.80    2.41
 -36   0   9   -4.58    1.99
  36   0  -9    3.05    2.53
 -36   1   9    5.00    2.40
  36   1  -9    0.15    2.20
 -36  -1   9    2.74    2.06
  36  -1  -9    5.02    2.29
 -36   2   9   -1.08    2.44
  36   2  -9   -0.78    2.26
  36  -2  -9   -2.76    1.99
 -36  -2   9   -0.23    1.99
 -36   0  10    6.39    2.50
 -37   0   0    3.09    1.80
 -37  -1   0   22.95    2.55
 -37   1   0   24.59    2.89
  37   1   0   21.49    2.91
 -37  -2   0   -0.98    1.27
  37   2   0    0.12    1.76
 -37   2   0    1.08    2.19
 -37  -3   0   13.25    1.87
 -37   3   0   11.12    2.73
  37   3   0   11.41    2.18
 -37   4   0   -0.95    2.47
  37   4   0   -4.72    1.92
 -37  -4   0    1.24    1.54
 -37  -5   0    3.35    1.64
 -37   5   0    0.61    2.92
 -37   0  -1   -0.96    1.45
 -37   0   1    1.27    1.56
  37   0  -1   -3.51    1.71
 -37   1   1    5.02    2.01
 -37  -1  -1    6.76    1.67
  37   1  -1    7.45    1.85
 -37  -1   1    6.17    1.70
 -37   1  -1    6.13    2.17
 -37   2   1    0.19    1.89
 -37  -2  -1   -0.23    1.61
 -37   2  -1    0.33    2.11
  37   2   1   -0.57    2.03
 -37  -2   1    1.14    1.54
 -37  -3  -1    1.53    1.41
 -37   3   1   -0.01    2.44
  37   3  -1    2.13    2.09
 -37   3  -1   -1.58    2.00
 -37  -3   1    0.68    1.59
  37   3   1   -3.47    1.85
  37   4  -1    2.76    2.14
 -37   4   1   11.32    3.42
 -37  -4  -1    0.36    1.41
 -37  -4   1    3.32    1.77
 -37   4  -1    4.26    2.94
  37   4   1    1.27    3.26
 -37  -5  -1    0.85    1.69
  37   5  -1   -4.67    2.60
 -37   5   1    2.11    3.18
 -37   5  -1    5.52    3.22
 -37  -5   1    2.63    1.84
  37   0  -2    0.75    1.69
 -37   0  -2   -0.26    1.57
 -37   0   2   -0.69    1.54
  37   1  -2    1.02    1.80
 -37   1   2    0.81    1.76
 -37  -1   2    2.72    1.67
  37  -1  -2   -3.89    1.75
 -37   1  -2    1.49    1.79
  37   2  -2   -0.89    1.80
 -37   2   2    1.58    2.24
 -37   2  -2    1.16    1.95
 -37  -2   2    1.65    1.65
  37   3  -2   38.93    3.66
 -37   3   2   35.00    4.21
 -37  -3  -2   35.90    3.00
 -37  -3   2   37.15    3.02
 -37   3  -2   32.06    3.90
 -37   4   2    2.33    2.90
 -37  -4  -2    3.69    1.74
  37   4  -2    2.12    2.02
 -37   4  -2    2.84    2.62
 -37  -4   2    0.99    1.43
  37   5  -2    4.75    2.37
 -37  -5  -2    8.80    2.00
 -37   5   2    8.22    3.59
 -37   5  -2    5.24    3.01
 -37  -5   2    4.10    1.76
 -37   0   3    2.24    1.90
 -37   0  -3    0.51    1.65
  37   0  -3   -1.05    1.74
  37   1  -3   -2.04    1.82
 -37  -1  -3    1.65    1.56
 -37   1   3    1.08    1.97
  37  -1  -3    3.31    1.96
 -37   1  -3    0.86    1.91
 -37  -1   3    3.20    1.68
 -37  -2  -3    3.06    1.70
  37   2  -3    2.94    2.05
 -37   2   3   -0.41    2.27
 -37   2  -3   -1.74    1.90
  37  -2  -3   -0.62    1.98
 -37  -2   3    2.61    1.53
 -37   3   3    6.09    2.77
  37   3  -3   -0.63    1.99
 -37  -3  -3    2.36    1.52
 -37   3  -3    4.21    2.55
 -37  -3   3    1.66    1.39
 -37  -4  -3   -1.38    2.01
  37   4  -3   -1.56    2.30
 -37   4   3   -2.10    2.93
 -37   4  -3    0.78    2.98
 -37  -4   3   -0.80    1.55
 -37   5   3   -0.96    3.35
  37   5  -3    8.47    2.83
 -37  -5   3    1.99    1.69
 -37   5  -3    6.06    3.24
 -37   0  -4   11.86    2.20
  37   0  -4   11.08    2.17
 -37   0   4   14.12    2.24
 -37  -1  -4   33.10    2.98
 -37   1   4   28.34    3.55
 -37  -1   4   28.88    2.88
  37  -1  -4   27.64    3.18
  37   2  -4   33.86    3.59
 -37  -2  -4   32.52    2.95
 -37   2   4   35.75    4.19
 -37  -2   4   34.71    3.19
 -37   2  -4   37.62    3.79
  37  -2  -4   36.62    3.50
 -37   3   4   -0.17    2.50
  37   3  -4    2.86    2.37
 -37  -3   4    3.07    1.59
  37  -3  -4    4.12    2.44
 -37   3  -4   -0.90    2.38
 -37   4   4   13.00    3.80
  37   4  -4    6.42    2.63
 -37  -4   4    7.34    1.88
 -37   4  -4    1.81    2.82
 -37   0   5   -1.99    1.71
  37   0  -5    3.20    2.21
 -37   1   5   12.34    2.56
  37   1  -5    3.61    2.00
 -37  -1   5    7.35    1.96
  37  -1  -5    7.20    2.20
 -37   1  -5    7.26    2.20
  37   2  -5   24.55    3.41
 -37   2   5   19.22    3.03
 -37   2  -5   30.43    4.07
  37  -2  -5   17.20    2.45
 -37  -2   5   17.96    2.49
  37   3  -5   -1.68    2.29
 -37   3   5   -4.44    2.39
 -37   3  -5    0.36    2.38
  37  -3  -5   -1.60    2.00
 -37  -3   5   -3.04    1.55
 -37   4   5   25.75    4.01
  37   4  -5   32.82    4.31
 -37   4  -5   25.28    3.57
 -37  -4   5   27.09    3.08
 -37   0   6   22.70    2.70
  37   0  -6   19.37    2.53
 -37   1   6   14.34    2.54
  37  -1  -6   12.70    2.30
 -37  -1   6   14.75    2.26
  37   2  -6    4.48    2.27
 -37   2   6   10.74    2.86
 -37  -2   6    4.66    1.95
  37  -2  -6    4.22    1.91
  37   3  -6    7.30    2.82
 -37   3   6    3.72    2.74
  37  -3  -6    1.73    2.20
 -37  -3   6   -0.97    1.91
 -37   3  -6    7.40    2.89
  37   4  -6   -0.01    2.51
 -37   4   6    0.60    2.98
  37  -4  -6    6.36    2.72
 -37   4  -6    3.51    2.96
 -37  -4   6   -2.52    1.87
  37   0  -7    5.27    2.26
 -37   0   7   -0.30    2.05
  37   1  -7   -3.00    1.90
 -37   1   7   -0.99    2.14
  37  -1  -7   -4.03    1.85
 -37  -1   7   -1.27    1.82
  37   2  -7    6.19    2.78
 -37   2   7    8.67    2.84
 -37  -2   7   -0.16    2.00
  37  -2  -7    0.30    2.06
 -37   3   7   13.28    3.12
  37   3  -7   11.25    2.89
 -37  -3   7   12.78    2.31
  37  -3  -7   12.96    2.49
 -37   0   8   -1.65    1.99
  37   0  -8   -1.98    2.25
  37   1  -8    6.57    2.72
 -37   1   8    1.07    2.22
 -37  -1   8    1.44    1.89
  37  -1  -8   -0.93    2.02
 -37   2   8    3.27    2.70
  37   2  -8   -3.67    2.31
 -37  -2   8   -0.27    2.10
  37  -2  -8   -3.74    1.96
 -37   0   9   -1.87    2.25
  37   0  -9   -5.18    2.31
  37   1  -9   -5.38    3.25
 -37   1   9   -1.82    2.26
  37  -1  -9    8.27    3.23
 -37  -1   9   -0.87    1.98
 -38   0   0    2.17    1.69
 -38  -1   0    0.52    1.71
 -38   1   0    2.30    1.82
  38   1   0   -3.49    1.97
  38   2   0    7.02    2.10
 -38  -2   0   10.51    1.65
 -38   2   0   11.73    2.73
 -38  -3   0    0.29    1.39
  38   3   0    4.43    2.08
 -38   3   0    2.14    2.28
 -38  -4   0   -2.45    1.36
  38   4   0   -2.08    2.19
 -38   4   0   -1.06    2.47
 -38  -5   0    0.29    1.66
 -38   5   0   -3.65    3.01
 -38   0   1   -1.35    1.53
  38   0  -1   -2.82    1.79
 -38   0  -1   -0.96    1.54
  38   1  -1    5.60    2.08
 -38   1   1    3.88    1.92
 -38  -1  -1    6.06    1.67
 -38  -1   1    6.56    1.75
 -38   1  -1    2.89    1.96
  38   2  -1   14.84    2.34
 -38  -2  -1   20.80    2.74
 -38   2   1   20.71    2.75
  38   2   1   15.65    2.59
 -38  -2   1   19.94    2.47
 -38   2  -1   13.56    2.67
 -38   3   1   -4.35    2.23
  38   3  -1   -0.68    1.99
 -38  -3  -1   -0.75    1.64
  38   3   1   -0.92    2.16
 -38   3  -1    0.69    2.37
 -38  -3   1    2.35    1.47
 -38  -4  -1    0.52    1.51
  38   4  -1   -1.09    2.16
 -38   4   1    1.92    3.38
 -38  -4   1    2.45    1.67
 -38   4  -1    5.49    3.27
  38   0  -2    8.77    2.33
 -38   0   2    0.39    1.62
 -38   0  -2    4.18    1.89
 -38   1   2    3.27    2.02
  38   1  -2    0.23    1.91
 -38  -1  -2    2.66    1.81
 -38  -1   2    2.45    1.55
 -38   1  -2    2.40    1.94
  38  -1  -2    1.56    1.96
 -38  -2  -2   -0.74    1.50
  38   2  -2    2.06    2.06
 -38   2   2   -1.23    2.11
 -38  -2   2    1.44    1.47
 -38   2  -2   -1.46    2.33
 -38  -3  -2   -2.04    1.51
  38   3  -2   -0.05    2.14
 -38   3   2    0.03    2.54
 -38  -3   2    0.87    1.65
 -38   3  -2    2.12    2.34
  38   4  -2    2.40    2.41
 -38   4   2    4.41    2.95
 -38  -4  -2   -0.31    1.56
 -38  -4   2   -1.44    1.74
 -38   4  -2   -1.31    2.64
 -38   0   3   -1.51    1.88
 -38   0  -3    0.36    2.15
  38   0  -3   -4.02    1.70
  38   1  -3   16.18    2.54
 -38   1   3   20.38    2.77
 -38   1  -3   14.21    2.42
  38  -1  -3   15.78    2.48
 -38  -1   3   23.12    2.99
 -38   2   3    0.55    2.46
  38   2  -3   -0.36    2.01
 -38   2  -3    0.09    2.22
  38  -2  -3    3.12    2.07
 -38  -2   3    2.93    1.84
  38   3  -3   16.98    2.51
 -38  -3  -3   26.52    2.90
 -38   3   3   12.76    3.14
 -38   3  -3   14.51    3.05
 -38  -3   3   17.77    2.21
 -38   4   3    2.20    3.10
  38   4  -3   -2.03    2.16
 -38  -4   3    1.48    1.63
 -38   4  -3    1.64    3.25
 -38   0  -4    0.80    1.84
 -38   0   4    3.55    2.19
 -38  -1  -4    4.55    2.00
 -38   1   4    5.45    2.34
  38   1  -4   10.66    2.39
 -38   1  -4    7.38    2.48
 -38  -1   4   10.08    2.20
  38  -1  -4    5.00    2.00
  38   2  -4   -3.09    2.00
 -38   2   4   -4.06    2.23
 -38   2  -4    0.73    2.13
 -38  -2   4    0.39    1.81
  38  -2  -4   -2.04    2.06
  38   3  -4    0.76    2.29
 -38   3   4   -0.68    2.63
 -38  -3   4   -2.25    1.41
 -38   3  -4    1.19    2.31
  38   4  -4    2.19    2.43
 -38   4   4    3.55    3.69
 -38  -4   4    0.97    1.56
 -38   4  -4   -1.19    2.93
 -38   0  -5   -0.56    2.30
 -38   0   5    2.14    1.96
  38   0  -5   -2.17    1.91
 -38   1   5   38.11    4.07
  38   1  -5   35.68    3.62
  38  -1  -5   39.31    3.74
 -38  -1   5   37.37    3.36
  38   2  -5    6.41    2.45
 -38   2   5   -0.53    2.53
  38  -2  -5   -1.33    1.92
 -38  -2   5   -0.30    1.88
 -38   2  -5    2.54    2.52
  38   3  -5   14.44    2.92
 -38   3   5   16.83    3.17
  38  -3  -5   11.69    2.55
 -38   3  -5   12.41    2.95
 -38  -3   5   17.03    2.37
 -38   4   5    1.68    3.17
  38   4  -5    4.22    2.60
 -38  -4   5    5.29    2.06
 -38   4  -5    7.38    2.94
 -38   0   6    1.71    2.11
  38   0  -6   -3.36    1.96
  38   1  -6    7.50    2.46
 -38   1   6    9.39    2.52
  38  -1  -6    3.28    2.04
 -38  -1   6    5.29    1.96
  38   2  -6    3.21    2.58
 -38   2   6    3.62    2.64
 -38  -2   6    5.57    2.11
  38  -2  -6    1.94    1.92
 -38   3   6   12.17    3.01
  38   3  -6   11.93    2.88
  38  -3  -6    9.77    2.59
 -38  -3   6   12.76    2.37
 -38   3  -6   22.57    3.71
  38   0  -7   -1.68    2.16
 -38   0   7   -2.77    1.95
 -38   1   7    2.75    2.33
  38   1  -7    1.40    2.38
 -38  -1   7    0.78    1.90
  38  -1  -7    8.12    2.62
 -38   2   7    8.16    2.90
  38   2  -7    1.40    2.65
 -38  -2   7    0.72    2.04
  38  -2  -7    5.92    2.49
  38   0  -8    5.11    2.43
 -38   0   8   -0.74    2.14
 -38   1   8   -0.47    2.28
  38   1  -8   -2.90    2.35
 -38  -1   8   -0.84    2.00
  38  -1  -8   -0.69    2.10
 -39   0   0    0.05    1.67
  39   1   0    4.26    2.25
 -39  -1   0    2.81    1.88
 -39   1   0    4.10    2.00
 -39  -2   0   -0.32    1.78
  39   2   0   -2.22    1.93
 -39   2   0    1.92    2.31
 -39   3   0   42.23    4.66
 -39  -3   0   43.54    3.45
  39   3   0   41.02    3.70
  39   4   0    1.82    2.14
 -39   4   0    1.31    2.78
 -39  -4   0   -0.97    1.61
  39   0  -1   -4.44    2.06
 -39   0   1   -1.46    1.96
 -39   0  -1   -1.98    1.95
  39   1  -1   39.71    3.48
 -39  -1  -1   44.02    3.34
 -39   1   1   45.72    3.88
 -39  -1   1   43.47    3.29
 -39   1  -1   40.92    3.75
  39   2  -1   -0.96    1.93
 -39   2   1   -1.27    2.03
 -39  -2  -1    0.11    1.60
 -39  -2   1   -1.11    1.42
 -39   2  -1   -1.62    2.14
 -39   3   1    1.70    2.57
  39   3  -1   -0.64    2.10
 -39  -3  -1    2.60    1.63
 -39  -3   1    1.35    1.62
 -39   3  -1    2.16    2.41
  39   3   1    3.85    2.37
 -39  -4  -1    2.29    1.82
  39   4  -1    5.42    2.48
 -39   4   1    5.47    3.36
 -39   4  -1    4.09    3.51
 -39   0   2    8.13    2.12
 -39   0  -2    7.76    2.18
  39   0  -2    6.96    2.14
 -39   1   2    1.19    2.33
 -39  -1  -2    1.48    1.78
  39   1  -2   -2.57    1.87
 -39  -1   2    2.73    1.65
 -39   1  -2   -2.30    2.03
  39  -1  -2   -2.42    2.09
  39   2  -2    6.03    2.19
 -39   2   2    4.05    2.39
 -39  -2  -2    3.15    1.73
 -39   2  -2    2.45    2.65
 -39  -2   2    3.84    1.73
 -39   3   2   21.74    3.33
  39   3  -2   20.46    2.73
 -39  -3  -2   22.09    2.73
 -39   3  -2   23.71    3.31
 -39  -3   2   28.30    2.75
  39   4  -2   -1.69    2.31
 -39  -4  -2    0.50    1.87
 -39   4   2   -0.45    3.06
 -39   4  -2    0.72    2.91
 -39  -4   2    0.94    1.73
  39   0  -3   -3.11    1.89
 -39   0  -3    1.53    1.93
 -39   0   3   -1.16    1.85
 -39  -1  -3   -3.20    1.63
  39   1  -3    3.96    2.36
 -39   1   3   -3.61    1.94
 -39   1  -3    1.34    2.12
  39  -1  -3   -0.60    1.89
 -39  -1   3    0.01    1.63
 -39  -2  -3   -1.64    1.61
 -39   2   3    6.06    2.93
  39   2  -3   -0.67    2.12
  39  -2  -3    2.90    2.47
 -39   2  -3    0.98    2.14
 -39  -2   3   -0.89    1.49
  39   3  -3    5.76    2.61
 -39   3   3    1.03    2.91
 -39  -3  -3    3.29    2.53
 -39  -3   3    2.92    1.82
 -39   3  -3    2.57    2.91
  39   4  -3   -3.06    2.33
 -39   4   3   -2.05    3.23
 -39  -4   3    0.19    1.87
 -39   4  -3    3.52    3.43
 -39   0  -4    8.14    2.24
 -39   0   4    3.73    2.11
  39   0  -4   12.65    2.66
  39   1  -4    0.34    2.16
 -39   1   4    1.80    2.32
  39  -1  -4   -0.91    2.00
 -39   1  -4    4.92    2.45
 -39  -1   4    5.19    2.10
 -39   2   4    9.92    2.86
  39   2  -4   14.73    2.65
 -39   2  -4   10.40    2.65
  39  -2  -4    8.88    2.48
 -39  -2   4   14.16    2.33
 -39   3   4    4.69    3.27
  39   3  -4   -2.10    2.25
 -39   3  -4    1.34    2.60
 -39  -3   4    2.51    2.04
  39   0  -5   -1.67    2.15
 -39   0   5    4.03    2.41
  39   1  -5   10.90    2.47
 -39   1   5    5.62    2.59
 -39  -1   5   12.37    2.62
 -39   1  -5   14.25    2.81
  39  -1  -5    9.87    2.36
  39   2  -5   -0.56    2.39
 -39   2   5   -0.13    2.66
 -39  -2   5    4.48    2.26
 -39   2  -5    5.58    2.73
  39  -2  -5    6.07    2.44
 -39   3   5   14.80    3.38
 -39   3  -5   20.08    3.20
 -39  -3   5   21.34    2.73
  39  -3  -5   22.50    2.98
  39   0  -6    3.50    2.43
 -39   0   6    2.46    2.21
  39   1  -6    3.78    2.27
 -39   1   6    9.18    2.83
  39  -1  -6    4.27    2.15
 -39  -1   6    3.40    2.17
  39   2  -6    3.67    2.42
 -39   2   6    0.61    2.84
  39  -2  -6    1.60    2.01
 -39  -2   6    1.88    2.02
  39   0  -7   -3.96    2.09
 -39   0   7   -1.11    2.20
 -39  -1   7   19.47    2.82
  39  -1  -7   16.08    2.67
 -40   0   0   92.53    5.04
  40   1   0    3.70    2.40
 -40   1   0    1.07    2.25
 -40  -1   0    2.36    1.75
 -40  -2   0    1.90    1.72
  40   2   0   -2.79    2.16
 -40   2   0   -0.23    2.38
 -40  -3   0    2.73    1.76
 -40   3   0    0.84    2.52
  40   3   0   -4.55    2.16
  40   0  -1    0.56    2.36
 -40   0  -1    2.61    2.01
 -40   0   1    1.29    1.95
 -40   1   1   -1.60    2.00
  40   1  -1   -0.69    2.08
 -40  -1  -1    0.18    1.76
 -40   1  -1   -1.68    1.98
 -40  -1   1   -3.92    1.86
 -40  -2  -1   12.51    2.03
 -40   2   1   13.39    2.75
  40   2  -1   17.04    2.59
 -40  -2   1   12.36    2.12
 -40   2  -1   10.51    2.63
  40   3  -1   -2.06    2.10
 -40  -3  -1   -0.64    1.62
 -40   3   1   -1.04    2.61
 -40  -3   1    3.31    1.84
  40   3   1    2.65    2.59
 -40   3  -1    0.98    2.65
 -40   0  -2    8.14    2.19
  40   0  -2    5.02    2.25
 -40   0   2   12.52    2.26
 -40   1   2    4.92    2.39
  40   1  -2    3.83    2.10
 -40  -1  -2    6.52    2.01
 -40  -1   2    6.00    1.92
  40  -1  -2    7.86    2.52
 -40   1  -2    8.08    2.74
  40   2  -2   -1.69    2.14
 -40   2   2    2.15    2.26
 -40  -2  -2    2.72    2.01
 -40   2  -2    5.01    2.62
 -40  -2   2    0.09    1.68
  40   3  -2    0.42    2.50
 -40  -3  -2    4.30    2.02
 -40   3   2   -1.33    2.79
 -40   3  -2    0.13    2.55
 -40  -3   2   -0.63    1.63
 -40   0   3   -0.99    1.83
 -40   0  -3   -1.52    1.95
  40   0  -3   -0.66    1.95
  40   1  -3    0.21    2.02
 -40  -1  -3    3.75    2.19
 -40   1   3    2.02    2.35
 -40   1  -3   -0.63    2.16
 -40  -1   3    4.33    2.01
 -40   2   3    8.89    2.96
  40   2  -3    3.58    2.27
 -40  -2  -3    4.71    2.05
  40  -2  -3    6.86    2.58
 -40   2  -3    7.19    2.47
 -40  -2   3    5.21    1.79
 -40   3   3   -3.21    2.87
  40   3  -3    0.15    2.18
 -40  -3   3    3.70    1.88
 -40   3  -3    8.78    3.58
 -40   0   4    0.73    2.13
 -40   0  -4    9.47    2.77
  40   0  -4   -1.12    2.06
  40   1  -4    8.06    2.46
 -40   1   4   11.57    2.61
 -40   1  -4    8.32    2.58
  40  -1  -4   12.59    2.51
 -40  -1   4    7.36    2.16
  40   2  -4    7.55    2.62
 -40   2   4    5.88    2.82
 -40  -2   4    2.59    1.82
  40  -2  -4    1.48    2.39
 -40   2  -4   -0.08    2.41
  40   3  -4   -1.71    2.25
 -40   3   4    6.66    3.35
 -40   3  -4   -0.58    2.71
 -40  -3   4    1.11    1.81
 -40   0   5    1.96    2.20
  40   0  -5   -4.07    2.20
 -40   1   5    5.56    2.63
  40   1  -5   11.92    2.76
 -40  -1   5    9.49    2.47
  40  -1  -5    4.33    2.37
  40   2  -5    2.48    2.34
 -40   2   5    4.26    2.79
 -40   2  -5    2.11    3.02
  40  -2  -5    3.58    2.10
 -40  -2   5    5.84    2.16
  40   0  -6    9.19    2.45
 -40   0   6   17.26    3.06
 -40   1   6    0.84    2.63
  40   1  -6   -2.83    2.24
  40  -1  -6    5.43    2.76
 -40  -1   6    4.20    2.59
 -41   0   0   -0.37    1.81
 -41  -1   0    5.82    1.90
 -41   1   0    0.41    2.44
 -41   2   0   -2.05    2.33
  41   2   0    0.06    2.34
 -41  -2   0   -0.12    1.85
 -41  -3   0    3.83    1.72
 -41   3   0    0.08    2.81
  41   3   0   -4.59    2.30
 -41   0  -1    1.61    2.19
 -41   0   1    0.62    1.99
  41   0  -1    5.40    2.54
 -41   1   1    1.81    2.26
  41   1  -1   -1.82    2.26
 -41  -1  -1    1.44    2.09
 -41   1  -1   -3.40    2.09
 -41  -1   1    1.66    1.92
 -41   2   1    0.33    2.41
 -41  -2  -1   -2.71    1.76
  41   2  -1    1.24    2.18
 -41  -2   1    1.54    1.97
 -41   2  -1    2.79    2.44
 -41   3   1   -0.40    3.02
  41   3  -1    0.09    2.18
 -41  -3  -1   -1.15    1.88
 -41   3  -1    2.22    2.65
 -41  -3   1    3.58    2.10
 -41   0  -2   12.48    2.42
  41   0  -2   14.91    2.71
 -41   0   2   10.87    2.64
 -41  -1  -2    0.73    1.87
  41   1  -2    4.03    2.41
 -41   1   2    2.70    2.33
 -41  -1   2    4.02    2.14
  41  -1  -2    6.73    2.63
 -41   1  -2    4.18    2.51
 -41   2   2   -2.35    2.40
  41   2  -2   -0.04    2.15
 -41  -2  -2   -1.90    1.94
 -41  -2   2   -0.93    1.76
 -41   2  -2   -0.59    2.58
 -41  -3  -2    6.88    2.28
 -41   3   2   -1.75    2.72
 -41   3  -2    6.77    3.01
 -41  -3   2    4.41    1.97
 -41   0  -3   -3.22    1.99
 -41   0   3    0.63    1.96
  41   0  -3    1.87    2.38
 -41  -1  -3    2.01    2.13
 -41   1   3    2.31    2.69
  41   1  -3    0.09    2.23
 -41  -1   3    0.66    1.93
  41  -1  -3    0.43    2.29
 -41   1  -3   -3.59    2.31
 -41   2   3    2.89    2.64
  41   2  -3    6.30    2.64
 -41  -2   3    3.46    1.82
 -41   2  -3    7.25    2.72
  41   0  -4   12.65    2.63
 -41   0  -4   24.43    3.81
 -41   0   4   14.43    2.71
  41   1  -4   -4.06    2.25
 -41   1   4    0.19    2.43
  41  -1  -4    2.53    2.38
 -41  -1   4    3.59    2.15
 -41   1  -4   -0.64    2.58
  41   2  -4   17.57    2.88
 -41   2   4   23.98    3.79
 -41   2  -4   20.98    3.31
 -41  -2   4   22.39    2.54
 -41   0   5   -4.14    2.28
  41   0  -5    2.56    2.65
 -41   1   5    0.88    2.54
  41   1  -5   -1.14    2.27
 -41  -1   5    1.27    2.15
  41  -1  -5    0.22    3.18
 -42   0   0   23.97    3.21
 -42   1   0    0.89    2.31
 -42  -1   0    0.12    2.03
 -42   2   0   -4.92    2.64
  42   2   0    4.66    2.79
 -42  -2   0   -0.23    1.90
 -42   0   1    0.51    1.99
 -42   0  -1   -4.87    2.08
  42   1  -1   -2.62    2.41
 -42  -1  -1    3.70    2.20
 -42   1   1    4.31    2.50
 -42  -1   1    2.20    2.06
 -42   1  -1    1.45    2.34
 -42  -2  -1    4.02    2.34
 -42   2   1    2.48    3.02
 -42  -2   1   -1.35    1.81
 -42   2  -1    2.14    2.63
 -42   0   2   10.67    2.55
  42   0  -2    4.97    2.54
 -42   0  -2   13.46    2.97
 -42   1   2    3.46    2.29
  42   1  -2    1.60    2.21
 -42  -1  -2   -2.78    1.91
 -42  -1   2   -0.10    2.32
 -42   1  -2    0.82    2.52
 -42   2  -2    1.85    2.62
 -42   0  -3   -5.92    2.19
  42   0  -3   -0.03    2.32
 -42   0   3    1.21    2.31
 -42   1   3    4.78    2.69
 -42  -1  -3   -1.06    2.42
  42   1  -3    2.92    2.36
 -42  -1   3    4.92    2.11
 -42   1  -3    1.78    2.43
  42  -1  -3    2.17    2.58
   0   0   0    0.00    0.00
;
_shelx_hkl_checksum              52154
_shelx_fab_file
;
    0    2    0    -28.44      0.00
    0    4    0    -31.64      0.00
    0    6    0      7.62      0.00
    0    8    0      8.24      0.00
    0   10    0     -1.22      0.00
    0    2    1     81.09      0.00
    0    4    1    -17.92      0.00
    0    6    1     -7.83      0.00
    0    8    1      1.62      0.00
    0   10    1      0.02      0.00
    0    0    2    -47.70      0.00
    0    2    2     10.82      0.00
    0    4    2      7.84      0.00
    0    6    2      0.15      0.00
    0    8    2      0.31      0.00
    0   10    2     -5.04      0.00
    0    2    3      7.14      0.00
    0    4    3      0.10      0.00
    0    6    3     -4.65      0.00
    0    8    3      3.10      0.00
    0   10    3     -0.47      0.00
    0    0    4    -23.12      0.00
    0    2    4      1.27      0.00
    0    4    4     11.15      0.00
    0    6    4     -7.98      0.00
    0    8    4     -1.53      0.00
    0   10    4      1.22      0.00
    0    2    5     -7.30      0.00
    0    4    5     -0.34      0.00
    0    6    5      5.99      0.00
    0    8    5     -5.12      0.00
    0   10    5     -4.40      0.00
    0    0    6    -15.73      0.00
    0    2    6      7.01      0.00
    0    4    6     -0.90      0.00
    0    6    6      3.25      0.00
    0    8    6     -2.41      0.00
    0   10    6      0.08      0.00
    0    2    7    -11.69      0.00
    0    4    7      9.09      0.00
    0    6    7     -0.54      0.00
    0    8    7      0.16      0.00
    0    0    8     18.10      0.00
    0    2    8    -12.37      0.00
    0    4    8      0.35      0.00
    0    6    8      5.53      0.00
    0    8    8     -0.57      0.00
    0    2    9      4.09      0.00
    0    4    9     -7.44      0.00
    0    6    9     -0.78      0.00
    0    8    9      4.76      0.00
    0    0   10     -2.01      0.00
    0    2   10      5.77      0.00
    0    4   10     -3.08      0.00
    0    6   10     -5.11      0.00
    0    8   10     -0.71      0.00
    0    2   11      0.15      0.00
    0    4   11      2.61      0.00
    0    6   11     -1.50      0.00
    0    8   11      0.83      0.00
    0    0   12      1.13      0.00
    0    2   12     -1.66      0.00
    0    4   12      1.85      0.00
    0    6   12     -1.38      0.00
    0    8   12     -2.80      0.00
    0    2   13      1.72      0.00
    0    4   13     -1.87      0.00
    0    6   13      2.42      0.00
    0    0   14     -5.09      0.00
    0    2   14      3.55      0.00
    0    4   14      0.47      0.00
    0    6   14     -2.39      0.00
    0    2   15     -3.82      0.00
    0    4   15      4.43      0.00
    0    6   15      1.62      0.00
    0    0   16      4.26      0.00
    0    2   16      0.26      0.00
    0    4   16     -0.77      0.00
    0    2   17      4.45      0.00
    0    4   17      3.14      0.00
    0    0   18     -2.63      0.00
    0    2   18     -8.76      0.00
    1    1    0   -106.61      0.00
    1    3    0     55.93      0.00
    1    5    0      2.03      0.00
    1    7    0     -8.37      0.00
    1    9    0      0.03      0.00
    1    1    1   -103.20      0.00
    1    2    1     -5.68      0.00
    1    3    1    -15.26      0.00
    1    4    1      0.55      0.00
    1    5    1     18.50      0.00
    1    6    1      0.79      0.00
    1    7    1      3.13      0.00
    1    8    1     -0.37      0.00
    1    9    1     -2.50      0.00
    1   10    1      1.39      0.00
    1    0    2     14.74      0.00
    1    1    2     24.26      0.00
    1    2    2     -1.51      0.00
    1    3    2    -19.61      0.00
    1    4    2     -2.41      0.00
    1    5    2      0.66      0.00
    1    6    2      1.19      0.00
    1    7    2     -0.66      0.00
    1    8    2      0.76      0.00
    1    9    2      3.03      0.00
    1   10    2     -0.34      0.00
    1    1    3    -10.37      0.00
    1    2    3      5.48      0.00
    1    3    3     -4.93      0.00
    1    4    3     -1.20      0.00
    1    5    3      7.61      0.00
    1    6    3     -1.00      0.00
    1    7    3      0.02      0.00
    1    8    3      0.41      0.00
    1    9    3     -3.88      0.00
    1   10    3     -0.07      0.00
    1    0    4     -0.63      0.00
    1    1    4     12.26      0.00
    1    2    4     -0.38      0.00
    1    3    4     -8.31      0.00
    1    4    4      0.31      0.00
    1    5    4     -2.32      0.00
    1    6    4      0.00      0.00
    1    7    4      6.00      0.00
    1    8    4      0.00      0.00
    1    9    4     -0.42      0.00
    1   10    4     -1.38      0.00
    1    1    5      1.17      0.00
    1    2    5      1.64      0.00
    1    3    5      6.74      0.00
    1    4    5     -1.72      0.00
    1    5    5     -7.96      0.00
    1    6    5     -0.20      0.00
    1    7    5      4.46      0.00
    1    8    5      0.11      0.00
    1    9    5      2.19      0.00
    1   10    5      0.25      0.00
    1    0    6     -2.68      0.00
    1    1    6      4.16      0.00
    1    2    6      0.89      0.00
    1    3    6     -5.43      0.00
    1    4    6      1.09      0.00
    1    5    6      4.05      0.00
    1    6    6     -1.08      0.00
    1    7    6     -3.72      0.00
    1    8    6     -0.38      0.00
    1    9    6      1.72      0.00
    1   10    6      1.07      0.00
    1    1    7     18.57      0.00
    1    2    7     -1.75      0.00
    1    3    7     -3.04      0.00
    1    4    7      0.64      0.00
    1    5    7     -3.34      0.00
    1    6    7      0.40      0.00
    1    7    7     -0.44      0.00
    1    8    7     -1.37      0.00
    1    9    7      0.79      0.00
    1    0    8      0.85      0.00
    1    1    8     -4.85      0.00
    1    2    8     -0.73      0.00
    1    3    8     11.05      0.00
    1    4    8      0.17      0.00
    1    5    8     -4.77      0.00
    1    6    8      0.53      0.00
    1    7    8     -4.41      0.00
    1    8    8      0.53      0.00
    1    9    8     -0.35      0.00
    1    1    9     -9.58      0.00
    1    2    9     -0.60      0.00
    1    3    9      7.63      0.00
    1    4    9      0.43      0.00
    1    5    9      2.36      0.00
    1    6    9      0.11      0.00
    1    7    9     -5.06      0.00
    1    8    9     -0.79      0.00
    1    9    9      1.12      0.00
    1    0   10      1.35      0.00
    1    1   10     -1.02      0.00
    1    2   10     -0.42      0.00
    1    3   10     -3.48      0.00
    1    4   10     -0.57      0.00
    1    5   10      4.76      0.00
    1    6   10      0.28      0.00
    1    7   10      4.49      0.00
    1    8   10     -0.25      0.00
    1    9   10      0.41      0.00
    1    1   11      1.37      0.00
    1    2   11      0.74      0.00
    1    3   11     -2.49      0.00
    1    4   11     -0.14      0.00
    1    5   11      0.23      0.00
    1    6   11     -0.38      0.00
    1    7   11      0.02      0.00
    1    8   11      1.06      0.00
    1    0   12      1.22      0.00
    1    1   12      0.54      0.00
    1    2   12      0.05      0.00
    1    3   12      0.10      0.00
    1    4   12      0.34      0.00
    1    5   12     -2.17      0.00
    1    6   12      0.63      0.00
    1    7   12      4.09      0.00
    1    8   12     -0.18      0.00
    1    1   13     -3.60      0.00
    1    2   13      1.33      0.00
    1    3   13      1.00      0.00
    1    4   13     -0.43      0.00
    1    5   13      0.16      0.00
    1    6   13      0.07      0.00
    1    7   13     -1.66      0.00
    1    0   14     -0.97      0.00
    1    1   14      1.86      0.00
    1    2   14     -0.31      0.00
    1    3   14     -4.50      0.00
    1    4   14      1.20      0.00
    1    5   14      2.40      0.00
    1    6   14     -0.82      0.00
    1    7   14      0.00      0.00
    1    1   15      4.83      0.00
    1    2   15     -0.85      0.00
    1    3   15     -1.38      0.00
    1    4   15      0.22      0.00
    1    5   15     -2.82      0.00
    1    6   15      0.79      0.00
    1    0   16      0.99      0.00
    1    1   16     -1.93      0.00
    1    2   16      0.74      0.00
    1    3   16      1.15      0.00
    1    4   16     -0.95      0.00
    1    5   16     -1.98      0.00
    1    1   17     -1.13      0.00
    1    2   17     -0.04      0.00
    1    3   17     -8.08      0.00
    1    4   17     -0.27      0.00
    1    0   18      0.37      0.00
    1    1   18      5.42      0.00
    1    2   18     -0.15      0.00
    2    2    0    -27.13      0.00
    2    4    0    -30.70      0.00
    2    6    0      6.76      0.00
    2    8    0      7.43      0.00
    2   10    0     -0.90      0.00
    2    1    1     15.16      0.00
    2    2    1     75.16      0.00
    2    3    1      2.53      0.00
    2    4    1    -17.31      0.00
    2    5    1     -2.73      0.00
    2    6    1     -7.54      0.00
    2    7    1     -0.66      0.00
    2    8    1      1.65      0.00
    2    9    1      0.37      0.00
    2   10    1     -0.35      0.00
    2    0    2    -46.27      0.00
    2    1    2    -14.75      0.00
    2    2    2     11.05      0.00
    2    3    2      7.09      0.00
    2    4    2      7.33      0.00
    2    5    2      0.39      0.00
    2    6    2      0.24      0.00
    2    7    2     -2.08      0.00
    2    8    2      0.11      0.00
    2    9    2      0.98      0.00
    2   10    2     -4.03      0.00
    2    1    3     -9.93      0.00
    2    2    3      5.22      0.00
    2    3    3     -3.21      0.00
    2    4    3      0.43      0.00
    2    5    3      3.41      0.00
    2    6    3     -4.46      0.00
    2    7    3      0.12      0.00
    2    8    3      2.66      0.00
    2    9    3     -0.24      0.00
    2   10    3     -1.03      0.00
    2    0    4    -17.77      0.00
    2    1    4      2.03      0.00
    2    2    4      0.97      0.00
    2    3    4     -1.20      0.00
    2    4    4     10.36      0.00
    2    5    4     -0.92      0.00
    2    6    4     -6.76      0.00
    2    7    4      1.07      0.00
    2    8    4     -0.78      0.00
    2    9    4      1.04      0.00
    2   10    4      0.77      0.00
    2    1    5     -3.50      0.00
    2    2    5     -5.66      0.00
    2    3    5     -0.16      0.00
    2    4    5     -0.53      0.00
    2    5    5      3.16      0.00
    2    6    5      5.40      0.00
    2    7    5      0.25      0.00
    2    8    5     -4.31      0.00
    2    9    5     -1.60      0.00
    2   10    5     -3.59      0.00
    2    0    6    -15.69      0.00
    2    1    6      3.14      0.00
    2    2    6      6.87      0.00
    2    3    6     -4.61      0.00
    2    4    6     -0.90      0.00
    2    5    6      1.11      0.00
    2    6    6      2.98      0.00
    2    7    6      1.48      0.00
    2    8    6     -2.28      0.00
    2    9    6     -0.84      0.00
    2   10    6     -0.35      0.00
    2    1    7      3.46      0.00
    2    2    7    -10.84      0.00
    2    3    7     -0.22      0.00
    2    4    7      8.40      0.00
    2    5    7     -0.83      0.00
    2    6    7     -0.74      0.00
    2    7    7      1.20      0.00
    2    8    7      0.26      0.00
    2    9    7      1.73      0.00
    2    0    8     16.25      0.00
    2    1    8     -0.22      0.00
    2    2    8    -12.23      0.00
    2    3    8      0.57      0.00
    2    4    8      0.82      0.00
    2    5    8      0.02      0.00
    2    6    8      4.67      0.00
    2    7    8     -1.91      0.00
    2    8    8     -1.02      0.00
    2    9    8     -0.65      0.00
    2    1    9      0.71      0.00
    2    2    9      3.26      0.00
    2    3    9     -0.10      0.00
    2    4    9     -7.29      0.00
    2    5    9     -0.53      0.00
    2    6    9     -0.21      0.00
    2    7    9      0.60      0.00
    2    8    9      3.55      0.00
    2    9    9      0.90      0.00
    2    0   10     -2.02      0.00
    2    1   10     -1.64      0.00
    2    2   10      5.51      0.00
    2    3   10      1.93      0.00
    2    4   10     -3.16      0.00
    2    5   10      0.77      0.00
    2    6   10     -4.82      0.00
    2    7   10     -1.26      0.00
    2    8   10     -0.41      0.00
    2    1   11     -0.50      0.00
    2    2   11     -0.34      0.00
    2    3   11     -0.58      0.00
    2    4   11      2.63      0.00
    2    5   11      0.57      0.00
    2    6   11     -1.19      0.00
    2    7   11     -0.66      0.00
    2    8   11      0.22      0.00
    2    0   12      2.02      0.00
    2    1   12     -1.32      0.00
    2    2   12     -1.65      0.00
    2    3   12     -0.15      0.00
    2    4   12      1.30      0.00
    2    5   12     -1.16      0.00
    2    6   12     -0.94      0.00
    2    7   12     -0.21      0.00
    2    8   12     -2.46      0.00
    2    1   13     -1.76      0.00
    2    2   13      2.47      0.00
    2    3   13     -1.16      0.00
    2    4   13     -2.10      0.00
    2    5   13      1.25      0.00
    2    6   13      2.07      0.00
    2    7   13     -1.49      0.00
    2    0   14     -4.98      0.00
    2    1   14      1.86      0.00
    2    2   14      3.53      0.00
    2    3   14     -2.05      0.00
    2    4   14      0.78      0.00
    2    5   14     -0.03      0.00
    2    6   14     -2.02      0.00
    2    1   15      0.64      0.00
    2    2   15     -3.43      0.00
    2    3   15      1.84      0.00
    2    4   15      4.39      0.00
    2    5   15     -2.08      0.00
    2    6   15      1.22      0.00
    2    0   16      3.61      0.00
    2    1   16     -1.51      0.00
    2    2   16     -0.27      0.00
    2    3   16      0.03      0.00
    2    4   16     -0.16      0.00
    2    5   16      1.01      0.00
    2    1   17      0.50      0.00
    2    2   17      3.66      0.00
    2    3   17     -0.51      0.00
    2    4   17      2.80      0.00
    2    0   18     -1.78      0.00
    2    1   18     -0.15      0.00
    2    2   18     -7.95      0.00
    3    1    0    -88.75      0.00
    3    3    0     51.28      0.00
    3    5    0      2.56      0.00
    3    7    0     -7.31      0.00
    3    9    0      0.72      0.00
    3    1    1    -88.36      0.00
    3    2    1    -14.56      0.00
    3    3    1    -12.90      0.00
    3    4    1      1.59      0.00
    3    5    1     16.67      0.00
    3    6    1      2.33      0.00
    3    7    1      2.96      0.00
    3    8    1     -0.67      0.00
    3    9    1     -1.96      0.00
    3   10    1      3.90      0.00
    3    0    2     36.39      0.00
    3    1    2     21.79      0.00
    3    2    2     -4.06      0.00
    3    3    2    -18.01      0.00
    3    4    2     -6.98      0.00
    3    5    2      0.72      0.00
    3    6    2      2.77      0.00
    3    7    2     -0.53      0.00
    3    8    2      2.01      0.00
    3    9    2      2.06      0.00
    3   10    2     -0.46      0.00
    3    1    3     -3.78      0.00
    3    2    3     14.01      0.00
    3    3    3     -4.56      0.00
    3    4    3     -3.21      0.00
    3    5    3      6.29      0.00
    3    6    3     -3.02      0.00
    3    7    3     -0.05      0.00
    3    8    3      1.05      0.00
    3    9    3     -1.82      0.00
    3   10    3     -0.31      0.00
    3    0    4     -1.61      0.00
    3    1    4      6.96      0.00
    3    2    4     -0.89      0.00
    3    3    4     -6.15      0.00
    3    4    4      0.85      0.00
    3    5    4     -2.91      0.00
    3    6    4      0.07      0.00
    3    7    4      4.28      0.00
    3    8    4     -0.27      0.00
    3    9    4     -1.27      0.00
    3   10    4     -3.21      0.00
    3    1    5     -1.21      0.00
    3    2    5      4.34      0.00
    3    3    5      5.50      0.00
    3    4    5     -4.66      0.00
    3    5    5     -6.39      0.00
    3    6    5     -0.53      0.00
    3    7    5      3.44      0.00
    3    8    5      0.04      0.00
    3    9    5      1.12      0.00
    3   10    5      0.32      0.00
    3    0    6     -6.60      0.00
    3    1    6      4.42      0.00
    3    2    6      2.87      0.00
    3    3    6     -5.11      0.00
    3    4    6      2.83      0.00
    3    5    6      3.18      0.00
    3    6    6     -2.48      0.00
    3    7    6     -2.41      0.00
    3    8    6     -0.76      0.00
    3    9    6      1.49      0.00
    3   10    6      2.44      0.00
    3    1    7     17.07      0.00
    3    2    7     -4.55      0.00
    3    3    7     -3.46      0.00
    3    4    7      1.86      0.00
    3    5    7     -1.92      0.00
    3    6    7      0.95      0.00
    3    7    7     -0.21      0.00
    3    8    7     -3.17      0.00
    3    9    7     -0.21      0.00
    3    0    8      2.13      0.00
    3    1    8     -2.78      0.00
    3    2    8     -1.82      0.00
    3    3    8      9.67      0.00
    3    4    8      0.35      0.00
    3    5    8     -4.89      0.00
    3    6    8      1.46      0.00
    3    7    8     -2.34      0.00
    3    8    8      1.30      0.00
    3    9    8     -0.74      0.00
    3    1    9     -7.63      0.00
    3    2    9     -1.55      0.00
    3    3    9      7.72      0.00
    3    4    9      1.04      0.00
    3    5    9      1.44      0.00
    3    6    9      0.29      0.00
    3    7    9     -4.15      0.00
    3    8    9     -1.95      0.00
    3    9    9      2.57      0.00
    3    0   10      3.10      0.00
    3    1   10     -0.87      0.00
    3    2   10     -1.33      0.00
    3    3   10     -2.96      0.00
    3    4   10     -1.48      0.00
    3    5   10      4.64      0.00
    3    6   10      0.45      0.00
    3    7   10      3.67      0.00
    3    8   10     -0.70      0.00
    3    1   11      2.39      0.00
    3    2   11      1.68      0.00
    3    3   11     -2.33      0.00
    3    4   11     -0.20      0.00
    3    5   11     -0.18      0.00
    3    6   11     -0.97      0.00
    3    7   11      0.49      0.00
    3    8   11      2.38      0.00
    3    0   12      3.41      0.00
    3    1   12     -0.76      0.00
    3    2   12      0.05      0.00
    3    3   12      1.36      0.00
    3    4   12      0.80      0.00
    3    5   12     -1.81      0.00
    3    6   12      1.67      0.00
    3    7   12      2.60      0.00
    3    8   12     -0.25      0.00
    3    1   13     -3.93      0.00
    3    2   13      3.65      0.00
    3    3   13      0.06      0.00
    3    4   13     -1.24      0.00
    3    5   13      0.86      0.00
    3    6   13      0.26      0.00
    3    7   13     -1.34      0.00
    3    0   14     -2.64      0.00
    3    1   14      1.83      0.00
    3    2   14     -0.45      0.00
    3    3   14     -5.03      0.00
    3    4   14      3.22      0.00
    3    5   14      1.93      0.00
    3    6   14     -2.09      0.00
    3    1   15      4.59      0.00
    3    2   15     -2.04      0.00
    3    3   15     -1.96      0.00
    3    4   15      0.52      0.00
    3    5   15     -2.08      0.00
    3    6   15      2.23      0.00
    3    0   16      2.19      0.00
    3    1   16     -0.65      0.00
    3    2   16      2.07      0.00
    3    3   16      0.77      0.00
    3    4   16     -2.69      0.00
    3    5   16     -2.63      0.00
    3    1   17     -0.59      0.00
    3    2   17     -0.39      0.00
    3    3   17     -6.32      0.00
    3    4   17     -0.52      0.00
    3    0   18      0.95      0.00
    3    1   18      3.62      0.00
    3    2   18     -0.80      0.00
    4    0    0    147.83      0.00
    4    2    0    -23.63      0.00
    4    4    0    -27.87      0.00
    4    6    0      4.87      0.00
    4    8    0      5.41      0.00
    4   10    0     -0.48      0.00
    4    1    1     22.87      0.00
    4    2    1     60.55      0.00
    4    3    1      4.43      0.00
    4    4    1    -15.53      0.00
    4    5    1     -4.88      0.00
    4    6    1     -6.47      0.00
    4    7    1     -1.56      0.00
    4    8    1      1.95      0.00
    4    9    1     -0.14      0.00
    4   10    1     -1.19      0.00
    4    0    2    -42.41      0.00
    4    1    2    -22.18      0.00
    4    2    2     11.39      0.00
    4    3    2     12.54      0.00
    4    4    2      6.16      0.00
    4    5    2      1.53      0.00
    4    6    2      0.44      0.00
    4    7    2     -3.41      0.00
    4    8    2     -0.29      0.00
    4    9    2      1.58      0.00
    4   10    2     -1.69      0.00
    4    1    3    -15.36      0.00
    4    2    3      0.61      0.00
    4    3    3     -5.21      0.00
    4    4    3      1.32      0.00
    4    5    3      5.87      0.00
    4    6    3     -3.85      0.00
    4    7    3      0.85      0.00
    4    8    3      1.92      0.00
    4    9    3     -0.44      0.00
    4   10    3     -2.19      0.00
    4    0    4     -5.64      0.00
    4    1    4      3.09      0.00
    4    2    4     -0.09      0.00
    4    3    4     -1.81      0.00
    4    4    4      8.20      0.00
    4    5    4     -1.77      0.00
    4    6    4     -4.03      0.00
    4    7    4      2.02      0.00
    4    8    4      0.99      0.00
    4    9    4      1.48      0.00
    4   10    4      0.12      0.00
    4    1    5     -5.62      0.00
    4    2    5     -1.99      0.00
    4    3    5      0.07      0.00
    4    4    5     -0.98      0.00
    4    5    5      5.04      0.00
    4    6    5      3.74      0.00
    4    7    5      0.43      0.00
    4    8    5     -2.51      0.00
    4    9    5     -1.63      0.00
    4   10    5     -1.75      0.00
    4    0    6    -15.16      0.00
    4    1    6      4.37      0.00
    4    2    6      6.43      0.00
    4    3    6     -8.18      0.00
    4    4    6     -0.93      0.00
    4    5    6      1.70      0.00
    4    6    6      2.24      0.00
    4    7    6      1.93      0.00
    4    8    6     -2.01      0.00
    4    9    6     -1.43      0.00
    4   10    6     -1.12      0.00
    4    1    7      5.63      0.00
    4    2    7     -8.54      0.00
    4    3    7     -0.61      0.00
    4    4    7      6.64      0.00
    4    5    7     -1.24      0.00
    4    6    7     -1.31      0.00
    4    7    7      1.63      0.00
    4    8    7      0.28      0.00
    4    9    7      2.24      0.00
    4    0    8     11.60      0.00
    4    1    8     -0.33      0.00
    4    2    8    -11.32      0.00
    4    3    8      1.01      0.00
    4    4    8      2.11      0.00
    4    5    8     -0.24      0.00
    4    6    8      2.91      0.00
    4    7    8     -2.76      0.00
    4    8    8     -2.02      0.00
    4    9    8     -1.12      0.00
    4    1    9      1.18      0.00
    4    2    9      1.14      0.00
    4    3    9     -0.40      0.00
    4    4    9     -6.84      0.00
    4    5    9     -0.50      0.00
    4    6    9      1.21      0.00
    4    7    9      0.72      0.00
    4    8    9      1.01      0.00
    4    9    9      1.35      0.00
    4    0   10     -1.97      0.00
    4    1   10     -2.11      0.00
    4    2   10      4.87      0.00
    4    3   10      3.20      0.00
    4    4   10     -3.56      0.00
    4    5   10      1.47      0.00
    4    6   10     -3.97      0.00
    4    7   10     -1.53      0.00
    4    8   10      0.11      0.00
    4    1   11     -0.44      0.00
    4    2   11     -1.49      0.00
    4    3   11     -0.77      0.00
    4    4   11      2.68      0.00
    4    5   11      0.77      0.00
    4    6   11     -0.48      0.00
    4    7   11     -0.93      0.00
    4    8   11     -1.15      0.00
    4    0   12      4.04      0.00
    4    1   12     -2.48      0.00
    4    2   12     -1.92      0.00
    4    3   12      0.34      0.00
    4    4   12     -0.09      0.00
    4    5   12     -2.10      0.00
    4    6   12     -0.12      0.00
    4    7   12     -0.51      0.00
    4    8   12     -1.63      0.00
    4    1   13     -3.37      0.00
    4    2   13      4.20      0.00
    4    3   13     -1.91      0.00
    4    4   13     -2.55      0.00
    4    5   13      2.09      0.00
    4    6   13      1.01      0.00
    4    7   13     -2.28      0.00
    4    0   14     -4.50      0.00
    4    1   14      2.77      0.00
    4    2   14      3.47      0.00
    4    3   14     -3.60      0.00
    4    4   14      1.76      0.00
    4    5   14     -0.18      0.00
    4    6   14     -0.93      0.00
    4    1   15      1.14      0.00
    4    2   15     -2.42      0.00
    4    3   15      2.91      0.00
    4    4   15      4.14      0.00
    4    5   15     -3.62      0.00
    4    6   15      0.32      0.00
    4    0   16      2.07      0.00
    4    1   16     -2.02      0.00
    4    2   16     -1.25      0.00
    4    3   16     -0.30      0.00
    4    4   16      1.36      0.00
    4    5   16      2.10      0.00
    4    1   17      1.59      0.00
    4    2   17      1.90      0.00
    4    3   17     -1.21      0.00
    4    4   17      2.06      0.00
    4    0   18     -0.07      0.00
    4    1   18     -0.01      0.00
    4    2   18     -5.93      0.00
    5    1    0    -62.49      0.00
    5    3    0     43.33      0.00
    5    5    0      2.81      0.00
    5    7    0     -5.88      0.00
    5    9    0      1.97      0.00
    5    1    1    -66.16      0.00
    5    2    1    -17.97      0.00
    5    3    1     -9.56      0.00
    5    4    1      2.36      0.00
    5    5    1     13.43      0.00
    5    6    1      3.66      0.00
    5    7    1      2.18      0.00
    5    8    1     -0.28      0.00
    5    9    1     -1.50      0.00
    5   10    1      5.60      0.00
    5    0    2     41.06      0.00
    5    1    2     18.09      0.00
    5    2    2     -5.41      0.00
    5    3    2    -15.57      0.00
    5    4    2    -10.64      0.00
    5    5    2      0.87      0.00
    5    6    2      2.81      0.00
    5    7    2     -0.52      0.00
    5    8    2      2.60      0.00
    5    9    2      0.73      0.00
    5   10    2      0.29      0.00
    5    1    3      5.17      0.00
    5    2    3     17.44      0.00
    5    3    3     -3.94      0.00
    5    4    3     -4.18      0.00
    5    5    3      4.10      0.00
    5    6    3     -4.87      0.00
    5    7    3     -0.48      0.00
    5    8    3      1.53      0.00
    5    9    3      0.38      0.00
    5   10    3     -0.69      0.00
    5    0    4     -2.22      0.00
    5    1    4      0.32      0.00
    5    2    4     -1.01      0.00
    5    3    4     -2.56      0.00
    5    4    4      1.34      0.00
    5    5    4     -3.22      0.00
    5    6    4      0.35      0.00
    5    7    4      1.94      0.00
    5    8    4     -1.06      0.00
    5    9    4     -2.67      0.00
    5   10    4     -3.08      0.00
    5    1    5     -4.23      0.00
    5    2    5      5.57      0.00
    5    3    5      3.93      0.00
    5    4    5     -6.33      0.00
    5    5    5     -4.05      0.00
    5    6    5     -0.57      0.00
    5    7    5      2.29      0.00
    5    8    5     -0.35      0.00
    5    9    5     -0.13      0.00
    5   10    5     -0.29      0.00
    5    0    6     -7.51      0.00
    5    1    6      4.40      0.00
    5    2    6      4.96      0.00
    5    3    6     -4.34      0.00
    5    4    6      3.54      0.00
    5    5    6      1.87      0.00
    5    6    6     -2.52      0.00
    5    7    6     -0.49      0.00
    5    8    6     -0.45      0.00
    5    9    6      1.11      0.00
    5   10    6      2.42      0.00
    5    1    7     14.16      0.00
    5    2    7     -5.71      0.00
    5    3    7     -3.85      0.00
    5    4    7      2.80      0.00
    5    5    7     -0.05      0.00
    5    6    7      0.83      0.00
    5    7    7      0.42      0.00
    5    8    7     -3.15      0.00
    5    9    7     -1.10      0.00
    5    0    8      2.41      0.00
    5    1    8      0.06      0.00
    5    2    8     -2.07      0.00
    5    3    8      7.03      0.00
    5    4    8      0.31      0.00
    5    5    8     -5.39      0.00
    5    6    8      1.97      0.00
    5    7    8      0.23      0.00
    5    8    8      1.47      0.00
    5    9    8     -1.05      0.00
    5    1    9     -4.49      0.00
    5    2    9     -1.82      0.00
    5    3    9      7.82      0.00
    5    4    9      1.14      0.00
    5    5    9     -0.07      0.00
    5    6    9      0.38      0.00
    5    7    9     -3.03      0.00
    5    8    9     -2.41      0.00
    5    9    9      3.96      0.00
    5    0   10      2.83      0.00
    5    1   10     -0.68      0.00
    5    2   10     -1.99      0.00
    5    3   10     -2.08      0.00
    5    4   10     -1.85      0.00
    5    5   10      4.51      0.00
    5    6   10      0.01      0.00
    5    7   10      2.67      0.00
    5    8   10     -1.00      0.00
    5    1   11      3.91      0.00
    5    2   11      1.27      0.00
    5    3   11     -2.34      0.00
    5    4   11      0.12      0.00
    5    5   11     -0.45      0.00
    5    6   11     -1.13      0.00
    5    7   11      0.82      0.00
    5    8   11      2.32      0.00
    5    0   12      5.02      0.00
    5    1   12     -2.24      0.00
    5    2   12     -0.13      0.00
    5    3   12      3.35      0.00
    5    4   12      0.47      0.00
    5    5   12     -0.93      0.00
    5    6   12      2.17      0.00
    5    7   12      0.73      0.00
    5    8   12      0.23      0.00
    5    1   13     -4.49      0.00
    5    2   13      5.33      0.00
    5    3   13     -1.28      0.00
    5    4   13     -1.93      0.00
    5    5   13      1.94      0.00
    5    6   13      0.44      0.00
    5    7   13     -0.51      0.00
    5    0   14     -3.98      0.00
    5    1   14      1.53      0.00
    5    2   14      0.26      0.00
    5    3   14     -5.70      0.00
    5    4   14      4.33      0.00
    5    5   14      0.68      0.00
    5    6   14     -2.57      0.00
    5    1   15      3.77      0.00
    5    2   15     -2.20      0.00
    5    3   15     -2.46      0.00
    5    4   15      0.45      0.00
    5    5   15     -0.97      0.00
    5    6   15      3.16      0.00
    5    0   16      1.84      0.00
    5    1   16      0.86      0.00
    5    2   16      3.14      0.00
    5    3   16     -0.06      0.00
    5    4   16     -3.91      0.00
    5    5   16     -3.57      0.00
    5    1   17      0.01      0.00
    5    2   17     -1.34      0.00
    5    3   17     -3.82      0.00
    5    4   17     -0.08      0.00
    5    0   18      1.32      0.00
    5    1   18      1.39      0.00
    5    2   18     -2.00      0.00
    6    0    0     97.82      0.00
    6    2    0    -19.11      0.00
    6    4    0    -23.17      0.00
    6    6    0      3.25      0.00
    6    8    0      3.21      0.00
    6   10    0     -0.72      0.00
    6    1    1     21.46      0.00
    6    2    1     43.89      0.00
    6    3    1      5.59      0.00
    6    4    1    -12.85      0.00
    6    5    1     -5.93      0.00
    6    6    1     -4.50      0.00
    6    7    1     -2.30      0.00
    6    8    1      2.64      0.00
    6    9    1     -1.22      0.00
    6   10    1     -1.93      0.00
    6    0    2    -37.03      0.00
    6    1    2    -21.09      0.00
    6    2    2     11.07      0.00
    6    3    2     15.42      0.00
    6    4    2      4.95      0.00
    6    5    2      3.19      0.00
    6    6    2      0.59      0.00
    6    7    2     -4.01      0.00
    6    8    2     -0.48      0.00
    6    9    2      1.89      0.00
    6   10    2      0.52      0.00
    6    1    3    -15.46      0.00
    6    2    3     -4.15      0.00
    6    3    3     -6.08      0.00
    6    4    3      2.54      0.00
    6    5    3      6.94      0.00
    6    6    3     -2.75      0.00
    6    7    3      1.89      0.00
    6    8    3      1.83      0.00
    6    9    3     -0.88      0.00
    6   10    3     -2.94      0.00
    6    0    4      5.49      0.00
    6    1    4      3.32      0.00
    6    2    4     -1.98      0.00
    6    3    4     -1.87      0.00
    6    4    4      5.21      0.00
    6    5    4     -2.47      0.00
    6    6    4     -1.67      0.00
    6    7    4      2.65      0.00
    6    8    4      2.61      0.00
    6    9    4      1.14      0.00
    6   10    4      0.37      0.00
    6    1    5     -5.88      0.00
    6    2    5      1.34      0.00
    6    3    5      0.79      0.00
    6    4    5     -1.36      0.00
    6    5    5      5.13      0.00
    6    6    5      1.47      0.00
    6    7    5      0.13      0.00
    6    8    5     -0.89      0.00
    6    9    5     -0.40      0.00
    6   10    5     -0.06      0.00
    6    0    6    -13.48      0.00
    6    1    6      3.57      0.00
    6    2    6      5.59      0.00
    6    3    6     -9.79      0.00
    6    4    6     -0.91      0.00
    6    5    6      1.95      0.00
    6    6    6      1.38      0.00
    6    7    6      1.50      0.00
    6    8    6     -1.85      0.00
    6    9    6     -1.74      0.00
    6   10    6     -1.33      0.00
    6    1    7      6.00      0.00
    6    2    7     -5.41      0.00
    6    3    7     -1.05      0.00
    6    4    7      4.57      0.00
    6    5    7     -1.13      0.00
    6    6    7     -2.08      0.00
    6    7    7      1.35      0.00
    6    8    7     -0.01      0.00
    6    9    7      1.61      0.00
    6    0    8      6.10      0.00
    6    1    8     -0.36      0.00
    6    2    8     -9.30      0.00
    6    3    8      1.22      0.00
    6    4    8      3.86      0.00
    6    5    8     -0.84      0.00
    6    6    8      1.65      0.00
    6    7    8     -2.32      0.00
    6    8    8     -2.88      0.00
    6    9    8     -1.34      0.00
    6    1    9      1.22      0.00
    6    2    9     -1.37      0.00
    6    3    9     -0.67      0.00
    6    4    9     -6.12      0.00
    6    5    9     -0.18      0.00
    6    6    9      2.77      0.00
    6    7    9      0.64      0.00
    6    8    9     -0.77      0.00
    6    9    9      1.47      0.00
    6    0   10     -1.80      0.00
    6    1   10     -1.28      0.00
    6    2   10      4.17      0.00
    6    3   10      3.22      0.00
    6    4   10     -4.36      0.00
    6    5   10      1.71      0.00
    6    6   10     -2.75      0.00
    6    7   10     -1.10      0.00
    6    8   10      0.20      0.00
    6    1   11      0.49      0.00
    6    2   11     -2.68      0.00
    6    3   11     -0.34      0.00
    6    4   11      2.75      0.00
    6    5   11      0.42      0.00
    6    6   11      0.24      0.00
    6    7   11     -0.94      0.00
    6    8   11     -2.34      0.00
    6    0   12      6.03      0.00
    6    1   12     -3.36      0.00
    6    2   12     -2.85      0.00
    6    3   12      1.79      0.00
    6    4   12     -1.75      0.00
    6    5   12     -2.33      0.00
    6    6   12      0.26      0.00
    6    7   12     -0.61      0.00
    6    8   12     -0.62      0.00
    6    1   13     -4.71      0.00
    6    2   13      5.80      0.00
    6    3   13     -2.41      0.00
    6    4   13     -2.66      0.00
    6    5   13      2.63      0.00
    6    6   13     -0.59      0.00
    6    7   13     -2.09      0.00
    6    0   14     -3.50      0.00
    6    1   14      2.97      0.00
    6    2   14      3.28      0.00
    6    3   14     -4.30      0.00
    6    4   14      3.23      0.00
    6    5   14     -0.35      0.00
    6    6   14      0.75      0.00
    6    1   15      1.55      0.00
    6    2   15     -1.03      0.00
    6    3   15      3.08      0.00
    6    4   15      3.41      0.00
    6    5   15     -4.16      0.00
    6    6   15     -0.53      0.00
    6    0   16      0.31      0.00
    6    1   16     -1.60      0.00
    6    2   16     -1.53      0.00
    6    3   16     -1.18      0.00
    6    4   16      3.13      0.00
    6    5   16      2.99      0.00
    6    1   17      3.23      0.00
    6    2   17      0.31      0.00
    6    3   17     -2.01      0.00
    6    0   18      0.82      0.00
    6    1   18      0.14      0.00
    6    2   18     -3.55      0.00
    7    1    0    -38.70      0.00
    7    3    0     33.87      0.00
    7    5    0      2.03      0.00
    7    7    0     -4.61      0.00
    7    9    0      3.06      0.00
    7    1    1    -45.40      0.00
    7    2    1    -16.79      0.00
    7    3    1     -6.50      0.00
    7    4    1      2.44      0.00
    7    5    1      9.51      0.00
    7    6    1      4.33      0.00
    7    7    1      0.78      0.00
    7    8    1     -0.02      0.00
    7    9    1     -1.50      0.00
    7   10    1      5.99      0.00
    7    0    2     32.47      0.00
    7    1    2     14.51      0.00
    7    2    2     -5.13      0.00
    7    3    2    -13.09      0.00
    7    4    2    -12.68      0.00
    7    5    2      1.09      0.00
    7    6    2      2.05      0.00
    7    7    2     -0.80      0.00
    7    8    2      2.69      0.00
    7    9    2     -0.17      0.00
    7   10    2      0.99      0.00
    7    1    3     11.60      0.00
    7    2    3     16.95      0.00
    7    3    3     -3.14      0.00
    7    4    3     -3.94      0.00
    7    5    3      1.72      0.00
    7    6    3     -5.95      0.00
    7    7    3     -1.25      0.00
    7    8    3      2.23      0.00
    7    9    3      0.99      0.00
    7   10    3     -0.96      0.00
    7    0    4     -3.05      0.00
    7    1    4     -3.77      0.00
    7    2    4     -1.06      0.00
    7    3    4      1.35      0.00
    7    4    4      2.09      0.00
    7    5    4     -2.53      0.00
    7    6    4      0.74      0.00
    7    7    4      0.04      0.00
    7    8    4     -2.01      0.00
    7    9    4     -3.92      0.00
    7   10    4     -1.53      0.00
    7    1    5     -6.14      0.00
    7    2    5      5.13      0.00
    7    3    5      2.76      0.00
    7    4    5     -6.46      0.00
    7    5    5     -1.97      0.00
    7    6    5     -0.08      0.00
    7    7    5      1.81      0.00
    7    8    5     -0.40      0.00
    7    9    5     -0.83      0.00
    7   10    5     -0.81      0.00
    7    0    6     -6.20      0.00
    7    1    6      3.79      0.00
    7    2    6      6.27      0.00
    7    3    6     -3.09      0.00
    7    4    6      2.95      0.00
    7    5    6      0.64      0.00
    7    6    6     -2.15      0.00
    7    7    6      1.04      0.00
    7    8    6      0.10      0.00
    7    9    6      0.75      0.00
    7    1    7     10.18      0.00
    7    2    7     -5.31      0.00
    7    3    7     -3.88      0.00
    7    4    7      3.30      0.00
    7    5    7      1.34      0.00
    7    6    7      0.13      0.00
    7    7    7      1.20      0.00
    7    8    7     -2.07      0.00
    7    9    7     -1.09      0.00
    7    0    8      1.89      0.00
    7    1    8      2.36      0.00
    7    2    8     -1.57      0.00
    7    3    8      3.68      0.00
    7    4    8      0.37      0.00
    7    5    8     -6.19      0.00
    7    6    8      1.83      0.00
    7    7    8      1.95      0.00
    7    8    8      1.23      0.00
    7    9    8     -0.94      0.00
    7    1    9     -1.37      0.00
    7    2    9     -1.36      0.00
    7    3    9      7.81      0.00
    7    4    9      0.76      0.00
    7    5    9     -1.74      0.00
    7    6    9      0.37      0.00
    7    7    9     -2.39      0.00
    7    8    9     -2.63      0.00
    7    9    9      4.12      0.00
    7    0   10      0.83      0.00
    7    1   10     -0.53      0.00
    7    2   10     -1.82      0.00
    7    3   10     -1.32      0.00
    7    4   10     -1.47      0.00
    7    5   10      4.39      0.00
    7    6   10     -0.07      0.00
    7    7   10      2.05      0.00
    7    8   10     -0.90      0.00
    7    1   11      5.31      0.00
    7    2   11     -0.44      0.00
    7    3   11     -2.55      0.00
    7    4   11      0.65      0.00
    7    5   11     -0.37      0.00
    7    6   11     -0.79      0.00
    7    7   11      0.62      0.00
    7    8   11      1.84      0.00
    7    0   12      6.03      0.00
    7    1   12     -3.02      0.00
    7    2   12     -0.55      0.00
    7    3   12      5.31      0.00
    7    4   12     -1.21      0.00
    7    5   12      0.29      0.00
    7    6   12      1.96      0.00
    7    7   12     -0.61      0.00
    7    1   13     -5.20      0.00
    7    2   13      6.47      0.00
    7    3   13     -2.32      0.00
    7    4   13     -2.34      0.00
    7    5   13      2.86      0.00
    7    6   13      0.36      0.00
    7    7   13      0.73      0.00
    7    0   14     -5.39      0.00
    7    1   14      0.88      0.00
    7    2   14      1.02      0.00
    7    3   14     -5.74      0.00
    7    4   14      4.42      0.00
    7    5   14     -1.30      0.00
    7    6   14     -2.50      0.00
    7    1   15      2.00      0.00
    7    2   15     -1.85      0.00
    7    3   15     -2.32      0.00
    7    4   15     -0.02      0.00
    7    5   15      0.18      0.00
    7    6   15      3.24      0.00
    7    0   16      0.73      0.00
    7    1   16      1.83      0.00
    7    2   16      4.00      0.00
    7    3   16     -1.30      0.00
    7    4   16     -4.10      0.00
    7    5   16     -4.26      0.00
    7    1   17      0.25      0.00
    7    2   17     -2.63      0.00
    7    3   17     -1.64      0.00
    7    0   18      1.78      0.00
    7    1   18      0.08      0.00
    8    0    0     59.59      0.00
    8    2    0    -14.95      0.00
    8    4    0    -17.00      0.00
    8    6    0      2.40      0.00
    8    8    0      1.80      0.00
    8   10    0     -1.43      0.00
    8    1    1     15.08      0.00
    8    2    1     29.97      0.00
    8    3    1      6.17      0.00
    8    4    1     -9.85      0.00
    8    5    1     -5.54      0.00
    8    6    1     -1.98      0.00
    8    7    1     -2.19      0.00
    8    8    1      3.04      0.00
    8    9    1     -1.65      0.00
    8   10    1     -2.03      0.00
    8    0    2    -30.68      0.00
    8    1    2    -15.93      0.00
    8    2    2      9.71      0.00
    8    3    2     15.48      0.00
    8    4    2      4.00      0.00
    8    5    2      4.35      0.00
    8    6    2      0.63      0.00
    8    7    2     -4.40      0.00
    8    8    2     -0.31      0.00
    8    9    2      2.19      0.00
    8   10    2      1.56      0.00
    8    1    3    -12.77      0.00
    8    2    3     -7.24      0.00
    8    3    3     -6.72      0.00
    8    4    3      3.60      0.00
    8    5    3      6.79      0.00
    8    6    3     -1.41      0.00
    8    7    3      2.35      0.00
    8    8    3      2.33      0.00
    8    9    3     -1.87      0.00
    8   10    3     -2.85      0.00
    8    0    4     10.82      0.00
    8    1    4      3.63      0.00
    8    2    4     -4.10      0.00
    8    3    4     -1.92      0.00
    8    4    4      2.20      0.00
    8    5    4     -2.91      0.00
    8    6    4     -0.59      0.00
    8    7    4      2.75      0.00
    8    8    4      3.33      0.00
    8    9    4      0.28      0.00
    8   10    4      1.53      0.00
    8    1    5     -4.73      0.00
    8    2    5      3.10      0.00
    8    3    5      1.78      0.00
    8    4    5     -1.35      0.00
    8    5    5      3.75      0.00
    8    6    5     -0.66      0.00
    8    7    5     -0.95      0.00
    8    8    5      0.08      0.00
    8    9    5      0.49      0.00
    8   10    5      0.75      0.00
    8    0    6    -10.76      0.00
    8    1    6      1.98      0.00
    8    2    6      4.22      0.00
    8    3    6     -8.97      0.00
    8    4    6     -0.90      0.00
    8    5    6      2.48      0.00
    8    6    6      0.84      0.00
    8    7    6      1.10      0.00
    8    8    6     -1.97      0.00
    8    9    6     -1.73      0.00
    8    1    7      4.97      0.00
    8    2    7     -2.15      0.00
    8    3    7     -1.39      0.00
    8    4    7      2.84      0.00
    8    5    7     -0.71      0.00
    8    6    7     -2.76      0.00
    8    7    7      0.96      0.00
    8    8    7     -0.11      0.00
    8    9    7      0.75      0.00
    8    0    8      1.25      0.00
    8    1    8     -0.44      0.00
    8    2    8     -6.57      0.00
    8    3    8      1.21      0.00
    8    4    8      5.57      0.00
    8    5    8     -1.50      0.00
    8    6    8      1.12      0.00
    8    7    8     -1.26      0.00
    8    8    8     -3.36      0.00
    8    9    8     -1.27      0.00
    8    1    9      0.65      0.00
    8    2    9     -3.32      0.00
    8    3    9     -0.59      0.00
    8    4    9     -5.20      0.00
    8    5    9     -0.17      0.00
    8    6    9      3.98      0.00
    8    7    9      1.03      0.00
    8    8    9     -0.94      0.00
    8    9    9      1.62      0.00
    8    0   10     -1.58      0.00
    8    1   10      0.08      0.00
    8    2   10      3.75      0.00
    8    3   10      1.80      0.00
    8    4   10     -4.97      0.00
    8    5   10      1.11      0.00
    8    6   10     -1.52      0.00
    8    7   10     -1.09      0.00
    8    8   10     -0.19      0.00
    8    1   11      2.22      0.00
    8    2   11     -3.59      0.00
    8    3   11      0.62      0.00
    8    4   11      2.92      0.00
    8    5   11     -0.43      0.00
    8    6   11      0.71      0.00
    8    7   11     -1.10      0.00
    8    8   11     -2.85      0.00
    8    0   12      7.48      0.00
    8    1   12     -3.81      0.00
    8    2   12     -4.13      0.00
    8    3   12      3.86      0.00
    8    4   12     -3.05      0.00
    8    5   12     -1.39      0.00
    8    6   12      0.26      0.00
    8    7   12     -0.16      0.00
    8    1   13     -5.57      0.00
    8    2   13      6.56      0.00
    8    3   13     -3.06      0.00
    8    4   13     -2.08      0.00
    8    5   13      3.13      0.00
    8    6   13     -2.28      0.00
    8    7   13     -1.21      0.00
    8    0   14     -2.21      0.00
    8    1   14      3.34      0.00
    8    2   14      2.72      0.00
    8    3   14     -4.01      0.00
    8    4   14      4.27      0.00
    8    5   14     -0.25      0.00
    8    6   14      2.56      0.00
    8    1   15      1.95      0.00
    8    2   15      0.68      0.00
    8    3   15      2.85      0.00
    8    4   15      2.04      0.00
    8    5   15     -3.58      0.00
    8    0   16     -1.56      0.00
    8    1   16     -1.11      0.00
    8    2   16     -0.75      0.00
    8    3   16     -2.43      0.00
    8    4   16      4.41      0.00
    8    5   16      3.17      0.00
    8    1   17      4.54      0.00
    8    2   17     -0.52      0.00
    8    3   17     -2.65      0.00
    8    0   18      0.17      0.00
    8    1   18     -0.19      0.00
    9    1    0    -22.37      0.00
    9    3    0     24.45      0.00
    9    5    0      0.38      0.00
    9    7    0     -3.27      0.00
    9    9    0      2.79      0.00
    9    1    1    -30.38      0.00
    9    2    1    -13.62      0.00
    9    3    1     -3.86      0.00
    9    4    1      1.59      0.00
    9    5    1      5.71      0.00
    9    6    1      3.97      0.00
    9    7    1     -0.40      0.00
    9    8    1     -0.66      0.00
    9    9    1     -1.65      0.00
    9   10    1      4.95      0.00
    9    0    2     20.76      0.00
    9    1    2     11.42      0.00
    9    2    2     -3.56      0.00
    9    3    2    -10.77      0.00
    9    4    2    -12.42      0.00
    9    5    2      1.25      0.00
    9    6    2      1.65      0.00
    9    7    2     -1.25      0.00
    9    8    2      2.65      0.00
    9    9    2     -0.21      0.00
    9   10    2      0.71      0.00
    9    1    3     13.39      0.00
    9    2    3     15.09      0.00
    9    3    3     -2.18      0.00
    9    4    3     -2.84      0.00
    9    5    3     -0.02      0.00
    9    6    3     -5.73      0.00
    9    7    3     -1.76      0.00
    9    8    3      3.14      0.00
    9    9    3      0.14      0.00
    9   10    3     -0.75      0.00
    9    0    4     -4.41      0.00
    9    1    4     -4.64      0.00
    9    2    4     -1.38      0.00
    9    3    4      4.36      0.00
    9    4    4      3.30      0.00
    9    5    4     -1.20      0.00
    9    6    4      0.97      0.00
    9    7    4     -1.22      0.00
    9    8    4     -2.47      0.00
    9    9    4     -4.24      0.00
    9   10    4      0.10      0.00
    9    1    5     -6.56      0.00
    9    2    5      3.25      0.00
    9    3    5      1.88      0.00
    9    4    5     -5.26      0.00
    9    5    5     -0.79      0.00
    9    6    5      1.04      0.00
    9    7    5      1.88      0.00
    9    8    5      0.17      0.00
    9    9    5     -1.10      0.00
    9   10    5     -0.40      0.00
    9    0    6     -4.08      0.00
    9    1    6      2.97      0.00
    9    2    6      6.00      0.00
    9    3    6     -1.54      0.00
    9    4    6      1.23      0.00
    9    5    6     -0.13      0.00
    9    6    6     -2.40      0.00
    9    7    6      1.69      0.00
    9    8    6      0.40      0.00
    9    9    6      0.65      0.00
    9    1    7      5.77      0.00
    9    2    7     -3.89      0.00
    9    3    7     -3.66      0.00
    9    4    7      3.31      0.00
    9    5    7      2.08      0.00
    9    6    7     -0.68      0.00
    9    7    7      1.33      0.00
    9    8    7     -1.11      0.00
    9    9    7     -0.67      0.00
    9    0    8      1.25      0.00
    9    1    8      3.71      0.00
    9    2    8     -0.97      0.00
    9    3    8      0.65      0.00
    9    4    8      0.74      0.00
    9    5    8     -6.68      0.00
    9    6    8      1.11      0.00
    9    7    8      2.94      0.00
    9    8    8      0.84      0.00
    9    9    8     -0.54      0.00
    9    1    9      0.76      0.00
    9    2    9     -0.24      0.00
    9    3    9      7.54      0.00
    9    4    9      0.06      0.00
    9    5    9     -3.18      0.00
    9    6    9      0.25      0.00
    9    7    9     -2.28      0.00
    9    8    9     -2.96      0.00
    9    9    9      3.32      0.00
    9    0   10     -1.94      0.00
    9    1   10     -0.54      0.00
    9    2   10     -0.59      0.00
    9    3   10     -1.19      0.00
    9    4   10     -0.31      0.00
    9    5   10      4.14      0.00
    9    6   10      0.82      0.00
    9    7   10      1.73      0.00
    9    8   10     -0.51      0.00
    9    1   11      6.19      0.00
    9    2   11     -2.71      0.00
    9    3   11     -2.54      0.00
    9    4   11      1.03      0.00
    9    5   11     -0.43      0.00
    9    6   11     -0.05      0.00
    9    7   11      0.21      0.00
    9    8   11      2.04      0.00
    9    0   12      6.58      0.00
    9    1   12     -3.28      0.00
    9    2   12     -1.10      0.00
    9    3   12      6.44      0.00
    9    4   12     -3.84      0.00
    9    5   12      1.17      0.00
    9    6   12      1.12      0.00
    9    7   12     -1.56      0.00
    9    1   13     -5.90      0.00
    9    2   13      6.96      0.00
    9    3   13     -2.71      0.00
    9    4   13     -2.25      0.00
    9    5   13      3.08      0.00
    9    6   13     -0.06      0.00
    9    7   13      1.87      0.00
    9    0   14     -6.65      0.00
    9    1   14      0.28      0.00
    9    2   14      0.82      0.00
    9    3   14     -4.49      0.00
    9    4   14      3.67      0.00
    9    5   14     -3.21      0.00
    9    6   14     -2.20      0.00
    9    1   15     -0.51      0.00
    9    2   15     -1.66      0.00
    9    3   15     -1.71      0.00
    9    4   15     -0.65      0.00
    9    5   15      1.38      0.00
    9    0   16      0.26      0.00
    9    1   16      2.51      0.00
    9    2   16      4.51      0.00
    9    3   16     -2.61      0.00
    9    4   16     -3.20      0.00
    9    1   17      0.12      0.00
    9    2   17     -3.48      0.00
    9    3   17     -0.14      0.00
    9    0   18      2.28      0.00
    9    1   18     -0.14      0.00
   10    0    0     36.48      0.00
   10    2    0    -11.91      0.00
   10    4    0    -10.44      0.00
   10    6    0      1.68      0.00
   10    8    0      1.56      0.00
   10   10    0     -1.52      0.00
   10    1    1      8.96      0.00
   10    2    1     19.66      0.00
   10    3    1      5.96      0.00
   10    4    1     -7.16      0.00
   10    5    1     -3.89      0.00
   10    6    1      0.24      0.00
   10    7    1     -1.16      0.00
   10    8    1      2.15      0.00
   10    9    1     -0.78      0.00
   10   10    1     -1.27      0.00
   10    0    2    -23.57      0.00
   10    1    2    -11.12      0.00
   10    2    2      7.64      0.00
   10    3    2     12.95      0.00
   10    4    2      3.07      0.00
   10    5    2      4.20      0.00
   10    6    2      0.72      0.00
   10    7    2     -4.66      0.00
   10    8    2      0.04      0.00
   10    9    2      2.27      0.00
   10   10    2      1.35      0.00
   10    1    3     -9.78      0.00
   10    2    3     -8.15      0.00
   10    3    3     -7.38      0.00
   10    4    3      3.87      0.00
   10    5    3      5.96      0.00
   10    6    3     -0.35      0.00
   10    7    3      1.84      0.00
   10    8    3      2.54      0.00
   10    9    3     -3.05      0.00
   10   10    3     -2.29      0.00
   10    0    4     10.96      0.00
   10    1    4      4.41      0.00
   10    2    4     -5.31      0.00
   10    3    4     -2.38      0.00
   10    4    4      0.08      0.00
   10    5    4     -3.05      0.00
   10    6    4     -0.29      0.00
   10    7    4      2.32      0.00
   10    8    4      3.14      0.00
   10    9    4     -0.64      0.00
   10   10    4      2.53      0.00
   10    1    5     -2.72      0.00
   10    2    5      3.58      0.00
   10    3    5      2.80      0.00
   10    4    5     -0.87      0.00
   10    5    5      1.63      0.00
   10    6    5     -1.88      0.00
   10    7    5     -2.37      0.00
   10    8    5      0.73      0.00
   10    9    5      0.20      0.00
   10   10    5      0.77      0.00
   10    0    6     -7.82      0.00
   10    1    6      0.45      0.00
   10    2    6      2.41      0.00
   10    3    6     -6.04      0.00
   10    4    6     -1.02      0.00
   10    5    6      3.42      0.00
   10    6    6      0.80      0.00
   10    7    6      0.91      0.00
   10    8    6     -2.38      0.00
   10    9    6     -1.17      0.00
   10    1    7      3.24      0.00
   10    2    7      0.55      0.00
   10    3    7     -1.74      0.00
   10    4    7      1.81      0.00
   10    5    7     -0.26      0.00
   10    6    7     -2.97      0.00
   10    7    7      0.93      0.00
   10    8    7      0.64      0.00
   10    9    7      0.03      0.00
   10    0    8     -2.28      0.00
   10    1    8     -0.57      0.00
   10    2    8     -4.18      0.00
   10    3    8      1.34      0.00
   10    4    8      6.70      0.00
   10    5    8     -1.87      0.00
   10    6    8      0.42      0.00
   10    7    8     -0.40      0.00
   10    8    8     -3.57      0.00
   10    9    8     -0.81      0.00
   10    1    9     -0.67      0.00
   10    2    9     -4.13      0.00
   10    3    9     -0.25      0.00
   10    4    9     -4.19      0.00
   10    5    9     -0.48      0.00
   10    6    9      4.75      0.00
   10    7    9      1.90      0.00
   10    8    9     -0.35      0.00
   10    9    9      1.80      0.00
   10    0   10     -1.31      0.00
   10    1   10      1.40      0.00
   10    2   10      3.67      0.00
   10    3   10     -0.65      0.00
   10    4   10     -4.58      0.00
   10    5   10     -0.11      0.00
   10    6   10     -0.73      0.00
   10    7   10     -1.65      0.00
   10    8   10     -0.43      0.00
   10    1   11      4.29      0.00
   10    2   11     -4.09      0.00
   10    3   11      1.76      0.00
   10    4   11      3.18      0.00
   10    5   11     -1.46      0.00
   10    6   11      0.87      0.00
   10    7   11     -1.56      0.00
   10    8   11     -2.81      0.00
   10    0   12      8.45      0.00
   10    1   12     -3.82      0.00
   10    2   12     -4.77      0.00
   10    3   12      5.44      0.00
   10    4   12     -3.47      0.00
   10    5   12      0.48      0.00
   10    6   12      0.65      0.00
   10    7   12      0.71      0.00
   10    1   13     -5.51      0.00
   10    2   13      6.49      0.00
   10    3   13     -3.69      0.00
   10    4   13     -1.00      0.00
   10    5   13      3.33      0.00
   10    6   13     -3.50      0.00
   10    7   13     -0.03      0.00
   10    0   14     -1.32      0.00
   10    1   14      3.95      0.00
   10    2   14      1.64      0.00
   10    3   14     -2.84      0.00
   10    4   14      3.79      0.00
   10    5   14      0.17      0.00
   10    6   14      3.85      0.00
   10    1   15      2.15      0.00
   10    2   15      2.52      0.00
   10    3   15      2.63      0.00
   10    4   15      0.23      0.00
   10    5   15     -2.41      0.00
   10    0   16     -3.66      0.00
   10    1   16     -1.16      0.00
   10    2   16      0.29      0.00
   10    3   16     -3.29      0.00
   10    4   16      4.70      0.00
   10    1   17      4.49      0.00
   10    2   17     -0.86      0.00
   10    3   17     -2.86      0.00
   10    0   18     -1.24      0.00
   11    1    0    -12.58      0.00
   11    3    0     16.27      0.00
   11    5    0     -1.22      0.00
   11    7    0     -1.41      0.00
   11    9    0      0.50      0.00
   11    1    1    -20.49      0.00
   11    2    1     -9.99      0.00
   11    3    1     -1.38      0.00
   11    4    1      0.13      0.00
   11    5    1      2.62      0.00
   11    6    1      2.76      0.00
   11    7    1     -0.35      0.00
   11    8    1     -1.79      0.00
   11    9    1     -1.38      0.00
   11   10    1      2.92      0.00
   11    0    2     12.45      0.00
   11    1    2      8.49      0.00
   11    2    2     -1.68      0.00
   11    3    2     -8.35      0.00
   11    4    2     -9.87      0.00
   11    5    2      1.10      0.00
   11    6    2      1.84      0.00
   11    7    2     -1.62      0.00
   11    8    2      2.71      0.00
   11    9    2      0.50      0.00
   11   10    2     -0.38      0.00
   11    1    3     11.46      0.00
   11    2    3     12.79      0.00
   11    3    3     -1.29      0.00
   11    4    3     -1.53      0.00
   11    5    3     -0.49      0.00
   11    6    3     -4.42      0.00
   11    7    3     -1.49      0.00
   11    8    3      3.43      0.00
   11    9    3     -0.88      0.00
   11   10    3      0.01      0.00
   11    0    4     -5.60      0.00
   11    1    4     -3.80      0.00
   11    2    4     -1.89      0.00
   11    3    4      5.45      0.00
   11    4    4      4.74      0.00
   11    5    4     -0.24      0.00
   11    6    4      0.94      0.00
   11    7    4     -1.94      0.00
   11    8    4     -2.07      0.00
   11    9    4     -3.49      0.00
   11   10    4      0.88      0.00
   11    1    5     -5.91      0.00
   11    2    5      0.33      0.00
   11    3    5      1.00      0.00
   11    4    5     -3.37      0.00
   11    5    5     -0.54      0.00
   11    6    5      2.48      0.00
   11    7    5      1.86      0.00
   11    8    5      0.56      0.00
   11    9    5     -1.37      0.00
   11    0    6     -1.42      0.00
   11    1    6      2.41      0.00
   11    2    6      4.42      0.00
   11    3    6     -0.13      0.00
   11    4    6     -1.03      0.00
   11    5    6     -0.35      0.00
   11    6    6     -3.04      0.00
   11    7    6      1.71      0.00
   11    8    6      0.52      0.00
   11    9    6      0.80      0.00
   11    1    7      1.96      0.00
   11    2    7     -1.96      0.00
   11    3    7     -3.55      0.00
   11    4    7      2.96      0.00
   11    5    7      2.43      0.00
   11    6    7     -1.23      0.00
   11    7    7      0.31      0.00
   11    8    7     -0.40      0.00
   11    9    7     -0.64      0.00
   11    0    8      1.07      0.00
   11    1    8      4.21      0.00
   11    2    8     -1.03      0.00
   11    3    8     -1.03      0.00
   11    4    8      1.08      0.00
   11    5    8     -6.37      0.00
   11    6    8      0.27      0.00
   11    7    8      3.75      0.00
   11    8    8      0.26      0.00
   11    9    8     -0.22      0.00
   11    1    9      1.53      0.00
   11    2    9      1.49      0.00
   11    3    9      6.77      0.00
   11    4    9     -0.85      0.00
   11    5    9     -4.14      0.00
   11    6    9     -0.04      0.00
   11    7    9     -2.40      0.00
   11    8    9     -3.06      0.00
   11    0   10     -4.75      0.00
   11    1   10     -0.84      0.00
   11    2   10      1.03      0.00
   11    3   10     -1.61      0.00
   11    4   10      1.39      0.00
   11    5   10      3.70      0.00
   11    6   10      1.88      0.00
   11    7   10      1.23      0.00
   11    8   10     -0.40      0.00
   11    1   11      6.23      0.00
   11    2   11     -4.68      0.00
   11    3   11     -2.10      0.00
   11    4   11      1.01      0.00
   11    5   11     -1.02      0.00
   11    6   11      0.94      0.00
   11    7   11      0.18      0.00
   11    8   11      2.70      0.00
   11    0   12      6.88      0.00
   11    1   12     -3.54      0.00
   11    2   12     -1.52      0.00
   11    3   12      6.20      0.00
   11    4   12     -5.82      0.00
   11    5   12      0.99      0.00
   11    6   12     -0.06      0.00
   11    7   12     -2.65      0.00
   11    1   13     -6.25      0.00
   11    2   13      6.33      0.00
   11    3   13     -2.43      0.00
   11    4   13     -1.58      0.00
   11    5   13      2.43      0.00
   11    6   13     -0.56      0.00
   11    7   13      2.40      0.00
   11    0   14     -6.66      0.00
   11    1   14      0.30      0.00
   11    2   14     -0.36      0.00
   11    3   14     -2.10      0.00
   11    4   14      2.45      0.00
   11    5   14     -4.04      0.00
   11    6   14     -1.66      0.00
   11    1   15     -2.78      0.00
   11    2   15     -1.62      0.00
   11    3   15     -1.13      0.00
   11    4   15     -0.97      0.00
   11    5   15      2.54      0.00
   11    0   16      0.89      0.00
   11    1   16      3.38      0.00
   11    2   16      4.31      0.00
   11    3   16     -3.37      0.00
   11    4   16     -1.97      0.00
   11    1   17     -0.11      0.00
   11    2   17     -3.13      0.00
   11    3   17      0.77      0.00
   12    0    0     23.58      0.00
   12    2    0     -9.70      0.00
   12    4    0     -5.03      0.00
   12    6    0      0.40      0.00
   12    8    0      2.27      0.00
   12   10    0     -0.35      0.00
   12    1    1      5.22      0.00
   12    2    1     12.19      0.00
   12    3    1      4.65      0.00
   12    4    1     -5.09      0.00
   12    5    1     -1.71      0.00
   12    6    1      1.45      0.00
   12    7    1     -0.01      0.00
   12    8    1     -0.16      0.00
   12    9    1      0.84      0.00
   12   10    1      0.13      0.00
   12    0    2    -16.28      0.00
   12    1    2     -7.59      0.00
   12    2    2      5.55      0.00
   12    3    2      8.53      0.00
   12    4    2      1.76      0.00
   12    5    2      2.98      0.00
   12    6    2      1.11      0.00
   12    7    2     -4.27      0.00
   12    8    2      0.22      0.00
   12    9    2      1.61      0.00
   12   10    2      0.48      0.00
   12    1    3     -6.96      0.00
   12    2    3     -6.98      0.00
   12    3    3     -7.33      0.00
   12    4    3      3.03      0.00
   12    5    3      4.92      0.00
   12    6    3     -0.06      0.00
   12    7    3      1.02      0.00
   12    8    3      2.04      0.00
   12    9    3     -3.53      0.00
   12   10    3     -1.75      0.00
   12    0    4      8.37      0.00
   12    1    4      5.06      0.00
   12    2    4     -4.94      0.00
   12    3    4     -3.10      0.00
   12    4    4     -0.44      0.00
   12    5    4     -3.09      0.00
   12    6    4     -0.12      0.00
   12    7    4      1.45      0.00
   12    8    4      2.37      0.00
   12    9    4     -1.19      0.00
   12   10    4      2.59      0.00
   12    1    5     -0.21      0.00
   12    2    5      3.20      0.00
   12    3    5      3.75      0.00
   12    4    5     -0.18      0.00
   12    5    5     -0.45      0.00
   12    6    5     -1.86      0.00
   12    7    5     -3.19      0.00
   12    8    5      1.20      0.00
   12    9    5     -0.53      0.00
   12    0    6     -5.35      0.00
   12    1    6     -1.19      0.00
   12    2    6      0.71      0.00
   12    3    6     -2.19      0.00
   12    4    6     -1.35      0.00
   12    5    6      4.19      0.00
   12    6    6      1.00      0.00
   12    7    6      0.24      0.00
   12    8    6     -2.84      0.00
   12    9    6      0.13      0.00
   12    1    7      1.46      0.00
   12    2    7      2.02      0.00
   12    3    7     -2.31      0.00
   12    4    7      1.57      0.00
   12    5    7      0.14      0.00
   12    6    7     -2.39      0.00
   12    7    7      1.12      0.00
   12    8    7      1.84      0.00
   12    9    7     -1.06      0.00
   12    0    8     -4.10      0.00
   12    1    8     -0.58      0.00
   12    2    8     -2.81      0.00
   12    3    8      1.97      0.00
   12    4    8      6.89      0.00
   12    5    8     -1.80      0.00
   12    6    8     -0.77      0.00
   12    7    8      0.09      0.00
   12    8    8     -3.42      0.00
   12    9    8     -0.06      0.00
   12    1    9     -2.56      0.00
   12    2    9     -3.80      0.00
   12    3    9     -0.17      0.00
   12    4    9     -3.19      0.00
   12    5    9     -0.35      0.00
   12    6    9      5.28      0.00
   12    7    9      2.49      0.00
   12    8    9      0.04      0.00
   12    0   10     -0.83      0.00
   12    1   10      2.60      0.00
   12    2   10      3.66      0.00
   12    3   10     -3.08      0.00
   12    4   10     -3.30      0.00
   12    5   10     -1.18      0.00
   12    6   10     -0.54      0.00
   12    7   10     -1.66      0.00
   12    8   10     -0.16      0.00
   12    1   11      6.09      0.00
   12    2   11     -3.74      0.00
   12    3   11      2.61      0.00
   12    4   11      3.35      0.00
   12    5   11     -2.31      0.00
   12    6   11      0.72      0.00
   12    7   11     -2.04      0.00
   12    8   11     -2.46      0.00
   12    0   12      8.69      0.00
   12    1   12     -3.67      0.00
   12    2   12     -4.15      0.00
   12    3   12      5.50      0.00
   12    4   12     -2.67      0.00
   12    5   12      2.27      0.00
   12    6   12      1.75      0.00
   12    7   12      1.27      0.00
   12    1   13     -4.44      0.00
   12    2   13      5.86      0.00
   12    3   13     -3.59      0.00
   12    4   13     -0.09      0.00
   12    5   13      2.60      0.00
   12    6   13     -3.92      0.00
   12    7   13      1.13      0.00
   12    0   14     -1.35      0.00
   12    1   14      3.87      0.00
   12    2   14      0.24      0.00
   12    3   14     -1.20      0.00
   12    4   14      1.75      0.00
   12    5   14      0.54      0.00
   12    6   14      4.09      0.00
   12    1   15      1.78      0.00
   12    2   15      3.81      0.00
   12    3   15      2.43      0.00
   12    4   15     -1.42      0.00
   12    5   15     -1.49      0.00
   12    0   16     -5.32      0.00
   12    1   16     -1.49      0.00
   12    2   16      0.66      0.00
   12    3   16     -3.04      0.00
   12    4   16      3.88      0.00
   12    1   17      2.90      0.00
   12    2   17     -1.03      0.00
   12    3   17     -2.61      0.00
   13    1    0     -7.24      0.00
   13    3    0     10.36      0.00
   13    5    0     -2.02      0.00
   13    7    0      0.75      0.00
   13    9    0     -3.07      0.00
   13    1    1    -13.83      0.00
   13    2    1     -6.10      0.00
   13    3    1      0.62      0.00
   13    4    1     -1.25      0.00
   13    5    1      0.45      0.00
   13    6    1      1.35      0.00
   13    7    1      0.93      0.00
   13    8    1     -2.35      0.00
   13    9    1     -0.71      0.00
   13   10    1      0.70      0.00
   13    0    2      7.43      0.00
   13    1    2      5.54      0.00
   13    2    2     -0.31      0.00
   13    3    2     -5.61      0.00
   13    4    2     -6.10      0.00
   13    5    2      0.59      0.00
   13    6    2      1.93      0.00
   13    7    2     -1.72      0.00
   13    8    2      2.85      0.00
   13    9    2      1.42      0.00
   13   10    2     -1.24      0.00
   13    1    3      7.60      0.00
   13    2    3      9.48      0.00
   13    3    3     -1.03      0.00
   13    4    3     -0.41      0.00
   13    5    3      0.45      0.00
   13    6    3     -2.86      0.00
   13    7    3     -0.72      0.00
   13    8    3      2.24      0.00
   13    9    3     -1.38      0.00
   13   10    3      1.02      0.00
   13    0    4     -5.74      0.00
   13    1    4     -2.20      0.00
   13    2    4     -2.20      0.00
   13    3    4      4.14      0.00
   13    4    4      5.87      0.00
   13    5    4     -0.23      0.00
   13    6    4      0.95      0.00
   13    7    4     -1.73      0.00
   13    8    4     -0.97      0.00
   13    9    4     -2.44      0.00
   13    1    5     -4.26      0.00
   13    2    5     -2.93      0.00
   13    3    5      0.39      0.00
   13    4    5     -1.63      0.00
   13    5    5     -0.93      0.00
   13    6    5      3.59      0.00
   13    7    5      1.47      0.00
   13    8    5      0.00      0.00
   13    9    5     -1.52      0.00
   13    0    6      2.01      0.00
   13    1    6      2.05      0.00
   13    2    6      2.64      0.00
   13    3    6      0.74      0.00
   13    4    6     -3.09      0.00
   13    5    6     -0.20      0.00
   13    6    6     -3.04      0.00
   13    7    6      1.69      0.00
   13    8    6      0.88      0.00
   13    9    6      1.01      0.00
   13    1    7     -0.24      0.00
   13    2    7     -0.04      0.00
   13    3    7     -3.66      0.00
   13    4    7      2.45      0.00
   13    5    7      2.45      0.00
   13    6    7     -1.54      0.00
   13    7    7     -1.27      0.00
   13    8    7      0.74      0.00
   13    9    7     -0.86      0.00
   13    0    8      1.45      0.00
   13    1    8      3.83      0.00
   13    2    8     -1.93      0.00
   13    3    8     -1.09      0.00
   13    4    8      0.87      0.00
   13    5    8     -5.45      0.00
   13    6    8     -0.20      0.00
   13    7    8      4.04      0.00
   13    8    8     -0.68      0.00
   13    9    8     -0.14      0.00
   13    1    9      1.31      0.00
   13    2    9      3.34      0.00
   13    3    9      5.41      0.00
   13    4    9     -1.71      0.00
   13    5    9     -4.41      0.00
   13    6    9     -0.43      0.00
   13    7    9     -2.51      0.00
   13    8    9     -2.50      0.00
   13    0   10     -7.11      0.00
   13    1   10     -1.48      0.00
   13    2   10      2.00      0.00
   13    3   10     -1.77      0.00
   13    4   10      3.07      0.00
   13    5   10      3.28      0.00
   13    6   10      1.70      0.00
   13    7   10      0.50      0.00
   13    8   10     -1.06      0.00
   13    1   11      5.15      0.00
   13    2   11     -5.82      0.00
   13    3   11     -1.77      0.00
   13    4   11      0.71      0.00
   13    5   11     -1.64      0.00
   13    6   11      2.10      0.00
   13    7   11      0.58      0.00
   13    0   12      7.26      0.00
   13    1   12     -3.64      0.00
   13    2   12     -1.61      0.00
   13    3   12      4.63      0.00
   13    4   12     -5.61      0.00
   13    5   12     -0.28      0.00
   13    6   12     -1.14      0.00
   13    7   12     -3.71      0.00
   13    1   13     -5.78      0.00
   13    2   13      4.58      0.00
   13    3   13     -1.64      0.00
   13    4   13     -0.55      0.00
   13    5   13      1.35      0.00
   13    6   13     -0.76      0.00
   13    0   14     -4.70      0.00
   13    1   14      1.02      0.00
   13    2   14     -1.53      0.00
   13    3   14      0.39      0.00
   13    4   14      1.27      0.00
   13    5   14     -3.52      0.00
   13    6   14     -0.64      0.00
   13    1   15     -3.62      0.00
   13    2   15     -1.18      0.00
   13    3   15     -0.74      0.00
   13    4   15     -0.87      0.00
   13    5   15      3.25      0.00
   13    0   16      1.84      0.00
   13    1   16      4.06      0.00
   13    2   16      3.26      0.00
   13    3   16     -3.14      0.00
   13    4   16     -1.38      0.00
   13    1   17     -0.31      0.00
   13    2   17     -1.65      0.00
   14    0    0     16.39      0.00
   14    2    0     -7.57      0.00
   14    4    0     -1.74      0.00
   14    6    0     -1.21      0.00
   14    8    0      3.29      0.00
   14   10    0      1.46      0.00
   14    1    1      3.08      0.00
   14    2    1      7.41      0.00
   14    3    1      2.65      0.00
   14    4    1     -3.61      0.00
   14    5    1      0.00      0.00
   14    6    1      1.59      0.00
   14    7    1      0.40      0.00
   14    8    1     -2.69      0.00
   14    9    1      2.25      0.00
   14   10    1      1.64      0.00
   14    0    2     -9.84      0.00
   14    1    2     -4.39      0.00
   14    2    2      3.92      0.00
   14    3    2      3.58      0.00
   14    4    2      0.01      0.00
   14    5    2      1.73      0.00
   14    6    2      1.77      0.00
   14    7    2     -2.95      0.00
   14    8    2      0.08      0.00
   14    9    2      0.09      0.00
   14   10    2     -0.36      0.00
   14    1    3     -3.91      0.00
   14    2    3     -3.81      0.00
   14    3    3     -6.12      0.00
   14    4    3      1.38      0.00
   14    5    3      3.84      0.00
   14    6    3     -0.55      0.00
   14    7    3      0.84      0.00
   14    8    3      1.52      0.00
   14    9    3     -2.71      0.00
   14    0    4      3.94      0.00
   14    1    4      4.92      0.00
   14    2    4     -3.28      0.00
   14    3    4     -3.52      0.00
   14    4    4      0.66      0.00
   14    5    4     -3.38      0.00
   14    6    4     -0.23      0.00
   14    7    4      0.22      0.00
   14    8    4      1.27      0.00
   14    9    4     -1.20      0.00
   14    1    5      2.37      0.00
   14    2    5      1.63      0.00
   14    3    5      4.60      0.00
   14    4    5      0.46      0.00
   14    5    5     -1.87      0.00
   14    6    5     -0.92      0.00
   14    7    5     -2.98      0.00
   14    8    5      0.94      0.00
   14    9    5     -0.67      0.00
   14    0    6     -3.37      0.00
   14    1    6     -3.08      0.00
   14    2    6     -0.16      0.00
   14    3    6      1.00      0.00
   14    4    6     -1.83      0.00
   14    5    6      4.20      0.00
   14    6    6      1.14      0.00
   14    7    6     -1.21      0.00
   14    8    6     -3.06      0.00
   14    9    6      1.84      0.00
   14    1    7      0.18      0.00
   14    2    7      1.96      0.00
   14    3    7     -3.00      0.00
   14    4    7      1.87      0.00
   14    5    7      0.56      0.00
   14    6    7     -1.13      0.00
   14    7    7      1.20      0.00
   14    8    7      2.19      0.00
   14    9    7     -2.86      0.00
   14    0    8     -3.96      0.00
   14    1    8     -0.33      0.00
   14    2    8     -2.20      0.00
   14    3    8      2.91      0.00
   14    4    8      6.05      0.00
   14    5    8     -1.52      0.00
   14    6    8     -1.49      0.00
   14    7    8      0.62      0.00
   14    8    8     -2.42      0.00
   14    9    8      0.59      0.00
   14    1    9     -4.33      0.00
   14    2    9     -2.80      0.00
   14    3    9     -0.64      0.00
   14    4    9     -2.29      0.00
   14    5    9      0.63      0.00
   14    6    9      5.47      0.00
   14    7    9      2.17      0.00
   14    8    9      0.31      0.00
   14    0   10      0.00      0.00
   14    1   10      3.60      0.00
   14    2   10      3.36      0.00
   14    3   10     -4.35      0.00
   14    4   10     -2.24      0.00
   14    5   10     -1.53      0.00
   14    6   10     -0.79      0.00
   14    7   10     -0.22      0.00
   14    8   10      0.16      0.00
   14    1   11      7.09      0.00
   14    2   11     -2.08      0.00
   14    3   11      2.76      0.00
   14    4   11      3.20      0.00
   14    5   11     -2.75      0.00
   14    6   11      0.23      0.00
   14    7   11     -2.30      0.00
   14    0   12      7.49      0.00
   14    1   12     -3.85      0.00
   14    2   12     -2.74      0.00
   14    3   12      4.17      0.00
   14    4   12     -0.74      0.00
   14    5   12      3.00      0.00
   14    6   12      2.77      0.00
   14    7   12      0.86      0.00
   14    1   13     -2.99      0.00
   14    2   13      4.73      0.00
   14    3   13     -2.44      0.00
   14    4   13      0.13      0.00
   14    5   13      0.84      0.00
   14    6   13     -3.58      0.00
   14    0   14     -2.04      0.00
   14    1   14      2.50      0.00
   14    2   14     -0.96      0.00
   14    3   14      0.26      0.00
   14    4   14     -0.56      0.00
   14    5   14      0.40      0.00
   14    6   14      3.30      0.00
   14    1   15      0.80      0.00
   14    2   15      3.81      0.00
   14    3   15      2.26      0.00
   14    4   15     -2.37      0.00
   14    5   15     -1.28      0.00
   14    0   16     -5.35      0.00
   14    1   16     -1.44      0.00
   14    2   16      0.27      0.00
   14    3   16     -1.81      0.00
   14    4   16      2.31      0.00
   14    1   17      0.71      0.00
   14    2   17     -0.91      0.00
   15    1    0     -5.42      0.00
   15    3    0      7.08      0.00
   15    5    0     -2.02      0.00
   15    7    0      2.35      0.00
   15    9    0     -6.19      0.00
   15    1    1     -9.57      0.00
   15    2    1     -2.38      0.00
   15    3    1      1.61      0.00
   15    4    1     -1.98      0.00
   15    5    1     -0.90      0.00
   15    6    1      0.36      0.00
   15    7    1      2.42      0.00
   15    8    1     -1.93      0.00
   15    9    1     -0.23      0.00
   15   10    1     -1.11      0.00
   15    0    2      3.65      0.00
   15    1    2      2.88      0.00
   15    2    2      0.49      0.00
   15    3    2     -2.81      0.00
   15    4    2     -2.79      0.00
   15    5    2      0.06      0.00
   15    6    2      1.37      0.00
   15    7    2     -1.45      0.00
   15    8    2      2.96      0.00
   15    9    2      1.96      0.00
   15    1    3      2.94      0.00
   15    2    3      5.41      0.00
   15    3    3     -1.72      0.00
   15    4    3      0.52      0.00
   15    5    3      2.20      0.00
   15    6    3     -1.90      0.00
   15    7    3     -0.21      0.00
   15    8    3     -0.16      0.00
   15    9    3     -1.63      0.00
   15    0    4     -4.89      0.00
   15    1    4      0.45      0.00
   15    2    4     -2.03      0.00
   15    3    4      0.89      0.00
   15    4    4      6.29      0.00
   15    5    4     -0.78      0.00
   15    6    4      1.48      0.00
   15    7    4     -0.09      0.00
   15    8    4      0.33      0.00
   15    9    4     -2.11      0.00
   15    1    5     -1.44      0.00
   15    2    5     -5.51      0.00
   15    3    5      0.57      0.00
   15    4    5     -0.69      0.00
   15    5    5     -1.69      0.00
   15    6    5      3.85      0.00
   15    7    5      1.14      0.00
   15    8    5     -1.06      0.00
   15    9    5     -1.00      0.00
   15    0    6      5.36      0.00
   15    1    6      1.42      0.00
   15    2    6      1.56      0.00
   15    3    6      0.99      0.00
   15    4    6     -4.40      0.00
   15    5    6     -0.09      0.00
   15    6    6     -2.15      0.00
   15    7    6      1.85      0.00
   15    8    6      1.52      0.00
   15    9    6      1.16      0.00
   15    1    7     -0.52      0.00
   15    2    7      1.21      0.00
   15    3    7     -3.64      0.00
   15    4    7      1.98      0.00
   15    5    7      2.02      0.00
   15    6    7     -1.89      0.00
   15    7    7     -2.28      0.00
   15    8    7      2.48      0.00
   15    9    7     -0.55      0.00
   15    0    8      2.07      0.00
   15    1    8      2.55      0.00
   15    2    8     -3.07      0.00
   15    3    8     -0.19      0.00
   15    4    8      0.17      0.00
   15    5    8     -4.55      0.00
   15    6    8     -0.09      0.00
   15    7    8      2.86      0.00
   15    8    8     -1.82      0.00
   15    1    9      0.84      0.00
   15    2    9      4.38      0.00
   15    3    9      3.65      0.00
   15    4    9     -2.13      0.00
   15    5    9     -3.92      0.00
   15    6    9     -0.74      0.00
   15    7    9     -2.52      0.00
   15    8    9     -1.62      0.00
   15    0   10     -8.39      0.00
   15    1   10     -2.22      0.00
   15    2   10      1.94      0.00
   15    3   10     -0.95      0.00
   15    4   10      3.97      0.00
   15    5   10      3.09      0.00
   15    6   10      0.12      0.00
   15    7   10      0.14      0.00
   15    8   10     -2.24      0.00
   15    1   11      3.20      0.00
   15    2   11     -6.08      0.00
   15    3   11     -2.32      0.00
   15    4   11      0.50      0.00
   15    5   11     -1.27      0.00
   15    6   11      3.32      0.00
   15    7   11      0.89      0.00
   15    0   12      7.98      0.00
   15    1   12     -2.99      0.00
   15    2   12     -1.41      0.00
   15    3   12      2.44      0.00
   15    4   12     -3.32      0.00
   15    5   12     -1.91      0.00
   15    6   12     -1.80      0.00
   15    7   12     -3.90      0.00
   15    1   13     -4.29      0.00
   15    2   13      2.67      0.00
   15    3   13     -0.63      0.00
   15    4   13      0.37      0.00
   15    5   13      0.48      0.00
   15    6   13     -0.59      0.00
   15    0   14     -1.73      0.00
   15    1   14      1.80      0.00
   15    2   14     -1.83      0.00
   15    3   14      1.95      0.00
   15    4   14      0.69      0.00
   15    5   14     -2.35      0.00
   15    1   15     -2.74      0.00
   15    2   15     -0.20      0.00
   15    3   15     -0.33      0.00
   15    4   15     -0.72      0.00
   15    5   15      3.07      0.00
   15    0   16      2.10      0.00
   15    1   16      3.65      0.00
   15    2   16      1.91      0.00
   15    3   16     -2.03      0.00
   15    1   17     -0.51      0.00
   15    2   17      0.01      0.00
   16    0    0     13.21      0.00
   16    2    0     -5.36      0.00
   16    4    0     -0.31      0.00
   16    6    0     -2.32      0.00
   16    8    0      4.00      0.00
   16    1    1      1.52      0.00
   16    2    1      5.39      0.00
   16    3    1      1.08      0.00
   16    4    1     -2.59      0.00
   16    5    1      0.64      0.00
   16    6    1      1.19      0.00
   16    7    1      0.04      0.00
   16    8    1     -3.97      0.00
   16    9    1      3.10      0.00
   16    0    2     -4.94      0.00
   16    1    2     -1.69      0.00
   16    2    2      2.81      0.00
   16    3    2     -0.22      0.00
   16    4    2     -1.86      0.00
   16    5    2      1.19      0.00
   16    6    2      2.28      0.00
   16    7    2     -1.34      0.00
   16    8    2     -0.33      0.00
   16    9    2     -1.54      0.00
   16    1    3     -1.22      0.00
   16    2    3      0.85      0.00
   16    3    3     -4.35      0.00
   16    4    3     -0.31      0.00
   16    5    3      2.76      0.00
   16    6    3     -1.38      0.00
   16    7    3      1.51      0.00
   16    8    3      1.69      0.00
   16    9    3     -1.07      0.00
   16    0    4     -2.30      0.00
   16    1    4      4.11      0.00
   16    2    4     -1.16      0.00
   16    3    4     -3.39      0.00
   16    4    4      2.66      0.00
   16    5    4     -4.02      0.00
   16    6    4     -1.11      0.00
   16    7    4     -1.19      0.00
   16    8    4      0.06      0.00
   16    9    4     -0.79      0.00
   16    1    5      4.27      0.00
   16    2    5     -1.27      0.00
   16    3    5      5.21      0.00
   16    4    5      1.08      0.00
   16    5    5     -2.38      0.00
   16    6    5      0.24      0.00
   16    7    5     -2.31      0.00
   16    8    5     -0.56      0.00
   16    9    5     -0.25      0.00
   16    0    6     -1.61      0.00
   16    1    6     -4.40      0.00
   16    2    6      0.04      0.00
   16    3    6      2.53      0.00
   16    4    6     -2.26      0.00
   16    5    6      3.63      0.00
   16    6    6      1.23      0.00
   16    7    6     -2.53      0.00
   16    8    6     -2.90      0.00
   16    9    6      3.16      0.00
   16    1    7     -0.25      0.00
   16    2    7      0.83      0.00
   16    3    7     -3.34      0.00
   16    4    7      2.16      0.00
   16    5    7      0.94      0.00
   16    6    7      0.23      0.00
   16    7    7      1.22      0.00
   16    8    7      1.11      0.00
   16    9    7     -4.64      0.00
   16    0    8     -2.34      0.00
   16    1    8      0.06      0.00
   16    2    8     -1.62      0.00
   16    3    8      3.47      0.00
   16    4    8      4.45      0.00
   16    5    8     -1.50      0.00
   16    6    8     -0.78      0.00
   16    7    8      1.42      0.00
   16    8    8     -0.43      0.00
   16    1    9     -5.20      0.00
   16    2    9     -1.80      0.00
   16    3    9     -1.21      0.00
   16    4    9     -1.51      0.00
   16    5    9      1.86      0.00
   16    6    9      4.88      0.00
   16    7    9      1.24      0.00
   16    8    9      1.11      0.00
   16    0   10      0.96      0.00
   16    1   10      3.90      0.00
   16    2   10      2.63      0.00
   16    3   10     -4.03      0.00
   16    4   10     -2.38      0.00
   16    5   10     -1.28      0.00
   16    6   10     -1.04      0.00
   16    7   10      2.09      0.00
   16    8   10     -0.22      0.00
   16    1   11      7.18      0.00
   16    2   11      0.37      0.00
   16    3   11      2.13      0.00
   16    4   11      2.75      0.00
   16    5   11     -2.71      0.00
   16    6   11     -0.48      0.00
   16    7   11     -2.41      0.00
   16    0   12      4.90      0.00
   16    1   12     -4.59      0.00
   16    2   12     -1.52      0.00
   16    3   12      2.67      0.00
   16    4   12      1.56      0.00
   16    5   12      2.55      0.00
   16    6   12      2.73      0.00
   16    7   12     -0.27      0.00
   16    1   13     -2.16      0.00
   16    2   13      3.01      0.00
   16    3   13     -0.93      0.00
   16    4   13     -0.25      0.00
   16    5   13     -1.08      0.00
   16    6   13     -2.76      0.00
   16    0   14     -2.41      0.00
   16    1   14      0.57      0.00
   16    2   14     -1.66      0.00
   16    3   14      0.99      0.00
   16    4   14     -1.67      0.00
   16    5   14     -0.37      0.00
   16    1   15     -0.30      0.00
   16    2   15      2.61      0.00
   16    3   15      2.32      0.00
   16    4   15     -2.54      0.00
   16    0   16     -3.45      0.00
   16    1   16     -0.85      0.00
   16    2   16     -0.17      0.00
   16    3   16     -0.54      0.00
   16    1   17     -0.80      0.00
   17    1    0     -6.06      0.00
   17    3    0      5.80      0.00
   17    5    0     -1.68      0.00
   17    7    0      2.84      0.00
   17    9    0     -7.57      0.00
   17    1    1     -7.38      0.00
   17    2    1     -0.04      0.00
   17    3    1      1.73      0.00
   17    4    1     -1.99      0.00
   17    5    1     -1.59      0.00
   17    6    1      0.04      0.00
   17    7    1      3.08      0.00
   17    8    1     -1.12      0.00
   17    9    1     -0.35      0.00
   17    0    2      1.20      0.00
   17    1    2      0.75      0.00
   17    2    2      1.08      0.00
   17    3    2     -0.44      0.00
   17    4    2     -1.13      0.00
   17    5    2      0.04      0.00
   17    6    2      0.46      0.00
   17    7    2     -0.86      0.00
   17    8    2      3.05      0.00
   17    9    2      1.86      0.00
   17    1    3     -1.91      0.00
   17    2    3      2.30      0.00
   17    3    3     -3.03      0.00
   17    4    3      1.27      0.00
   17    5    3      3.83      0.00
   17    6    3     -1.78      0.00
   17    7    3     -0.32      0.00
   17    8    3     -2.28      0.00
   17    9    3     -1.92      0.00
   17    0    4     -4.03      0.00
   17    1    4      3.97      0.00
   17    2    4     -1.51      0.00
   17    3    4     -3.07      0.00
   17    4    4      6.06      0.00
   17    5    4     -1.12      0.00
   17    6    4      2.49      0.00
   17    7    4      2.46      0.00
   17    8    4      1.22      0.00
   17    9    4     -2.76      0.00
   17    1    5      2.03      0.00
   17    2    5     -6.51      0.00
   17    3    5      1.49      0.00
   17    4    5     -0.59      0.00
   17    5    5     -2.74      0.00
   17    6    5      3.36      0.00
   17    7    5      1.29      0.00
   17    8    5     -1.40      0.00
   17    9    5      0.30      0.00
   17    0    6      6.90      0.00
   17    1    6      0.33      0.00
   17    2    6      1.25      0.00
   17    3    6      0.97      0.00
   17    4    6     -4.87      0.00
   17    5    6     -0.32      0.00
   17    6    6     -1.25      0.00
   17    7    6      1.83      0.00
   17    8    6      2.03      0.00
   17    9    6      1.37      0.00
   17    1    7      0.47      0.00
   17    2    7      1.29      0.00
   17    3    7     -3.12      0.00
   17    4    7      1.70      0.00
   17    5    7      1.29      0.00
   17    6    7     -2.44      0.00
   17    7    7     -2.24      0.00
   17    8    7      3.94      0.00
   17    0    8      2.50      0.00
   17    1    8      0.93      0.00
   17    2    8     -3.63      0.00
   17    3    8      0.59      0.00
   17    4    8     -0.40      0.00
   17    5    8     -3.84      0.00
   17    6    8      0.56      0.00
   17    7    8      0.26      0.00
   17    8    8     -2.52      0.00
   17    1    9      0.65      0.00
   17    2    9      3.92      0.00
   17    3    9      1.96      0.00
   17    4    9     -1.88      0.00
   17    5    9     -2.78      0.00
   17    6    9     -0.79      0.00
   17    7    9     -2.20      0.00
   17    8    9     -1.08      0.00
   17    0   10     -8.15      0.00
   17    1   10     -2.54      0.00
   17    2   10      1.50      0.00
   17    3   10      0.52      0.00
   17    4   10      3.56      0.00
   17    5   10      3.01      0.00
   17    6   10     -1.52      0.00
   17    7   10      0.74      0.00
   17    1   11      1.22      0.00
   17    2   11     -5.71      0.00
   17    3   11     -3.64      0.00
   17    4   11      0.66      0.00
   17    5   11      0.31      0.00
   17    6   11      4.25      0.00
   17    7   11      0.69      0.00
   17    0   12      8.82      0.00
   17    1   12     -1.62      0.00
   17    2   12     -1.18      0.00
   17    3   12      0.66      0.00
   17    4   12     -0.68      0.00
   17    5   12     -3.00      0.00
   17    6   12     -1.94      0.00
   17    1   13     -2.17      0.00
   17    2   13      1.77      0.00
   17    3   13      0.16      0.00
   17    4   13      0.81      0.00
   17    5   13      0.24      0.00
   17    6   13     -0.31      0.00
   17    0   14      0.39      0.00
   17    1   14      1.80      0.00
   17    2   14     -1.34      0.00
   17    3   14      2.51      0.00
   17    4   14      0.94      0.00
   17    5   14     -1.47      0.00
   17    1   15     -1.19      0.00
   17    2   15      0.73      0.00
   17    3   15      0.27      0.00
   17    4   15     -0.88      0.00
   17    0   16      1.53      0.00
   17    1   16      2.01      0.00
   17    2   16      1.08      0.00
   17    3   16     -0.71      0.00
   18    0    0     12.36      0.00
   18    2    0     -3.73      0.00
   18    4    0      0.28      0.00
   18    6    0     -2.55      0.00
   18    8    0      3.97      0.00
   18    1    1      0.57      0.00
   18    2    1      4.98      0.00
   18    3    1      0.75      0.00
   18    4    1     -2.02      0.00
   18    5    1      0.23      0.00
   18    6    1      0.76      0.00
   18    7    1     -0.56      0.00
   18    8    1     -3.74      0.00
   18    9    1      3.63      0.00
   18    0    2     -1.36      0.00
   18    1    2     -0.70      0.00
   18    2    2      2.01      0.00
   18    3    2     -1.76      0.00
   18    4    2     -3.43      0.00
   18    5    2      1.34      0.00
   18    6    2      2.20      0.00
   18    7    2     -0.40      0.00
   18    8    2     -0.84      0.00
   18    9    2     -2.27      0.00
   18    1    3     -0.15      0.00
   18    2    3      5.63      0.00
   18    3    3     -3.03      0.00
   18    4    3     -1.39      0.00
   18    5    3      1.87      0.00
   18    6    3     -2.13      0.00
   18    7    3      2.42      0.00
   18    8    3      2.33      0.00
   18    9    3      0.22      0.00
   18    0    4     -8.81      0.00
   18    1    4      3.32      0.00
   18    2    4      0.83      0.00
   18    3    4     -2.97      0.00
   18    4    4      4.64      0.00
   18    5    4     -4.61      0.00
   18    6    4     -2.57      0.00
   18    7    4     -2.17      0.00
   18    8    4     -0.93      0.00
   18    9    4     -0.33      0.00
   18    1    5      4.73      0.00
   18    2    5     -4.44      0.00
   18    3    5      5.39      0.00
   18    4    5      1.91      0.00
   18    5    5     -2.31      0.00
   18    6    5      1.00      0.00
   18    7    5     -2.07      0.00
   18    8    5     -2.72      0.00
   18    9    5      0.07      0.00
   18    0    6     -0.16      0.00
   18    1    6     -4.21      0.00
   18    2    6      0.82      0.00
   18    3    6      2.40      0.00
   18    4    6     -2.44      0.00
   18    5    6      3.18      0.00
   18    6    6      1.48      0.00
   18    7    6     -2.72      0.00
   18    8    6     -2.55      0.00
   18    9    6      3.39      0.00
   18    1    7      0.07      0.00
   18    2    7     -0.37      0.00
   18    3    7     -2.93      0.00
   18    4    7      1.83      0.00
   18    5    7      1.00      0.00
   18    6    7      1.05      0.00
   18    7    7      1.43      0.00
   18    8    7     -0.48      0.00
   18    0    8     -0.50      0.00
   18    1    8      0.36      0.00
   18    2    8     -0.88      0.00
   18    3    8      3.12      0.00
   18    4    8      2.59      0.00
   18    5    8     -2.00      0.00
   18    6    8      0.80      0.00
   18    7    8      1.98      0.00
   18    8    8      1.91      0.00
   18    1    9     -4.97      0.00
   18    2    9     -1.21      0.00
   18    3    9     -1.13      0.00
   18    4    9     -0.84      0.00
   18    5    9      2.27      0.00
   18    6    9      3.16      0.00
   18    7    9      0.49      0.00
   18    8    9      2.31      0.00
   18    0   10      1.49      0.00
   18    1   10      3.25      0.00
   18    2   10      1.72      0.00
   18    3   10     -2.70      0.00
   18    4   10     -3.37      0.00
   18    5   10     -0.89      0.00
   18    6   10     -0.92      0.00
   18    7   10      3.78      0.00
   18    1   11      6.63      0.00
   18    2   11      2.12      0.00
   18    3   11      0.97      0.00
   18    4   11      2.26      0.00
   18    5   11     -2.26      0.00
   18    6   11     -1.04      0.00
   18    7   11     -2.48      0.00
   18    0   12      2.16      0.00
   18    1   12     -5.39      0.00
   18    2   12     -0.93      0.00
   18    3   12      2.08      0.00
   18    4   12      3.02      0.00
   18    5   12      1.58      0.00
   18    6   12      1.65      0.00
   18    1   13     -2.25      0.00
   18    2   13      0.97      0.00
   18    3   13     -0.09      0.00
   18    4   13     -0.64      0.00
   18    5   13     -1.98      0.00
   18    6   13     -1.82      0.00
   18    0   14     -1.78      0.00
   18    1   14     -0.67      0.00
   18    2   14     -1.92      0.00
   18    3   14      0.95      0.00
   18    4   14     -1.25      0.00
   18    5   14     -1.35      0.00
   18    1   15     -0.94      0.00
   18    2   15      1.25      0.00
   18    3   15      2.67      0.00
   18    4   15     -2.31      0.00
   18    0   16     -0.95      0.00
   18    1   16     -0.28      0.00
   18    2   16     -0.11      0.00
   18    3   16      0.03      0.00
   19    1    0     -6.84      0.00
   19    3    0      5.27      0.00
   19    5    0     -1.23      0.00
   19    7    0      2.54      0.00
   19    9    0     -7.16      0.00
   19    1    1     -6.15      0.00
   19    2    1      0.16      0.00
   19    3    1      1.82      0.00
   19    4    1     -1.54      0.00
   19    5    1     -1.79      0.00
   19    6    1      0.30      0.00
   19    7    1      2.84      0.00
   19    8    1     -0.60      0.00
   19    9    1     -0.73      0.00
   19    0    2      1.19      0.00
   19    1    2     -0.94      0.00
   19    2    2      1.45      0.00
   19    3    2      1.29      0.00
   19    4    2     -1.18      0.00
   19    5    2      0.65      0.00
   19    6    2     -0.19      0.00
   19    7    2     -0.27      0.00
   19    8    2      3.15      0.00
   19    9    2      1.35      0.00
   19    1    3     -6.05      0.00
   19    2    3      1.48      0.00
   19    3    3     -4.18      0.00
   19    4    3      1.56      0.00
   19    5    3      4.83      0.00
   19    6    3     -2.18      0.00
   19    7    3     -0.70      0.00
   19    8    3     -2.80      0.00
   19    9    3     -2.01      0.00
   19    0    4     -3.74      0.00
   19    1    4      6.81      0.00
   19    2    4     -0.98      0.00
   19    3    4     -6.41      0.00
   19    4    4      5.54      0.00
   19    5    4     -0.98      0.00
   19    6    4      3.27      0.00
   19    7    4      4.52      0.00
   19    8    4      1.25      0.00
   19    9    4     -3.66      0.00
   19    1    5      4.82      0.00
   19    2    5     -5.79      0.00
   19    3    5      2.36      0.00
   19    4    5     -0.81      0.00
   19    5    5     -3.84      0.00
   19    6    5      2.81      0.00
   19    7    5      1.80      0.00
   19    8    5     -0.61      0.00
   19    9    5      1.58      0.00
   19    0    6      5.82      0.00
   19    1    6     -0.80      0.00
   19    2    6      1.28      0.00
   19    3    6      1.03      0.00
   19    4    6     -4.67      0.00
   19    5    6     -0.89      0.00
   19    6    6     -1.12      0.00
   19    7    6      1.45      0.00
   19    8    6      2.10      0.00
   19    1    7      1.62      0.00
   19    2    7      0.41      0.00
   19    3    7     -2.10      0.00
   19    4    7      1.71      0.00
   19    5    7      0.77      0.00
   19    6    7     -2.97      0.00
   19    7    7     -1.74      0.00
   19    8    7      4.19      0.00
   19    0    8      2.48      0.00
   19    1    8     -0.02      0.00
   19    2    8     -3.22      0.00
   19    3    8      0.71      0.00
   19    4    8     -0.31      0.00
   19    5    8     -2.91      0.00
   19    6    8      1.54      0.00
   19    7    8     -2.28      0.00
   19    8    8     -2.23      0.00
   19    1    9      0.70      0.00
   19    2    9      2.41      0.00
   19    3    9      0.87      0.00
   19    4    9     -1.17      0.00
   19    5    9     -1.47      0.00
   19    6    9     -0.72      0.00
   19    7    9     -1.18      0.00
   19    8    9     -0.94      0.00
   19    0   10     -6.84      0.00
   19    1   10     -2.06      0.00
   19    2   10      1.51      0.00
   19    3   10      1.55      0.00
   19    4   10      1.92      0.00
   19    5   10      2.53      0.00
   19    6   10     -1.94      0.00
   19    7   10      2.06      0.00
   19    1   11      0.04      0.00
   19    2   11     -5.03      0.00
   19    3   11     -4.50      0.00
   19    4   11      1.14      0.00
   19    5   11      2.03      0.00
   19    6   11      4.38      0.00
   19    7   11      0.18      0.00
   19    0   12      9.05      0.00
   19    1   12     -0.49      0.00
   19    2   12     -1.09      0.00
   19    3   12     -0.04      0.00
   19    4   12      0.56      0.00
   19    5   12     -3.05      0.00
   19    6   12     -1.64      0.00
   19    1   13     -0.26      0.00
   19    2   13      1.90      0.00
   19    3   13      0.33      0.00
   19    4   13      0.79      0.00
   19    5   13      0.67      0.00
   19    0   14      0.85      0.00
   19    1   14      0.88      0.00
   19    2   14     -0.75      0.00
   19    3   14      2.69      0.00
   19    4   14      1.64      0.00
   19    5   14     -1.24      0.00
   19    1   15     -0.26      0.00
   19    2   15      0.97      0.00
   19    3   15      0.88      0.00
   19    4   15     -1.20      0.00
   19    0   16      0.84      0.00
   19    1   16      0.10      0.00
   19    2   16      1.07      0.00
   20    0    0     11.08      0.00
   20    2    0     -3.15      0.00
   20    4    0      0.76      0.00
   20    6    0     -2.36      0.00
   20    8    0      3.15      0.00
   20    1    1      0.59      0.00
   20    2    1      4.28      0.00
   20    3    1      1.41      0.00
   20    4    1     -1.74      0.00
   20    5    1     -0.77      0.00
   20    6    1      0.44      0.00
   20    7    1     -1.03      0.00
   20    8    1     -2.93      0.00
   20    9    1      3.90      0.00
   20    0    2      1.60      0.00
   20    1    2     -1.56      0.00
   20    2    2      1.31      0.00
   20    3    2     -1.07      0.00
   20    4    2     -4.46      0.00
   20    5    2      1.82      0.00
   20    6    2      1.67      0.00
   20    7    2     -0.44      0.00
   20    8    2     -1.14      0.00
   20    9    2     -1.91      0.00
   20    1    3     -0.94      0.00
   20    2    3      8.96      0.00
   20    3    3     -2.50      0.00
   20    4    3     -1.90      0.00
   20    5    3      1.41      0.00
   20    6    3     -2.70      0.00
   20    7    3      3.00      0.00
   20    8    3      2.70      0.00
   20    9    3      0.36      0.00
   20    0    4    -12.81      0.00
   20    1    4      2.90      0.00
   20    2    4      2.42      0.00
   20    3    4     -2.67      0.00
   20    4    4      6.07      0.00
   20    5    4     -4.62      0.00
   20    6    4     -3.79      0.00
   20    7    4     -2.11      0.00
   20    8    4     -1.36      0.00
   20    9    4     -0.15      0.00
   20    1    5      3.64      0.00
   20    2    5     -6.33      0.00
   20    3    5      5.10      0.00
   20    4    5      2.88      0.00
   20    5    5     -2.31      0.00
   20    6    5      1.10      0.00
   20    7    5     -2.50      0.00
   20    8    5     -4.06      0.00
   20    9    5      0.15      0.00
   20    0    6      0.79      0.00
   20    1    6     -2.73      0.00
   20    2    6      1.36      0.00
   20    3    6      1.33      0.00
   20    4    6     -2.25      0.00
   20    5    6      3.17      0.00
   20    6    6      1.84      0.00
   20    7    6     -2.02      0.00
   20    8    6     -2.42      0.00
   20    1    7      0.56      0.00
   20    2    7     -0.86      0.00
   20    3    7     -1.95      0.00
   20    4    7      0.79      0.00
   20    5    7      0.55      0.00
   20    6    7      1.16      0.00
   20    7    7      1.78      0.00
   20    8    7     -1.22      0.00
   20    0    8      0.51      0.00
   20    1    8      0.37      0.00
   20    2    8     -0.55      0.00
   20    3    8      2.07      0.00
   20    4    8      1.06      0.00
   20    5    8     -2.75      0.00
   20    6    8      1.61      0.00
   20    7    8      1.55      0.00
   20    8    8      3.57      0.00
   20    1    9     -4.12      0.00
   20    2    9     -1.01      0.00
   20    3    9     -0.25      0.00
   20    4    9     -0.29      0.00
   20    5    9      1.52      0.00
   20    6    9      0.66      0.00
   20    7    9      0.28      0.00
   20    0   10      1.31      0.00
   20    1   10      2.20      0.00
   20    2   10      0.94      0.00
   20    3   10     -1.45      0.00
   20    4   10     -3.93      0.00
   20    5   10     -0.52      0.00
   20    6   10     -0.30      0.00
   20    7   10      4.17      0.00
   20    1   11      5.82      0.00
   20    2   11      2.10      0.00
   20    3   11     -0.20      0.00
   20    4   11      1.86      0.00
   20    5   11     -1.65      0.00
   20    6   11     -1.06      0.00
   20    7   11     -2.33      0.00
   20    0   12      0.67      0.00
   20    1   12     -5.37      0.00
   20    2   12     -0.50      0.00
   20    3   12      2.35      0.00
   20    4   12      2.71      0.00
   20    5   12      0.76      0.00
   20    6   12      0.55      0.00
   20    1   13     -2.59      0.00
   20    2   13     -0.69      0.00
   20    3   13     -0.19      0.00
   20    4   13     -0.68      0.00
   20    5   13     -1.52      0.00
   20    0   14     -0.56      0.00
   20    1   14     -0.86      0.00
   20    2   14     -2.01      0.00
   20    3   14      0.59      0.00
   20    4   14     -0.08      0.00
   20    1   15     -1.07      0.00
   20    2   15      0.58      0.00
   20    3   15      2.93      0.00
   20    0   16      0.57      0.00
   20    1   16     -0.25      0.00
   20    2   16      0.38      0.00
   21    1    0     -5.86      0.00
   21    3    0      4.51      0.00
   21    5    0     -0.55      0.00
   21    7    0      2.25      0.00
   21    9    0     -5.76      0.00
   21    1    1     -4.55      0.00
   21    2    1     -1.08      0.00
   21    3    1      2.34      0.00
   21    4    1     -0.94      0.00
   21    5    1     -1.69      0.00
   21    6    1      1.04      0.00
   21    7    1      2.28      0.00
   21    8    1     -0.34      0.00
   21    9    1     -0.73      0.00
   21    0    2      2.97      0.00
   21    1    2     -2.41      0.00
   21    2    2      1.20      0.00
   21    3    2      2.52      0.00
   21    4    2     -2.31      0.00
   21    5    2      1.40      0.00
   21    6    2     -0.46      0.00
   21    7    2     -0.24      0.00
   21    8    2      3.25      0.00
   21    9    2      0.88      0.00
   21    1    3     -8.49      0.00
   21    2    3      2.51      0.00
   21    3    3     -4.66      0.00
   21    4    3      1.18      0.00
   21    5    3      5.35      0.00
   21    6    3     -2.63      0.00
   21    7    3     -0.79      0.00
   21    8    3     -1.84      0.00
   21    9    3     -1.65      0.00
   21    0    4     -3.64      0.00
   21    1    4      7.56      0.00
   21    2    4     -0.73      0.00
   21    3    4     -8.36      0.00
   21    4    4      5.02      0.00
   21    5    4     -0.61      0.00
   21    6    4      3.26      0.00
   21    7    4      5.04      0.00
   21    8    4      0.35      0.00
   21    9    4     -3.86      0.00
   21    1    5      5.94      0.00
   21    2    5     -4.04      0.00
   21    3    5      2.48      0.00
   21    4    5     -0.86      0.00
   21    5    5     -4.53      0.00
   21    6    5      2.85      0.00
   21    7    5      2.17      0.00
   21    8    5      0.41      0.00
   21    0    6      3.24      0.00
   21    1    6     -1.49      0.00
   21    2    6      1.44      0.00
   21    3    6      1.24      0.00
   21    4    6     -3.95      0.00
   21    5    6     -1.50      0.00
   21    6    6     -1.43      0.00
   21    7    6      1.15      0.00
   21    8    6      2.00      0.00
   21    1    7      2.12      0.00
   21    2    7     -0.58      0.00
   21    3    7     -1.04      0.00
   21    4    7      1.92      0.00
   21    5    7      0.73      0.00
   21    6    7     -3.10      0.00
   21    7    7     -1.63      0.00
   21    8    7      3.36      0.00
   21    0    8      2.01      0.00
   21    1    8      0.12      0.00
   21    2    8     -2.17      0.00
   21    3    8      0.38      0.00
   21    4    8      0.31      0.00
   21    5    8     -1.44      0.00
   21    6    8      2.53      0.00
   21    7    8     -3.30      0.00
   21    8    8     -1.14      0.00
   21    1    9      0.48      0.00
   21    2    9      1.10      0.00
   21    3    9      0.70      0.00
   21    4    9     -0.53      0.00
   21    5    9     -0.62      0.00
   21    6    9     -0.80      0.00
   21    7    9      0.52      0.00
   21    0   10     -5.44      0.00
   21    1   10     -1.04      0.00
   21    2   10      1.90      0.00
   21    3   10      1.47      0.00
   21    4   10     -0.15      0.00
   21    5   10      1.40      0.00
   21    6   10     -1.36      0.00
   21    7   10      3.05      0.00
   21    1   11     -0.40      0.00
   21    2   11     -4.28      0.00
   21    3   11     -3.78      0.00
   21    4   11      1.76      0.00
   21    5   11      2.52      0.00
   21    6   11      3.53      0.00
   21    0   12      8.08      0.00
   21    1   12     -0.33      0.00
   21    2   12     -1.26      0.00
   21    3   12      0.19      0.00
   21    4   12      0.10      0.00
   21    5   12     -2.16      0.00
   21    6   12     -1.02      0.00
   21    1   13      0.78      0.00
   21    2   13      2.03      0.00
   21    3   13     -0.19      0.00
   21    4   13      0.65      0.00
   21    5   13      1.57      0.00
   21    0   14      0.50      0.00
   21    1   14     -0.16      0.00
   21    2   14     -0.50      0.00
   21    3   14      2.75      0.00
   21    4   14      2.06      0.00
   21    1   15     -0.20      0.00
   21    2   15      0.56      0.00
   21    3   15      1.29      0.00
   21    0   16      0.53      0.00
   21    1   16     -1.11      0.00
   22    0    0      7.91      0.00
   22    2    0     -3.19      0.00
   22    4    0      1.18      0.00
   22    6    0     -2.38      0.00
   22    8    0      1.80      0.00
   22    1    1      1.28      0.00
   22    2    1      2.44      0.00
   22    3    1      2.17      0.00
   22    4    1     -1.43      0.00
   22    5    1     -1.93      0.00
   22    6    1      0.27      0.00
   22    7    1     -1.44      0.00
   22    8    1     -2.55      0.00
   22    9    1      3.58      0.00
   22    0    2      4.13      0.00
   22    1    2     -2.84      0.00
   22    2    2      0.69      0.00
   22    3    2      0.94      0.00
   22    4    2     -4.88      0.00
   22    5    2      2.46      0.00
   22    6    2      1.29      0.00
   22    7    2     -0.94      0.00
   22    8    2     -0.90      0.00
   22    9    2     -1.14      0.00
   22    1    3     -2.44      0.00
   22    2    3     10.23      0.00
   22    3    3     -2.53      0.00
   22    4    3     -2.28      0.00
   22    5    3      1.43      0.00
   22    6    3     -3.21      0.00
   22    7    3      3.25      0.00
   22    8    3      2.65      0.00
   22    9    3     -0.40      0.00
   22    0    4    -12.97      0.00
   22    1    4      2.63      0.00
   22    2    4      3.32      0.00
   22    3    4     -2.55      0.00
   22    4    4      6.83      0.00
   22    5    4     -3.98      0.00
   22    6    4     -4.28      0.00
   22    7    4     -1.12      0.00
   22    8    4     -1.31      0.00
   22    1    5      1.67      0.00
   22    2    5     -6.40      0.00
   22    3    5      4.49      0.00
   22    4    5      3.58      0.00
   22    5    5     -2.59      0.00
   22    6    5      0.62      0.00
   22    7    5     -3.17      0.00
   22    8    5     -3.60      0.00
   22    0    6      1.36      0.00
   22    1    6     -1.21      0.00
   22    2    6      1.16      0.00
   22    3    6      0.00      0.00
   22    4    6     -1.63      0.00
   22    5    6      3.31      0.00
   22    6    6      1.91      0.00
   22    7    6     -1.63      0.00
   22    8    6     -2.85      0.00
   22    1    7      0.77      0.00
   22    2    7     -0.57      0.00
   22    3    7     -0.98      0.00
   22    4    7     -0.50      0.00
   22    5    7     -0.19      0.00
   22    6    7      1.05      0.00
   22    7    7      1.91      0.00
   22    8    7     -0.94      0.00
   22    0    8      0.77      0.00
   22    1    8      0.15      0.00
   22    2    8     -1.08      0.00
   22    3    8      0.97      0.00
   22    4    8      0.46      0.00
   22    5    8     -3.17      0.00
   22    6    8      0.75      0.00
   22    7    8      0.16      0.00
   22    1    9     -3.11      0.00
   22    2    9     -0.86      0.00
   22    3    9      0.75      0.00
   22    4    9      0.06      0.00
   22    5    9      0.32      0.00
   22    6    9     -1.59      0.00
   22    7    9      0.26      0.00
   22    0   10      0.76      0.00
   22    1   10      1.70      0.00
   22    2   10      0.46      0.00
   22    3   10     -0.97      0.00
   22    4   10     -3.25      0.00
   22    5   10      0.02      0.00
   22    6   10      0.55      0.00
   22    7   10      3.83      0.00
   22    1   11      4.96      0.00
   22    2   11      0.93      0.00
   22    3   11     -0.89      0.00
   22    4   11      1.45      0.00
   22    5   11     -1.28      0.00
   22    6   11     -0.52      0.00
   22    0   12      0.46      0.00
   22    1   12     -4.15      0.00
   22    2   12      0.36      0.00
   22    3   12      2.79      0.00
   22    4   12      0.68      0.00
   22    5   12      0.34      0.00
   22    6   12      0.23      0.00
   22    1   13     -2.58      0.00
   22    2   13     -1.35      0.00
   22    3   13     -0.66      0.00
   22    4   13     -0.54      0.00
   22    5   13     -0.37      0.00
   22    0   14      0.12      0.00
   22    1   14     -0.61      0.00
   22    2   14     -1.97      0.00
   22    3   14      0.37      0.00
   22    4   14      0.91      0.00
   22    1   15     -1.07      0.00
   22    2   15      0.33      0.00
   22    3   15      2.59      0.00
   23    1    0     -3.50      0.00
   23    3    0      3.24      0.00
   23    5    0      0.25      0.00
   23    7    0      2.42      0.00
   23    9    0     -4.03      0.00
   23    1    1     -2.35      0.00
   23    2    1     -2.48      0.00
   23    3    1      2.91      0.00
   23    4    1     -0.36      0.00
   23    5    1     -1.59      0.00
   23    6    1      2.13      0.00
   23    7    1      1.84      0.00
   23    8    1      0.02      0.00
   23    9    1     -0.15      0.00
   23    0    2      4.57      0.00
   23    1    2     -3.59      0.00
   23    2    2      0.32      0.00
   23    3    2      3.46      0.00
   23    4    2     -3.84      0.00
   23    5    2      1.63      0.00
   23    6    2     -0.63      0.00
   23    7    2     -1.13      0.00
   23    8    2      3.24      0.00
   23    1    3     -8.83      0.00
   23    2    3      3.93      0.00
   23    3    3     -4.56      0.00
   23    4    3      0.49      0.00
   23    5    3      5.77      0.00
   23    6    3     -2.78      0.00
   23    7    3     -0.48      0.00
   23    8    3     -0.69      0.00
   23    0    4     -3.12      0.00
   23    1    4      6.52      0.00
   23    2    4     -0.84      0.00
   23    3    4     -8.77      0.00
   23    4    4      4.60      0.00
   23    5    4     -0.25      0.00
   23    6    4      2.79      0.00
   23    7    4      4.37      0.00
   23    8    4     -0.99      0.00
   23    1    5      5.63      0.00
   23    2    5     -2.15      0.00
   23    3    5      1.86      0.00
   23    4    5     -0.81      0.00
   23    5    5     -4.41      0.00
   23    6    5      3.44      0.00
   23    7    5      2.18      0.00
   23    8    5      0.83      0.00
   23    0    6      0.95      0.00
   23    1    6     -1.70      0.00
   23    2    6      1.86      0.00
   23    3    6      1.51      0.00
   23    4    6     -2.87      0.00
   23    5    6     -1.94      0.00
   23    6    6     -1.35      0.00
   23    7    6      1.54      0.00
   23    8    6      2.07      0.00
   23    1    7      1.82      0.00
   23    2    7     -0.97      0.00
   23    3    7     -0.38      0.00
   23    4    7      2.08      0.00
   23    5    7      1.04      0.00
   23    6    7     -2.74      0.00
   23    7    7     -2.16      0.00
   23    8    7      2.42      0.00
   23    0    8      1.17      0.00
   23    1    8      0.67      0.00
   23    2    8     -1.06      0.00
   23    3    8      0.04      0.00
   23    4    8      0.96      0.00
   23    5    8      0.11      0.00
   23    6    8      3.09      0.00
   23    7    8     -2.85      0.00
   23    1    9     -0.29      0.00
   23    2    9      0.76      0.00
   23    3    9      1.36      0.00
   23    4    9     -0.31      0.00
   23    5    9     -0.59      0.00
   23    6    9     -1.07      0.00
   23    7    9      2.24      0.00
   23    0   10     -4.36      0.00
   23    1   10     -0.23      0.00
   23    2   10      1.82      0.00
   23    3   10      0.70      0.00
   23    4   10     -1.55      0.00
   23    5   10      0.02      0.00
   23    6   10     -0.97      0.00
   23    1   11     -0.78      0.00
   23    2   11     -3.67      0.00
   23    3   11     -1.61      0.00
   23    4   11      2.35      0.00
   23    5   11      1.35      0.00
   23    6   11      2.14      0.00
   23    0   12      6.36      0.00
   23    1   12     -0.80      0.00
   23    2   12     -1.72      0.00
   23    3   12      0.61      0.00
   23    4   12     -1.25      0.00
   23    5   12     -0.74      0.00
   23    1   13      0.93      0.00
   23    2   13      1.62      0.00
   23    3   13     -1.01      0.00
   23    4   13      0.59      0.00
   23    5   13      2.58      0.00
   23    0   14      0.33      0.00
   23    1   14     -0.33      0.00
   23    2   14     -0.44      0.00
   23    3   14      2.30      0.00
   23    4   14      1.74      0.00
   23    1   15     -0.23      0.00
   23    2   15      0.11      0.00
   24    0    0      4.15      0.00
   24    2    0     -2.95      0.00
   24    4    0      1.52      0.00
   24    6    0     -2.69      0.00
   24    8    0      0.39      0.00
   24    1    1      1.99      0.00
   24    2    1      0.23      0.00
   24    3    1      2.54      0.00
   24    4    1     -0.86      0.00
   24    5    1     -2.95      0.00
   24    6    1      0.37      0.00
   24    7    1     -1.90      0.00
   24    8    1     -2.66      0.00
   24    0    2      5.74      0.00
   24    1    2     -3.42      0.00
   24    2    2      0.33      0.00
   24    3    2      3.07      0.00
   24    4    2     -4.79      0.00
   24    5    2      3.16      0.00
   24    6    2      1.40      0.00
   24    7    2     -1.24      0.00
   24    8    2      0.03      0.00
   24    1    3     -3.43      0.00
   24    2    3      9.86      0.00
   24    3    3     -2.93      0.00
   24    4    3     -2.81      0.00
   24    5    3      1.50      0.00
   24    6    3     -3.67      0.00
   24    7    3      3.40      0.00
   24    8    3      2.62      0.00
   24    0    4    -10.62      0.00
   24    1    4      2.27      0.00
   24    2    4      3.23      0.00
   24    3    4     -2.31      0.00
   24    4    4      6.79      0.00
   24    5    4     -3.30      0.00
   24    6    4     -4.27      0.00
   24    7    4     -0.25      0.00
   24    8    4     -1.26      0.00
   24    1    5     -0.26      0.00
   24    2    5     -5.43      0.00
   24    3    5      3.79      0.00
   24    4    5      3.70      0.00
   24    5    5     -2.70      0.00
   24    6    5     -0.15      0.00
   24    7    5     -3.66      0.00
   24    8    5     -1.85      0.00
   24    0    6      2.05      0.00
   24    1    6     -0.54      0.00
   24    2    6      0.28      0.00
   24    3    6     -1.17      0.00
   24    4    6     -0.69      0.00
   24    5    6      3.17      0.00
   24    6    6      1.61      0.00
   24    7    6     -2.11      0.00
   24    8    6     -3.66      0.00
   24    1    7      0.68      0.00
   24    2    7      0.12      0.00
   24    3    7     -0.56      0.00
   24    4    7     -1.49      0.00
   24    5    7     -0.65      0.00
   24    6    7      1.27      0.00
   24    7    7      1.56      0.00
   24    0    8      1.05      0.00
   24    1    8     -0.01      0.00
   24    2    8     -1.97      0.00
   24    3    8      0.25      0.00
   24    4    8      1.04      0.00
   24    5    8     -2.95      0.00
   24    6    8     -1.03      0.00
   24    7    8     -1.23      0.00
   24    1    9     -1.88      0.00
   24    2    9     -0.52      0.00
   24    3    9      1.12      0.00
   24    4    9      0.04      0.00
   24    5    9     -0.39      0.00
   24    6    9     -2.68      0.00
   24    7    9     -0.04      0.00
   24    0   10      0.40      0.00
   24    1   10      1.96      0.00
   24    2   10      0.33      0.00
   24    3   10     -1.15      0.00
   24    4   10     -1.71      0.00
   24    5   10      0.78      0.00
   24    6   10      1.09      0.00
   24    1   11      4.00      0.00
   24    2   11      0.22      0.00
   24    3   11     -0.79      0.00
   24    4   11      0.80      0.00
   24    5   11     -1.54      0.00
   24    6   11      0.23      0.00
   24    0   12      0.56      0.00
   24    1   12     -2.47      0.00
   24    2   12      1.55      0.00
   24    3   12      3.20      0.00
   24    4   12     -2.02      0.00
   24    5   12      0.26      0.00
   24    1   13     -2.59      0.00
   24    2   13     -0.98      0.00
   24    3   13     -0.91      0.00
   24    4   13     -0.62      0.00
   24    0   14     -0.29      0.00
   24    1   14     -0.40      0.00
   24    2   14     -1.76      0.00
   24    3   14      0.36      0.00
   24    1   15     -1.22      0.00
   25    1    0     -1.51      0.00
   25    3    0      1.72      0.00
   25    5    0      0.60      0.00
   25    7    0      2.91      0.00
   25    1    1     -0.42      0.00
   25    2    1     -3.39      0.00
   25    3    1      3.11      0.00
   25    4    1      0.13      0.00
   25    5    1     -1.67      0.00
   25    6    1      3.16      0.00
   25    7    1      1.46      0.00
   25    8    1      0.44      0.00
   25    0    2      5.19      0.00
   25    1    2     -4.28      0.00
   25    2    2     -0.49      0.00
   25    3    2      4.04      0.00
   25    4    2     -5.15      0.00
   25    5    2      1.16      0.00
   25    6    2     -0.84      0.00
   25    7    2     -2.51      0.00
   25    8    2      3.04      0.00
   25    1    3     -7.60      0.00
   25    2    3      4.90      0.00
   25    3    3     -4.22      0.00
   25    4    3      0.26      0.00
   25    5    3      6.01      0.00
   25    6    3     -2.41      0.00
   25    7    3      0.11      0.00
   25    8    3     -0.39      0.00
   25    0    4     -2.32      0.00
   25    1    4      5.14      0.00
   25    2    4     -1.17      0.00
   25    3    4     -7.87      0.00
   25    4    4      4.22      0.00
   25    5    4      0.13      0.00
   25    6    4      2.72      0.00
   25    7    4      3.63      0.00
   25    8    4     -1.93      0.00
   25    1    5      4.84      0.00
   25    2    5     -0.76      0.00
   25    3    5      0.93      0.00
   25    4    5     -0.99      0.00
   25    5    5     -3.64      0.00
   25    6    5      3.92      0.00
   25    7    5      2.04      0.00
   25    8    5      0.94      0.00
   25    0    6     -0.33      0.00
   25    1    6     -1.80      0.00
   25    2    6      2.41      0.00
   25    3    6      1.83      0.00
   25    4    6     -1.77      0.00
   25    5    6     -2.33      0.00
   25    6    6     -0.78      0.00
   25    7    6      2.41      0.00
   25    8    6      2.23      0.00
   25    1    7      0.87      0.00
   25    2    7     -0.71      0.00
   25    3    7     -0.23      0.00
   25    4    7      1.96      0.00
   25    5    7      1.38      0.00
   25    6    7     -2.21      0.00
   25    7    7     -2.96      0.00
   25    0    8      0.06      0.00
   25    1    8      0.57      0.00
   25    2    8     -0.36      0.00
   25    3    8     -0.23      0.00
   25    4    8      1.43      0.00
   25    5    8      0.93      0.00
   25    6    8      2.97      0.00
   25    7    8     -2.06      0.00
   25    1    9     -1.32      0.00
   25    2    9      0.91      0.00
   25    3    9      2.35      0.00
   25    4    9     -0.47      0.00
   25    5    9     -1.06      0.00
   25    6    9     -1.23      0.00
   25    7    9      3.18      0.00
   25    0   10     -2.95      0.00
   25    1   10     -0.16      0.00
   25    2   10      0.73      0.00
   25    3   10      0.01      0.00
   25    4   10     -1.54      0.00
   25    5   10     -0.89      0.00
   25    6   10     -1.46      0.00
   25    1   11     -1.32      0.00
   25    2   11     -3.34      0.00
   25    3   11      0.72      0.00
   25    4   11      2.83      0.00
   25    5   11     -0.68      0.00
   25    0   12      5.08      0.00
   25    1   12     -0.98      0.00
   25    2   12     -2.36      0.00
   25    3   12      0.66      0.00
   25    4   12     -2.68      0.00
   25    5   12      0.74      0.00
   25    1   13      0.69      0.00
   25    2   13      1.47      0.00
   25    3   13     -1.57      0.00
   25    4   13      0.54      0.00
   25    0   14      0.03      0.00
   25    1   14      0.46      0.00
   25    2   14     -0.20      0.00
   25    3   14      1.12      0.00
   26    0    0      1.80      0.00
   26    2    0     -2.19      0.00
   26    4    0      1.98      0.00
   26    6    0     -3.00      0.00
   26    8    0     -0.56      0.00
   26    1    1      2.44      0.00
   26    2    1     -1.39      0.00
   26    3    1      2.62      0.00
   26    4    1     -0.26      0.00
   26    5    1     -3.48      0.00
   26    6    1      0.77      0.00
   26    7    1     -2.20      0.00
   26    8    1     -2.73      0.00
   26    0    2      6.14      0.00
   26    1    2     -3.68      0.00
   26    2    2      0.38      0.00
   26    3    2      4.28      0.00
   26    4    2     -4.32      0.00
   26    5    2      3.50      0.00
   26    6    2      1.59      0.00
   26    7    2     -1.21      0.00
   26    8    2      1.35      0.00
   26    1    3     -3.79      0.00
   26    2    3      8.65      0.00
   26    3    3     -3.74      0.00
   26    4    3     -3.21      0.00
   26    5    3      1.15      0.00
   26    6    3     -3.85      0.00
   26    7    3      3.35      0.00
   26    8    3      2.72      0.00
   26    0    4     -8.00      0.00
   26    1    4      1.97      0.00
   26    2    4      2.27      0.00
   26    3    4     -1.86      0.00
   26    4    4      5.92      0.00
   26    5    4     -3.14      0.00
   26    6    4     -4.13      0.00
   26    7    4     -0.50      0.00
   26    8    4     -1.59      0.00
   26    1    5     -1.40      0.00
   26    2    5     -4.46      0.00
   26    3    5      3.20      0.00
   26    4    5      3.45      0.00
   26    5    5     -2.08      0.00
   26    6    5     -0.68      0.00
   26    7    5     -3.89      0.00
   26    8    5     -0.17      0.00
   26    0    6      3.03      0.00
   26    1    6     -0.45      0.00
   26    2    6     -0.86      0.00
   26    3    6     -1.76      0.00
   26    4    6      0.23      0.00
   26    5    6      2.71      0.00
   26    6    6      1.46      0.00
   26    7    6     -2.68      0.00
   26    1    7      0.57      0.00
   26    2    7      0.93      0.00
   26    3    7     -0.79      0.00
   26    4    7     -1.98      0.00
   26    5    7     -0.45      0.00
   26    6    7      1.85      0.00
   26    7    7      0.93      0.00
   26    0    8      1.64      0.00
   26    1    8      0.18      0.00
   26    2    8     -2.18      0.00
   26    3    8     -0.10      0.00
   26    4    8      2.44      0.00
   26    5    8     -2.48      0.00
   26    6    8     -2.32      0.00
   26    7    8     -1.67      0.00
   26    1    9     -0.14      0.00
   26    2    9      0.09      0.00
   26    3    9      0.83      0.00
   26    4    9     -0.42      0.00
   26    5    9     -0.22      0.00
   26    6    9     -2.53      0.00
   26    0   10      0.21      0.00
   26    1   10      2.14      0.00
   26    2   10      0.53      0.00
   26    3   10     -1.48      0.00
   26    4   10     -0.14      0.00
   26    5   10      1.39      0.00
   26    6   10      0.95      0.00
   26    1   11      2.80      0.00
   26    2   11      0.60      0.00
   26    3   11      0.07      0.00
   26    4   11      0.02      0.00
   26    5   11     -2.46      0.00
   26    0   12      0.49      0.00
   26    1   12     -1.55      0.00
   26    2   12      2.30      0.00
   26    3   12      3.93      0.00
   26    4   12     -4.08      0.00
   26    1   13     -3.44      0.00
   26    2   13     -0.22      0.00
   26    3   13     -0.97      0.00
   26    4   13     -0.98      0.00
   26    0   14     -1.08      0.00
   26    1   14      0.01      0.00
   26    2   14     -1.43      0.00
   27    1    0     -0.57      0.00
   27    3    0      0.29      0.00
   27    5    0      0.25      0.00
   27    7    0      3.36      0.00
   27    1    1      0.61      0.00
   27    2    1     -3.83      0.00
   27    3    1      3.12      0.00
   27    4    1      0.46      0.00
   27    5    1     -1.75      0.00
   27    6    1      3.48      0.00
   27    7    1      1.09      0.00
   27    8    1      0.55      0.00
   27    0    2      5.81      0.00
   27    1    2     -4.48      0.00
   27    2    2     -0.48      0.00
   27    3    2      4.07      0.00
   27    4    2     -5.47      0.00
   27    5    2      0.50      0.00
   27    6    2     -0.84      0.00
   27    7    2     -3.36      0.00
   27    8    2      2.70      0.00
   27    1    3     -5.78      0.00
   27    2    3      5.49      0.00
   27    3    3     -3.86      0.00
   27    4    3      0.88      0.00
   27    5    3      5.63      0.00
   27    6    3     -1.54      0.00
   27    7    3      0.96      0.00
   27    8    3     -0.85      0.00
   27    0    4     -1.91      0.00
   27    1    4      4.27      0.00
   27    2    4     -1.39      0.00
   27    3    4     -6.26      0.00
   27    4    4      3.88      0.00
   27    5    4      0.48      0.00
   27    6    4      3.32      0.00
   27    7    4      3.39      0.00
   27    8    4     -1.87      0.00
   27    1    5      4.13      0.00
   27    2    5     -0.23      0.00
   27    3    5      0.01      0.00
   27    4    5     -1.43      0.00
   27    5    5     -2.92      0.00
   27    6    5      3.57      0.00
   27    7    5      1.92      0.00
   27    0    6     -1.03      0.00
   27    1    6     -2.02      0.00
   27    2    6      2.55      0.00
   27    3    6      2.33      0.00
   27    4    6     -1.04      0.00
   27    5    6     -2.78      0.00
   27    6    6     -0.41      0.00
   27    7    6      2.67      0.00
   27    1    7     -0.53      0.00
   27    2    7     -0.24      0.00
   27    3    7     -0.47      0.00
   27    4    7      1.61      0.00
   27    5    7      1.63      0.00
   27    6    7     -1.78      0.00
   27    7    7     -3.59      0.00
   27    0    8     -1.17      0.00
   27    1    8     -0.44      0.00
   27    2    8     -0.20      0.00
   27    3    8     -0.63      0.00
   27    4    8      1.83      0.00
   27    5    8      0.69      0.00
   27    6    8      2.41      0.00
   27    1    9     -2.01      0.00
   27    2    9      0.59      0.00
   27    3    9      2.93      0.00
   27    4    9     -0.93      0.00
   27    5    9     -1.29      0.00
   27    6    9     -0.94      0.00
   27    0   10     -0.54      0.00
   27    1   10     -0.44      0.00
   27    2   10     -0.85      0.00
   27    3   10     -0.44      0.00
   27    4   10     -0.23      0.00
   27    5   10     -1.06      0.00
   27    6   10     -2.35      0.00
   27    1   11     -1.22      0.00
   27    2   11     -3.24      0.00
   27    3   11      2.11      0.00
   27    4   11      3.11      0.00
   27    5   11     -2.37      0.00
   27    0   12      4.90      0.00
   27    1   12     -0.65      0.00
   27    2   12     -2.81      0.00
   27    3   12      0.37      0.00
   27    4   12     -3.79      0.00
   27    1   13      0.46      0.00
   27    2   13      2.55      0.00
   27    3   13     -1.55      0.00
   27    0   14     -1.24      0.00
   27    1   14      1.38      0.00
   28    0    0      0.81      0.00
   28    2    0     -1.51      0.00
   28    4    0      2.46      0.00
   28    6    0     -3.09      0.00
   28    8    0     -0.80      0.00
   28    1    1      2.77      0.00
   28    2    1     -2.40      0.00
   28    3    1      2.43      0.00
   28    4    1     -0.06      0.00
   28    5    1     -3.15      0.00
   28    6    1      1.09      0.00
   28    7    1     -2.11      0.00
   28    8    1     -2.46      0.00
   28    0    2      5.80      0.00
   28    1    2     -4.36      0.00
   28    2    2      0.79      0.00
   28    3    2      4.00      0.00
   28    4    2     -3.71      0.00
   28    5    2      2.95      0.00
   28    6    2      1.20      0.00
   28    7    2     -1.11      0.00
   28    8    2      2.35      0.00
   28    1    3     -4.08      0.00
   28    2    3      7.16      0.00
   28    3    3     -4.59      0.00
   28    4    3     -3.09      0.00
   28    5    3      0.44      0.00
   28    6    3     -3.59      0.00
   28    7    3      2.77      0.00
   28    0    4     -5.95      0.00
   28    1    4      1.95      0.00
   28    2    4      1.15      0.00
   28    3    4     -1.54      0.00
   28    4    4      4.61      0.00
   28    5    4     -3.43      0.00
   28    6    4     -3.74      0.00
   28    7    4     -1.67      0.00
   28    1    5     -1.53      0.00
   28    2    5     -3.78      0.00
   28    3    5      2.73      0.00
   28    4    5      3.33      0.00
   28    5    5     -0.76      0.00
   28    6    5     -0.49      0.00
   28    7    5     -3.77      0.00
   28    0    6      3.83      0.00
   28    1    6     -0.22      0.00
   28    2    6     -1.77      0.00
   28    3    6     -1.46      0.00
   28    4    6      0.71      0.00
   28    5    6      2.07      0.00
   28    6    6      2.03      0.00
   28    7    6     -2.23      0.00
   28    1    7      0.55      0.00
   28    2    7      1.88      0.00
   28    3    7     -1.28      0.00
   28    4    7     -2.00      0.00
   28    5    7      0.05      0.00
   28    6    7      2.22      0.00
   28    7    7      0.48      0.00
   28    0    8      1.98      0.00
   28    1    8      0.67      0.00
   28    2    8     -1.21      0.00
   28    3    8     -0.11      0.00
   28    4    8      3.78      0.00
   28    5    8     -2.36      0.00
   28    6    8     -2.44      0.00
   28    1    9      1.75      0.00
   28    2    9      0.89      0.00
   28    3    9      0.54      0.00
   28    4    9     -1.09      0.00
   28    5    9      0.53      0.00
   28    6    9     -1.81      0.00
   28    0   10     -0.48      0.00
   28    1   10      1.31      0.00
   28    2   10      0.93      0.00
   28    3   10     -1.64      0.00
   28    4   10      1.06      0.00
   28    5   10      1.51      0.00
   28    1   11      1.36      0.00
   28    2   11      1.05      0.00
   28    3   11      1.23      0.00
   28    4   11     -0.58      0.00
   28    5   11     -3.44      0.00
   28    0   12      0.97      0.00
   28    1   12     -1.89      0.00
   28    2   12      2.00      0.00
   28    3   12      4.99      0.00
   28    4   12     -4.74      0.00
   28    1   13     -4.92      0.00
   28    2   13      0.26      0.00
   28    3   13     -1.10      0.00
   28    0   14     -1.07      0.00
   29    1    0      0.27      0.00
   29    3    0     -0.68      0.00
   29    5    0     -0.24      0.00
   29    7    0      3.56      0.00
   29    1    1      1.12      0.00
   29    2    1     -3.71      0.00
   29    3    1      3.28      0.00
   29    4    1      0.56      0.00
   29    5    1     -1.45      0.00
   29    6    1      2.82      0.00
   29    7    1      0.91      0.00
   29    0    2      7.12      0.00
   29    1    2     -4.44      0.00
   29    2    2      0.21      0.00
   29    3    2      3.63      0.00
   29    4    2     -4.34      0.00
   29    5    2      0.23      0.00
   29    6    2     -0.47      0.00
   29    7    2     -2.94      0.00
   29    1    3     -4.15      0.00
   29    2    3      5.72      0.00
   29    3    3     -3.52      0.00
   29    4    3      1.76      0.00
   29    5    3      4.52      0.00
   29    6    3     -0.63      0.00
   29    7    3      2.04      0.00
   29    0    4     -2.07      0.00
   29    1    4      3.54      0.00
   29    2    4     -1.16      0.00
   29    3    4     -4.78      0.00
   29    4    4      3.65      0.00
   29    5    4      0.51      0.00
   29    6    4      3.80      0.00
   29    7    4      3.20      0.00
   29    1    5      3.31      0.00
   29    2    5     -0.66      0.00
   29    3    5     -0.78      0.00
   29    4    5     -1.66      0.00
   29    5    5     -2.76      0.00
   29    6    5      2.31      0.00
   29    7    5      1.65      0.00
   29    0    6     -1.57      0.00
   29    1    6     -2.20      0.00
   29    2    6      1.86      0.00
   29    3    6      2.87      0.00
   29    4    6     -0.64      0.00
   29    5    6     -3.05      0.00
   29    6    6     -0.75      0.00
   29    7    6      1.57      0.00
   29    1    7     -2.01      0.00
   29    2    7     -0.10      0.00
   29    3    7     -1.01      0.00
   29    4    7      1.30      0.00
   29    5    7      1.78      0.00
   29    6    7     -1.26      0.00
   29    0    8     -2.20      0.00
   29    1    8     -1.61      0.00
   29    2    8     -0.48      0.00
   29    3    8     -1.19      0.00
   29    4    8      2.14      0.00
   29    5    8     -0.20      0.00
   29    6    8      2.01      0.00
   29    1    9     -2.05      0.00
   29    2    9     -0.37      0.00
   29    3    9      2.58      0.00
   29    4    9     -1.65      0.00
   29    5    9     -0.86      0.00
   29    0   10      2.48      0.00
   29    1   10     -0.23      0.00
   29    2   10     -1.74      0.00
   29    3   10     -1.00      0.00
   29    4   10      1.48      0.00
   29    5   10     -0.86      0.00
   29    1   11      0.28      0.00
   29    2   11     -3.02      0.00
   29    3   11      2.47      0.00
   29    4   11      3.03      0.00
   29    0   12      5.05      0.00
   29    1   12     -0.41      0.00
   29    2   12     -2.56      0.00
   29    3   12      0.17      0.00
   29    1   13      0.20      0.00
   29    2   13      4.35      0.00
   30    0    0     -0.54      0.00
   30    2    0     -1.34      0.00
   30    4    0      2.29      0.00
   30    6    0     -3.04      0.00
   30    1    1      3.01      0.00
   30    2    1     -3.27      0.00
   30    3    1      1.80      0.00
   30    4    1     -0.24      0.00
   30    5    1     -2.05      0.00
   30    6    1      0.89      0.00
   30    7    1     -1.81      0.00
   30    0    2      5.46      0.00
   30    1    2     -5.02      0.00
   30    2    2      1.16      0.00
   30    3    2      2.42      0.00
   30    4    2     -3.17      0.00
   30    5    2      1.66      0.00
   30    6    2      0.20      0.00
   30    7    2     -1.04      0.00
   30    1    3     -4.39      0.00
   30    2    3      5.79      0.00
   30    3    3     -4.72      0.00
   30    4    3     -2.44      0.00
   30    5    3      0.09      0.00
   30    6    3     -2.98      0.00
   30    7    3      1.71      0.00
   30    0    4     -3.95      0.00
   30    1    4      2.03      0.00
   30    2    4      0.62      0.00
   30    3    4     -1.83      0.00
   30    4    4      3.57      0.00
   30    5    4     -3.61      0.00
   30    6    4     -2.72      0.00
   30    7    4     -2.49      0.00
   30    1    5     -0.93      0.00
   30    2    5     -3.08      0.00
   30    3    5      2.30      0.00
   30    4    5      3.46      0.00
   30    5    5      0.71      0.00
   30    6    5      0.35      0.00
   30    7    5     -3.06      0.00
   30    0    6      3.81      0.00
   30    1    6      0.32      0.00
   30    2    6     -2.07      0.00
   30    3    6     -0.56      0.00
   30    4    6      0.63      0.00
   30    5    6      1.19      0.00
   30    6    6      3.02      0.00
   30    1    7      0.44      0.00
   30    2    7      2.84      0.00
   30    3    7     -1.39      0.00
   30    4    7     -1.45      0.00
   30    5    7      0.05      0.00
   30    6    7      1.81      0.00
   30    0    8      1.53      0.00
   30    1    8      1.07      0.00
   30    2    8      0.32      0.00
   30    3    8      0.37      0.00
   30    4    8      4.33      0.00
   30    5    8     -2.67      0.00
   30    6    8     -1.74      0.00
   30    1    9      2.91      0.00
   30    2    9      1.69      0.00
   30    3    9      0.74      0.00
   30    4    9     -1.50      0.00
   30    5    9      1.34      0.00
   30    0   10     -1.95      0.00
   30    1   10     -0.48      0.00
   30    2   10      1.17      0.00
   30    3   10     -1.67      0.00
   30    4   10      1.99      0.00
   30    5   10      1.22      0.00
   30    1   11     -0.11      0.00
   30    2   11      0.30      0.00
   30    3   11      2.04      0.00
   30    4   11     -0.75      0.00
   30    0   12      2.66      0.00
   30    1   12     -2.73      0.00
   30    2   12      0.83      0.00
   30    3   12      5.50      0.00
   30    1   13     -5.65      0.00
   31    1    0      1.77      0.00
   31    3    0     -1.01      0.00
   31    5    0      0.08      0.00
   31    7    0      3.44      0.00
   31    1    1      1.87      0.00
   31    2    1     -2.71      0.00
   31    3    1      3.24      0.00
   31    4    1      0.38      0.00
   31    5    1     -0.71      0.00
   31    6    1      1.63      0.00
   31    7    1      1.07      0.00
   31    0    2      8.08      0.00
   31    1    2     -4.33      0.00
   31    2    2      0.75      0.00
   31    3    2      3.13      0.00
   31    4    2     -2.45      0.00
   31    5    2      0.41      0.00
   31    6    2      0.04      0.00
   31    7    2     -1.56      0.00
   31    1    3     -3.00      0.00
   31    2    3      5.17      0.00
   31    3    3     -3.24      0.00
   31    4    3      1.98      0.00
   31    5    3      3.18      0.00
   31    6    3     -0.38      0.00
   31    7    3      2.90      0.00
   31    0    4     -2.07      0.00
   31    1    4      2.42      0.00
   31    2    4     -0.41      0.00
   31    3    4     -4.08      0.00
   31    4    4      3.55      0.00
   31    5    4      0.08      0.00
   31    6    4      3.28      0.00
   31    7    4      2.44      0.00
   31    1    5      2.08      0.00
   31    2    5     -1.68      0.00
   31    3    5     -1.35      0.00
   31    4    5     -1.37      0.00
   31    5    5     -2.80      0.00
   31    6    5      0.62      0.00
   31    0    6     -1.82      0.00
   31    1    6     -2.02      0.00
   31    2    6      0.65      0.00
   31    3    6      2.91      0.00
   31    4    6      0.12      0.00
   31    5    6     -2.73      0.00
   31    6    6     -1.53      0.00
   31    1    7     -3.01      0.00
   31    2    7     -0.51      0.00
   31    3    7     -1.81      0.00
   31    4    7      1.21      0.00
   31    5    7      1.71      0.00
   31    6    7     -0.31      0.00
   31    0    8     -2.70      0.00
   31    1    8     -2.04      0.00
   31    2    8     -0.87      0.00
   31    3    8     -1.66      0.00
   31    4    8      2.03      0.00
   31    5    8     -1.18      0.00
   31    1    9     -1.57      0.00
   31    2    9     -1.19      0.00
   31    3    9      1.41      0.00
   31    4    9     -2.47      0.00
   31    5    9     -0.04      0.00
   31    0   10      4.78      0.00
   31    1   10      0.82      0.00
   31    2   10     -1.32      0.00
   31    3   10     -1.71      0.00
   31    4   10      2.52      0.00
   31    1   11      2.66      0.00
   31    2   11     -2.27      0.00
   31    3   11      2.37      0.00
   31    0   12      4.27      0.00
   31    1   12     -0.80      0.00
   31    2   12     -1.49      0.00
   32    0    0     -3.04      0.00
   32    2    0     -1.18      0.00
   32    4    0      0.95      0.00
   32    6    0     -2.92      0.00
   32    1    1      2.82      0.00
   32    2    1     -3.89      0.00
   32    3    1      0.92      0.00
   32    4    1     -0.21      0.00
   32    5    1     -0.84      0.00
   32    6    1      0.23      0.00
   32    7    1     -1.63      0.00
   32    0    2      5.32      0.00
   32    1    2     -4.49      0.00
   32    2    2      1.02      0.00
   32    3    2      0.49      0.00
   32    4    2     -2.84      0.00
   32    5    2      0.65      0.00
   32    6    2     -0.66      0.00
   32    7    2     -0.87      0.00
   32    1    3     -4.15      0.00
   32    2    3      4.90      0.00
   32    3    3     -3.83      0.00
   32    4    3     -1.70      0.00
   32    5    3      0.75      0.00
   32    6    3     -2.20      0.00
   32    0    4     -1.62      0.00
   32    1    4      1.78      0.00
   32    2    4      0.69      0.00
   32    3    4     -2.70      0.00
   32    4    4      3.04      0.00
   32    5    4     -3.32      0.00
   32    6    4     -1.17      0.00
   32    1    5     -0.25      0.00
   32    2    5     -2.07      0.00
   32    3    5      1.74      0.00
   32    4    5      3.39      0.00
   32    5    5      1.98      0.00
   32    6    5      1.06      0.00
   32    0    6      2.83      0.00
   32    1    6      0.73      0.00
   32    2    6     -1.67      0.00
   32    3    6      0.05      0.00
   32    4    6      0.37      0.00
   32    5    6     -0.09      0.00
   32    6    6      3.43      0.00
   32    1    7      0.15      0.00
   32    2    7      3.45      0.00
   32    3    7     -0.72      0.00
   32    4    7     -0.21      0.00
   32    5    7     -0.87      0.00
   32    0    8      0.48      0.00
   32    1    8      0.99      0.00
   32    2    8      1.34      0.00
   32    3    8      1.30      0.00
   32    4    8      4.13      0.00
   32    5    8     -2.86      0.00
   32    1    9      2.83      0.00
   32    2    9      2.08      0.00
   32    3    9      1.25      0.00
   32    4    9     -1.27      0.00
   32    0   10     -3.52      0.00
   32    1   10     -2.27      0.00
   32    2   10      0.90      0.00
   32    3   10     -1.69      0.00
   32    4   10      2.54      0.00
   32    1   11     -1.27      0.00
   32    2   11     -1.46      0.00
   32    3   11      2.04      0.00
   32    0   12      4.84      0.00
   32    1   12     -2.92      0.00
   33    1    0      3.17      0.00
   33    3    0     -0.87      0.00
   33    5    0      1.27      0.00
   33    1    1      2.99      0.00
   33    2    1     -1.00      0.00
   33    3    1      2.26      0.00
   33    4    1     -0.16      0.00
   33    5    1     -0.10      0.00
   33    6    1      0.74      0.00
   33    0    2      7.18      0.00
   33    1    2     -3.94      0.00
   33    2    2      0.74      0.00
   33    3    2      3.04      0.00
   33    4    2     -1.35      0.00
   33    5    2      0.62      0.00
   33    6    2      0.26      0.00
   33    1    3     -2.20      0.00
   33    2    3      3.76      0.00
   33    3    3     -2.99      0.00
   33    4    3      1.25      0.00
   33    5    3      2.08      0.00
   33    6    3     -1.09      0.00
   33    0    4     -1.23      0.00
   33    1    4      1.16      0.00
   33    2    4      0.51      0.00
   33    3    4     -3.93      0.00
   33    4    4      3.44      0.00
   33    5    4     -0.38      0.00
   33    6    4      1.93      0.00
   33    1    5      0.59      0.00
   33    2    5     -2.53      0.00
   33    3    5     -1.66      0.00
   33    4    5     -0.91      0.00
   33    5    5     -2.13      0.00
   33    6    5     -0.82      0.00
   33    0    6     -1.55      0.00
   33    1    6     -1.41      0.00
   33    2    6     -0.24      0.00
   33    3    6      1.94      0.00
   33    4    6      1.80      0.00
   33    5    6     -1.77      0.00
   33    1    7     -3.16      0.00
   33    2    7     -1.34      0.00
   33    3    7     -2.71      0.00
   33    4    7      1.20      0.00
   33    5    7      1.33      0.00
   33    0    8     -2.63      0.00
   33    1    8     -1.49      0.00
   33    2    8     -0.97      0.00
   33    3    8     -1.94      0.00
   33    4    8      1.36      0.00
   33    5    8     -2.01      0.00
   33    1    9     -0.93      0.00
   33    2    9     -1.20      0.00
   33    3    9      0.16      0.00
   33    4    9     -2.96      0.00
   33    0   10      5.43      0.00
   33    1   10      2.04      0.00
   33    2   10     -0.09      0.00
   33    3   10     -1.99      0.00
   33    1   11      4.34      0.00
   33    2   11     -1.05      0.00
   34    0    0     -5.53      0.00
   34    2    0     -0.22      0.00
   34    4    0     -0.88      0.00
   34    6    0     -2.61      0.00
   34    1    1      1.92      0.00
   34    2    1     -3.69      0.00
   34    3    1      0.54      0.00
   34    4    1      0.59      0.00
   34    5    1     -0.24      0.00
   34    6    1     -0.23      0.00
   34    0    2      4.89      0.00
   34    1    2     -2.62      0.00
   34    2    2      0.16      0.00
   34    3    2     -0.74      0.00
   34    4    2     -2.61      0.00
   34    5    2      0.85      0.00
   34    6    2     -0.71      0.00
   34    1    3     -3.00      0.00
   34    2    3      4.45      0.00
   34    3    3     -2.57      0.00
   34    4    3     -1.27      0.00
   34    5    3      2.14      0.00
   34    6    3     -1.34      0.00
   34    0    4      0.54      0.00
   34    1    4      1.04      0.00
   34    2    4      0.77      0.00
   34    3    4     -3.47      0.00
   34    4    4      2.29      0.00
   34    5    4     -2.75      0.00
   34    6    4      0.30      0.00
   34    1    5     -0.03      0.00
   34    2    5     -0.79      0.00
   34    3    5      1.01      0.00
   34    4    5      2.62      0.00
   34    5    5      3.09      0.00
   34    0    6      1.47      0.00
   34    1    6      0.64      0.00
   34    2    6     -0.84      0.00
   34    3    6     -0.41      0.00
   34    4    6      0.44      0.00
   34    5    6     -1.48      0.00
   34    1    7     -0.16      0.00
   34    2    7      3.42      0.00
   34    3    7      0.55      0.00
   34    4    7      1.30      0.00
   34    5    7     -2.15      0.00
   34    0    8     -0.54      0.00
   34    1    8      0.44      0.00
   34    2    8      1.40      0.00
   34    3    8      2.07      0.00
   34    4    8      3.85      0.00
   34    1    9      2.04      0.00
   34    2    9      1.68      0.00
   34    3    9      1.52      0.00
   34    0   10     -4.15      0.00
   34    1   10     -3.09      0.00
   34    2   10      0.17      0.00
   34    3   10     -1.65      0.00
   34    1   11     -1.80      0.00
   35    1    0      3.24      0.00
   35    3    0     -0.83      0.00
   35    5    0      2.34      0.00
   35    1    1      3.86      0.00
   35    2    1      0.52      0.00
   35    3    1      0.33      0.00
   35    4    1     -1.07      0.00
   35    5    1     -0.31      0.00
   35    6    1      0.54      0.00
   35    0    2      4.32      0.00
   35    1    2     -3.00      0.00
   35    2    2      0.71      0.00
   35    3    2      3.39      0.00
   35    4    2     -1.94      0.00
   35    5    2      0.53      0.00
   35    6    2      0.10      0.00
   35    1    3     -1.48      0.00
   35    2    3      2.14      0.00
   35    3    3     -2.43      0.00
   35    4    3      0.27      0.00
   35    5    3      1.19      0.00
   35    0    4      0.25      0.00
   35    1    4      0.39      0.00
   35    2    4      1.10      0.00
   35    3    4     -3.36      0.00
   35    4    4      3.05      0.00
   35    5    4     -0.25      0.00
   35    1    5     -0.74      0.00
   35    2    5     -2.50      0.00
   35    3    5     -1.85      0.00
   35    4    5     -0.85      0.00
   35    5    5     -0.32      0.00
   35    0    6     -0.96      0.00
   35    1    6     -0.59      0.00
   35    2    6     -0.28      0.00
   35    3    6      0.22      0.00
   35    4    6      3.94      0.00
   35    5    6     -0.72      0.00
   35    1    7     -2.69      0.00
   35    2    7     -2.09      0.00
   35    3    7     -3.36      0.00
   35    4    7      0.97      0.00
   35    0    8     -2.30      0.00
   35    1    8     -0.44      0.00
   35    2    8     -0.55      0.00
   35    3    8     -2.26      0.00
   35    4    8      0.54      0.00
   35    1    9     -0.39      0.00
   35    2    9     -0.58      0.00
   35    3    9     -0.45      0.00
   35    0   10      4.73      0.00
   35    1   10      2.56      0.00
   35    2   10      0.88      0.00
   36    0    0     -6.30      0.00
   36    2    0      1.38      0.00
   36    4    0     -1.64      0.00
   36    1    1      0.46      0.00
   36    2    1     -2.59      0.00
   36    3    1      1.28      0.00
   36    4    1      1.99      0.00
   36    5    1     -0.29      0.00
   36    0    2      3.74      0.00
   36    1    2     -0.67      0.00
   36    2    2     -1.17      0.00
   36    3    2     -0.98      0.00
   36    4    2     -2.27      0.00
   36    5    2      2.10      0.00
   36    1    3     -1.26      0.00
   36    2    3      3.93      0.00
   36    3    3     -1.92      0.00
   36    4    3     -1.19      0.00
   36    5    3      3.15      0.00
   36    0    4      1.82      0.00
   36    1    4      0.22      0.00
   36    2    4      0.41      0.00
   36    3    4     -3.50      0.00
   36    4    4      0.50      0.00
   36    5    4     -2.22      0.00
   36    1    5     -0.28      0.00
   36    2    5      0.58      0.00
   36    3    5      0.27      0.00
   36    4    5      1.25      0.00
   36    5    5      3.95      0.00
   36    0    6      0.42      0.00
   36    1    6      0.17      0.00
   36    2    6     -0.08      0.00
   36    3    6     -1.66      0.00
   36    4    6      0.96      0.00
   36    1    7     -0.29      0.00
   36    2    7      2.93      0.00
   36    3    7      1.72      0.00
   36    4    7      2.17      0.00
   36    0    8     -1.17      0.00
   36    1    8     -0.11      0.00
   36    2    8      0.96      0.00
   36    3    8      2.00      0.00
   36    1    9      1.48      0.00
   36    2    9      0.61      0.00
   36    0   10     -3.59      0.00
   37    1    0      1.98      0.00
   37    3    0     -1.26      0.00
   37    5    0      2.25      0.00
   37    1    1      3.82      0.00
   37    2    1      1.03      0.00
   37    3    1     -1.49      0.00
   37    4    1     -2.18      0.00
   37    5    1     -1.35      0.00
   37    0    2      0.98      0.00
   37    1    2     -1.60      0.00
   37    2    2      1.40      0.00
   37    3    2      3.81      0.00
   37    4    2     -3.42      0.00
   37    5    2      0.19      0.00
   37    1    3     -0.81      0.00
   37    2    3      1.16      0.00
   37    3    3     -1.18      0.00
   37    4    3     -0.15      0.00
   37    5    3      0.19      0.00
   37    0    4      1.37      0.00
   37    1    4      0.22      0.00
   37    2    4      1.08      0.00
   37    3    4     -1.76      0.00
   37    4    4      2.32      0.00
   37    1    5     -1.57      0.00
   37    2    5     -1.66      0.00
   37    3    5     -2.11      0.00
   37    4    5     -1.23      0.00
   37    0    6     -0.41      0.00
   37    1    6      0.11      0.00
   37    2    6      0.29      0.00
   37    3    6     -1.30      0.00
   37    4    6      5.24      0.00
   37    1    7     -2.18      0.00
   37    2    7     -2.22      0.00
   37    3    7     -3.39      0.00
   37    0    8     -2.04      0.00
   37    1    8      0.46      0.00
   37    2    8      0.16      0.00
   37    1    9     -0.04      0.00
   38    0    0     -4.96      0.00
   38    2    0      2.42      0.00
   38    4    0     -0.64      0.00
   38    1    1     -1.04      0.00
   38    2    1     -1.29      0.00
   38    3    1      2.74      0.00
   38    4    1      3.13      0.00
   38    0    2      2.15      0.00
   38    1    2      0.09      0.00
   38    2    2     -2.43      0.00
   38    3    2     -0.76      0.00
   38    4    2     -1.71      0.00
   38    1    3      0.28      0.00
   38    2    3      2.84      0.00
   38    3    3     -2.11      0.00
   38    4    3     -1.23      0.00
   38    0    4      2.03      0.00
   38    1    4     -0.17      0.00
   38    2    4     -0.14      0.00
   38    3    4     -2.73      0.00
   38    4    4     -2.05      0.00
   38    1    5     -0.58      0.00
   38    2    5      1.74      0.00
   38    3    5     -0.21      0.00
   38    4    5     -0.05      0.00
   38    0    6     -0.03      0.00
   38    1    6     -0.31      0.00
   38    2    6      0.24      0.00
   38    3    6     -2.59      0.00
   38    1    7     -0.22      0.00
   38    2    7      2.41      0.00
   38    0    8     -1.45      0.00
   38    1    8     -0.26      0.00
   39    1    0      0.58      0.00
   39    3    0     -1.88      0.00
   39    1    1      2.80      0.00
   39    2    1      0.57      0.00
   39    3    1     -2.11      0.00
   39    4    1     -3.00      0.00
   39    0    2     -1.23      0.00
   39    1    2     -0.21      0.00
   39    2    2      2.66      0.00
   39    3    2      3.86      0.00
   39    4    2     -4.13      0.00
   39    1    3     -0.43      0.00
   39    2    3      1.02      0.00
   39    3    3      0.62      0.00
   39    4    3      0.14      0.00
   39    0    4      1.47      0.00
   39    1    4      0.24      0.00
   39    2    4      0.55      0.00
   39    3    4      0.32      0.00
   39    1    5     -1.82      0.00
   39    2    5     -0.68      0.00
   39    3    5     -2.38      0.00
   39    0    6     -0.09      0.00
   39    1    6      0.46      0.00
   39    2    6      0.81      0.00
   39    1    7     -1.93      0.00
   40    0    0     -2.47      0.00
   40    2    0      1.93      0.00
   40    1    1     -1.93      0.00
   40    2    1     -0.51      0.00
   40    3    1      3.67      0.00
   40    0    2      0.80      0.00
   40    1    2     -0.35      0.00
   40    2    2     -3.14      0.00
   40    3    2     -0.63      0.00
   40    1    3      1.09      0.00
   40    2    3      1.33      0.00
   40    3    3     -2.51      0.00
   40    0    4      1.47      0.00
   40    1    4      0.04      0.00
   40    2    4     -0.31      0.00
   40    3    4     -1.68      0.00
   40    1    5     -0.60      0.00
   40    2    5      2.30      0.00
   40    0    6     -0.08      0.00
   40    1    6     -0.55      0.00
   41    1    0      0.01      0.00
   41    3    0     -2.03      0.00
   41    1    1      1.26      0.00
   41    2    1     -0.14      0.00
   41    3    1     -1.53      0.00
   41    0    2     -1.74      0.00
   41    1    2      0.67      0.00
   41    2    2      3.43      0.00
   41    3    2      3.37      0.00
   41    1    3     -0.49      0.00
   41    2    3      1.27      0.00
   41    0    4      0.80      0.00
   41    1    4      0.11      0.00
   41    2    4     -0.19      0.00
   41    1    5     -1.53      0.00
   42    0    0     -0.10      0.00
   42    2    0      0.37      0.00
   42    1    1     -1.84      0.00
   42    2    1     -0.29      0.00
   42    0    2      0.11      0.00
   42    1    2     -1.06      0.00
   42    2    2     -3.05      0.00
   42    1    3      1.14      0.00
    2    0    0    192.91      0.00
   43    1    0      0.12      0.00
   43    3    0     -1.51      0.00
   40    4    0      1.10      0.00
   42    4    0      1.86      0.00
   39    5    0      1.09      0.00
   41    5    0     -0.09      0.00
   36    6    0     -2.01      0.00
   38    6    0     -1.22      0.00
   33    7    0      2.97      0.00
   35    7    0      2.19      0.00
   37    7    0      1.24      0.00
   30    8    0     -0.45      0.00
   32    8    0      0.01      0.00
   25    9    0     -2.23      0.00
   27    9    0     -0.65      0.00
   29    9    0      0.26      0.00
   16   10    0      2.68      0.00
   18   10    0      2.81      0.00
   20   10    0      2.37      0.00
   22   10    0      1.96      0.00
    1   11    0     -2.35      0.00
    3   11    0     -2.42      0.00
    5   11    0     -2.34      0.00
    7   11    0     -1.98      0.00
    9   11    0     -1.45      0.00
   11   11    0     -0.99      0.00
   13   11    0     -0.65      0.00
   43    1    1     -0.11      0.00
   43    2    1     -0.53      0.00
   42    3    1      3.26      0.00
   43    3    1     -0.71      0.00
   40    4    1      3.30      0.00
   41    4    1     -3.03      0.00
   42    4    1      2.55      0.00
   43    4    1     -2.16      0.00
   38    5    1     -0.39      0.00
   39    5    1     -2.33      0.00
   40    5    1     -0.08      0.00
   41    5    1     -2.34      0.00
   42    5    1      0.38      0.00
   36    6    1      0.02      0.00
   37    6    1      0.72      0.00
   38    6    1      0.72      0.00
   39    6    1      0.77      0.00
   33    7    1      1.26      0.00
   34    7    1     -1.54      0.00
   35    7    1      1.04      0.00
   36    7    1     -1.18      0.00
   37    7    1      0.42      0.00
   29    8    1      0.28      0.00
   30    8    1     -2.03      0.00
   31    8    1      0.11      0.00
   32    8    1     -1.64      0.00
   33    8    1      0.36      0.00
   24    9    1      2.58      0.00
   25    9    1      0.58      0.00
   26    9    1      1.39      0.00
   27    9    1      0.90      0.00
   28    9    1      0.62      0.00
   29    9    1      0.71      0.00
   16   10    1      2.72      0.00
   17   10    1     -2.26      0.00
   18   10    1      3.07      0.00
   19   10    1     -2.76      0.00
   20   10    1      2.74      0.00
   21   10    1     -2.68      0.00
   22   10    1      2.00      0.00
   23   10    1     -2.15      0.00
    1   11    1     -0.83      0.00
    2   11    1     -2.20      0.00
    3   11    1     -0.42      0.00
    4   11    1     -3.37      0.00
    5   11    1      0.39      0.00
    6   11    1     -3.23      0.00
    7   11    1      1.38      0.00
    8   11    1     -2.28      0.00
    9   11    1      2.03      0.00
   10   11    1     -1.19      0.00
   11   11    1      1.83      0.00
   12   11    1     -0.33      0.00
   13   11    1      0.82      0.00
   14   11    1      0.29      0.00
   43    0    2     -1.00      0.00
   43    1    2      0.89      0.00
   43    2    2      2.96      0.00
   42    3    2     -0.56      0.00
   43    3    2      2.47      0.00
   40    4    2     -1.00      0.00
   41    4    2     -3.30      0.00
   42    4    2     -0.42      0.00
   43    4    2     -1.74      0.00
   38    5    2      3.26      0.00
   39    5    2     -0.13      0.00
   40    5    2      3.38      0.00
   41    5    2     -0.27      0.00
   36    6    2     -0.10      0.00
   37    6    2     -0.24      0.00
   38    6    2      0.43      0.00
   39    6    2     -0.55      0.00
   33    7    2     -0.27      0.00
   34    7    2     -0.52      0.00
   35    7    2      0.18      0.00
   36    7    2     -0.12      0.00
   29    8    2      2.35      0.00
   30    8    2      2.47      0.00
   31    8    2      2.01      0.00
   32    8    2      1.73      0.00
   33    8    2      1.55      0.00
   23    9    2      0.76      0.00
   24    9    2     -0.73      0.00
   25    9    2      0.86      0.00
   26    9    2     -0.79      0.00
   27    9    2      0.80      0.00
   28    9    2     -0.94      0.00
   29    9    2      0.40      0.00
   15   10    2     -1.31      0.00
   16   10    2     -0.75      0.00
   17   10    2     -1.09      0.00
   18   10    2     -0.51      0.00
   19   10    2     -1.27      0.00
   20   10    2      0.16      0.00
   21   10    2     -1.76      0.00
   22   10    2      0.77      0.00
   23   10    2     -1.89      0.00
    1   11    2      2.05      0.00
    2   11    2     -2.24      0.00
    3   11    2      1.11      0.00
    4   11    2     -4.19      0.00
    5   11    2     -0.07      0.00
    6   11    2     -5.24      0.00
    7   11    2     -0.83      0.00
    8   11    2     -4.88      0.00
    9   11    2     -1.11      0.00
   10   11    2     -3.24      0.00
   11   11    2     -1.21      0.00
   12   11    2     -1.09      0.00
   13   11    2     -1.25      0.00
   14   11    2      0.65      0.00
   43    1    3     -0.75      0.00
   42    2    3      0.03      0.00
   43    2    3      1.40      0.00
   41    3    3      2.15      0.00
   42    3    3     -2.44      0.00
   43    3    3      2.55      0.00
   40    4    3     -1.24      0.00
   41    4    3      0.57      0.00
   42    4    3     -1.17      0.00
   43    4    3      0.58      0.00
   38    5    3      2.90      0.00
   39    5    3     -0.77      0.00
   40    5    3      1.62      0.00
   41    5    3     -1.13      0.00
   35    6    3     -2.14      0.00
   36    6    3     -0.46      0.00
   37    6    3     -2.55      0.00
   38    6    3      0.22      0.00
   39    6    3     -1.96      0.00
   32    7    3      0.70      0.00
   33    7    3      2.85      0.00
   34    7    3      0.19      0.00
   35    7    3      1.75      0.00
   36    7    3      0.12      0.00
   28    8    3      2.31      0.00
   29    8    3     -1.30      0.00
   30    8    3      1.02      0.00
   31    8    3     -1.22      0.00
   32    8    3     -0.48      0.00
   33    8    3     -0.74      0.00
   23    9    3     -1.29      0.00
   24    9    3     -1.20      0.00
   25    9    3     -1.48      0.00
   26    9    3     -1.43      0.00
   27    9    3     -2.08      0.00
   28    9    3     -1.10      0.00
   14   10    3     -1.32      0.00
   15   10    3      1.73      0.00
   16   10    3     -0.86      0.00
   17   10    3      1.76      0.00
   18   10    3     -0.44      0.00
   19   10    3      1.09      0.00
   20   10    3     -0.32      0.00
   21   10    3      0.16      0.00
   22   10    3     -0.49      0.00
    1   11    3      2.04      0.00
    2   11    3     -0.69      0.00
    3   11    3      1.42      0.00
    4   11    3     -1.21      0.00
    5   11    3      0.75      0.00
    6   11    3     -1.42      0.00
    7   11    3      0.54      0.00
    8   11    3     -1.33      0.00
    9   11    3      0.82      0.00
   10   11    3     -1.08      0.00
   11   11    3      1.17      0.00
   12   11    3     -0.90      0.00
   13   11    3      1.23      0.00
   42    0    4      0.59      0.00
   43    0    4      0.11      0.00
   42    1    4      0.55      0.00
   43    1    4     -0.10      0.00
   42    2    4      0.05      0.00
   43    2    4     -0.83      0.00
   41    3    4      1.67      0.00
   42    3    4     -0.85      0.00
   43    3    4      1.68      0.00
   39    4    4      1.49      0.00
   40    4    4     -3.88      0.00
   41    4    4      0.88      0.00
   42    4    4     -3.76      0.00
   37    5    4      0.52      0.00
   38    5    4     -1.77      0.00
   39    5    4      1.26      0.00
   40    5    4     -1.24      0.00
   41    5    4      1.27      0.00
   35    6    4      0.80      0.00
   36    6    4      1.13      0.00
   37    6    4      0.58      0.00
   38    6    4      1.25      0.00
   32    7    4     -2.04      0.00
   33    7    4      1.19      0.00
   34    7    4     -0.69      0.00
   35    7    4      0.04      0.00
   28    8    4     -2.22      0.00
   29    8    4     -0.93      0.00
   30    8    4     -2.64      0.00
   31    8    4      0.16      0.00
   32    8    4     -2.45      0.00
   22    9    4     -0.22      0.00
   23    9    4     -3.07      0.00
   24    9    4     -0.15      0.00
   25    9    4     -1.71      0.00
   26    9    4      0.30      0.00
   27    9    4     -0.34      0.00
   13   10    4      0.72      0.00
   14   10    4      2.13      0.00
   15   10    4      0.00      0.00
   16   10    4      2.05      0.00
   17   10    4     -0.83      0.00
   18   10    4      2.56      0.00
   19   10    4     -1.31      0.00
   20   10    4      2.96      0.00
   21   10    4     -1.13      0.00
    1   11    4     -1.28      0.00
    2   11    4      1.36      0.00
    3   11    4     -0.08      0.00
    4   11    4      1.76      0.00
    5   11    4      1.18      0.00
    6   11    4      1.20      0.00
    7   11    4      1.53      0.00
    8   11    4      0.49      0.00
    9   11    4      1.00      0.00
   10   11    4      0.19      0.00
   11   11    4      0.32      0.00
   42    1    5     -0.48      0.00
   43    1    5     -0.87      0.00
   41    2    5     -0.16      0.00
   42    2    5      2.05      0.00
   43    2    5     -0.06      0.00
   40    3    5     -0.26      0.00
   41    3    5     -2.36      0.00
   42    3    5      0.02      0.00
   43    3    5     -1.87      0.00
   39    4    5     -1.48      0.00
   40    4    5     -0.70      0.00
   41    4    5     -1.19      0.00
   42    4    5     -0.69      0.00
   37    5    5      1.87      0.00
   38    5    5      4.10      0.00
   39    5    5      3.10      0.00
   40    5    5      3.18      0.00
   34    6    5      0.84      0.00
   35    6    5     -1.58      0.00
   36    6    5     -0.29      0.00
   37    6    5     -1.59      0.00
   38    6    5     -1.41      0.00
   31    7    5      1.06      0.00
   32    7    5     -1.77      0.00
   33    7    5      0.30      0.00
   34    7    5     -0.49      0.00
   35    7    5     -0.22      0.00
   27    8    5      1.44      0.00
   28    8    5      0.56      0.00
   29    8    5      2.17      0.00
   30    8    5      0.47      0.00
   31    8    5      2.21      0.00
   21    9    5      1.87      0.00
   22    9    5      0.35      0.00
   23    9    5      1.04      0.00
   24    9    5      0.69      0.00
   25    9    5     -0.15      0.00
   26    9    5      0.60      0.00
   27    9    5     -0.84      0.00
   11   10    5      0.84      0.00
   12   10    5      0.57      0.00
   13   10    5      2.01      0.00
   14   10    5      0.55      0.00
   15   10    5      2.43      0.00
   16   10    5      0.81      0.00
   17   10    5      2.15      0.00
   18   10    5      1.24      0.00
   19   10    5      1.54      0.00
   20   10    5      1.62      0.00
    1   11    5      3.30      0.00
    2   11    5      1.00      0.00
    3   11    5      2.24      0.00
    4   11    5      1.34      0.00
    5   11    5      0.80      0.00
    6   11    5      0.93      0.00
    7   11    5     -0.28      0.00
    8   11    5      0.20      0.00
    9   11    5     -0.67      0.00
   41    0    6     -0.01      0.00
   42    0    6     -0.05      0.00
   43    0    6     -0.18      0.00
   41    1    6      0.45      0.00
   42    1    6     -0.49      0.00
   43    1    6      0.23      0.00
   40    2    6      0.14      0.00
   41    2    6      0.86      0.00
   42    2    6     -0.11      0.00
   43    2    6      0.61      0.00
   39    3    6     -1.84      0.00
   40    3    6     -2.41      0.00
   41    3    6     -1.39      0.00
   42    3    6     -1.44      0.00
   38    4    6      1.47      0.00
   39    4    6      4.78      0.00
   40    4    6      1.55      0.00
   41    4    6      3.02      0.00
   36    5    6     -2.31      0.00
   37    5    6     -0.25      0.00
   38    5    6     -2.15      0.00
   39    5    6     -0.43      0.00
   33    6    6     -2.11      0.00
   34    6    6      2.65      0.00
   35    6    6     -2.21      0.00
   36    6    6      1.22      0.00
   37    6    6     -1.91      0.00
   30    7    6     -0.74      0.00
   31    7    6     -0.32      0.00
   32    7    6      0.75      0.00
   33    7    6     -1.61      0.00
   34    7    6      1.35      0.00
   26    8    6     -4.22      0.00
   27    8    6      2.03      0.00
   28    8    6     -3.96      0.00
   29    8    6      1.28      0.00
   30    8    6     -2.87      0.00
   19    9    6      1.78      0.00
   20    9    6      2.57      0.00
   21    9    6      2.20      0.00
   22    9    6      1.34      0.00
   23    9    6      2.19      0.00
   24    9    6      0.35      0.00
   25    9    6      1.61      0.00
    7   10    6      1.71      0.00
    8   10    6     -0.70      0.00
    9   10    6      1.22      0.00
   10   10    6      0.19      0.00
   11   10    6      0.89      0.00
   12   10    6      0.68      0.00
   13   10    6      0.03      0.00
   14   10    6      0.60      0.00
   15   10    6     -1.39      0.00
   16   10    6      0.19      0.00
   17   10    6     -2.54      0.00
   18   10    6     -0.32      0.00
   19   10    6     -2.71      0.00
    1   11    6      0.69      0.00
    2   11    6     -1.41      0.00
    3   11    6      1.27      0.00
    4   11    6     -1.68      0.00
    5   11    6      1.77      0.00
   40    1    7     -0.07      0.00
   41    1    7     -1.72      0.00
   42    1    7      0.10      0.00
   43    1    7     -1.20      0.00
   39    2    7     -1.60      0.00
   40    2    7      2.01      0.00
   41    2    7     -0.71      0.00
   42    2    7      1.57      0.00
   38    3    7      2.11      0.00
   39    3    7     -2.74      0.00
   40    3    7      1.69      0.00
   41    3    7     -1.73      0.00
   42    3    7      0.98      0.00
   37    4    7      0.42      0.00
   38    4    7      1.81      0.00
   39    4    7     -0.19      0.00
   40    4    7      0.65      0.00
   35    5    7      0.91      0.00
   36    5    7     -2.74      0.00
   37    5    7      0.81      0.00
   38    5    7     -2.15      0.00
   32    6    7      0.68      0.00
   33    6    7      0.97      0.00
   34    6    7     -0.58      0.00
   35    6    7      1.87      0.00
   36    6    7     -1.31      0.00
   29    7    7     -3.84      0.00
   30    7    7      0.36      0.00
   31    7    7     -3.57      0.00
   32    7    7      0.44      0.00
   33    7    7     -2.67      0.00
   24    8    7     -0.51      0.00
   25    8    7      1.98      0.00
   26    8    7     -0.42      0.00
   27    8    7      1.84      0.00
   28    8    7     -0.19      0.00
   29    8    7      1.50      0.00
   17    9    7      0.50      0.00
   18    9    7     -5.23      0.00
   19    9    7      1.57      0.00
   20    9    7     -4.42      0.00
   21    9    7      2.07      0.00
   22    9    7     -3.10      0.00
   23    9    7      2.18      0.00
   24    9    7     -2.20      0.00
    0   10    7     -2.04      0.00
    1   10    7     -0.47      0.00
    2   10    7     -1.57      0.00
    3   10    7     -0.95      0.00
    4   10    7     -0.62      0.00
    5   10    7     -0.55      0.00
    6   10    7     -0.03      0.00
    7   10    7      0.21      0.00
    8   10    7     -0.07      0.00
    9   10    7      0.62      0.00
   10   10    7     -0.26      0.00
   11   10    7      0.64      0.00
   12   10    7     -0.19      0.00
   13   10    7      0.69      0.00
   14   10    7      0.01      0.00
   15   10    7      0.92      0.00
   16   10    7     -0.01      0.00
   17   10    7      1.01      0.00
   39    0    8     -1.80      0.00
   40    0    8     -1.46      0.00
   41    0    8     -1.33      0.00
   42    0    8     -1.10      0.00
   39    1    8      0.83      0.00
   40    1    8     -0.06      0.00
   41    1    8      0.67      0.00
   42    1    8      0.19      0.00
   38    2    8      0.69      0.00
   39    2    8      0.66      0.00
   40    2    8      0.74      0.00
   41    2    8      0.64      0.00
   42    2    8      0.74      0.00
   37    3    8     -2.77      0.00
   38    3    8      1.07      0.00
   39    3    8     -3.14      0.00
   40    3    8      0.02      0.00
   41    3    8     -2.83      0.00
   36    4    8      3.90      0.00
   37    4    8      0.17      0.00
   38    4    8      3.95      0.00
   39    4    8      0.33      0.00
   34    5    8     -2.40      0.00
   35    5    8     -2.57      0.00
   36    5    8     -1.42      0.00
   37    5    8     -2.63      0.00
   31    6    8      2.04      0.00
   32    6    8     -0.83      0.00
   33    6    8      2.18      0.00
   34    6    8     -0.05      0.00
   35    6    8      1.85      0.00
   27    7    8     -1.64      0.00
   28    7    8     -1.21      0.00
   29    7    8     -1.31      0.00
   30    7    8     -0.70      0.00
   31    7    8     -0.62      0.00
   32    7    8     -0.71      0.00
   22    8    8      4.10      0.00
   23    8    8     -0.06      0.00
   24    8    8      3.91      0.00
   25    8    8      0.33      0.00
   26    8    8      3.52      0.00
   27    8    8      0.11      0.00
   28    8    8      2.98      0.00
   15    9    8     -0.20      0.00
   16    9    8      0.58      0.00
   17    9    8     -0.32      0.00
   18    9    8     -0.12      0.00
   19    9    8     -0.55      0.00
   20    9    8     -0.96      0.00
   21    9    8     -0.83      0.00
   22    9    8     -1.27      0.00
    0   10    8      1.51      0.00
    1   10    8      0.36      0.00
    2   10    8      2.07      0.00
    3   10    8      0.78      0.00
    4   10    8      3.06      0.00
    5   10    8      0.70      0.00
    6   10    8      3.35      0.00
    7   10    8      0.34      0.00
    8   10    8      2.71      0.00
    9   10    8      0.07      0.00
   10   10    8      1.82      0.00
   11   10    8      0.01      0.00
   12   10    8      1.23      0.00
   13   10    8      0.13      0.00
   14   10    8      0.75      0.00
   38    1    9      1.44      0.00
   39    1    9      0.05      0.00
   40    1    9      1.44      0.00
   41    1    9     -0.06      0.00
   37    2    9     -0.02      0.00
   38    2    9     -0.42      0.00
   39    2    9      0.13      0.00
   40    2    9     -0.75      0.00
   36    3    9      1.32      0.00
   37    3    9     -0.37      0.00
   38    3    9      0.87      0.00
   39    3    9     -0.12      0.00
   34    4    9     -0.44      0.00
   35    4    9     -2.75      0.00
   36    4    9      0.56      0.00
   37    4    9     -1.95      0.00
   38    4    9      1.20      0.00
   32    5    9      1.72      0.00
   33    5    9      0.42      0.00
   34    5    9      1.43      0.00
   35    5    9      0.18      0.00
   36    5    9      0.66      0.00
   29    6    9     -0.25      0.00
   30    6    9     -1.16      0.00
   31    6    9      0.43      0.00
   32    6    9     -0.63      0.00
   33    6    9      0.71      0.00
   34    6    9     -0.05      0.00
   26    7    9     -0.66      0.00
   27    7    9      3.02      0.00
   28    7    9     -1.22      0.00
   29    7    9      2.10      0.00
   30    7    9     -1.40      0.00
   20    8    9      2.95      0.00
   21    8    9     -0.50      0.00
   22    8    9      2.39      0.00
   23    8    9      0.55      0.00
   24    8    9      1.11      0.00
   25    8    9      1.52      0.00
   26    8    9      0.07      0.00
   11    9    9      2.48      0.00
   12    9    9      1.63      0.00
   13    9    9      1.68      0.00
   14    9    9      1.11      0.00
   15    9    9      0.29      0.00
   16    9    9      0.71      0.00
   17    9    9     -1.70      0.00
   18    9    9      0.74      0.00
   19    9    9     -3.21      0.00
   20    9    9      0.83      0.00
    0   10    9     -0.29      0.00
    1   10    9      0.24      0.00
    2   10    9     -0.69      0.00
    3   10    9      0.68      0.00
    4   10    9     -1.42      0.00
    5   10    9      0.89      0.00
    6   10    9     -1.67      0.00
    7   10    9      0.72      0.00
    8   10    9     -1.32      0.00
    9   10    9      0.19      0.00
   10   10    9     -0.89      0.00
   11   10    9     -0.36      0.00
   37    0   10      3.54      0.00
   38    0   10     -2.55      0.00
   39    0   10      2.40      0.00
   40    0   10     -1.75      0.00
   36    1   10     -2.74      0.00
   37    1   10      2.14      0.00
   38    1   10     -1.66      0.00
   39    1   10      1.30      0.00
   40    1   10     -0.49      0.00
   36    2   10     -0.51      0.00
   37    2   10      0.96      0.00
   38    2   10     -0.64      0.00
   39    2   10      0.39      0.00
   35    3   10     -1.45      0.00
   36    3   10     -1.48      0.00
   37    3   10     -0.48      0.00
   38    3   10     -1.19      0.00
   33    4   10      2.42      0.00
   34    4   10      2.42      0.00
   35    4   10      1.56      0.00
   36    4   10      1.68      0.00
   37    4   10      0.67      0.00
   31    5   10     -0.73      0.00
   32    5   10      0.90      0.00
   33    5   10     -0.75      0.00
   34    5   10      0.71      0.00
   35    5   10     -0.71      0.00
   28    6   10      0.22      0.00
   29    6   10     -2.79      0.00
   30    6   10     -0.59      0.00
   31    6   10     -2.43      0.00
   32    6   10     -0.98      0.00
   23    7   10      2.88      0.00
   24    7   10      3.49      0.00
   25    7   10      1.79      0.00
   26    7   10      3.13      0.00
   27    7   10      0.72      0.00
   28    7   10      2.32      0.00
   29    7   10      0.33      0.00
   17    8   10     -3.15      0.00
   18    8   10     -1.37      0.00
   19    8   10     -3.22      0.00
   20    8   10     -2.46      0.00
   21    8   10     -2.60      0.00
   22    8   10     -2.65      0.00
   23    8   10     -1.85      0.00
   24    8   10     -1.92      0.00
    2    9   10      2.18      0.00
    3    9   10      0.17      0.00
    4    9   10      3.25      0.00
    5    9   10     -0.16      0.00
    6    9   10      3.09      0.00
    7    9   10     -0.47      0.00
    8    9   10      2.40      0.00
    9    9   10     -0.73      0.00
   10    9   10      1.92      0.00
   11    9   10     -0.87      0.00
   12    9   10      1.87      0.00
   13    9   10     -0.71      0.00
   14    9   10      2.01      0.00
   15    9   10     -0.23      0.00
   16    9   10      2.04      0.00
   17    9   10      0.24      0.00
   18    9   10      1.78      0.00
    0   10   10     -1.35      0.00
    1   10   10     -0.82      0.00
    2   10   10     -1.30      0.00
    3   10   10     -1.90      0.00
    4   10   10     -1.08      0.00
   35    1   11      4.28      0.00
   36    1   11     -1.62      0.00
   37    1   11      2.97      0.00
   38    1   11     -1.01      0.00
   34    2   11     -2.86      0.00
   35    2   11      0.06      0.00
   36    2   11     -2.92      0.00
   37    2   11      0.48      0.00
   38    2   11     -1.97      0.00
   33    3   11      2.19      0.00
   34    3   11      1.37      0.00
   35    3   11      1.88      0.00
   36    3   11      0.60      0.00
   37    3   11      1.37      0.00
   31    4   11      2.50      0.00
   32    4   11     -0.59      0.00
   33    4   11      1.67      0.00
   34    4   11     -0.34      0.00
   35    4   11      0.85      0.00
   29    5   11     -3.05      0.00
   30    5   11     -3.72      0.00
   31    5   11     -2.70      0.00
   32    5   11     -2.97      0.00
   33    5   11     -1.73      0.00
   25    6   11      1.05      0.00
   26    6   11      0.81      0.00
   27    6   11      0.69      0.00
   28    6   11      1.08      0.00
   29    6   11      0.72      0.00
   30    6   11      1.05      0.00
   21    7   11     -0.18      0.00
   22    7   11     -1.64      0.00
   23    7   11     -0.19      0.00
   24    7   11     -0.54      0.00
   25    7   11     -0.03      0.00
   26    7   11      0.44      0.00
   27    7   11      0.04      0.00
   13    8   11      2.67      0.00
   14    8   11     -1.90      0.00
   15    8   11      1.50      0.00
   16    8   11     -1.33      0.00
   17    8   11      0.04      0.00
   18    8   11     -1.11      0.00
   19    8   11     -0.62      0.00
   20    8   11     -1.33      0.00
   21    8   11     -0.42      0.00
   22    8   11     -1.52      0.00
    1    9   11     -0.48      0.00
    2    9   11     -1.18      0.00
    3    9   11      0.08      0.00
    4    9   11     -1.26      0.00
    5    9   11      0.99      0.00
    6    9   11     -0.57      0.00
    7    9   11      1.93      0.00
    8    9   11     -0.29      0.00
    9    9   11      2.59      0.00
   10    9   11     -0.79      0.00
   11    9   11      2.66      0.00
   12    9   11     -1.20      0.00
   13    9   11      2.03      0.00
   14    9   11     -0.72      0.00
   33    0   12      2.33      0.00
   34    0   12      5.91      0.00
   35    0   12      0.41      0.00
   36    0   12      5.06      0.00
   37    0   12     -0.34      0.00
   33    1   12     -1.52      0.00
   34    1   12     -2.13      0.00
   35    1   12     -1.82      0.00
   36    1   12     -1.02      0.00
   37    1   12     -1.42      0.00
   32    2   12     -0.41      0.00
   33    2   12     -0.11      0.00
   34    2   12     -1.04      0.00
   35    2   12      0.79      0.00
   36    2   12     -0.93      0.00
   31    3   12      0.30      0.00
   32    3   12      4.60      0.00
   33    3   12      0.57      0.00
   34    3   12      2.55      0.00
   35    3   12      0.65      0.00
   29    4   12     -4.27      0.00
   30    4   12     -4.08      0.00
   31    4   12     -3.77      0.00
   32    4   12     -2.72      0.00
   33    4   12     -2.42      0.00
   26    5   12      0.42      0.00
   27    5   12      1.80      0.00
   28    5   12      0.67      0.00
   29    5   12      2.11      0.00
   30    5   12      0.75      0.00
   31    5   12      1.69      0.00
   23    6   12     -0.24      0.00
   24    6   12      0.53      0.00
   25    6   12      0.45      0.00
   26    6   12      0.73      0.00
   27    6   12      0.79      0.00
   28    6   12      0.46      0.00
   17    7   12     -2.86      0.00
   18    7   12     -1.14      0.00
   19    7   12     -1.30      0.00
   20    7   12     -1.02      0.00
   21    7   12     -0.27      0.00
   22    7   12     -0.14      0.00
   23    7   12     -0.09      0.00
   24    7   12      0.58      0.00
    7    8   12      0.69      0.00
    8    8   12      0.38      0.00
    9    8   12      0.57      0.00
   10    8   12      1.35      0.00
   11    8   12      0.04      0.00
   12    8   12      2.16      0.00
   13    8   12     -0.18      0.00
   14    8   12      2.49      0.00
   15    8   12      0.24      0.00
   16    8   12      2.11      0.00
   17    8   12      0.78      0.00
   18    8   12      1.21      0.00
   19    8   12      0.76      0.00
    1    9   12      0.85      0.00
    2    9   12      0.00      0.00
    3    9   12      1.29      0.00
    4    9   12     -0.22      0.00
    5    9   12      1.58      0.00
    6    9   12     -0.63      0.00
    7    9   12      1.25      0.00
    8    9   12     -1.04      0.00
    9    9   12      0.44      0.00
   31    1   13     -0.33      0.00
   32    1   13     -4.54      0.00
   33    1   13     -1.09      0.00
   34    1   13     -2.17      0.00
   35    1   13     -1.60      0.00
   30    2   13      0.25      0.00
   31    2   13      5.19      0.00
   32    2   13      0.00      0.00
   33    2   13      4.10      0.00
   34    2   13     -0.15      0.00
   29    3   13     -1.03      0.00
   30    3   13     -1.23      0.00
   31    3   13     -0.35      0.00
   32    3   13     -1.03      0.00
   33    3   13      0.15      0.00
   27    4   13      0.30      0.00
   28    4   13     -1.25      0.00
   29    4   13     -0.11      0.00
   30    4   13     -1.10      0.00
   31    4   13     -0.45      0.00
   24    5   13      0.52      0.00
   25    5   13      3.26      0.00
   26    5   13      0.80      0.00
   27    5   13      3.17      0.00
   28    5   13      0.65      0.00
   29    5   13      2.29      0.00
   19    6   13     -0.22      0.00
   20    6   13     -1.13      0.00
   21    6   13     -0.31      0.00
   22    6   13     -1.01      0.00
   23    6   13     -0.39      0.00
   24    6   13     -1.40      0.00
   25    6   13     -0.41      0.00
   26    6   13     -1.81      0.00
   13    7   13      2.31      0.00
   14    7   13      1.98      0.00
   15    7   13      1.98      0.00
   16    7   13      2.27      0.00
   17    7   13      1.62      0.00
   18    7   13      1.94      0.00
   19    7   13      1.18      0.00
   20    7   13      1.26      0.00
   21    7   13      0.64      0.00
    0    8   13     -1.47      0.00
    1    8   13      0.64      0.00
    2    8   13     -1.00      0.00
    3    8   13      1.54      0.00
    4    8   13     -0.20      0.00
    5    8   13      1.60      0.00
    6    8   13      0.00      0.00
    7    8   13      0.85      0.00
    8    8   13     -0.46      0.00
    9    8   13     -0.26      0.00
   10    8   13     -0.70      0.00
   11    8   13     -1.26      0.00
   12    8   13     -0.14      0.00
   13    8   13     -1.76      0.00
   14    8   13      0.69      0.00
   15    8   13     -1.59      0.00
   29    0   14     -3.15      0.00
   30    0   14     -0.03      0.00
   31    0   14     -4.15      0.00
   32    0   14      1.02      0.00
   33    0   14     -3.20      0.00
   28    1   14      0.88      0.00
   29    1   14      1.48      0.00
   30    1   14      1.74      0.00
   31    1   14      0.71      0.00
   32    1   14      1.76      0.00
   33    1   14     -0.19      0.00
   27    2   14      0.28      0.00
   28    2   14     -1.18      0.00
   29    2   14      0.78      0.00
   30    2   14     -1.06      0.00
   31    2   14      1.02      0.00
   32    2   14     -0.84      0.00
   26    3   14      0.27      0.00
   27    3   14     -0.16      0.00
   28    3   14     -0.04      0.00
   29    3   14     -0.58      0.00
   30    3   14     -0.35      0.00
   31    3   14     -0.04      0.00
   24    4   14      1.35      0.00
   25    4   14      0.90      0.00
   26    4   14      1.23      0.00
   27    4   14      0.10      0.00
   28    4   14      0.58      0.00
   29    4   14     -0.35      0.00
   20    5   14     -1.97      0.00
   21    5   14     -1.35      0.00
   22    5   14     -1.96      0.00
   23    5   14     -1.32      0.00
   24    5   14     -1.49      0.00
   25    5   14     -0.96      0.00
   26    5   14     -0.94      0.00
   15    6   14      0.64      0.00
   16    6   14      2.03      0.00
   17    6   14      1.56      0.00
   18    6   14      0.94      0.00
   19    6   14      1.64      0.00
   20    6   14      0.33      0.00
   21    6   14      1.09      0.00
   22    6   14      0.12      0.00
   23    6   14      0.55      0.00
    2    7   14      1.46      0.00
    3    7   14     -0.17      0.00
    4    7   14      2.18      0.00
    5    7   14     -0.66      0.00
    6    7   14      2.09      0.00
    7    7   14     -1.38      0.00
    8    7   14      1.68      0.00
    9    7   14     -1.82      0.00
   10    7   14      1.30      0.00
   11    7   14     -1.46      0.00
   12    7   14      0.80      0.00
   13    7   14     -0.30      0.00
   14    7   14     -0.02      0.00
   15    7   14      0.92      0.00
   16    7   14     -0.88      0.00
   17    7   14      1.42      0.00
   18    7   14     -1.22      0.00
    0    8   14      1.93      0.00
    1    8   14     -0.23      0.00
    2    8   14      1.67      0.00
    3    8   14     -0.55      0.00
    4    8   14      1.11      0.00
    5    8   14     -0.60      0.00
    6    8   14      0.71      0.00
    7    8   14     -0.54      0.00
    8    8   14      0.53      0.00
    9    8   14     -0.63      0.00
   25    1   15      0.22      0.00
   26    1   15     -1.27      0.00
   27    1   15      0.64      0.00
   28    1   15     -0.83      0.00
   29    1   15      0.26      0.00
   30    1   15      0.01      0.00
   24    2   15     -0.27      0.00
   25    2   15      0.04      0.00
   26    2   15     -1.20      0.00
   27    2   15      0.25      0.00
   28    2   15     -1.54      0.00
   29    2   15      0.42      0.00
   23    3   15      1.48      0.00
   24    3   15      1.59      0.00
   25    3   15      1.52      0.00
   26    3   15      0.48      0.00
   27    3   15      1.24      0.00
   28    3   15     -0.20      0.00
   20    4   15     -2.11      0.00
   21    4   15     -1.18      0.00
   22    4   15     -1.98      0.00
   23    4   15     -0.65      0.00
   24    4   15     -1.68      0.00
   25    4   15     -0.09      0.00
   26    4   15     -1.05      0.00
   16    5   15     -1.57      0.00
   17    5   15      2.15      0.00
   18    5   15     -1.84      0.00
   19    5   15      1.21      0.00
   20    5   15     -1.79      0.00
   21    5   15      0.81      0.00
   22    5   15     -1.43      0.00
   23    5   15      0.83      0.00
    8    6   15     -0.98      0.00
    9    6   15      2.51      0.00
   10    6   15     -1.09      0.00
   11    6   15      1.48      0.00
   12    6   15     -0.98      0.00
   13    6   15      0.73      0.00
   14    6   15     -0.64      0.00
   15    6   15      0.42      0.00
   16    6   15     -0.08      0.00
   17    6   15      0.33      0.00
   18    6   15      0.40      0.00
   19    6   15      0.29      0.00
    1    7   15     -0.18      0.00
    2    7   15     -0.61      0.00
    3    7   15     -0.17      0.00
    4    7   15     -1.19      0.00
    5    7   15     -0.30      0.00
    6    7   15     -1.49      0.00
    7    7   15     -0.68      0.00
    8    7   15     -1.29      0.00
    9    7   15     -1.21      0.00
   10    7   15     -0.76      0.00
   11    7   15     -1.57      0.00
   12    7   15     -0.32      0.00
   13    7   15     -1.51      0.00
   22    0   16      0.91      0.00
   23    0   16      0.40      0.00
   24    0   16      1.05      0.00
   25    0   16     -0.02      0.00
   26    0   16      1.55      0.00
   27    0   16     -0.66      0.00
   28    0   16      1.77      0.00
   22    1   16     -0.61      0.00
   23    1   16     -1.54      0.00
   24    1   16     -0.78      0.00
   25    1   16     -1.68      0.00
   26    1   16     -0.44      0.00
   27    1   16     -1.65      0.00
   21    2   16      1.40      0.00
   22    2   16      0.85      0.00
   23    2   16      1.46      0.00
   24    2   16      1.00      0.00
   25    2   16      1.13      0.00
   26    2   16      0.84      0.00
   27    2   16      0.73      0.00
   19    3   16      0.13      0.00
   20    3   16      0.03      0.00
   21    3   16      0.29      0.00
   22    3   16      0.04      0.00
   23    3   16      0.13      0.00
   24    3   16      0.20      0.00
   25    3   16      0.04      0.00
   15    4   16     -1.69      0.00
   16    4   16      0.74      0.00
   17    4   16     -2.29      0.00
   18    4   16     -0.09      0.00
   19    4   16     -2.48      0.00
   20    4   16     -0.03      0.00
   21    4   16     -2.08      0.00
   22    4   16      0.36      0.00
   23    4   16     -1.37      0.00
    9    5   16     -4.24      0.00
   10    5   16      2.45      0.00
   11    5   16     -3.39      0.00
   12    5   16      1.33      0.00
   13    5   16     -2.06      0.00
   14    5   16      0.51      0.00
   15    5   16     -0.85      0.00
   16    5   16      0.28      0.00
   17    5   16     -0.22      0.00
   18    5   16      0.36      0.00
   19    5   16     -0.19      0.00
    0    6   16      2.29      0.00
    1    6   16     -0.10      0.00
    2    6   16      2.20      0.00
    3    6   16     -0.36      0.00
    4    6   16      1.93      0.00
    5    6   16     -0.72      0.00
    6    6   16      1.53      0.00
    7    6   16     -0.96      0.00
    8    6   16      0.98      0.00
    9    6   16     -0.77      0.00
   10    6   16      0.30      0.00
   11    6   16     -0.06      0.00
   12    6   16     -0.34      0.00
   13    6   16      0.78      0.00
   14    6   16     -0.65      0.00
    1    7   16     -2.40      0.00
    2    7   16     -0.04      0.00
   17    1   17     -0.66      0.00
   18    1   17     -1.12      0.00
   19    1   17     -0.57      0.00
   20    1   17     -0.81      0.00
   21    1   17     -0.22      0.00
   22    1   17     -0.61      0.00
   23    1   17      0.09      0.00
   24    1   17     -0.57      0.00
   16    2   17     -0.24      0.00
   17    2   17      0.87      0.00
   18    2   17      0.68      0.00
   19    2   17      0.83      0.00
   20    2   17      1.24      0.00
   21    2   17      0.53      0.00
   22    2   17      1.16      0.00
   23    2   17      0.40      0.00
   13    3   17      1.03      0.00
   14    3   17     -2.06      0.00
   15    3   17      0.57      0.00
   16    3   17     -1.39      0.00
   17    3   17     -0.23      0.00
   18    3   17     -0.81      0.00
   19    3   17     -0.68      0.00
   20    3   17     -0.49      0.00
   21    3   17     -0.45      0.00
    6    4   17      1.38      0.00
    7    4   17      0.98      0.00
    8    4   17      0.88      0.00
    9    4   17      2.04      0.00
   10    4   17      0.35      0.00
   11    4   17      2.34      0.00
   12    4   17     -0.21      0.00
   13    4   17      1.67      0.00
   14    4   17     -0.51      0.00
   15    4   17      0.56      0.00
   16    4   17     -0.45      0.00
   17    4   17     -0.19      0.00
   18    4   17     -0.32      0.00
   19    4   17     -0.26      0.00
    1    5   17      1.06      0.00
    2    5   17      0.87      0.00
    3    5   17      0.71      0.00
    4    5   17      1.53      0.00
    5    5   17     -0.08      0.00
    6    5   17      1.75      0.00
    7    5   17     -1.07      0.00
    8    5   17      1.45      0.00
    9    5   17     -1.65      0.00
   10    5   17      0.94      0.00
   11    5   17     -1.42      0.00
   12    5   17      0.69      0.00
   13    5   17     -0.65      0.00
   14    5   17      0.75      0.00
    0    6   17     -0.21      0.00
    1    6   17      0.05      0.00
    2    6   17     -0.01      0.00
    3    6   17     -0.04      0.00
    4    6   17      0.57      0.00
    5    6   17     -0.38      0.00
    6    6   17      1.29      0.00
   11    0   18      2.29      0.00
   12    0   18     -2.14      0.00
   13    0   18      1.42      0.00
   14    0   18     -2.05      0.00
   15    0   18      0.14      0.00
   16    0   18     -1.40      0.00
   17    0   18     -0.63      0.00
   18    0   18     -0.76      0.00
   19    0   18     -0.65      0.00
   20    0   18     -0.27      0.00
   10    1   18     -0.88      0.00
   11    1   18     -0.03      0.00
   12    1   18     -1.20      0.00
   13    1   18     -0.12      0.00
   14    1   18     -0.74      0.00
   15    1   18     -0.26      0.00
   16    1   18      0.03      0.00
   17    1   18     -0.16      0.00
   18    1   18      0.37      0.00
   19    1   18      0.07      0.00
   20    1   18      0.17      0.00
    7    2   18     -3.10      0.00
    8    2   18     -1.31      0.00
    9    2   18     -3.31      0.00
   10    2   18      0.71      0.00
   11    2   18     -2.55      0.00
   12    2   18      2.24      0.00
   13    2   18     -1.44      0.00
   14    2   18      2.71      0.00
   15    2   18     -0.59      0.00
   16    2   18      1.97      0.00
   17    2   18     -0.08      0.00
   18    2   18      0.68      0.00
   19    2   18      0.31      0.00
    1    3   18      2.07      0.00
    2    3   18      0.12      0.00
    3    3   18      2.00      0.00
    4    3   18      0.79      0.00
    5    3   18      1.86      0.00
    6    3   18      1.93      0.00
    7    3   18      1.44      0.00
    8    3   18      2.90      0.00
    9    3   18      0.46      0.00
   10    3   18      2.97      0.00
   11    3   18     -0.91      0.00
   12    3   18      2.07      0.00
   13    3   18     -1.89      0.00
   14    3   18      0.78      0.00
   15    3   18     -1.79      0.00
   16    3   18     -0.16      0.00
    0    4   18      3.83      0.00
    1    4   18     -0.17      0.00
    2    4   18      3.57      0.00
    3    4   18     -0.53      0.00
    4    4   18      2.82      0.00
    5    4   18     -0.82      0.00
    6    4   18      1.69      0.00
    7    4   18     -0.84      0.00
    8    4   18      0.61      0.00
    9    4   18     -0.48      0.00
   10    4   18      0.04      0.00
   11    4   18      0.16      0.00
   12    4   18      0.07      0.00
   13    4   18      0.64      0.00
    1    5   18     -0.30      0.00
    2    5   18      0.90      0.00
    3    5   18     -0.38      0.00
    4    5   18      1.36      0.00
    5    5   18     -0.38      0.00
    1    1   19     -2.32      0.00
    2    1   19     -0.48      0.00
    3    1   19     -2.17      0.00
    4    1   19     -0.72      0.00
    5    1   19     -1.62      0.00
    6    1   19     -0.72      0.00
    7    1   19     -0.52      0.00
    8    1   19     -0.59      0.00
    9    1   19      0.91      0.00
   10    1   19     -0.45      0.00
   11    1   19      2.05      0.00
   12    1   19     -0.30      0.00
   13    1   19      2.32      0.00
   14    1   19     -0.17      0.00
    0    2   19     -2.19      0.00
    1    2   19      0.49      0.00
    2    2   19     -1.74      0.00
    3    2   19      1.11      0.00
    4    2   19     -0.77      0.00
    5    2   19      1.13      0.00
    6    2   19     -0.09      0.00
    7    2   19      0.86      0.00
    8    2   19     -0.25      0.00
    9    2   19      0.71      0.00
   10    2   19     -1.04      0.00
   11    2   19      0.72      0.00
   12    2   19     -1.66      0.00
    1    3   19      4.59      0.00
    2    3   19     -0.94      0.00
    3    3   19      3.92      0.00
    4    3   19     -1.25      0.00
    5    3   19      2.97      0.00
    6    3   19     -0.98      0.00
    7    3   19      2.10      0.00
    8    3   19     -0.61      0.00
    9    3   19      1.37      0.00
    0    0    0      0.00      0.00
# SQUEEZE RESULTS (Version = 101019)
# Note: Data are Listed for all Voids in the P1 Unit Cell
# i.e. Centre of Gravity, Solvent Accessible Volume,
# Recovered number of Electrons in the Void and
# Details about the Squeezed Material
loop_
  _platon_squeeze_void_nr
  _platon_squeeze_void_average_x
  _platon_squeeze_void_average_y
  _platon_squeeze_void_average_z
  _platon_squeeze_void_volume
  _platon_squeeze_void_count_electrons
  _platon_squeeze_void_content
   1  0.500  0.000  0.004       355        93 ' '
   2  0.000  0.500  0.259       355        93 ' '
# Missing Reflections Below sin(th)/lambda = 0.25
loop_
  _platon_missing_refln_index_h
  _platon_missing_refln_index_k
  _platon_missing_refln_index_l
  _platon_missing_refln_theta
    2    0    0     1.142
_platon_squeeze_void_probe_radius                  1.20
_platon_squeeze_details
)
TITL mo_k18_JD_419_0ma_a.res in Pbcn
CELL   35.6630    8.8757   15.3809     90.00     90.00     90.00
SPGR Pbcn
# Solvent Accessible Volume =       707
# Electrons Found in S.A.V. =       185
# Note: Atoms in Void are Labelled as Cxxx and Qxxx for all Others
C101 0.512 0.872 0.189 !       4.06 eA-3
C102 0.961 0.341 0.130 !       3.70 eA-3
C103 0.487 0.801 0.256 !       3.59 eA-3
C104 0.495 0.865 0.401 !       2.76 eA-3
C105 0.030 0.405 0.423 !       1.21 eA-3
C106 0.037 0.325 0.317 !       1.17 eA-3
Q107 0.460 0.279 0.868 !       1.02 eA-3
C108 0.045 0.411 0.294 !       0.97 eA-3
C109 0.500 1.000 0.247 !       0.88 eA-3
Q110 0.955 0.376 0.374 !       0.80 eA-3
C111 0.537 0.763 0.219 !       0.78 eA-3
Q112 0.988 0.507 0.059 !       0.77 eA-3
Q113 0.102 0.773 0.373 !       0.73 eA-3
Q114 0.451 1.000 0.832 !       0.72 eA-3
C115 0.469 0.938 0.485 !       0.70 eA-3
Q116 0.064 0.530 0.406 !       0.70 eA-3
Q117 0.438 0.959 0.483 !       0.69 eA-3
Q118 0.115 0.724 0.076 !       0.67 eA-3
C119 0.501 0.099 0.534 !       0.67 eA-3
Q120 0.969 0.837-0.006 !       0.66 eA-3
Q121 0.516 0.370 0.707 !       0.65 eA-3
C122 0.530 0.216 0.893 !       0.64 eA-3
Q123 0.517 0.124 0.036 !       0.64 eA-3
Q124 0.867 1.007 0.123 !       0.63 eA-3
Q125 0.437 0.340 0.363 !       0.62 eA-3
C126 0.472 0.155 0.671 !       0.62 eA-3
Q127 0.448 0.220 0.562 !       0.62 eA-3
Q128 0.047 0.192 0.108 !       0.61 eA-3
Q129 0.029 0.215 0.506 !       0.61 eA-3
Q130 0.408 0.154 0.858 !       0.60 eA-3
Q131 0.473 0.156 0.540 !       0.59 eA-3
Q132 0.417 0.627 0.214 !       0.58 eA-3
Q133 0.216 0.444 0.452 !       0.58 eA-3
Q134 0.945 0.064 0.424 !       0.58 eA-3
Q135 0.461 0.033 0.448 !       0.57 eA-3
Q136 0.561 0.378 0.331 !       0.57 eA-3
Q137 0.101 0.459 0.378 !       0.57 eA-3
Q138 0.515 0.720 0.649 !       0.57 eA-3
Q139 0.349 0.716 0.142 !       0.56 eA-3
Q140 0.296 0.772 0.484 !       0.56 eA-3
Q141 0.655 0.970 0.904 !       0.56 eA-3
Q142 0.461 0.070 0.171 !       0.55 eA-3
Q143 0.130 0.721 0.346 !       0.55 eA-3
Q144 0.190 0.342 0.074 !       0.55 eA-3
Q145 0.038 0.470 0.076 !       0.55 eA-3
Q146 0.968 0.130 0.079 !       0.55 eA-3
Q147 0.900 0.779 0.474 !       0.54 eA-3
Q148 0.586 0.900 0.594 !       0.54 eA-3
Q149 0.509 0.248 0.571 !       0.54 eA-3
Q150 0.480 0.312 0.625 !       0.54 eA-3
Q151 0.436 0.871 0.124 !       0.54 eA-3
Q152 0.720 0.840 0.829 !       0.54 eA-3
Q153 0.446 0.877 0.876 !       0.54 eA-3
Q154 0.431 0.753 0.468 !       0.54 eA-3
Q155 0.227 0.681 0.966 !       0.53 eA-3
Q156 0.319 0.882 0.749 !       0.53 eA-3
Q157 0.569 0.343 0.078 !       0.52 eA-3
Q158 0.173 0.563 0.608 !       0.52 eA-3
Q159 0.509 0.093 0.217 !       0.52 eA-3
Q160 0.588 0.221 0.192 !       0.52 eA-3
Q161 0.438 0.215 0.326 !       0.52 eA-3
Q162 0.687 0.503 0.359 !       0.51 eA-3
Q163 0.049 0.491 0.751 !       0.51 eA-3
Q164 0.397 0.410 0.401 !       0.51 eA-3
Q165 1.000 0.965 0.813 !       0.51 eA-3
Q166 0.552 0.341 0.780 !       0.51 eA-3
Q167 0.610 0.400 0.004 !       0.51 eA-3
Q168 0.354 0.560 0.237 !       0.51 eA-3
Q169 0.186 0.754 0.371 !       0.50 eA-3
Q170 0.056 0.786 0.825 !       0.50 eA-3
Q171 0.502 0.565 0.535 !       0.50 eA-3
)
;
_shelx_fab_checksum              11541
loop_
_space_group_symop_operation_xyz
'x, y, z'
'-x+1/2, -y+1/2, z+1/2'
'-x, y, -z+1/2'
'x+1/2, -y+1/2, -z'
'-x, -y, -z'
'x-1/2, y-1/2, -z-1/2'
'x, -y, z-1/2'
'-x-1/2, y-1/2, z'
loop_
_atom_site_label
_atom_site_type_symbol
_atom_site_fract_x
_atom_site_fract_y
_atom_site_fract_z
_atom_site_U_iso_or_equiv
_atom_site_adp_type
_atom_site_occupancy
_atom_site_site_symmetry_order
_atom_site_calc_flag
_atom_site_refinement_flags_posn
_atom_site_refinement_flags_adp
_atom_site_refinement_flags_occupancy
_atom_site_disorder_assembly
_atom_site_disorder_group
Fe01 Fe 0.36048(2) 0.31551(5) 0.22644(3) 0.01172(12) Uani 1 1 d . . . . .
F1 F 0.46007(6) 0.4694(3) 0.33357(17) 0.0558(7) Uani 1 1 d . . . . .
O1 O 0.41678(8) 0.1701(3) 0.46935(17) 0.0516(8) Uani 1 1 d . . . . .
S1 S 0.41178(2) 0.29034(11) 0.41001(5) 0.0248(2) Uani 1 1 d . . . . .
C1 C 0.31702(9) 0.5577(4) 0.3270(2) 0.0225(8) Uani 1 1 d . . . . .
H1A H 0.309531 0.662548 0.336938 0.034 Uiso 1 1 calc R U . . .
H1B H 0.331977 0.522135 0.376330 0.034 Uiso 1 1 calc R U . . .
H1C H 0.294587 0.494792 0.321003 0.034 Uiso 1 1 calc R U . . .
N1 N 0.33972(7) 0.5482(3) 0.24607(16) 0.0151(6) Uani 1 1 d . . . . .
S2 S 0.30971(2) 0.04912(9) 0.33104(5) 0.01594(19) Uani 1 1 d . . . . .
F2 F 0.47952(6) 0.2449(3) 0.35105(15) 0.0499(7) Uani 1 1 d . . . . .
O2 O 0.39390(7) 0.4234(3) 0.44269(17) 0.0451(8) Uani 1 1 d . . . . .
C2 C 0.27966(9) 0.2934(4) 0.1407(2) 0.0231(8) Uani 1 1 d . . . . .
H2A H 0.263718 0.310368 0.089690 0.035 Uiso 1 1 calc R U . . .
H2B H 0.271163 0.357675 0.188596 0.035 Uiso 1 1 calc R U . . .
H2C H 0.278046 0.187472 0.158192 0.035 Uiso 1 1 calc R U . . .
N2 N 0.31907(7) 0.3309(3) 0.11874(16) 0.0158(6) Uani 1 1 d . . . . .
C3 C 0.38944(10) 0.0231(4) 0.1487(2) 0.0260(9) Uani 1 1 d . . . . .
H3A H 0.363329 -0.011005 0.146422 0.039 Uiso 1 1 calc R U . . .
H3B H 0.399493 0.006108 0.207228 0.039 Uiso 1 1 calc R U . . .
H3C H 0.404363 -0.033426 0.106343 0.039 Uiso 1 1 calc R U . . .
N3 N 0.39117(7) 0.1853(3) 0.12803(16) 0.0165(6) Uani 1 1 d . . . . .
O3 O 0.39927(6) 0.2457(3) 0.32381(13) 0.0199(5) Uani 1 1 d . . . . .
F3 F 0.47717(6) 0.3932(3) 0.45961(14) 0.0534(7) Uani 1 1 d . . . . .
F4 F 0.30877(6) 0.1701(2) 0.48595(12) 0.0336(5) Uani 1 1 d . . . . .
O4 O 0.32254(6) 0.1939(2) 0.29718(14) 0.0195(5) Uani 1 1 d . . . . .
C4 C 0.31631(10) 0.5929(4) 0.1698(2) 0.0228(8) Uani 1 1 d . . . . .
H4A H 0.322702 0.697304 0.152753 0.027 Uiso 1 1 calc R U . . .
H4AB H 0.289536 0.591060 0.186747 0.027 Uiso 1 1 calc R U . . .
O5 O 0.33883(6) -0.0470(3) 0.36273(14) 0.0246(6) Uani 1 1 d . . . . .
F5 F 0.26733(5) -0.0023(2) 0.46635(12) 0.0298(5) Uani 1 1 d . . . . .
C5 C 0.32210(10) 0.4892(4) 0.0923(2) 0.0217(8) Uani 1 1 d . . . . .
H5A H 0.303032 0.511501 0.047337 0.026 Uiso 1 1 calc R U . . .
H5AB H 0.347171 0.507603 0.066801 0.026 Uiso 1 1 calc R U . . .
F6 F 0.25972(5) 0.2161(2) 0.40973(13) 0.0329(5) Uani 1 1 d . . . . .
O6 O 0.28125(7) -0.0196(3) 0.27852(15) 0.0289(6) Uani 1 1 d . . . . .
C6 C 0.33164(9) 0.2258(4) 0.0497(2) 0.0226(8) Uani 1 1 d . . . . .
H6A H 0.320979 0.258769 -0.006627 0.027 Uiso 1 1 calc R U . . .
H6AB H 0.321719 0.124002 0.062387 0.027 Uiso 1 1 calc R U . . .
C7 C 0.37365(10) 0.2171(4) 0.0416(2) 0.0245(8) Uani 1 1 d . . . . .
H7A H 0.380446 0.136369 0.000091 0.029 Uiso 1 1 calc R U . . .
H7AB H 0.383386 0.313675 0.018611 0.029 Uiso 1 1 calc R U . . .
O008 O 0.40530(6) 0.4603(2) 0.18098(14) 0.0197(5) Uani 1 1 d . . . . .
C8 C 0.43087(9) 0.2341(4) 0.1288(2) 0.0230(8) Uani 1 1 d . . . . .
H8A H 0.444087 0.189419 0.078366 0.028 Uiso 1 1 calc R U . . .
H8AB H 0.443144 0.197107 0.182410 0.028 Uiso 1 1 calc R U . . .
C9 C 0.43392(9) 0.4043(4) 0.1247(2) 0.0218(8) Uani 1 1 d . . . . .
H9A H 0.458955 0.437861 0.144720 0.026 Uiso 1 1 calc R U . . .
H9AB H 0.429971 0.440546 0.064541 0.026 Uiso 1 1 calc R U . . .
C10 C 0.40146(10) 0.6199(4) 0.1864(2) 0.0231(8) Uani 1 1 d . . . . .
H10A H 0.392602 0.661705 0.130340 0.028 Uiso 1 1 calc R U . . .
H10B H 0.425737 0.667372 0.201327 0.028 Uiso 1 1 calc R U . . .
C11 C 0.37310(9) 0.6470(4) 0.2568(2) 0.0223(8) Uani 1 1 d . . . . .
H11A H 0.384754 0.627480 0.314138 0.027 Uiso 1 1 calc R U . . .
H11B H 0.365093 0.753804 0.255375 0.027 Uiso 1 1 calc R U . . .
C12 C 0.45954(10) 0.3531(5) 0.3883(2) 0.0315(10) Uani 1 1 d . . . . .
C13 C 0.28509(9) 0.1120(4) 0.4281(2) 0.0204(8) Uani 1 1 d . . . . .
loop_
_atom_site_aniso_label
_atom_site_aniso_U_11
_atom_site_aniso_U_22
_atom_site_aniso_U_33
_atom_site_aniso_U_23
_atom_site_aniso_U_13
_atom_site_aniso_U_12
Fe01 0.0140(2) 0.0116(2) 0.0096(2) 0.0006(2) 0.00109(19) 0.0001(2)
F1 0.0477(15) 0.0525(17) 0.0673(17) 0.0154(14) -0.0079(13) -0.0257(13)
O1 0.0478(18) 0.072(2) 0.0353(16) 0.0325(16) -0.0153(14) -0.0169(16)
S1 0.0168(4) 0.0437(6) 0.0139(4) 0.0000(4) -0.0023(4) -0.0005(4)
C1 0.032(2) 0.018(2) 0.0172(18) -0.0027(15) 0.0079(16) 0.0024(16)
N1 0.0175(14) 0.0139(15) 0.0138(14) -0.0008(12) 0.0028(11) 0.0008(12)
S2 0.0191(4) 0.0152(5) 0.0135(4) 0.0002(4) 0.0023(4) -0.0020(4)
F2 0.0223(12) 0.0615(17) 0.0661(16) -0.0290(14) 0.0052(11) 0.0046(11)
O2 0.0288(15) 0.071(2) 0.0353(16) -0.0283(15) -0.0017(13) 0.0181(14)
C2 0.0156(17) 0.033(2) 0.0212(18) 0.0044(16) -0.0049(15) -0.0039(16)
N2 0.0186(15) 0.0155(16) 0.0133(14) -0.0011(12) 0.0006(11) 0.0005(12)
C3 0.039(2) 0.013(2) 0.027(2) 0.0001(16) 0.0036(17) 0.0033(17)
N3 0.0231(15) 0.0132(15) 0.0131(14) -0.0005(12) 0.0016(12) 0.0010(12)
O3 0.0209(12) 0.0264(14) 0.0126(12) 0.0018(10) -0.0023(10) -0.0011(10)
F3 0.0297(13) 0.090(2) 0.0408(14) -0.0286(14) -0.0103(11) -0.0073(13)
F4 0.0409(13) 0.0372(14) 0.0226(11) -0.0126(10) -0.0013(10) -0.0067(11)
O4 0.0180(12) 0.0189(13) 0.0215(12) 0.0067(11) 0.0018(10) -0.0048(10)
C4 0.029(2) 0.015(2) 0.0238(19) 0.0046(16) -0.0012(16) 0.0048(15)
O5 0.0269(13) 0.0198(14) 0.0270(14) 0.0046(11) 0.0044(11) 0.0090(11)
F5 0.0348(12) 0.0237(12) 0.0310(12) 0.0069(9) 0.0166(10) -0.0032(10)
C5 0.0272(19) 0.021(2) 0.0170(18) 0.0052(16) -0.0035(15) 0.0028(16)
F6 0.0310(12) 0.0265(13) 0.0412(13) 0.0056(10) 0.0092(10) 0.0124(10)
O6 0.0341(14) 0.0289(15) 0.0237(14) -0.0036(12) -0.0040(12) -0.0146(12)
C6 0.031(2) 0.024(2) 0.0128(17) -0.0040(15) -0.0032(15) 0.0016(16)
C7 0.035(2) 0.026(2) 0.0131(18) -0.0027(15) 0.0009(16) 0.0013(16)
O008 0.0188(12) 0.0153(13) 0.0249(13) -0.0002(10) 0.0098(10) -0.0012(10)
C8 0.0194(19) 0.024(2) 0.0254(19) -0.0025(16) 0.0086(15) 0.0039(16)
C9 0.0145(18) 0.030(2) 0.0205(19) -0.0019(17) 0.0070(15) 0.0031(16)
C10 0.029(2) 0.0114(19) 0.029(2) -0.0002(16) 0.0074(17) -0.0074(15)
C11 0.0261(19) 0.013(2) 0.028(2) -0.0009(15) 0.0018(16) -0.0020(14)
C12 0.025(2) 0.040(3) 0.030(2) -0.007(2) -0.0036(18) -0.0018(18)
C13 0.0221(19) 0.016(2) 0.0229(19) -0.0009(16) -0.0002(16) 0.0015(16)
loop_
_atom_type_symbol
_atom_type_description
_atom_type_scat_dispersion_real
_atom_type_scat_dispersion_imag
_atom_type_scat_source
C C 0.0033 0.0016 'International Tables Vol C Tables 4.2.6.8 and 6.1.1.4'
H H 0.0000 0.0000 'International Tables Vol C Tables 4.2.6.8 and 6.1.1.4'
N N 0.0061 0.0033 'International Tables Vol C Tables 4.2.6.8 and 6.1.1.4'
O O 0.0106 0.0060 'International Tables Vol C Tables 4.2.6.8 and 6.1.1.4'
F F 0.0171 0.0103 'International Tables Vol C Tables 4.2.6.8 and 6.1.1.4'
S S 0.1246 0.1234 'International Tables Vol C Tables 4.2.6.8 and 6.1.1.4'
Fe Fe 0.3463 0.8444 'International Tables Vol C Tables 4.2.6.8 and 6.1.1.4'
loop_
_geom_angle_atom_site_label_1
_geom_angle_atom_site_label_2
_geom_angle_atom_site_label_3
_geom_angle
_geom_angle_site_symmetry_1
_geom_angle_site_symmetry_3
_geom_angle_publ_flag
O4 Fe01 O3 84.37(8) . . ?
O4 Fe01 O008 166.67(9) . . ?
O3 Fe01 O008 85.44(8) . . ?
O4 Fe01 N3 114.75(10) . . ?
O3 Fe01 N3 90.45(9) . . ?
O008 Fe01 N3 73.87(9) . . ?
O4 Fe01 N1 101.46(9) . . ?
O3 Fe01 N1 113.11(9) . . ?
O008 Fe01 N1 74.78(9) . . ?
N3 Fe01 N1 138.69(10) . . ?
O4 Fe01 N2 89.39(9) . . ?
O3 Fe01 N2 166.58(9) . . ?
O008 Fe01 N2 102.30(9) . . ?
N3 Fe01 N2 81.37(9) . . ?
N1 Fe01 N2 79.76(9) . . ?
O1 S1 O2 116.82(18) . . ?
O1 S1 O3 114.90(16) . . ?
O2 S1 O3 114.07(15) . . ?
O1 S1 C12 103.36(18) . . ?
O2 S1 C12 103.19(18) . . ?
O3 S1 C12 101.71(15) . . ?
N1 C1 H1A 109.5 . . ?
N1 C1 H1B 109.5 . . ?
H1A C1 H1B 109.5 . . ?
N1 C1 H1C 109.5 . . ?
H1A C1 H1C 109.5 . . ?
H1B C1 H1C 109.5 . . ?
C1 N1 C11 108.0(2) . . ?
C1 N1 C4 109.7(2) . . ?
C11 N1 C4 112.2(3) . . ?
C1 N1 Fe01 110.45(19) . . ?
C11 N1 Fe01 107.33(19) . . ?
C4 N1 Fe01 109.12(18) . . ?
O5 S2 O6 116.93(15) . . ?
O5 S2 O4 114.76(13) . . ?
O6 S2 O4 113.30(14) . . ?
O5 S2 C13 104.71(15) . . ?
O6 S2 C13 104.54(15) . . ?
O4 S2 C13 100.01(14) . . ?
N2 C2 H2A 109.5 . . ?
N2 C2 H2B 109.5 . . ?
H2A C2 H2B 109.5 . . ?
N2 C2 H2C 109.5 . . ?
H2A C2 H2C 109.5 . . ?
H2B C2 H2C 109.5 . . ?
C5 N2 C6 112.4(3) . . ?
C5 N2 C2 110.4(3) . . ?
C6 N2 C2 108.0(2) . . ?
C5 N2 Fe01 102.49(19) . . ?
C6 N2 Fe01 107.10(19) . . ?
C2 N2 Fe01 116.51(19) . . ?
N3 C3 H3A 109.5 . . ?
N3 C3 H3B 109.5 . . ?
H3A C3 H3B 109.5 . . ?
N3 C3 H3C 109.5 . . ?
H3A C3 H3C 109.5 . . ?
H3B C3 H3C 109.5 . . ?
C3 N3 C8 108.9(3) . . ?
C3 N3 C7 111.0(3) . . ?
C8 N3 C7 110.6(3) . . ?
C3 N3 Fe01 110.10(19) . . ?
C8 N3 Fe01 108.51(19) . . ?
C7 N3 Fe01 107.76(19) . . ?
S1 O3 Fe01 139.53(14) . . ?
S2 O4 Fe01 149.55(15) . . ?
N1 C4 C5 112.3(3) . . ?
N1 C4 H4A 109.1 . . ?
C5 C4 H4A 109.1 . . ?
N1 C4 H4AB 109.1 . . ?
C5 C4 H4AB 109.1 . . ?
H4A C4 H4AB 107.9 . . ?
N2 C5 C4 110.6(3) . . ?
N2 C5 H5A 109.5 . . ?
C4 C5 H5A 109.5 . . ?
N2 C5 H5AB 109.5 . . ?
C4 C5 H5AB 109.5 . . ?
H5A C5 H5AB 108.1 . . ?
N2 C6 C7 113.1(3) . . ?
N2 C6 H6A 109.0 . . ?
C7 C6 H6A 109.0 . . ?
N2 C6 H6AB 109.0 . . ?
C7 C6 H6AB 109.0 . . ?
H6A C6 H6AB 107.8 . . ?
N3 C7 C6 110.6(3) . . ?
N3 C7 H7A 109.5 . . ?
C6 C7 H7A 109.5 . . ?
N3 C7 H7AB 109.5 . . ?
C6 C7 H7AB 109.5 . . ?
H7A C7 H7AB 108.1 . . ?
C10 O008 C9 116.7(2) . . ?
C10 O008 Fe01 119.99(18) . . ?
C9 O008 Fe01 121.10(19) . . ?
N3 C8 C9 111.1(3) . . ?
N3 C8 H8A 109.4 . . ?
C9 C8 H8A 109.4 . . ?
N3 C8 H8AB 109.4 . . ?
C9 C8 H8AB 109.4 . . ?
H8A C8 H8AB 108.0 . . ?
O008 C9 C8 105.7(3) . . ?
O008 C9 H9A 110.6 . . ?
C8 C9 H9A 110.6 . . ?
O008 C9 H9AB 110.6 . . ?
C8 C9 H9AB 110.6 . . ?
H9A C9 H9AB 108.7 . . ?
O008 C10 C11 105.4(3) . . ?
O008 C10 H10A 110.7 . . ?
C11 C10 H10A 110.7 . . ?
O008 C10 H10B 110.7 . . ?
C11 C10 H10B 110.7 . . ?
H10A C10 H10B 108.8 . . ?
N1 C11 C10 111.3(3) . . ?
N1 C11 H11A 109.4 . . ?
C10 C11 H11A 109.4 . . ?
N1 C11 H11B 109.4 . . ?
C10 C11 H11B 109.4 . . ?
H11A C11 H11B 108.0 . . ?
F3 C12 F2 107.4(3) . . ?
F3 C12 F1 108.1(3) . . ?
F2 C12 F1 106.3(3) . . ?
F3 C12 S1 112.1(3) . . ?
F2 C12 S1 111.1(3) . . ?
F1 C12 S1 111.5(3) . . ?
F6 C13 F4 107.8(3) . . ?
F6 C13 F5 107.5(3) . . ?
F4 C13 F5 107.5(3) . . ?
F6 C13 S2 111.7(2) . . ?
F4 C13 S2 111.2(2) . . ?
F5 C13 S2 111.0(2) . . ?
loop_
_geom_bond_atom_site_label_1
_geom_bond_atom_site_label_2
_geom_bond_distance
_geom_bond_site_symmetry_2
_geom_bond_publ_flag
Fe01 O4 2.045(2) . ?
Fe01 O3 2.131(2) . ?
Fe01 O008 2.167(2) . ?
Fe01 N3 2.196(3) . ?
Fe01 N1 2.214(3) . ?
Fe01 N2 2.223(3) . ?
F1 C12 1.331(4) . ?
O1 S1 1.415(3) . ?
S1 O2 1.434(3) . ?
S1 O3 1.454(2) . ?
S1 C12 1.823(4) . ?
C1 N1 1.487(4) . ?
C1 H1A 0.9800 . ?
C1 H1B 0.9800 . ?
C1 H1C 0.9800 . ?
N1 C11 1.488(4) . ?
N1 C4 1.494(4) . ?
S2 O5 1.430(2) . ?
S2 O6 1.433(2) . ?
S2 O4 1.460(2) . ?
S2 C13 1.819(3) . ?
F2 C12 1.326(4) . ?
C2 N2 1.483(4) . ?
C2 H2A 0.9800 . ?
C2 H2B 0.9800 . ?
C2 H2C 0.9800 . ?
N2 C5 1.467(4) . ?
N2 C6 1.483(4) . ?
C3 N3 1.476(4) . ?
C3 H3A 0.9800 . ?
C3 H3B 0.9800 . ?
C3 H3C 0.9800 . ?
N3 C8 1.480(4) . ?
N3 C7 1.496(4) . ?
F3 C12 1.314(4) . ?
F4 C13 1.331(4) . ?
C4 C5 1.519(5) . ?
C4 H4A 0.9900 . ?
C4 H4AB 0.9900 . ?
F5 C13 1.333(4) . ?
C5 H5A 0.9900 . ?
C5 H5AB 0.9900 . ?
F6 C13 1.323(4) . ?
C6 C7 1.505(5) . ?
C6 H6A 0.9900 . ?
C6 H6AB 0.9900 . ?
C7 H7A 0.9900 . ?
C7 H7AB 0.9900 . ?
O008 C10 1.425(4) . ?
O008 C9 1.428(4) . ?
C8 C9 1.516(5) . ?
C8 H8A 0.9900 . ?
C8 H8AB 0.9900 . ?
C9 H9A 0.9900 . ?
C9 H9AB 0.9900 . ?
C10 C11 1.502(4) . ?
C10 H10A 0.9900 . ?
C10 H10B 0.9900 . ?
C11 H11A 0.9900 . ?
C11 H11B 0.9900 . ?
